MODEL 1
REMARK VINA RESULT:     -10.7      0.000      0.000
REMARK SMILES CCC[C@@]1(C(=O)OCCOCCOCCOC(=O)c2ccc(-c3c4nc(c(-c5c(F)c(F)c(F)c(F)c5F)c5ccc([nH]5)c(-c5c(F)c(F)c(F)c(F)c5F)c5nc(c(-c6c(F)c(F)c(F)c(F)c6F)c6ccc3[nH]6)C=C5)C=C4)cc2)CCCN(C(=O)C[C@H]2CCCCO2)C1
REMARK SMILES IDX 11 1 10 2 9 3 8 4 7 5 5 6 6 7 4 8 82 9 95 10 83 11 85 12
REMARK SMILES IDX 84 13 3 14 2 15 1 16 86 17 87 18 88 19 89 20 90 21 94 22
REMARK SMILES IDX 91 23 93 24 92 25 12 26 13 27 14 28 15 29 16 30 17 31 18 32
REMARK SMILES IDX 19 33 20 34 81 35 21 36 80 37 22 38 23 39 24 40 74 41 25 42
REMARK SMILES IDX 79 43 73 44 75 45 26 46 78 47 72 48 71 49 27 51 59 52 39 53
REMARK SMILES IDX 58 54 40 55 43 56 57 57 76 58 41 59 42 60 56 62 77 63 44 64
REMARK SMILES IDX 28 65 29 66 37 67 30 68 31 69 35 70 38 71 32 72 33 73 36 74
REMARK SMILES IDX 34 75 60 76 61 77 69 78 62 79 63 80 67 81 70 82 64 83 65 84
REMARK SMILES IDX 68 85 66 86 45 87 46 88 54 89 47 90 48 91 52 92 55 93 49 94
REMARK SMILES IDX 50 95 53 96 51 97
REMARK H PARENT 75 50 43 61
REMARK Flexibility Score: inf
ROOT
ATOM      1  C   UNL A   1      34.359  30.877  27.642  1.00  0.00     0.188 C 
ENDROOT
BRANCH   1   2
ATOM      2  O   UNL A   1      32.961  30.625  27.566  1.00  0.00    -0.376 OA
BRANCH   2   3
ATOM      3  C   UNL A   1      32.354  30.236  26.343  1.00  0.00     0.202 C 
BRANCH   3   4
ATOM      4  C   UNL A   1      33.062  29.228  25.412  1.00  0.00     0.261 C 
BRANCH   4   5
ATOM      5  O   UNL A   1      33.332  27.902  25.919  1.00  0.00    -0.463 OA
BRANCH   5   6
ATOM      6  C   UNL A   1      32.247  27.086  25.945  1.00  0.00     0.313 C 
ATOM      7  O   UNL A   1      31.175  27.439  26.431  1.00  0.00    -0.252 OA
BRANCH   6   8
ATOM      8  C   UNL A   1      32.464  25.664  25.337  1.00  0.00     0.086 C 
ATOM      9  C   UNL A   1      33.760  25.777  24.470  1.00  0.00     0.022 C 
ATOM     10  C   UNL A   1      31.235  25.376  24.467  1.00  0.00     0.138 C 
ATOM     11  C   UNL A   1      33.591  26.574  23.163  1.00  0.00     0.023 C 
ATOM     12  N   UNL A   1      31.145  26.335  23.382  1.00  0.00    -0.341 N 
ATOM     13  C   UNL A   1      32.271  26.276  22.451  1.00  0.00     0.119 C 
BRANCH   8  14
ATOM     14  C   UNL A   1      32.648  24.520  26.385  1.00  0.00     0.020 C 
BRANCH  14  15
ATOM     15  C   UNL A   1      33.843  23.551  26.263  1.00  0.00    -0.002 C 
ATOM     16  C   UNL A   1      33.966  22.496  27.351  1.00  0.00     0.004 C 
ENDBRANCH  14  15
ENDBRANCH   8  14
BRANCH  12  17
ATOM     17  C   UNL A   1      30.135  27.288  23.445  1.00  0.00     0.225 C 
ATOM     18  O   UNL A   1      28.968  26.972  23.693  1.00  0.00    -0.275 OA
BRANCH  17  19
ATOM     19  C   UNL A   1      30.478  28.735  23.180  1.00  0.00     0.132 C 
BRANCH  19  20
ATOM     20  C   UNL A   1      29.233  29.557  22.847  1.00  0.00     0.127 C 
ATOM     21  C   UNL A   1      29.199  30.836  23.691  1.00  0.00     0.033 C 
ATOM     22  O   UNL A   1      29.270  29.916  21.456  1.00  0.00    -0.378 OA
ATOM     23  C   UNL A   1      28.001  31.697  23.314  1.00  0.00     0.005 C 
ATOM     24  C   UNL A   1      28.103  30.634  21.049  1.00  0.00     0.160 C 
ATOM     25  C   UNL A   1      27.991  31.948  21.813  1.00  0.00     0.029 C 
ENDBRANCH  19  20
ENDBRANCH  17  19
ENDBRANCH  12  17
ENDBRANCH   6   8
ENDBRANCH   5   6
ENDBRANCH   4   5
ENDBRANCH   3   4
ENDBRANCH   2   3
ENDBRANCH   1   2
BRANCH   1  26
ATOM     26  C   UNL A   1      34.893  32.264  28.025  1.00  0.00     0.188 C 
BRANCH  26  27
ATOM     27  O   UNL A   1      33.937  33.287  28.082  1.00  0.00    -0.376 OA
BRANCH  27  28
ATOM     28  C   UNL A   1      34.284  34.561  28.571  1.00  0.00     0.202 C 
BRANCH  28  29
ATOM     29  C   UNL A   1      33.262  35.483  29.261  1.00  0.00     0.261 C 
BRANCH  29  30
ATOM     30  O   UNL A   1      32.581  34.979  30.418  1.00  0.00    -0.460 OA
BRANCH  30  31
ATOM     31  C   UNL A   1      32.809  35.620  31.591  1.00  0.00     0.338 C 
ATOM     32  O   UNL A   1      32.109  36.462  32.113  1.00  0.00    -0.246 OA
BRANCH  31  33
ATOM     33  C   UNL A   1      33.952  34.954  32.265  1.00  0.00     0.060 A 
ATOM     34  C   UNL A   1      35.195  35.605  32.281  1.00  0.00     0.016 A 
ATOM     35  C   UNL A   1      33.810  33.696  32.854  1.00  0.00     0.016 A 
ATOM     36  C   UNL A   1      36.310  34.979  32.840  1.00  0.00     0.010 A 
ATOM     37  C   UNL A   1      34.934  33.059  33.394  1.00  0.00     0.010 A 
ATOM     38  C   UNL A   1      36.198  33.679  33.349  1.00  0.00    -0.014 A 
BRANCH  38  39
ATOM     39  C   UNL A   1      37.428  32.884  33.600  1.00  0.00     0.031 A 
ATOM     40  C   UNL A   1      38.187  33.136  34.876  1.00  0.00     0.074 A 
ATOM     41  C   UNL A   1      37.852  31.934  32.747  1.00  0.00     0.049 A 
ATOM     42  N   UNL A   1      39.302  32.603  35.307  1.00  0.00    -0.248 NA
ATOM     43  C   UNL A   1      37.605  34.131  35.791  1.00  0.00     0.031 C 
ATOM     44  C   UNL A   1      37.189  31.556  31.502  1.00  0.00     0.029 A 
ATOM     45  N   UNL A   1      38.956  31.119  32.804  1.00  0.00    -0.354 N 
ATOM     46  C   UNL A   1      39.557  33.204  36.533  1.00  0.00     0.074 A 
ATOM     47  C   UNL A   1      38.502  34.167  36.763  1.00  0.00     0.031 C 
ATOM     48  C   UNL A   1      37.907  30.587  30.905  1.00  0.00     0.029 A 
ATOM     49  C   UNL A   1      39.095  30.302  31.709  1.00  0.00     0.049 A 
ATOM     50  H   UNL A   1      39.588  31.119  33.559  1.00  0.00     0.167 HD
ATOM     51  C   UNL A   1      40.572  32.968  37.398  1.00  0.00     0.037 A 
ATOM     52  C   UNL A   1      40.081  29.441  31.386  1.00  0.00     0.037 A 
ATOM     53  C   UNL A   1      41.624  32.014  37.173  1.00  0.00     0.049 A 
ATOM     54  C   UNL A   1      41.245  29.252  32.330  1.00  0.00     0.074 A 
ATOM     55  C   UNL A   1      42.692  31.695  37.995  1.00  0.00     0.029 A 
ATOM     56  N   UNL A   1      41.749  31.229  36.036  1.00  0.00    -0.354 N 
ATOM     57  N   UNL A   1      41.468  29.805  33.499  1.00  0.00    -0.248 NA
ATOM     58  C   UNL A   1      42.293  28.309  31.910  1.00  0.00     0.031 C 
ATOM     59  C   UNL A   1      43.494  30.763  37.330  1.00  0.00     0.029 A 
ATOM     60  C   UNL A   1      42.890  30.446  36.124  1.00  0.00     0.049 A 
ATOM     61  H   UNL A   1      41.120  31.229  35.279  1.00  0.00     0.167 HD
ATOM     62  C   UNL A   1      42.655  29.251  33.967  1.00  0.00     0.074 A 
ATOM     63  C   UNL A   1      43.097  28.308  32.963  1.00  0.00     0.031 C 
ATOM     64  C   UNL A   1      43.317  29.500  35.125  1.00  0.00     0.037 A 
BRANCH  51  65
ATOM     65  C   UNL A   1      40.609  33.785  38.659  1.00  0.00     0.064 A 
ATOM     66  C   UNL A   1      39.880  33.421  39.800  1.00  0.00     0.173 A 
ATOM     67  C   UNL A   1      41.406  34.939  38.732  1.00  0.00     0.173 A 
ATOM     68  F   UNL A   1      39.089  32.337  39.778  1.00  0.00    -0.203 F 
ATOM     69  C   UNL A   1      39.922  34.196  40.956  1.00  0.00     0.198 A 
ATOM     70  C   UNL A   1      41.474  35.692  39.900  1.00  0.00     0.198 A 
ATOM     71  F   UNL A   1      42.127  35.332  37.670  1.00  0.00    -0.203 F 
ATOM     72  F   UNL A   1      39.173  33.859  42.015  1.00  0.00    -0.200 F 
ATOM     73  C   UNL A   1      40.726  35.326  41.008  1.00  0.00     0.200 A 
ATOM     74  F   UNL A   1      42.262  36.774  39.952  1.00  0.00    -0.200 F 
ATOM     75  F   UNL A   1      40.771  36.066  42.124  1.00  0.00    -0.200 F 
ENDBRANCH  51  65
BRANCH  52  76
ATOM     76  C   UNL A   1      40.027  28.688  30.103  1.00  0.00     0.064 A 
ATOM     77  C   UNL A   1      39.422  27.425  30.028  1.00  0.00     0.173 A 
ATOM     78  C   UNL A   1      40.616  29.196  28.935  1.00  0.00     0.173 A 
ATOM     79  F   UNL A   1      38.871  26.881  31.123  1.00  0.00    -0.203 F 
ATOM     80  C   UNL A   1      39.428  26.691  28.844  1.00  0.00     0.198 A 
ATOM     81  C   UNL A   1      40.593  28.476  27.743  1.00  0.00     0.198 A 
ATOM     82  F   UNL A   1      41.215  30.396  28.953  1.00  0.00    -0.203 F 
ATOM     83  F   UNL A   1      38.892  25.463  28.817  1.00  0.00    -0.200 F 
ATOM     84  C   UNL A   1      40.007  27.219  27.701  1.00  0.00     0.200 A 
ATOM     85  F   UNL A   1      41.144  28.995  26.638  1.00  0.00    -0.200 F 
ATOM     86  F   UNL A   1      40.013  26.513  26.562  1.00  0.00    -0.200 F 
ENDBRANCH  52  76
BRANCH  64  87
ATOM     87  C   UNL A   1      44.561  28.701  35.400  1.00  0.00     0.064 A 
ATOM     88  C   UNL A   1      44.517  27.442  36.017  1.00  0.00     0.173 A 
ATOM     89  C   UNL A   1      45.818  29.192  35.012  1.00  0.00     0.173 A 
ATOM     90  F   UNL A   1      43.345  26.926  36.418  1.00  0.00    -0.203 F 
ATOM     91  C   UNL A   1      45.685  26.725  36.271  1.00  0.00     0.198 A 
ATOM     92  C   UNL A   1      46.980  28.457  35.232  1.00  0.00     0.198 A 
ATOM     93  F   UNL A   1      45.920  30.386  34.406  1.00  0.00    -0.203 F 
ATOM     94  F   UNL A   1      45.622  25.554  36.919  1.00  0.00    -0.200 F 
ATOM     95  C   UNL A   1      46.914  27.230  35.872  1.00  0.00     0.200 A 
ATOM     96  F   UNL A   1      48.163  28.940  34.829  1.00  0.00    -0.200 F 
ATOM     97  F   UNL A   1      48.035  26.538  36.114  1.00  0.00    -0.200 F 
ENDBRANCH  64  87
ENDBRANCH  38  39
ENDBRANCH  31  33
ENDBRANCH  30  31
ENDBRANCH  29  30
ENDBRANCH  28  29
ENDBRANCH  27  28
ENDBRANCH  26  27
ENDBRANCH   1  26
TORSDOF 22
ENDMDL
MODEL 2
REMARK VINA RESULT:     -10.7      5.043     10.486
REMARK SMILES CCC[C@@]1(C(=O)OCCOCCOCCOC(=O)c2ccc(-c3c4nc(c(-c5c(F)c(F)c(F)c(F)c5F)c5ccc([nH]5)c(-c5c(F)c(F)c(F)c(F)c5F)c5nc(c(-c6c(F)c(F)c(F)c(F)c6F)c6ccc3[nH]6)C=C5)C=C4)cc2)CCCN(C(=O)C[C@H]2CCCCO2)C1
REMARK SMILES IDX 11 1 10 2 9 3 8 4 7 5 5 6 6 7 4 8 82 9 95 10 83 11 85 12
REMARK SMILES IDX 84 13 3 14 2 15 1 16 86 17 87 18 88 19 89 20 90 21 94 22
REMARK SMILES IDX 91 23 93 24 92 25 12 26 13 27 14 28 15 29 16 30 17 31 18 32
REMARK SMILES IDX 19 33 20 34 81 35 21 36 80 37 22 38 23 39 24 40 74 41 25 42
REMARK SMILES IDX 79 43 73 44 75 45 26 46 78 47 72 48 71 49 27 51 59 52 39 53
REMARK SMILES IDX 58 54 40 55 43 56 57 57 76 58 41 59 42 60 56 62 77 63 44 64
REMARK SMILES IDX 28 65 29 66 37 67 30 68 31 69 35 70 38 71 32 72 33 73 36 74
REMARK SMILES IDX 34 75 60 76 61 77 69 78 62 79 63 80 67 81 70 82 64 83 65 84
REMARK SMILES IDX 68 85 66 86 45 87 46 88 54 89 47 90 48 91 52 92 55 93 49 94
REMARK SMILES IDX 50 95 53 96 51 97
REMARK H PARENT 75 50 43 61
REMARK Flexibility Score: inf
ROOT
ATOM      1  C   UNL A   1      33.510  22.476  27.615  1.00  0.00     0.188 C 
ENDROOT
BRANCH   1   2
ATOM      2  O   UNL A   1      32.143  22.869  27.597  1.00  0.00    -0.376 OA
BRANCH   2   3
ATOM      3  C   UNL A   1      31.432  22.986  26.373  1.00  0.00     0.202 C 
BRANCH   3   4
ATOM      4  C   UNL A   1      30.333  24.058  26.215  1.00  0.00     0.261 C 
BRANCH   4   5
ATOM      5  O   UNL A   1      30.694  25.326  25.622  1.00  0.00    -0.463 OA
BRANCH   5   6
ATOM      6  C   UNL A   1      30.665  25.332  24.265  1.00  0.00     0.313 C 
ATOM      7  O   UNL A   1      30.773  24.302  23.604  1.00  0.00    -0.252 OA
BRANCH   6   8
ATOM      8  C   UNL A   1      30.511  26.739  23.604  1.00  0.00     0.086 C 
ATOM      9  C   UNL A   1      31.025  26.567  22.138  1.00  0.00     0.022 C 
ATOM     10  C   UNL A   1      31.412  27.689  24.401  1.00  0.00     0.138 C 
ATOM     11  C   UNL A   1      32.550  26.405  22.006  1.00  0.00     0.023 C 
ATOM     12  N   UNL A   1      32.799  27.279  24.300  1.00  0.00    -0.341 N 
ATOM     13  C   UNL A   1      33.330  27.333  22.939  1.00  0.00     0.119 C 
BRANCH   8  14
ATOM     14  C   UNL A   1      29.052  27.297  23.574  1.00  0.00     0.020 C 
BRANCH  14  15
ATOM     15  C   UNL A   1      28.781  28.709  23.015  1.00  0.00    -0.002 C 
ATOM     16  C   UNL A   1      27.322  29.083  22.810  1.00  0.00     0.004 C 
ENDBRANCH  14  15
ENDBRANCH   8  14
BRANCH  12  17
ATOM     17  C   UNL A   1      33.394  26.729  25.429  1.00  0.00     0.225 C 
ATOM     18  O   UNL A   1      34.052  25.686  25.366  1.00  0.00    -0.275 OA
BRANCH  17  19
ATOM     19  C   UNL A   1      33.208  27.415  26.761  1.00  0.00     0.132 C 
BRANCH  19  20
ATOM     20  C   UNL A   1      33.727  28.853  26.731  1.00  0.00     0.127 C 
ATOM     21  C   UNL A   1      32.633  29.823  27.191  1.00  0.00     0.033 C 
ATOM     22  O   UNL A   1      34.850  28.961  27.620  1.00  0.00    -0.378 OA
ATOM     23  C   UNL A   1      33.163  31.250  27.234  1.00  0.00     0.005 C 
ATOM     24  C   UNL A   1      35.436  30.265  27.600  1.00  0.00     0.160 C 
ATOM     25  C   UNL A   1      34.432  31.309  28.073  1.00  0.00     0.029 C 
ENDBRANCH  19  20
ENDBRANCH  17  19
ENDBRANCH  12  17
ENDBRANCH   6   8
ENDBRANCH   5   6
ENDBRANCH   4   5
ENDBRANCH   3   4
ENDBRANCH   2   3
ENDBRANCH   1   2
BRANCH   1  26
ATOM     26  C   UNL A   1      34.032  21.389  26.666  1.00  0.00     0.188 C 
BRANCH  26  27
ATOM     27  O   UNL A   1      35.333  21.581  26.181  1.00  0.00    -0.376 OA
BRANCH  27  28
ATOM     28  C   UNL A   1      35.870  20.707  25.216  1.00  0.00     0.202 C 
BRANCH  28  29
ATOM     29  C   UNL A   1      37.387  20.555  25.000  1.00  0.00     0.261 C 
BRANCH  29  30
ATOM     30  O   UNL A   1      38.222  21.680  25.305  1.00  0.00    -0.460 OA
BRANCH  30  31
ATOM     31  C   UNL A   1      39.296  21.449  26.100  1.00  0.00     0.338 C 
ATOM     32  O   UNL A   1      39.970  20.441  26.145  1.00  0.00    -0.246 OA
BRANCH  31  33
ATOM     33  C   UNL A   1      39.667  22.729  26.754  1.00  0.00     0.060 A 
ATOM     34  C   UNL A   1      38.934  23.883  26.437  1.00  0.00     0.016 A 
ATOM     35  C   UNL A   1      40.734  22.799  27.652  1.00  0.00     0.016 A 
ATOM     36  C   UNL A   1      39.298  25.118  26.976  1.00  0.00     0.010 A 
ATOM     37  C   UNL A   1      41.113  24.041  28.173  1.00  0.00     0.010 A 
ATOM     38  C   UNL A   1      40.425  25.213  27.803  1.00  0.00    -0.014 A 
BRANCH  38  39
ATOM     39  C   UNL A   1      41.022  26.547  28.073  1.00  0.00     0.031 A 
ATOM     40  C   UNL A   1      42.447  26.785  27.646  1.00  0.00     0.074 A 
ATOM     41  C   UNL A   1      40.321  27.542  28.645  1.00  0.00     0.049 A 
ATOM     42  N   UNL A   1      43.202  27.842  27.799  1.00  0.00    -0.248 NA
ATOM     43  C   UNL A   1      43.110  25.670  26.950  1.00  0.00     0.031 C 
ATOM     44  C   UNL A   1      38.924  27.463  29.062  1.00  0.00     0.029 A 
ATOM     45  N   UNL A   1      40.703  28.819  28.978  1.00  0.00    -0.354 N 
ATOM     46  C   UNL A   1      44.427  27.517  27.231  1.00  0.00     0.074 A 
ATOM     47  C   UNL A   1      44.328  26.153  26.760  1.00  0.00     0.031 C 
ATOM     48  C   UNL A   1      38.568  28.639  29.608  1.00  0.00     0.029 A 
ATOM     49  C   UNL A   1      39.720  29.541  29.609  1.00  0.00     0.049 A 
ATOM     50  H   UNL A   1      41.598  29.182  28.784  1.00  0.00     0.167 HD
ATOM     51  C   UNL A   1      45.533  28.287  27.100  1.00  0.00     0.037 A 
ATOM     52  C   UNL A   1      39.757  30.779  30.141  1.00  0.00     0.037 A 
ATOM     53  C   UNL A   1      45.637  29.643  27.568  1.00  0.00     0.049 A 
ATOM     54  C   UNL A   1      41.027  31.592  30.053  1.00  0.00     0.074 A 
ATOM     55  C   UNL A   1      46.712  30.509  27.472  1.00  0.00     0.029 A 
ATOM     56  N   UNL A   1      44.630  30.329  28.231  1.00  0.00    -0.354 N 
ATOM     57  N   UNL A   1      42.173  31.287  29.493  1.00  0.00    -0.248 NA
ATOM     58  C   UNL A   1      41.003  32.927  30.668  1.00  0.00     0.031 C 
ATOM     59  C   UNL A   1      46.378  31.697  28.131  1.00  0.00     0.029 A 
ATOM     60  C   UNL A   1      45.068  31.599  28.574  1.00  0.00     0.049 A 
ATOM     61  H   UNL A   1      43.736  29.967  28.429  1.00  0.00     0.167 HD
ATOM     62  C   UNL A   1      42.989  32.402  29.654  1.00  0.00     0.074 A 
ATOM     63  C   UNL A   1      42.202  33.395  30.351  1.00  0.00     0.031 C 
ATOM     64  C   UNL A   1      44.273  32.587  29.258  1.00  0.00     0.037 A 
BRANCH  51  65
ATOM     65  C   UNL A   1      46.736  27.664  26.449  1.00  0.00     0.064 A 
ATOM     66  C   UNL A   1      47.698  26.961  27.189  1.00  0.00     0.173 A 
ATOM     67  C   UNL A   1      46.914  27.753  25.060  1.00  0.00     0.173 A 
ATOM     68  F   UNL A   1      47.586  26.862  28.522  1.00  0.00    -0.203 F 
ATOM     69  C   UNL A   1      48.810  26.398  26.567  1.00  0.00     0.198 A 
ATOM     70  C   UNL A   1      48.007  27.158  24.436  1.00  0.00     0.198 A 
ATOM     71  F   UNL A   1      46.022  28.411  24.303  1.00  0.00    -0.203 F 
ATOM     72  F   UNL A   1      49.746  25.781  27.301  1.00  0.00    -0.200 F 
ATOM     73  C   UNL A   1      48.959  26.489  25.191  1.00  0.00     0.200 A 
ATOM     74  F   UNL A   1      48.141  27.236  23.106  1.00  0.00    -0.200 F 
ATOM     75  F   UNL A   1      50.025  25.940  24.593  1.00  0.00    -0.200 F 
ENDBRANCH  51  65
BRANCH  52  76
ATOM     76  C   UNL A   1      38.555  31.338  30.820  1.00  0.00     0.064 A 
ATOM     77  C   UNL A   1      37.623  32.116  30.119  1.00  0.00     0.173 A 
ATOM     78  C   UNL A   1      38.336  31.140  32.191  1.00  0.00     0.173 A 
ATOM     79  F   UNL A   1      37.801  32.359  28.812  1.00  0.00    -0.203 F 
ATOM     80  C   UNL A   1      36.533  32.694  30.767  1.00  0.00     0.198 A 
ATOM     81  C   UNL A   1      37.228  31.692  32.831  1.00  0.00     0.198 A 
ATOM     82  F   UNL A   1      39.201  30.411  32.911  1.00  0.00    -0.203 F 
ATOM     83  F   UNL A   1      35.689  33.479  30.083  1.00  0.00    -0.200 F 
ATOM     84  C   UNL A   1      36.332  32.476  32.121  1.00  0.00     0.200 A 
ATOM     85  F   UNL A   1      37.032  31.469  34.139  1.00  0.00    -0.200 F 
ATOM     86  F   UNL A   1      35.284  33.031  32.744  1.00  0.00    -0.200 F 
ENDBRANCH  52  76
BRANCH  64  87
ATOM     87  C   UNL A   1      44.894  33.932  29.516  1.00  0.00     0.064 A 
ATOM     88  C   UNL A   1      45.593  34.217  30.698  1.00  0.00     0.173 A 
ATOM     89  C   UNL A   1      44.811  34.947  28.548  1.00  0.00     0.173 A 
ATOM     90  F   UNL A   1      45.695  33.288  31.662  1.00  0.00    -0.203 F 
ATOM     91  C   UNL A   1      46.150  35.474  30.919  1.00  0.00     0.198 A 
ATOM     92  C   UNL A   1      45.402  36.190  28.755  1.00  0.00     0.198 A 
ATOM     93  F   UNL A   1      44.165  34.729  27.392  1.00  0.00    -0.203 F 
ATOM     94  F   UNL A   1      46.759  35.740  32.083  1.00  0.00    -0.200 F 
ATOM     95  C   UNL A   1      46.060  36.457  29.944  1.00  0.00     0.200 A 
ATOM     96  F   UNL A   1      45.329  37.132  27.804  1.00  0.00    -0.200 F 
ATOM     97  F   UNL A   1      46.600  37.665  30.157  1.00  0.00    -0.200 F 
ENDBRANCH  64  87
ENDBRANCH  38  39
ENDBRANCH  31  33
ENDBRANCH  30  31
ENDBRANCH  29  30
ENDBRANCH  28  29
ENDBRANCH  27  28
ENDBRANCH  26  27
ENDBRANCH   1  26
TORSDOF 22
ENDMDL
MODEL 3
REMARK VINA RESULT:     -10.5      5.259      9.086
REMARK SMILES CCC[C@@]1(C(=O)OCCOCCOCCOC(=O)c2ccc(-c3c4nc(c(-c5c(F)c(F)c(F)c(F)c5F)c5ccc([nH]5)c(-c5c(F)c(F)c(F)c(F)c5F)c5nc(c(-c6c(F)c(F)c(F)c(F)c6F)c6ccc3[nH]6)C=C5)C=C4)cc2)CCCN(C(=O)C[C@H]2CCCCO2)C1
REMARK SMILES IDX 11 1 10 2 9 3 8 4 7 5 5 6 6 7 4 8 82 9 95 10 83 11 85 12
REMARK SMILES IDX 84 13 3 14 2 15 1 16 86 17 87 18 88 19 89 20 90 21 94 22
REMARK SMILES IDX 91 23 93 24 92 25 12 26 13 27 14 28 15 29 16 30 17 31 18 32
REMARK SMILES IDX 19 33 20 34 81 35 21 36 80 37 22 38 23 39 24 40 74 41 25 42
REMARK SMILES IDX 79 43 73 44 75 45 26 46 78 47 72 48 71 49 27 51 59 52 39 53
REMARK SMILES IDX 58 54 40 55 43 56 57 57 76 58 41 59 42 60 56 62 77 63 44 64
REMARK SMILES IDX 28 65 29 66 37 67 30 68 31 69 35 70 38 71 32 72 33 73 36 74
REMARK SMILES IDX 34 75 60 76 61 77 69 78 62 79 63 80 67 81 70 82 64 83 65 84
REMARK SMILES IDX 68 85 66 86 45 87 46 88 54 89 47 90 48 91 52 92 55 93 49 94
REMARK SMILES IDX 50 95 53 96 51 97
REMARK H PARENT 75 50 43 61
REMARK Flexibility Score: inf
ROOT
ATOM      1  C   UNL A   1      33.446  22.174  27.629  1.00  0.00     0.188 C 
ENDROOT
BRANCH   1   2
ATOM      2  O   UNL A   1      32.277  22.973  27.766  1.00  0.00    -0.376 OA
BRANCH   2   3
ATOM      3  C   UNL A   1      31.243  22.927  26.795  1.00  0.00     0.202 C 
BRANCH   3   4
ATOM      4  C   UNL A   1      30.439  24.201  26.459  1.00  0.00     0.261 C 
BRANCH   4   5
ATOM      5  O   UNL A   1      31.102  25.257  25.727  1.00  0.00    -0.463 OA
BRANCH   5   6
ATOM      6  C   UNL A   1      31.183  25.039  24.390  1.00  0.00     0.313 C 
ATOM      7  O   UNL A   1      30.184  24.979  23.676  1.00  0.00    -0.252 OA
BRANCH   6   8
ATOM      8  C   UNL A   1      32.627  24.846  23.828  1.00  0.00     0.086 C 
ATOM      9  C   UNL A   1      33.584  25.255  24.995  1.00  0.00     0.022 C 
ATOM     10  C   UNL A   1      32.758  25.806  22.640  1.00  0.00     0.138 C 
ATOM     11  C   UNL A   1      33.637  26.766  25.283  1.00  0.00     0.023 C 
ATOM     12  N   UNL A   1      32.610  27.181  23.079  1.00  0.00    -0.341 N 
ATOM     13  C   UNL A   1      33.650  27.614  24.011  1.00  0.00     0.119 C 
BRANCH   8  14
ATOM     14  C   UNL A   1      32.968  23.391  23.371  1.00  0.00     0.020 C 
BRANCH  14  15
ATOM     15  C   UNL A   1      31.857  22.485  22.802  1.00  0.00    -0.002 C 
ATOM     16  C   UNL A   1      32.153  20.994  22.774  1.00  0.00     0.004 C 
ENDBRANCH  14  15
ENDBRANCH   8  14
BRANCH  12  17
ATOM     17  C   UNL A   1      31.446  27.851  22.723  1.00  0.00     0.225 C 
ATOM     18  O   UNL A   1      30.657  27.377  21.900  1.00  0.00    -0.275 OA
BRANCH  17  19
ATOM     19  C   UNL A   1      31.158  29.196  23.346  1.00  0.00     0.132 C 
BRANCH  19  20
ATOM     20  C   UNL A   1      29.758  29.695  22.986  1.00  0.00     0.127 C 
ATOM     21  C   UNL A   1      29.364  30.869  23.889  1.00  0.00     0.033 C 
ATOM     22  O   UNL A   1      29.759  30.138  21.619  1.00  0.00    -0.378 OA
ATOM     23  C   UNL A   1      28.003  31.421  23.490  1.00  0.00     0.005 C 
ATOM     24  C   UNL A   1      28.465  30.561  21.184  1.00  0.00     0.160 C 
ATOM     25  C   UNL A   1      27.990  31.754  22.005  1.00  0.00     0.029 C 
ENDBRANCH  19  20
ENDBRANCH  17  19
ENDBRANCH  12  17
ENDBRANCH   6   8
ENDBRANCH   5   6
ENDBRANCH   4   5
ENDBRANCH   3   4
ENDBRANCH   2   3
ENDBRANCH   1   2
BRANCH   1  26
ATOM     26  C   UNL A   1      33.550  21.108  26.531  1.00  0.00     0.188 C 
BRANCH  26  27
ATOM     27  O   UNL A   1      34.402  21.419  25.462  1.00  0.00    -0.376 OA
BRANCH  27  28
ATOM     28  C   UNL A   1      35.719  20.919  25.431  1.00  0.00     0.202 C 
BRANCH  28  29
ATOM     29  C   UNL A   1      36.940  21.802  25.747  1.00  0.00     0.261 C 
BRANCH  29  30
ATOM     30  O   UNL A   1      38.204  21.421  25.187  1.00  0.00    -0.460 OA
BRANCH  30  31
ATOM     31  C   UNL A   1      39.198  21.128  26.061  1.00  0.00     0.338 C 
ATOM     32  O   UNL A   1      39.726  20.049  26.234  1.00  0.00    -0.246 OA
BRANCH  31  33
ATOM     33  C   UNL A   1      39.710  22.405  26.620  1.00  0.00     0.060 A 
ATOM     34  C   UNL A   1      39.196  23.611  26.119  1.00  0.00     0.016 A 
ATOM     35  C   UNL A   1      40.695  22.417  27.608  1.00  0.00     0.016 A 
ATOM     36  C   UNL A   1      39.704  24.831  26.568  1.00  0.00     0.010 A 
ATOM     37  C   UNL A   1      41.220  23.641  28.041  1.00  0.00     0.010 A 
ATOM     38  C   UNL A   1      40.758  24.852  27.490  1.00  0.00    -0.014 A 
BRANCH  38  39
ATOM     39  C   UNL A   1      41.533  26.105  27.686  1.00  0.00     0.031 A 
ATOM     40  C   UNL A   1      40.888  27.223  28.460  1.00  0.00     0.074 A 
ATOM     41  C   UNL A   1      42.789  26.247  27.227  1.00  0.00     0.049 A 
ATOM     42  N   UNL A   1      41.338  28.421  28.734  1.00  0.00    -0.248 NA
ATOM     43  C   UNL A   1      39.546  26.950  28.999  1.00  0.00     0.031 C 
ATOM     44  C   UNL A   1      43.548  25.230  26.505  1.00  0.00     0.029 A 
ATOM     45  N   UNL A   1      43.645  27.319  27.301  1.00  0.00    -0.354 N 
ATOM     46  C   UNL A   1      40.334  29.043  29.465  1.00  0.00     0.074 A 
ATOM     47  C   UNL A   1      39.237  28.107  29.563  1.00  0.00     0.031 C 
ATOM     48  C   UNL A   1      44.756  25.732  26.190  1.00  0.00     0.029 A 
ATOM     49  C   UNL A   1      44.842  27.115  26.660  1.00  0.00     0.049 A 
ATOM     50  H   UNL A   1      43.421  28.157  27.769  1.00  0.00     0.167 HD
ATOM     51  C   UNL A   1      40.329  30.280  30.017  1.00  0.00     0.037 A 
ATOM     52  C   UNL A   1      45.876  27.956  26.459  1.00  0.00     0.037 A 
ATOM     53  C   UNL A   1      41.417  31.216  29.921  1.00  0.00     0.049 A 
ATOM     54  C   UNL A   1      45.815  29.359  27.017  1.00  0.00     0.074 A 
ATOM     55  C   UNL A   1      41.510  32.489  30.456  1.00  0.00     0.029 A 
ATOM     56  N   UNL A   1      42.600  30.984  29.235  1.00  0.00    -0.354 N 
ATOM     57  N   UNL A   1      44.873  29.932  27.728  1.00  0.00    -0.248 NA
ATOM     58  C   UNL A   1      46.970  30.229  26.749  1.00  0.00     0.031 C 
ATOM     59  C   UNL A   1      42.723  33.050  30.043  1.00  0.00     0.029 A 
ATOM     60  C   UNL A   1      43.418  32.100  29.311  1.00  0.00     0.049 A 
ATOM     61  H   UNL A   1      42.825  30.149  28.764  1.00  0.00     0.167 HD
ATOM     62  C   UNL A   1      45.337  31.210  28.021  1.00  0.00     0.074 A 
ATOM     63  C   UNL A   1      46.650  31.323  27.425  1.00  0.00     0.031 C 
ATOM     64  C   UNL A   1      44.731  32.200  28.724  1.00  0.00     0.037 A 
BRANCH  51  65
ATOM     65  C   UNL A   1      39.087  30.704  30.750  1.00  0.00     0.064 A 
ATOM     66  C   UNL A   1      38.011  31.318  30.092  1.00  0.00     0.173 A 
ATOM     67  C   UNL A   1      38.965  30.471  32.128  1.00  0.00     0.173 A 
ATOM     68  F   UNL A   1      38.084  31.580  28.778  1.00  0.00    -0.203 F 
ATOM     69  C   UNL A   1      36.873  31.711  30.791  1.00  0.00     0.198 A 
ATOM     70  C   UNL A   1      37.810  30.832  32.818  1.00  0.00     0.198 A 
ATOM     71  F   UNL A   1      39.963  29.884  32.807  1.00  0.00    -0.203 F 
ATOM     72  F   UNL A   1      35.881  32.346  30.151  1.00  0.00    -0.200 F 
ATOM     73  C   UNL A   1      36.770  31.459  32.151  1.00  0.00     0.200 A 
ATOM     74  F   UNL A   1      37.708  30.576  34.129  1.00  0.00    -0.200 F 
ATOM     75  F   UNL A   1      35.670  31.831  32.821  1.00  0.00    -0.200 F 
ENDBRANCH  51  65
BRANCH  52  76
ATOM     76  C   UNL A   1      47.066  27.509  25.686  1.00  0.00     0.064 A 
ATOM     77  C   UNL A   1      48.183  26.955  26.328  1.00  0.00     0.173 A 
ATOM     78  C   UNL A   1      47.129  27.663  24.293  1.00  0.00     0.173 A 
ATOM     79  F   UNL A   1      48.185  26.813  27.662  1.00  0.00    -0.203 F 
ATOM     80  C   UNL A   1      49.323  26.596  25.613  1.00  0.00     0.198 A 
ATOM     81  C   UNL A   1      48.257  27.273  23.574  1.00  0.00     0.198 A 
ATOM     82  F   UNL A   1      46.092  28.193  23.629  1.00  0.00    -0.203 F 
ATOM     83  F   UNL A   1      50.396  26.122  26.260  1.00  0.00    -0.200 F 
ATOM     84  C   UNL A   1      49.357  26.749  24.236  1.00  0.00     0.200 A 
ATOM     85  F   UNL A   1      48.281  27.412  22.241  1.00  0.00    -0.200 F 
ATOM     86  F   UNL A   1      50.453  26.403  23.547  1.00  0.00    -0.200 F 
ENDBRANCH  52  76
BRANCH  64  87
ATOM     87  C   UNL A   1      45.501  33.474  28.938  1.00  0.00     0.064 A 
ATOM     88  C   UNL A   1      45.368  34.579  28.084  1.00  0.00     0.173 A 
ATOM     89  C   UNL A   1      46.368  33.600  30.036  1.00  0.00     0.173 A 
ATOM     90  F   UNL A   1      44.561  34.511  27.014  1.00  0.00    -0.203 F 
ATOM     91  C   UNL A   1      46.100  35.744  28.298  1.00  0.00     0.198 A 
ATOM     92  C   UNL A   1      47.070  34.779  30.268  1.00  0.00     0.198 A 
ATOM     93  F   UNL A   1      46.527  32.580  30.894  1.00  0.00    -0.203 F 
ATOM     94  F   UNL A   1      46.002  36.762  27.432  1.00  0.00    -0.200 F 
ATOM     95  C   UNL A   1      46.945  35.846  29.393  1.00  0.00     0.200 A 
ATOM     96  F   UNL A   1      47.872  34.881  31.338  1.00  0.00    -0.200 F 
ATOM     97  F   UNL A   1      47.646  36.969  29.598  1.00  0.00    -0.200 F 
ENDBRANCH  64  87
ENDBRANCH  38  39
ENDBRANCH  31  33
ENDBRANCH  30  31
ENDBRANCH  29  30
ENDBRANCH  28  29
ENDBRANCH  27  28
ENDBRANCH  26  27
ENDBRANCH   1  26
TORSDOF 22
ENDMDL
