MODEL 1
REMARK VINA RESULT:     -11.6      0.000      0.000
REMARK SMILES Cc1cccc(C[NH+]2CCC(OCC(=O)OCCOCCOCCOC(=O)c3ccc(-c4c5nc(c(-c6c(F)c(F)c(F)c(F)c6F)c6ccc([nH]6)c(-c6c(F)c(F)c(F)c(F)c6F)c6nc(c(-c7c(F)c(F)c(F)c(F)c7F)c7ccc4[nH]7)C=C6)C=C5)cc3)CC2)n1
REMARK SMILES IDX 20 1 19 2 18 3 17 4 16 5 14 6 15 7 13 8 12 9 11 10 8 11 9 12
REMARK SMILES IDX 92 13 10 15 91 16 7 17 6 18 1 19 2 20 3 21 93 22 4 23 5 24
REMARK SMILES IDX 21 25 22 26 23 27 24 28 25 29 26 30 27 31 28 32 29 33 90 34
REMARK SMILES IDX 30 35 89 36 31 37 32 38 33 39 83 40 34 41 88 42 82 43 84 44
REMARK SMILES IDX 35 45 87 46 81 47 80 48 36 50 68 51 48 52 67 53 49 54 52 55
REMARK SMILES IDX 66 56 85 57 50 58 51 59 65 61 86 62 53 63 37 64 38 65 46 66
REMARK SMILES IDX 39 67 40 68 44 69 47 70 41 71 42 72 45 73 43 74 69 75 70 76
REMARK SMILES IDX 78 77 71 78 72 79 76 80 79 81 73 82 74 83 77 84 75 85 54 86
REMARK SMILES IDX 55 87 63 88 56 89 57 90 61 91 64 92 58 93 59 94 62 95 60 96
REMARK H PARENT 8 14 84 49 52 60
REMARK Flexibility Score: inf
ROOT
ATOM      1  C   UNL A   1      50.567  20.807  34.041  1.00  0.00     0.188 C 
ENDROOT
BRANCH   1   2
ATOM      2  O   UNL A   1      49.310  20.308  33.592  1.00  0.00    -0.376 OA
BRANCH   2   3
ATOM      3  C   UNL A   1      48.286  20.139  34.560  1.00  0.00     0.202 C 
BRANCH   3   4
ATOM      4  C   UNL A   1      47.406  21.351  34.926  1.00  0.00     0.261 C 
BRANCH   4   5
ATOM      5  O   UNL A   1      46.197  21.120  35.687  1.00  0.00    -0.462 OA
BRANCH   5   6
ATOM      6  C   UNL A   1      45.839  19.806  35.807  1.00  0.00     0.332 C 
ATOM      7  O   UNL A   1      45.081  19.228  35.032  1.00  0.00    -0.250 OA
BRANCH   6   8
ATOM      8  C   UNL A   1      46.320  19.115  37.110  1.00  0.00     0.283 C 
BRANCH   8   9
ATOM      9  O   UNL A   1      45.898  19.314  38.435  1.00  0.00    -0.366 OA
BRANCH   9  10
ATOM     10  C   UNL A   1      46.103  18.284  39.404  1.00  0.00     0.130 C 
ATOM     11  N   UNL A   1      44.848  16.843  41.857  1.00  0.00    -0.330 N 
ATOM     12  C   UNL A   1      46.056  17.697  41.998  1.00  0.00     0.265 C 
ATOM     13  C   UNL A   1      44.991  16.334  40.446  1.00  0.00     0.265 C 
ATOM     14  H   UNL A   1      43.911  17.219  42.010  1.00  0.00     0.348 HD
ATOM     15  C   UNL A   1      46.448  18.692  40.846  1.00  0.00     0.093 C 
ATOM     16  C   UNL A   1      44.912  17.388  39.340  1.00  0.00     0.093 C 
BRANCH  11  17
ATOM     17  C   UNL A   1      43.988  16.130  43.217  1.00  0.00     0.319 C 
BRANCH  17  18
ATOM     18  C   UNL A   1      43.595  14.452  43.815  1.00  0.00     0.095 A 
ATOM     19  C   UNL A   1      41.041  12.170  42.395  1.00  0.00     0.067 C 
ATOM     20  C   UNL A   1      42.227  12.550  43.240  1.00  0.00     0.038 A 
ATOM     21  C   UNL A   1      43.169  11.626  43.587  1.00  0.00     0.023 A 
ATOM     22  N   UNL A   1      42.417  13.885  43.478  1.00  0.00    -0.252 NA
ATOM     23  C   UNL A   1      44.218  12.119  44.332  1.00  0.00     0.004 A 
ATOM     24  C   UNL A   1      44.383  13.521  44.514  1.00  0.00     0.030 A 
ENDBRANCH  17  18
ENDBRANCH  11  17
ENDBRANCH   9  10
ENDBRANCH   8   9
ENDBRANCH   6   8
ENDBRANCH   5   6
ENDBRANCH   4   5
ENDBRANCH   3   4
ENDBRANCH   2   3
ENDBRANCH   1   2
BRANCH   1  25
ATOM     25  C   UNL A   1      50.756  22.332  34.109  1.00  0.00     0.188 C 
BRANCH  25  26
ATOM     26  O   UNL A   1      51.383  22.915  35.252  1.00  0.00    -0.376 OA
BRANCH  26  27
ATOM     27  C   UNL A   1      50.551  22.786  36.450  1.00  0.00     0.202 C 
BRANCH  27  28
ATOM     28  C   UNL A   1      49.568  24.009  36.805  1.00  0.00     0.261 C 
BRANCH  28  29
ATOM     29  O   UNL A   1      47.842  24.184  37.018  1.00  0.00    -0.460 OA
BRANCH  29  30
ATOM     30  C   UNL A   1      46.456  24.593  37.019  1.00  0.00     0.338 C 
ATOM     31  O   UNL A   1      45.885  24.366  38.102  1.00  0.00    -0.246 OA
BRANCH  30  32
ATOM     32  C   UNL A   1      45.350  25.413  35.983  1.00  0.00     0.060 A 
ATOM     33  C   UNL A   1      45.745  26.673  35.480  1.00  0.00     0.016 A 
ATOM     34  C   UNL A   1      44.096  25.058  35.390  1.00  0.00     0.016 A 
ATOM     35  C   UNL A   1      44.971  27.431  34.528  1.00  0.00     0.010 A 
ATOM     36  C   UNL A   1      43.265  25.806  34.536  1.00  0.00     0.010 A 
ATOM     37  C   UNL A   1      43.702  27.019  34.094  1.00  0.00    -0.014 A 
BRANCH  37  38
ATOM     38  C   UNL A   1      42.708  27.917  33.459  1.00  0.00     0.031 A 
ATOM     39  C   UNL A   1      42.607  27.806  31.965  1.00  0.00     0.074 A 
ATOM     40  C   UNL A   1      42.023  28.850  34.149  1.00  0.00     0.049 A 
ATOM     41  N   UNL A   1      41.692  28.252  31.153  1.00  0.00    -0.248 NA
ATOM     42  C   UNL A   1      43.687  27.062  31.285  1.00  0.00     0.031 C 
ATOM     43  C   UNL A   1      42.189  29.142  35.574  1.00  0.00     0.029 A 
ATOM     44  N   UNL A   1      41.040  29.724  33.751  1.00  0.00    -0.354 N 
ATOM     45  C   UNL A   1      42.033  27.752  29.900  1.00  0.00     0.074 A 
ATOM     46  C   UNL A   1      43.280  27.033  30.054  1.00  0.00     0.031 C 
ATOM     47  C   UNL A   1      41.307  30.092  35.941  1.00  0.00     0.029 A 
ATOM     48  C   UNL A   1      40.508  30.471  34.781  1.00  0.00     0.049 A 
ATOM     49  H   UNL A   1      40.744  29.811  32.816  1.00  0.00     0.167 HD
ATOM     50  C   UNL A   1      41.349  27.874  28.746  1.00  0.00     0.037 A 
ATOM     51  C   UNL A   1      39.466  31.329  34.769  1.00  0.00     0.037 A 
ATOM     52  C   UNL A   1      40.192  28.719  28.634  1.00  0.00     0.049 A 
ATOM     53  C   UNL A   1      38.721  31.479  33.463  1.00  0.00     0.074 A 
ATOM     54  C   UNL A   1      39.422  29.013  27.530  1.00  0.00     0.029 A 
ATOM     55  N   UNL A   1      39.672  29.449  29.702  1.00  0.00    -0.354 N 
ATOM     56  N   UNL A   1      38.965  30.904  32.306  1.00  0.00    -0.248 NA
ATOM     57  C   UNL A   1      37.552  32.367  33.454  1.00  0.00     0.031 C 
ATOM     58  C   UNL A   1      38.465  29.959  27.920  1.00  0.00     0.029 A 
ATOM     59  C   UNL A   1      38.602  30.210  29.280  1.00  0.00     0.049 A 
ATOM     60  H   UNL A   1      40.019  29.424  30.624  1.00  0.00     0.167 HD
ATOM     61  C   UNL A   1      37.982  31.346  31.435  1.00  0.00     0.074 A 
ATOM     62  C   UNL A   1      37.119  32.221  32.209  1.00  0.00     0.031 C 
ATOM     63  C   UNL A   1      37.797  31.067  30.118  1.00  0.00     0.037 A 
BRANCH  50  64
ATOM     64  C   UNL A   1      41.885  27.125  27.559  1.00  0.00     0.064 A 
ATOM     65  C   UNL A   1      41.492  25.800  27.298  1.00  0.00     0.173 A 
ATOM     66  C   UNL A   1      42.871  27.683  26.735  1.00  0.00     0.173 A 
ATOM     67  F   UNL A   1      40.574  25.202  28.074  1.00  0.00    -0.203 F 
ATOM     68  C   UNL A   1      42.098  25.052  26.290  1.00  0.00     0.198 A 
ATOM     69  C   UNL A   1      43.458  26.940  25.711  1.00  0.00     0.198 A 
ATOM     70  F   UNL A   1      43.297  28.937  26.946  1.00  0.00    -0.203 F 
ATOM     71  F   UNL A   1      41.762  23.765  26.114  1.00  0.00    -0.200 F 
ATOM     72  C   UNL A   1      43.082  25.622  25.499  1.00  0.00     0.200 A 
ATOM     73  F   UNL A   1      44.416  27.491  24.951  1.00  0.00    -0.200 F 
ATOM     74  F   UNL A   1      43.686  24.895  24.548  1.00  0.00    -0.200 F 
ENDBRANCH  50  64
BRANCH  51  75
ATOM     75  C   UNL A   1      39.049  32.047  36.012  1.00  0.00     0.064 A 
ATOM     76  C   UNL A   1      39.495  33.346  36.306  1.00  0.00     0.173 A 
ATOM     77  C   UNL A   1      38.172  31.452  36.935  1.00  0.00     0.173 A 
ATOM     78  F   UNL A   1      40.349  33.964  35.477  1.00  0.00    -0.203 F 
ATOM     79  C   UNL A   1      39.091  34.012  37.466  1.00  0.00     0.198 A 
ATOM     80  C   UNL A   1      37.748  32.127  38.081  1.00  0.00     0.198 A 
ATOM     81  F   UNL A   1      37.710  30.212  36.714  1.00  0.00    -0.203 F 
ATOM     82  F   UNL A   1      39.560  35.240  37.732  1.00  0.00    -0.200 F 
ATOM     83  C   UNL A   1      38.210  33.405  38.349  1.00  0.00     0.200 A 
ATOM     84  F   UNL A   1      36.888  31.539  38.924  1.00  0.00    -0.200 F 
ATOM     85  F   UNL A   1      37.814  34.049  39.456  1.00  0.00    -0.200 F 
ENDBRANCH  51  75
BRANCH  63  86
ATOM     86  C   UNL A   1      36.620  31.715  29.460  1.00  0.00     0.064 A 
ATOM     87  C   UNL A   1      36.611  33.085  29.168  1.00  0.00     0.173 A 
ATOM     88  C   UNL A   1      35.530  30.936  29.047  1.00  0.00     0.173 A 
ATOM     89  F   UNL A   1      37.632  33.865  29.555  1.00  0.00    -0.203 F 
ATOM     90  C   UNL A   1      35.537  33.659  28.500  1.00  0.00     0.198 A 
ATOM     91  C   UNL A   1      34.471  31.509  28.352  1.00  0.00     0.198 A 
ATOM     92  F   UNL A   1      35.506  29.618  29.298  1.00  0.00    -0.203 F 
ATOM     93  F   UNL A   1      35.527  34.978  28.261  1.00  0.00    -0.200 F 
ATOM     94  C   UNL A   1      34.474  32.870  28.085  1.00  0.00     0.200 A 
ATOM     95  F   UNL A   1      33.454  30.743  27.937  1.00  0.00    -0.200 F 
ATOM     96  F   UNL A   1      33.446  33.424  27.426  1.00  0.00    -0.200 F 
ENDBRANCH  63  86
ENDBRANCH  37  38
ENDBRANCH  30  32
ENDBRANCH  29  30
ENDBRANCH  28  29
ENDBRANCH  27  28
ENDBRANCH  26  27
ENDBRANCH  25  26
ENDBRANCH   1  25
TORSDOF 21
ENDMDL
MODEL 2
REMARK VINA RESULT:     -11.3      6.940     14.795
REMARK SMILES Cc1cccc(C[NH+]2CCC(OCC(=O)OCCOCCOCCOC(=O)c3ccc(-c4c5nc(c(-c6c(F)c(F)c(F)c(F)c6F)c6ccc([nH]6)c(-c6c(F)c(F)c(F)c(F)c6F)c6nc(c(-c7c(F)c(F)c(F)c(F)c7F)c7ccc4[nH]7)C=C6)C=C5)cc3)CC2)n1
REMARK SMILES IDX 20 1 19 2 18 3 17 4 16 5 14 6 15 7 13 8 12 9 11 10 8 11 9 12
REMARK SMILES IDX 92 13 10 15 91 16 7 17 6 18 1 19 2 20 3 21 93 22 4 23 5 24
REMARK SMILES IDX 21 25 22 26 23 27 24 28 25 29 26 30 27 31 28 32 29 33 90 34
REMARK SMILES IDX 30 35 89 36 31 37 32 38 33 39 83 40 34 41 88 42 82 43 84 44
REMARK SMILES IDX 35 45 87 46 81 47 80 48 36 50 68 51 48 52 67 53 49 54 52 55
REMARK SMILES IDX 66 56 85 57 50 58 51 59 65 61 86 62 53 63 37 64 38 65 46 66
REMARK SMILES IDX 39 67 40 68 44 69 47 70 41 71 42 72 45 73 43 74 69 75 70 76
REMARK SMILES IDX 78 77 71 78 72 79 76 80 79 81 73 82 74 83 77 84 75 85 54 86
REMARK SMILES IDX 55 87 63 88 56 89 57 90 61 91 64 92 58 93 59 94 62 95 60 96
REMARK H PARENT 8 14 84 49 52 60
REMARK Flexibility Score: inf
ROOT
ATOM      1  C   UNL A   1      36.326  33.292  31.130  1.00  0.00     0.188 C 
ENDROOT
BRANCH   1   2
ATOM      2  O   UNL A   1      37.226  33.397  30.030  1.00  0.00    -0.376 OA
BRANCH   2   3
ATOM      3  C   UNL A   1      38.131  34.490  30.024  1.00  0.00     0.202 C 
BRANCH   3   4
ATOM      4  C   UNL A   1      39.638  34.205  29.869  1.00  0.00     0.261 C 
BRANCH   4   5
ATOM      5  O   UNL A   1      40.465  35.197  29.216  1.00  0.00    -0.462 OA
BRANCH   5   6
ATOM      6  C   UNL A   1      41.791  34.876  29.139  1.00  0.00     0.332 C 
ATOM      7  O   UNL A   1      42.617  35.523  28.498  1.00  0.00    -0.250 OA
BRANCH   6   8
ATOM      8  C   UNL A   1      42.173  33.516  29.782  1.00  0.00     0.283 C 
BRANCH   8   9
ATOM      9  O   UNL A   1      43.419  33.072  30.255  1.00  0.00    -0.366 OA
BRANCH   9  10
ATOM     10  C   UNL A   1      43.626  31.679  30.499  1.00  0.00     0.130 C 
ATOM     11  N   UNL A   1      45.439  29.244  29.828  1.00  0.00    -0.330 N 
ATOM     12  C   UNL A   1      44.029  29.308  29.364  1.00  0.00     0.265 C 
ATOM     13  C   UNL A   1      45.383  30.043  31.103  1.00  0.00     0.265 C 
ATOM     14  H   UNL A   1      46.207  29.564  29.237  1.00  0.00     0.348 HD
ATOM     15  C   UNL A   1      43.259  30.678  29.392  1.00  0.00     0.093 C 
ATOM     16  C   UNL A   1      45.040  31.527  30.952  1.00  0.00     0.093 C 
BRANCH  11  17
ATOM     17  C   UNL A   1      46.570  27.982  29.354  1.00  0.00     0.319 C 
BRANCH  17  18
ATOM     18  C   UNL A   1      47.830  27.737  28.057  1.00  0.00     0.095 A 
ATOM     19  C   UNL A   1      47.529  25.501  25.115  1.00  0.00     0.067 C 
ATOM     20  C   UNL A   1      48.127  26.602  25.950  1.00  0.00     0.038 A 
ATOM     21  C   UNL A   1      48.834  27.617  25.375  1.00  0.00     0.023 A 
ATOM     22  N   UNL A   1      47.771  26.641  27.271  1.00  0.00    -0.252 NA
ATOM     23  C   UNL A   1      49.293  28.574  26.253  1.00  0.00     0.004 A 
ATOM     24  C   UNL A   1      48.858  28.585  27.608  1.00  0.00     0.030 A 
ENDBRANCH  17  18
ENDBRANCH  11  17
ENDBRANCH   9  10
ENDBRANCH   8   9
ENDBRANCH   6   8
ENDBRANCH   5   6
ENDBRANCH   4   5
ENDBRANCH   3   4
ENDBRANCH   2   3
ENDBRANCH   1   2
BRANCH   1  25
ATOM     25  C   UNL A   1      34.846  33.633  30.886  1.00  0.00     0.188 C 
BRANCH  25  26
ATOM     26  O   UNL A   1      34.454  34.997  30.723  1.00  0.00    -0.376 OA
BRANCH  26  27
ATOM     27  C   UNL A   1      33.253  35.118  29.894  1.00  0.00     0.202 C 
BRANCH  27  28
ATOM     28  C   UNL A   1      33.234  34.323  28.496  1.00  0.00     0.261 C 
BRANCH  28  29
ATOM     29  O   UNL A   1      33.685  32.712  27.986  1.00  0.00    -0.460 OA
BRANCH  29  30
ATOM     30  C   UNL A   1      34.315  31.434  27.748  1.00  0.00     0.338 C 
ATOM     31  O   UNL A   1      33.648  30.698  26.998  1.00  0.00    -0.246 OA
BRANCH  30  32
ATOM     32  C   UNL A   1      35.795  30.633  28.119  1.00  0.00     0.060 A 
ATOM     33  C   UNL A   1      35.861  29.924  29.340  1.00  0.00     0.016 A 
ATOM     34  C   UNL A   1      37.013  30.413  27.398  1.00  0.00     0.016 A 
ATOM     35  C   UNL A   1      36.994  29.127  29.740  1.00  0.00     0.010 A 
ATOM     36  C   UNL A   1      38.175  29.725  27.791  1.00  0.00     0.010 A 
ATOM     37  C   UNL A   1      38.176  29.070  28.986  1.00  0.00    -0.014 A 
BRANCH  37  38
ATOM     38  C   UNL A   1      39.483  28.619  29.521  1.00  0.00     0.031 A 
ATOM     39  C   UNL A   1      39.999  29.400  30.694  1.00  0.00     0.074 A 
ATOM     40  C   UNL A   1      40.217  27.654  28.933  1.00  0.00     0.049 A 
ATOM     41  N   UNL A   1      40.956  29.119  31.531  1.00  0.00    -0.248 NA
ATOM     42  C   UNL A   1      39.320  30.680  30.984  1.00  0.00     0.031 C 
ATOM     43  C   UNL A   1      39.870  26.964  27.689  1.00  0.00     0.029 A 
ATOM     44  N   UNL A   1      41.407  27.075  29.303  1.00  0.00    -0.354 N 
ATOM     45  C   UNL A   1      40.916  30.125  32.492  1.00  0.00     0.074 A 
ATOM     46  C   UNL A   1      39.887  31.059  32.087  1.00  0.00     0.031 C 
ATOM     47  C   UNL A   1      40.799  26.025  27.425  1.00  0.00     0.029 A 
ATOM     48  C   UNL A   1      41.802  26.040  28.483  1.00  0.00     0.049 A 
ATOM     49  H   UNL A   1      41.930  27.372  30.083  1.00  0.00     0.167 HD
ATOM     50  C   UNL A   1      41.661  30.232  33.609  1.00  0.00     0.037 A 
ATOM     51  C   UNL A   1      42.843  25.190  28.614  1.00  0.00     0.037 A 
ATOM     52  C   UNL A   1      42.760  29.345  33.878  1.00  0.00     0.049 A 
ATOM     53  C   UNL A   1      43.688  25.334  29.859  1.00  0.00     0.074 A 
ATOM     54  C   UNL A   1      43.660  29.353  34.921  1.00  0.00     0.029 A 
ATOM     55  N   UNL A   1      43.123  28.299  33.032  1.00  0.00    -0.354 N 
ATOM     56  N   UNL A   1      43.571  26.207  30.836  1.00  0.00    -0.248 NA
ATOM     57  C   UNL A   1      44.788  24.379  30.039  1.00  0.00     0.031 C 
ATOM     58  C   UNL A   1      44.597  28.339  34.681  1.00  0.00     0.029 A 
ATOM     59  C   UNL A   1      44.246  27.663  33.518  1.00  0.00     0.049 A 
ATOM     60  H   UNL A   1      42.646  28.050  32.206  1.00  0.00     0.167 HD
ATOM     61  C   UNL A   1      44.566  25.903  31.752  1.00  0.00     0.074 A 
ATOM     62  C   UNL A   1      45.265  24.746  31.221  1.00  0.00     0.031 C 
ATOM     63  C   UNL A   1      44.888  26.515  32.921  1.00  0.00     0.037 A 
BRANCH  50  64
ATOM     64  C   UNL A   1      41.323  31.360  34.541  1.00  0.00     0.064 A 
ATOM     65  C   UNL A   1      42.076  32.549  34.546  1.00  0.00     0.173 A 
ATOM     66  C   UNL A   1      40.316  31.226  35.505  1.00  0.00     0.173 A 
ATOM     67  F   UNL A   1      43.074  32.721  33.666  1.00  0.00    -0.203 F 
ATOM     68  C   UNL A   1      41.862  33.535  35.509  1.00  0.00     0.198 A 
ATOM     69  C   UNL A   1      40.088  32.225  36.452  1.00  0.00     0.198 A 
ATOM     70  F   UNL A   1      39.577  30.109  35.559  1.00  0.00    -0.203 F 
ATOM     71  F   UNL A   1      42.646  34.623  35.541  1.00  0.00    -0.200 F 
ATOM     72  C   UNL A   1      40.870  33.371  36.462  1.00  0.00     0.200 A 
ATOM     73  F   UNL A   1      39.132  32.062  37.378  1.00  0.00    -0.200 F 
ATOM     74  F   UNL A   1      40.682  34.305  37.405  1.00  0.00    -0.200 F 
ENDBRANCH  50  64
BRANCH  51  75
ATOM     75  C   UNL A   1      43.098  24.126  27.596  1.00  0.00     0.064 A 
ATOM     76  C   UNL A   1      42.552  22.838  27.715  1.00  0.00     0.173 A 
ATOM     77  C   UNL A   1      43.887  24.381  26.461  1.00  0.00     0.173 A 
ATOM     78  F   UNL A   1      41.806  22.522  28.783  1.00  0.00    -0.203 F 
ATOM     79  C   UNL A   1      42.789  21.853  26.751  1.00  0.00     0.198 A 
ATOM     80  C   UNL A   1      44.103  23.404  25.486  1.00  0.00     0.198 A 
ATOM     81  F   UNL A   1      44.439  25.591  26.289  1.00  0.00    -0.203 F 
ATOM     82  F   UNL A   1      42.278  20.624  26.910  1.00  0.00    -0.200 F 
ATOM     83  C   UNL A   1      43.557  22.140  25.633  1.00  0.00     0.200 A 
ATOM     84  F   UNL A   1      44.837  23.692  24.403  1.00  0.00    -0.200 F 
ATOM     85  F   UNL A   1      43.775  21.199  24.704  1.00  0.00    -0.200 F 
ENDBRANCH  51  75
BRANCH  63  86
ATOM     86  C   UNL A   1      46.033  25.930  33.685  1.00  0.00     0.064 A 
ATOM     87  C   UNL A   1      45.839  24.894  34.608  1.00  0.00     0.173 A 
ATOM     88  C   UNL A   1      47.343  26.358  33.427  1.00  0.00     0.173 A 
ATOM     89  F   UNL A   1      44.601  24.462  34.889  1.00  0.00    -0.203 F 
ATOM     90  C   UNL A   1      46.921  24.319  35.263  1.00  0.00     0.198 A 
ATOM     91  C   UNL A   1      48.423  25.760  34.062  1.00  0.00     0.198 A 
ATOM     92  F   UNL A   1      47.571  27.341  32.541  1.00  0.00    -0.203 F 
ATOM     93  F   UNL A   1      46.714  23.354  36.171  1.00  0.00    -0.200 F 
ATOM     94  C   UNL A   1      48.211  24.744  34.984  1.00  0.00     0.200 A 
ATOM     95  F   UNL A   1      49.670  26.159  33.777  1.00  0.00    -0.200 F 
ATOM     96  F   UNL A   1      49.253  24.177  35.605  1.00  0.00    -0.200 F 
ENDBRANCH  63  86
ENDBRANCH  37  38
ENDBRANCH  30  32
ENDBRANCH  29  30
ENDBRANCH  28  29
ENDBRANCH  27  28
ENDBRANCH  26  27
ENDBRANCH  25  26
ENDBRANCH   1  25
TORSDOF 21
ENDMDL
MODEL 3
REMARK VINA RESULT:     -11.1      7.185     14.867
REMARK SMILES Cc1cccc(C[NH+]2CCC(OCC(=O)OCCOCCOCCOC(=O)c3ccc(-c4c5nc(c(-c6c(F)c(F)c(F)c(F)c6F)c6ccc([nH]6)c(-c6c(F)c(F)c(F)c(F)c6F)c6nc(c(-c7c(F)c(F)c(F)c(F)c7F)c7ccc4[nH]7)C=C6)C=C5)cc3)CC2)n1
REMARK SMILES IDX 20 1 19 2 18 3 17 4 16 5 14 6 15 7 13 8 12 9 11 10 8 11 9 12
REMARK SMILES IDX 92 13 10 15 91 16 7 17 6 18 1 19 2 20 3 21 93 22 4 23 5 24
REMARK SMILES IDX 21 25 22 26 23 27 24 28 25 29 26 30 27 31 28 32 29 33 90 34
REMARK SMILES IDX 30 35 89 36 31 37 32 38 33 39 83 40 34 41 88 42 82 43 84 44
REMARK SMILES IDX 35 45 87 46 81 47 80 48 36 50 68 51 48 52 67 53 49 54 52 55
REMARK SMILES IDX 66 56 85 57 50 58 51 59 65 61 86 62 53 63 37 64 38 65 46 66
REMARK SMILES IDX 39 67 40 68 44 69 47 70 41 71 42 72 45 73 43 74 69 75 70 76
REMARK SMILES IDX 78 77 71 78 72 79 76 80 79 81 73 82 74 83 77 84 75 85 54 86
REMARK SMILES IDX 55 87 63 88 56 89 57 90 61 91 64 92 58 93 59 94 62 95 60 96
REMARK H PARENT 8 14 84 49 52 60
REMARK Flexibility Score: inf
ROOT
ATOM      1  C   UNL A   1      35.617  34.235  31.948  1.00  0.00     0.188 C 
ENDROOT
BRANCH   1   2
ATOM      2  O   UNL A   1      36.602  33.671  31.087  1.00  0.00    -0.376 OA
BRANCH   2   3
ATOM      3  C   UNL A   1      37.896  34.253  31.100  1.00  0.00     0.202 C 
BRANCH   3   4
ATOM      4  C   UNL A   1      38.846  33.975  29.917  1.00  0.00     0.261 C 
BRANCH   4   5
ATOM      5  O   UNL A   1      39.898  34.928  29.639  1.00  0.00    -0.462 OA
BRANCH   5   6
ATOM      6  C   UNL A   1      41.159  34.494  29.943  1.00  0.00     0.332 C 
ATOM      7  O   UNL A   1      41.413  33.715  30.858  1.00  0.00    -0.250 OA
BRANCH   6   8
ATOM      8  C   UNL A   1      42.298  35.193  29.156  1.00  0.00     0.283 C 
BRANCH   8   9
ATOM      9  O   UNL A   1      42.911  34.815  27.949  1.00  0.00    -0.366 OA
BRANCH   9  10
ATOM     10  C   UNL A   1      44.090  34.008  27.978  1.00  0.00     0.130 C 
ATOM     11  N   UNL A   1      45.181  31.123  27.587  1.00  0.00    -0.330 N 
ATOM     12  C   UNL A   1      45.172  31.770  28.925  1.00  0.00     0.265 C 
ATOM     13  C   UNL A   1      45.325  32.308  26.670  1.00  0.00     0.265 C 
ATOM     14  H   UNL A   1      44.412  30.524  27.283  1.00  0.00     0.348 HD
ATOM     15  C   UNL A   1      44.297  33.053  29.165  1.00  0.00     0.093 C 
ATOM     16  C   UNL A   1      44.160  33.301  26.666  1.00  0.00     0.093 C 
BRANCH  11  17
ATOM     17  C   UNL A   1      45.629  29.443  27.315  1.00  0.00     0.319 C 
BRANCH  17  18
ATOM     18  C   UNL A   1      46.408  28.097  28.270  1.00  0.00     0.095 A 
ATOM     19  C   UNL A   1      47.570  24.848  26.914  1.00  0.00     0.067 C 
ATOM     20  C   UNL A   1      47.448  25.947  27.936  1.00  0.00     0.038 A 
ATOM     21  C   UNL A   1      48.416  26.144  28.877  1.00  0.00     0.023 A 
ATOM     22  N   UNL A   1      46.432  26.848  27.759  1.00  0.00    -0.252 NA
ATOM     23  C   UNL A   1      48.192  27.206  29.725  1.00  0.00     0.004 A 
ATOM     24  C   UNL A   1      47.142  28.132  29.468  1.00  0.00     0.030 A 
ENDBRANCH  17  18
ENDBRANCH  11  17
ENDBRANCH   9  10
ENDBRANCH   8   9
ENDBRANCH   6   8
ENDBRANCH   5   6
ENDBRANCH   4   5
ENDBRANCH   3   4
ENDBRANCH   2   3
ENDBRANCH   1   2
BRANCH   1  25
ATOM     25  C   UNL A   1      34.226  34.529  31.359  1.00  0.00     0.188 C 
BRANCH  25  26
ATOM     26  O   UNL A   1      34.059  35.625  30.459  1.00  0.00    -0.376 OA
BRANCH  26  27
ATOM     27  C   UNL A   1      32.956  35.392  29.523  1.00  0.00     0.202 C 
BRANCH  27  28
ATOM     28  C   UNL A   1      33.185  34.298  28.366  1.00  0.00     0.261 C 
BRANCH  28  29
ATOM     29  O   UNL A   1      33.778  32.653  28.322  1.00  0.00    -0.460 OA
BRANCH  29  30
ATOM     30  C   UNL A   1      34.417  31.393  28.019  1.00  0.00     0.338 C 
ATOM     31  O   UNL A   1      33.750  30.687  27.241  1.00  0.00    -0.246 OA
BRANCH  30  32
ATOM     32  C   UNL A   1      35.908  30.591  28.339  1.00  0.00     0.060 A 
ATOM     33  C   UNL A   1      36.035  29.928  29.581  1.00  0.00     0.016 A 
ATOM     34  C   UNL A   1      37.083  30.331  27.561  1.00  0.00     0.016 A 
ATOM     35  C   UNL A   1      37.181  29.134  29.948  1.00  0.00     0.010 A 
ATOM     36  C   UNL A   1      38.259  29.646  27.916  1.00  0.00     0.010 A 
ATOM     37  C   UNL A   1      38.320  29.036  29.134  1.00  0.00    -0.014 A 
BRANCH  37  38
ATOM     38  C   UNL A   1      39.649  28.591  29.613  1.00  0.00     0.031 A 
ATOM     39  C   UNL A   1      40.207  29.368  30.770  1.00  0.00     0.074 A 
ATOM     40  C   UNL A   1      40.366  27.634  28.991  1.00  0.00     0.049 A 
ATOM     41  N   UNL A   1      41.198  29.089  31.566  1.00  0.00    -0.248 NA
ATOM     42  C   UNL A   1      39.531  30.642  31.095  1.00  0.00     0.031 C 
ATOM     43  C   UNL A   1      39.975  26.949  27.757  1.00  0.00     0.029 A 
ATOM     44  N   UNL A   1      41.574  27.062  29.310  1.00  0.00    -0.354 N 
ATOM     45  C   UNL A   1      41.190  30.089  32.535  1.00  0.00     0.074 A 
ATOM     46  C   UNL A   1      40.139  31.018  32.176  1.00  0.00     0.031 C 
ATOM     47  C   UNL A   1      40.898  26.019  27.451  1.00  0.00     0.029 A 
ATOM     48  C   UNL A   1      41.944  26.035  28.468  1.00  0.00     0.049 A 
ATOM     49  H   UNL A   1      42.125  27.358  30.070  1.00  0.00     0.167 HD
ATOM     50  C   UNL A   1      41.978  30.195  33.621  1.00  0.00     0.037 A 
ATOM     51  C   UNL A   1      42.994  25.191  28.553  1.00  0.00     0.037 A 
ATOM     52  C   UNL A   1      43.092  29.315  33.841  1.00  0.00     0.049 A 
ATOM     53  C   UNL A   1      43.887  25.335  29.763  1.00  0.00     0.074 A 
ATOM     54  C   UNL A   1      44.033  29.322  34.848  1.00  0.00     0.029 A 
ATOM     55  N   UNL A   1      43.428  28.276  32.975  1.00  0.00    -0.354 N 
ATOM     56  N   UNL A   1      43.803  26.200  30.750  1.00  0.00    -0.248 NA
ATOM     57  C   UNL A   1      45.000  24.386  29.894  1.00  0.00     0.031 C 
ATOM     58  C   UNL A   1      44.967  28.316  34.564  1.00  0.00     0.029 A 
ATOM     59  C   UNL A   1      44.575  27.645  33.412  1.00  0.00     0.049 A 
ATOM     60  H   UNL A   1      42.921  28.029  32.167  1.00  0.00     0.167 HD
ATOM     61  C   UNL A   1      44.836  25.899  31.623  1.00  0.00     0.074 A 
ATOM     62  C   UNL A   1      45.521  24.749  31.058  1.00  0.00     0.031 C 
ATOM     63  C   UNL A   1      45.200  26.505  32.783  1.00  0.00     0.037 A 
BRANCH  50  64
ATOM     64  C   UNL A   1      41.670  31.316  34.573  1.00  0.00     0.064 A 
ATOM     65  C   UNL A   1      40.685  31.174  35.568  1.00  0.00     0.173 A 
ATOM     66  C   UNL A   1      42.278  32.570  34.436  1.00  0.00     0.173 A 
ATOM     67  F   UNL A   1      40.046  30.004  35.726  1.00  0.00    -0.203 F 
ATOM     68  C   UNL A   1      40.291  32.257  36.353  1.00  0.00     0.198 A 
ATOM     69  C   UNL A   1      41.898  33.645  35.240  1.00  0.00     0.198 A 
ATOM     70  F   UNL A   1      43.212  32.769  33.495  1.00  0.00    -0.203 F 
ATOM     71  F   UNL A   1      39.294  32.116  37.239  1.00  0.00    -0.200 F 
ATOM     72  C   UNL A   1      40.897  33.492  36.187  1.00  0.00     0.200 A 
ATOM     73  F   UNL A   1      42.480  34.842  35.073  1.00  0.00    -0.200 F 
ATOM     74  F   UNL A   1      40.499  34.541  36.921  1.00  0.00    -0.200 F 
ENDBRANCH  50  64
BRANCH  51  75
ATOM     75  C   UNL A   1      43.216  24.135  27.518  1.00  0.00     0.064 A 
ATOM     76  C   UNL A   1      43.928  24.392  26.335  1.00  0.00     0.173 A 
ATOM     77  C   UNL A   1      42.734  22.828  27.700  1.00  0.00     0.173 A 
ATOM     78  F   UNL A   1      44.399  25.623  26.091  1.00  0.00    -0.203 F 
ATOM     79  C   UNL A   1      44.139  23.394  25.379  1.00  0.00     0.198 A 
ATOM     80  C   UNL A   1      42.966  21.825  26.756  1.00  0.00     0.198 A 
ATOM     81  F   UNL A   1      42.045  22.517  28.808  1.00  0.00    -0.203 F 
ATOM     82  F   UNL A   1      44.796  23.681  24.246  1.00  0.00    -0.200 F 
ATOM     83  C   UNL A   1      43.665  22.109  25.594  1.00  0.00     0.200 A 
ATOM     84  F   UNL A   1      42.515  20.583  26.976  1.00  0.00    -0.200 F 
ATOM     85  F   UNL A   1      43.877  21.150  24.683  1.00  0.00    -0.200 F 
ENDBRANCH  51  75
BRANCH  63  86
ATOM     86  C   UNL A   1      46.378  25.924  33.497  1.00  0.00     0.064 A 
ATOM     87  C   UNL A   1      46.280  24.718  34.203  1.00  0.00     0.173 A 
ATOM     88  C   UNL A   1      47.634  26.542  33.401  1.00  0.00     0.173 A 
ATOM     89  F   UNL A   1      45.095  24.101  34.325  1.00  0.00    -0.203 F 
ATOM     90  C   UNL A   1      47.399  24.159  34.809  1.00  0.00     0.198 A 
ATOM     91  C   UNL A   1      48.755  25.964  33.983  1.00  0.00     0.198 A 
ATOM     92  F   UNL A   1      47.772  27.692  32.723  1.00  0.00    -0.203 F 
ATOM     93  F   UNL A   1      47.279  23.025  35.513  1.00  0.00    -0.200 F 
ATOM     94  C   UNL A   1      48.635  24.776  34.690  1.00  0.00     0.200 A 
ATOM     95  F   UNL A   1      49.952  26.551  33.852  1.00  0.00    -0.200 F 
ATOM     96  F   UNL A   1      49.716  24.227  35.262  1.00  0.00    -0.200 F 
ENDBRANCH  63  86
ENDBRANCH  37  38
ENDBRANCH  30  32
ENDBRANCH  29  30
ENDBRANCH  28  29
ENDBRANCH  27  28
ENDBRANCH  26  27
ENDBRANCH  25  26
ENDBRANCH   1  25
TORSDOF 21
ENDMDL
