MODEL 1
REMARK VINA RESULT:     -10.9      0.000      0.000
REMARK SMILES C[C@@H]([NH+]1CCC(n2cccc2C(=O)OCCOCCOCCOC(=O)c2ccc(-c3c4nc(c(-c5c(F)c(F)c(F)c(F)c5F)c5ccc([nH]5)c(-c5c(F)c(F)c(F)c(F)c5F)c5nc(c(-c6c(F)c(F)c(F)c(F)c6F)c6ccc3[nH]6)C=C5)C=C4)cc2)CC1)C1(C)CC1
REMARK SMILES IDX 18 1 17 2 16 3 15 4 14 5 12 6 13 7 11 8 7 9 8 10 9 11 10 12
REMARK SMILES IDX 6 13 3 14 4 15 90 16 5 18 89 19 2 20 1 21 91 22 92 23 93 24
REMARK SMILES IDX 94 25 19 26 20 27 21 28 22 29 23 30 24 31 25 32 26 33 27 34
REMARK SMILES IDX 88 35 28 36 87 37 29 38 30 39 31 40 81 41 32 42 86 43 80 44
REMARK SMILES IDX 82 45 33 46 85 47 79 48 78 49 34 51 66 52 46 53 65 54 47 55
REMARK SMILES IDX 50 56 64 57 83 58 48 59 49 60 63 62 84 63 51 64 35 65 36 66
REMARK SMILES IDX 44 67 37 68 38 69 42 70 45 71 39 72 40 73 43 74 41 75 67 76
REMARK SMILES IDX 68 77 76 78 69 79 70 80 74 81 77 82 71 83 72 84 75 85 73 86
REMARK SMILES IDX 52 87 53 88 61 89 54 90 55 91 59 92 62 93 56 94 57 95 60 96
REMARK SMILES IDX 58 97
REMARK H PARENT 3 17 82 50 50 61
REMARK Flexibility Score: inf
ROOT
ATOM      1  C   UNL A   1      34.307  32.980  28.111  1.00  0.00     0.188 C 
ENDROOT
BRANCH   1   2
ATOM      2  O   UNL A   1      33.356  32.079  27.591  1.00  0.00    -0.376 OA
BRANCH   2   3
ATOM      3  C   UNL A   1      33.681  30.714  27.368  1.00  0.00     0.202 C 
BRANCH   3   4
ATOM      4  C   UNL A   1      32.641  29.651  26.982  1.00  0.00     0.261 C 
BRANCH   4   5
ATOM      5  O   UNL A   1      31.934  29.964  25.789  1.00  0.00    -0.459 OA
BRANCH   5   6
ATOM      6  C   UNL A   1      32.309  29.285  24.664  1.00  0.00     0.355 C 
ATOM      7  O   UNL A   1      33.438  29.241  24.237  1.00  0.00    -0.244 OA
BRANCH   6   8
ATOM      8  C   UNL A   1      31.188  28.502  24.175  1.00  0.00     0.127 A 
ATOM      9  N   UNL A   1      30.866  27.154  24.340  1.00  0.00    -0.339 N 
ATOM     10  C   UNL A   1      29.618  26.949  23.766  1.00  0.00     0.086 A 
ATOM     11  C   UNL A   1      29.211  28.091  23.125  1.00  0.00     0.020 A 
ATOM     12  C   UNL A   1      30.181  29.067  23.397  1.00  0.00     0.035 A 
BRANCH   9  13
ATOM     13  C   UNL A   1      31.546  26.076  25.099  1.00  0.00     0.098 C 
ATOM     14  N   UNL A   1      32.757  23.395  25.484  1.00  0.00    -0.332 N 
ATOM     15  C   UNL A   1      31.403  23.658  25.950  1.00  0.00     0.264 C 
ATOM     16  C   UNL A   1      33.596  24.575  25.371  1.00  0.00     0.264 C 
ATOM     17  H   UNL A   1      32.585  23.103  24.522  1.00  0.00     0.348 HD
ATOM     18  C   UNL A   1      30.712  24.777  25.160  1.00  0.00     0.087 C 
ATOM     19  C   UNL A   1      32.942  25.708  24.611  1.00  0.00     0.087 C 
BRANCH  14  20
ATOM     20  C   UNL A   1      33.440  22.205  26.030  1.00  0.00     0.186 C 
ATOM     21  C   UNL A   1      34.753  22.648  26.712  1.00  0.00     0.076 C 
BRANCH  20  22
ATOM     22  C   UNL A   1      33.624  20.960  25.118  1.00  0.00     0.019 C 
ATOM     23  C   UNL A   1      35.057  20.604  24.773  1.00  0.00     0.018 C 
ATOM     24  C   UNL A   1      32.757  19.745  25.435  1.00  0.00     0.013 C 
ATOM     25  C   UNL A   1      32.570  20.467  24.134  1.00  0.00     0.013 C 
ENDBRANCH  20  22
ENDBRANCH  14  20
ENDBRANCH   9  13
ENDBRANCH   6   8
ENDBRANCH   5   6
ENDBRANCH   4   5
ENDBRANCH   3   4
ENDBRANCH   2   3
ENDBRANCH   1   2
BRANCH   1  26
ATOM     26  C   UNL A   1      33.751  34.328  28.625  1.00  0.00     0.188 C 
BRANCH  26  27
ATOM     27  O   UNL A   1      33.281  34.554  29.946  1.00  0.00    -0.376 OA
BRANCH  27  28
ATOM     28  C   UNL A   1      34.139  34.906  31.013  1.00  0.00     0.202 C 
BRANCH  28  29
ATOM     29  C   UNL A   1      34.291  33.927  32.180  1.00  0.00     0.261 C 
BRANCH  29  30
ATOM     30  O   UNL A   1      34.784  32.639  31.834  1.00  0.00    -0.460 OA
BRANCH  30  31
ATOM     31  C   UNL A   1      35.765  32.226  32.663  1.00  0.00     0.338 C 
ATOM     32  O   UNL A   1      35.953  32.521  33.830  1.00  0.00    -0.246 OA
BRANCH  31  33
ATOM     33  C   UNL A   1      36.687  31.374  31.923  1.00  0.00     0.060 A 
ATOM     34  C   UNL A   1      37.467  30.469  32.647  1.00  0.00     0.016 A 
ATOM     35  C   UNL A   1      36.923  31.655  30.573  1.00  0.00     0.016 A 
ATOM     36  C   UNL A   1      38.559  29.892  32.029  1.00  0.00     0.010 A 
ATOM     37  C   UNL A   1      38.037  31.109  29.967  1.00  0.00     0.010 A 
ATOM     38  C   UNL A   1      38.864  30.254  30.710  1.00  0.00    -0.014 A 
BRANCH  38  39
ATOM     39  C   UNL A   1      40.068  29.676  30.095  1.00  0.00     0.031 A 
ATOM     40  C   UNL A   1      41.201  30.696  29.968  1.00  0.00     0.074 A 
ATOM     41  C   UNL A   1      39.960  28.364  29.730  1.00  0.00     0.049 A 
ATOM     42  N   UNL A   1      42.258  30.679  29.217  1.00  0.00    -0.248 NA
ATOM     43  C   UNL A   1      41.130  31.947  30.774  1.00  0.00     0.031 C 
ATOM     44  C   UNL A   1      38.762  27.528  29.963  1.00  0.00     0.029 A 
ATOM     45  N   UNL A   1      40.797  27.472  29.092  1.00  0.00    -0.354 N 
ATOM     46  C   UNL A   1      43.060  31.769  29.607  1.00  0.00     0.074 A 
ATOM     47  C   UNL A   1      42.270  32.573  30.487  1.00  0.00     0.031 C 
ATOM     48  C   UNL A   1      38.914  26.305  29.416  1.00  0.00     0.029 A 
ATOM     49  C   UNL A   1      40.223  26.204  28.805  1.00  0.00     0.049 A 
ATOM     50  H   UNL A   1      41.724  27.697  28.852  1.00  0.00     0.167 HD
ATOM     51  C   UNL A   1      44.382  31.873  29.292  1.00  0.00     0.037 A 
ATOM     52  C   UNL A   1      40.751  25.160  28.096  1.00  0.00     0.037 A 
ATOM     53  C   UNL A   1      44.773  30.825  28.413  1.00  0.00     0.049 A 
ATOM     54  C   UNL A   1      42.136  25.559  27.803  1.00  0.00     0.074 A 
ATOM     55  C   UNL A   1      44.582  30.608  27.076  1.00  0.00     0.029 A 
ATOM     56  N   UNL A   1      45.233  29.668  28.987  1.00  0.00    -0.354 N 
ATOM     57  N   UNL A   1      43.104  25.546  28.669  1.00  0.00    -0.248 NA
ATOM     58  C   UNL A   1      42.451  26.102  26.477  1.00  0.00     0.031 C 
ATOM     59  C   UNL A   1      44.582  29.203  26.942  1.00  0.00     0.029 A 
ATOM     60  C   UNL A   1      44.850  28.621  28.185  1.00  0.00     0.049 A 
ATOM     61  H   UNL A   1      45.745  29.599  29.825  1.00  0.00     0.167 HD
ATOM     62  C   UNL A   1      44.037  26.368  28.081  1.00  0.00     0.074 A 
ATOM     63  C   UNL A   1      43.733  26.393  26.670  1.00  0.00     0.031 C 
ATOM     64  C   UNL A   1      44.639  27.338  28.814  1.00  0.00     0.037 A 
BRANCH  51  65
ATOM     65  C   UNL A   1      45.468  32.724  29.885  1.00  0.00     0.064 A 
ATOM     66  C   UNL A   1      46.259  33.508  29.010  1.00  0.00     0.173 A 
ATOM     67  C   UNL A   1      45.984  32.523  31.173  1.00  0.00     0.173 A 
ATOM     68  F   UNL A   1      45.830  33.796  27.771  1.00  0.00    -0.203 F 
ATOM     69  C   UNL A   1      47.539  33.936  29.355  1.00  0.00     0.198 A 
ATOM     70  C   UNL A   1      47.248  33.000  31.533  1.00  0.00     0.198 A 
ATOM     71  F   UNL A   1      45.332  31.779  32.075  1.00  0.00    -0.203 F 
ATOM     72  F   UNL A   1      48.306  34.550  28.443  1.00  0.00    -0.200 F 
ATOM     73  C   UNL A   1      48.041  33.665  30.612  1.00  0.00     0.200 A 
ATOM     74  F   UNL A   1      47.730  32.742  32.757  1.00  0.00    -0.200 F 
ATOM     75  F   UNL A   1      49.297  34.010  30.924  1.00  0.00    -0.200 F 
ENDBRANCH  51  65
BRANCH  52  76
ATOM     76  C   UNL A   1      40.295  23.826  27.540  1.00  0.00     0.064 A 
ATOM     77  C   UNL A   1      39.258  23.624  26.619  1.00  0.00     0.173 A 
ATOM     78  C   UNL A   1      40.955  22.624  27.932  1.00  0.00     0.173 A 
ATOM     79  F   UNL A   1      38.455  24.627  26.251  1.00  0.00    -0.203 F 
ATOM     80  C   UNL A   1      38.981  22.359  26.064  1.00  0.00     0.198 A 
ATOM     81  C   UNL A   1      40.701  21.376  27.365  1.00  0.00     0.198 A 
ATOM     82  F   UNL A   1      41.886  22.610  28.895  1.00  0.00    -0.203 F 
ATOM     83  F   UNL A   1      37.986  22.228  25.175  1.00  0.00    -0.200 F 
ATOM     84  C   UNL A   1      39.721  21.244  26.413  1.00  0.00     0.200 A 
ATOM     85  F   UNL A   1      41.426  20.313  27.745  1.00  0.00    -0.200 F 
ATOM     86  F   UNL A   1      39.482  20.051  25.852  1.00  0.00    -0.200 F 
ENDBRANCH  52  76
BRANCH  64  87
ATOM     87  C   UNL A   1      44.594  27.074  30.306  1.00  0.00     0.064 A 
ATOM     88  C   UNL A   1      45.325  26.012  30.855  1.00  0.00     0.173 A 
ATOM     89  C   UNL A   1      43.737  27.756  31.188  1.00  0.00     0.173 A 
ATOM     90  F   UNL A   1      46.173  25.315  30.083  1.00  0.00    -0.203 F 
ATOM     91  C   UNL A   1      45.193  25.650  32.199  1.00  0.00     0.198 A 
ATOM     92  C   UNL A   1      43.608  27.404  32.531  1.00  0.00     0.198 A 
ATOM     93  F   UNL A   1      43.009  28.786  30.762  1.00  0.00    -0.203 F 
ATOM     94  F   UNL A   1      45.906  24.626  32.687  1.00  0.00    -0.200 F 
ATOM     95  C   UNL A   1      44.333  26.345  33.036  1.00  0.00     0.200 A 
ATOM     96  F   UNL A   1      42.785  28.100  33.331  1.00  0.00    -0.200 F 
ATOM     97  F   UNL A   1      44.215  26.002  34.327  1.00  0.00    -0.200 F 
ENDBRANCH  64  87
ENDBRANCH  38  39
ENDBRANCH  31  33
ENDBRANCH  30  31
ENDBRANCH  29  30
ENDBRANCH  28  29
ENDBRANCH  27  28
ENDBRANCH  26  27
ENDBRANCH   1  26
TORSDOF 20
ENDMDL
MODEL 2
REMARK VINA RESULT:     -10.7      4.590      9.843
REMARK SMILES C[C@@H]([NH+]1CCC(n2cccc2C(=O)OCCOCCOCCOC(=O)c2ccc(-c3c4nc(c(-c5c(F)c(F)c(F)c(F)c5F)c5ccc([nH]5)c(-c5c(F)c(F)c(F)c(F)c5F)c5nc(c(-c6c(F)c(F)c(F)c(F)c6F)c6ccc3[nH]6)C=C5)C=C4)cc2)CC1)C1(C)CC1
REMARK SMILES IDX 18 1 17 2 16 3 15 4 14 5 12 6 13 7 11 8 7 9 8 10 9 11 10 12
REMARK SMILES IDX 6 13 3 14 4 15 90 16 5 18 89 19 2 20 1 21 91 22 92 23 93 24
REMARK SMILES IDX 94 25 19 26 20 27 21 28 22 29 23 30 24 31 25 32 26 33 27 34
REMARK SMILES IDX 88 35 28 36 87 37 29 38 30 39 31 40 81 41 32 42 86 43 80 44
REMARK SMILES IDX 82 45 33 46 85 47 79 48 78 49 34 51 66 52 46 53 65 54 47 55
REMARK SMILES IDX 50 56 64 57 83 58 48 59 49 60 63 62 84 63 51 64 35 65 36 66
REMARK SMILES IDX 44 67 37 68 38 69 42 70 45 71 39 72 40 73 43 74 41 75 67 76
REMARK SMILES IDX 68 77 76 78 69 79 70 80 74 81 77 82 71 83 72 84 75 85 73 86
REMARK SMILES IDX 52 87 53 88 61 89 54 90 55 91 59 92 62 93 56 94 57 95 60 96
REMARK SMILES IDX 58 97
REMARK H PARENT 3 17 82 50 50 61
REMARK Flexibility Score: inf
ROOT
ATOM      1  C   UNL A   1      39.569  21.131  26.178  1.00  0.00     0.188 C 
ENDROOT
BRANCH   1   2
ATOM      2  O   UNL A   1      38.760  22.285  26.231  1.00  0.00    -0.376 OA
BRANCH   2   3
ATOM      3  C   UNL A   1      37.679  22.466  25.327  1.00  0.00     0.202 C 
BRANCH   3   4
ATOM      4  C   UNL A   1      36.203  22.383  25.749  1.00  0.00     0.261 C 
BRANCH   4   5
ATOM      5  O   UNL A   1      35.562  21.189  25.320  1.00  0.00    -0.459 OA
BRANCH   5   6
ATOM      6  C   UNL A   1      34.321  20.946  25.839  1.00  0.00     0.355 C 
ATOM      7  O   UNL A   1      33.927  21.375  26.897  1.00  0.00    -0.244 OA
BRANCH   6   8
ATOM      8  C   UNL A   1      33.513  20.249  24.855  1.00  0.00     0.127 A 
ATOM      9  N   UNL A   1      32.701  20.729  23.825  1.00  0.00    -0.339 N 
ATOM     10  C   UNL A   1      32.252  19.632  23.101  1.00  0.00     0.086 A 
ATOM     11  C   UNL A   1      32.643  18.475  23.725  1.00  0.00     0.020 A 
ATOM     12  C   UNL A   1      33.447  18.860  24.809  1.00  0.00     0.035 A 
BRANCH   9  13
ATOM     13  C   UNL A   1      32.417  22.113  23.373  1.00  0.00     0.098 C 
ATOM     14  N   UNL A   1      32.494  25.074  23.533  1.00  0.00    -0.332 N 
ATOM     15  C   UNL A   1      31.300  24.351  23.949  1.00  0.00     0.264 C 
ATOM     16  C   UNL A   1      33.327  24.366  22.579  1.00  0.00     0.264 C 
ATOM     17  H   UNL A   1      33.034  25.083  24.399  1.00  0.00     0.348 HD
ATOM     18  C   UNL A   1      31.606  22.920  24.411  1.00  0.00     0.087 C 
ATOM     19  C   UNL A   1      33.637  22.943  22.991  1.00  0.00     0.087 C 
BRANCH  14  20
ATOM     20  C   UNL A   1      32.349  26.520  23.269  1.00  0.00     0.186 C 
ATOM     21  C   UNL A   1      33.296  26.917  22.116  1.00  0.00     0.076 C 
BRANCH  20  22
ATOM     22  C   UNL A   1      32.405  27.512  24.465  1.00  0.00     0.019 C 
ATOM     23  C   UNL A   1      33.745  28.185  24.696  1.00  0.00     0.018 C 
ATOM     24  C   UNL A   1      31.216  28.453  24.630  1.00  0.00     0.013 C 
ATOM     25  C   UNL A   1      31.496  27.423  25.684  1.00  0.00     0.013 C 
ENDBRANCH  20  22
ENDBRANCH  14  20
ENDBRANCH   9  13
ENDBRANCH   6   8
ENDBRANCH   5   6
ENDBRANCH   4   5
ENDBRANCH   3   4
ENDBRANCH   2   3
ENDBRANCH   1   2
BRANCH   1  26
ATOM     26  C   UNL A   1      41.095  21.377  26.150  1.00  0.00     0.188 C 
BRANCH  26  27
ATOM     27  O   UNL A   1      42.053  20.578  26.828  1.00  0.00    -0.376 OA
BRANCH  27  28
ATOM     28  C   UNL A   1      42.235  19.204  26.550  1.00  0.00     0.202 C 
BRANCH  28  29
ATOM     29  C   UNL A   1      43.381  18.793  25.622  1.00  0.00     0.261 C 
BRANCH  29  30
ATOM     30  O   UNL A   1      43.533  19.588  24.453  1.00  0.00    -0.460 OA
BRANCH  30  31
ATOM     31  C   UNL A   1      44.829  19.793  24.137  1.00  0.00     0.338 C 
ATOM     32  O   UNL A   1      45.624  19.018  23.635  1.00  0.00    -0.246 OA
BRANCH  31  33
ATOM     33  C   UNL A   1      45.218  21.131  24.565  1.00  0.00     0.060 A 
ATOM     34  C   UNL A   1      45.611  21.305  25.894  1.00  0.00     0.016 A 
ATOM     35  C   UNL A   1      44.960  22.209  23.711  1.00  0.00     0.016 A 
ATOM     36  C   UNL A   1      45.670  22.586  26.405  1.00  0.00     0.010 A 
ATOM     37  C   UNL A   1      44.981  23.488  24.233  1.00  0.00     0.010 A 
ATOM     38  C   UNL A   1      45.307  23.663  25.585  1.00  0.00    -0.014 A 
BRANCH  38  39
ATOM     39  C   UNL A   1      45.315  25.012  26.171  1.00  0.00     0.031 A 
ATOM     40  C   UNL A   1      43.906  25.587  26.323  1.00  0.00     0.074 A 
ATOM     41  C   UNL A   1      46.554  25.516  26.450  1.00  0.00     0.049 A 
ATOM     42  N   UNL A   1      43.518  26.815  26.480  1.00  0.00    -0.248 NA
ATOM     43  C   UNL A   1      42.743  24.657  26.252  1.00  0.00     0.031 C 
ATOM     44  C   UNL A   1      47.821  24.779  26.247  1.00  0.00     0.029 A 
ATOM     45  N   UNL A   1      47.014  26.722  26.938  1.00  0.00    -0.354 N 
ATOM     46  C   UNL A   1      42.134  26.782  26.738  1.00  0.00     0.074 A 
ATOM     47  C   UNL A   1      41.694  25.446  26.478  1.00  0.00     0.031 C 
ATOM     48  C   UNL A   1      48.883  25.561  26.525  1.00  0.00     0.029 A 
ATOM     49  C   UNL A   1      48.427  26.864  26.965  1.00  0.00     0.049 A 
ATOM     50  H   UNL A   1      46.407  27.433  27.243  1.00  0.00     0.167 HD
ATOM     51  C   UNL A   1      41.453  27.825  27.289  1.00  0.00     0.037 A 
ATOM     52  C   UNL A   1      49.177  27.962  27.285  1.00  0.00     0.037 A 
ATOM     53  C   UNL A   1      42.295  28.964  27.417  1.00  0.00     0.049 A 
ATOM     54  C   UNL A   1      48.207  28.962  27.757  1.00  0.00     0.074 A 
ATOM     55  C   UNL A   1      42.764  29.884  26.519  1.00  0.00     0.029 A 
ATOM     56  N   UNL A   1      42.994  29.095  28.589  1.00  0.00    -0.354 N 
ATOM     57  N   UNL A   1      47.630  28.935  28.921  1.00  0.00    -0.248 NA
ATOM     58  C   UNL A   1      47.773  30.018  26.836  1.00  0.00     0.031 C 
ATOM     59  C   UNL A   1      43.999  30.306  27.057  1.00  0.00     0.029 A 
ATOM     60  C   UNL A   1      44.198  29.688  28.295  1.00  0.00     0.049 A 
ATOM     61  H   UNL A   1      42.689  28.814  29.482  1.00  0.00     0.167 HD
ATOM     62  C   UNL A   1      46.553  29.770  28.736  1.00  0.00     0.074 A 
ATOM     63  C   UNL A   1      46.877  30.617  27.613  1.00  0.00     0.031 C 
ATOM     64  C   UNL A   1      45.321  29.384  29.152  1.00  0.00     0.037 A 
BRANCH  51  65
ATOM     65  C   UNL A   1      40.110  27.876  27.961  1.00  0.00     0.064 A 
ATOM     66  C   UNL A   1      39.193  28.875  27.551  1.00  0.00     0.173 A 
ATOM     67  C   UNL A   1      39.841  27.256  29.189  1.00  0.00     0.173 A 
ATOM     68  F   UNL A   1      39.337  29.494  26.369  1.00  0.00    -0.203 F 
ATOM     69  C   UNL A   1      38.164  29.318  28.380  1.00  0.00     0.198 A 
ATOM     70  C   UNL A   1      38.776  27.669  29.995  1.00  0.00     0.198 A 
ATOM     71  F   UNL A   1      40.655  26.315  29.685  1.00  0.00    -0.203 F 
ATOM     72  F   UNL A   1      37.412  30.364  28.008  1.00  0.00    -0.200 F 
ATOM     73  C   UNL A   1      37.969  28.727  29.611  1.00  0.00     0.200 A 
ATOM     74  F   UNL A   1      38.584  27.087  31.187  1.00  0.00    -0.200 F 
ATOM     75  F   UNL A   1      37.029  29.196  30.442  1.00  0.00    -0.200 F 
ENDBRANCH  51  65
BRANCH  52  76
ATOM     76  C   UNL A   1      50.629  28.392  27.236  1.00  0.00     0.064 A 
ATOM     77  C   UNL A   1      51.347  28.752  26.089  1.00  0.00     0.173 A 
ATOM     78  C   UNL A   1      51.388  28.484  28.440  1.00  0.00     0.173 A 
ATOM     79  F   UNL A   1      50.825  28.596  24.868  1.00  0.00    -0.203 F 
ATOM     80  C   UNL A   1      52.661  29.256  26.152  1.00  0.00     0.198 A 
ATOM     81  C   UNL A   1      52.679  29.007  28.508  1.00  0.00     0.198 A 
ATOM     82  F   UNL A   1      50.904  28.063  29.616  1.00  0.00    -0.203 F 
ATOM     83  F   UNL A   1      53.296  29.599  25.021  1.00  0.00    -0.200 F 
ATOM     84  C   UNL A   1      53.314  29.412  27.361  1.00  0.00     0.200 A 
ATOM     85  F   UNL A   1      53.287  29.123  29.699  1.00  0.00    -0.200 F 
ATOM     86  F   UNL A   1      54.548  29.931  27.421  1.00  0.00    -0.200 F 
ENDBRANCH  52  76
BRANCH  64  87
ATOM     87  C   UNL A   1      45.359  28.312  30.222  1.00  0.00     0.064 A 
ATOM     88  C   UNL A   1      45.778  28.629  31.522  1.00  0.00     0.173 A 
ATOM     89  C   UNL A   1      45.129  26.949  29.962  1.00  0.00     0.173 A 
ATOM     90  F   UNL A   1      46.011  29.908  31.855  1.00  0.00    -0.203 F 
ATOM     91  C   UNL A   1      45.965  27.640  32.493  1.00  0.00     0.198 A 
ATOM     92  C   UNL A   1      45.307  25.961  30.929  1.00  0.00     0.198 A 
ATOM     93  F   UNL A   1      44.720  26.550  28.760  1.00  0.00    -0.203 F 
ATOM     94  F   UNL A   1      46.370  27.983  33.723  1.00  0.00    -0.200 F 
ATOM     95  C   UNL A   1      45.733  26.306  32.195  1.00  0.00     0.200 A 
ATOM     96  F   UNL A   1      45.058  24.676  30.629  1.00  0.00    -0.200 F 
ATOM     97  F   UNL A   1      45.904  25.361  33.130  1.00  0.00    -0.200 F 
ENDBRANCH  64  87
ENDBRANCH  38  39
ENDBRANCH  31  33
ENDBRANCH  30  31
ENDBRANCH  29  30
ENDBRANCH  28  29
ENDBRANCH  27  28
ENDBRANCH  26  27
ENDBRANCH   1  26
TORSDOF 20
ENDMDL
MODEL 3
REMARK VINA RESULT:     -10.6      3.837      8.647
REMARK SMILES C[C@@H]([NH+]1CCC(n2cccc2C(=O)OCCOCCOCCOC(=O)c2ccc(-c3c4nc(c(-c5c(F)c(F)c(F)c(F)c5F)c5ccc([nH]5)c(-c5c(F)c(F)c(F)c(F)c5F)c5nc(c(-c6c(F)c(F)c(F)c(F)c6F)c6ccc3[nH]6)C=C5)C=C4)cc2)CC1)C1(C)CC1
REMARK SMILES IDX 18 1 17 2 16 3 15 4 14 5 12 6 13 7 11 8 7 9 8 10 9 11 10 12
REMARK SMILES IDX 6 13 3 14 4 15 90 16 5 18 89 19 2 20 1 21 91 22 92 23 93 24
REMARK SMILES IDX 94 25 19 26 20 27 21 28 22 29 23 30 24 31 25 32 26 33 27 34
REMARK SMILES IDX 88 35 28 36 87 37 29 38 30 39 31 40 81 41 32 42 86 43 80 44
REMARK SMILES IDX 82 45 33 46 85 47 79 48 78 49 34 51 66 52 46 53 65 54 47 55
REMARK SMILES IDX 50 56 64 57 83 58 48 59 49 60 63 62 84 63 51 64 35 65 36 66
REMARK SMILES IDX 44 67 37 68 38 69 42 70 45 71 39 72 40 73 43 74 41 75 67 76
REMARK SMILES IDX 68 77 76 78 69 79 70 80 74 81 77 82 71 83 72 84 75 85 73 86
REMARK SMILES IDX 52 87 53 88 61 89 54 90 55 91 59 92 62 93 56 94 57 95 60 96
REMARK SMILES IDX 58 97
REMARK H PARENT 3 17 82 50 50 61
REMARK Flexibility Score: inf
ROOT
ATOM      1  C   UNL A   1      38.961  20.364  25.742  1.00  0.00     0.188 C 
ENDROOT
BRANCH   1   2
ATOM      2  O   UNL A   1      38.666  21.663  25.280  1.00  0.00    -0.376 OA
BRANCH   2   3
ATOM      3  C   UNL A   1      37.982  22.598  26.103  1.00  0.00     0.202 C 
BRANCH   3   4
ATOM      4  C   UNL A   1      37.327  23.877  25.560  1.00  0.00     0.261 C 
BRANCH   4   5
ATOM      5  O   UNL A   1      35.930  23.742  25.336  1.00  0.00    -0.459 OA
BRANCH   5   6
ATOM      6  C   UNL A   1      35.557  23.048  24.219  1.00  0.00     0.355 C 
ATOM      7  O   UNL A   1      36.053  23.195  23.127  1.00  0.00    -0.244 OA
BRANCH   6   8
ATOM      8  C   UNL A   1      34.614  22.007  24.587  1.00  0.00     0.127 A 
ATOM      9  N   UNL A   1      33.241  22.056  24.839  1.00  0.00    -0.339 N 
ATOM     10  C   UNL A   1      32.804  20.752  25.029  1.00  0.00     0.086 A 
ATOM     11  C   UNL A   1      33.880  19.901  25.042  1.00  0.00     0.020 A 
ATOM     12  C   UNL A   1      35.008  20.682  24.747  1.00  0.00     0.035 A 
BRANCH   9  13
ATOM     13  C   UNL A   1      32.281  23.185  24.783  1.00  0.00     0.098 C 
ATOM     14  N   UNL A   1      31.471  26.034  24.608  1.00  0.00    -0.332 N 
ATOM     15  C   UNL A   1      31.485  25.357  25.897  1.00  0.00     0.264 C 
ATOM     16  C   UNL A   1      31.319  25.153  23.465  1.00  0.00     0.264 C 
ATOM     17  H   UNL A   1      32.431  26.376  24.551  1.00  0.00     0.348 HD
ATOM     18  C   UNL A   1      32.479  24.189  25.941  1.00  0.00     0.087 C 
ATOM     19  C   UNL A   1      32.272  23.977  23.481  1.00  0.00     0.087 C 
BRANCH  14  20
ATOM     20  C   UNL A   1      30.709  27.296  24.518  1.00  0.00     0.186 C 
ATOM     21  C   UNL A   1      29.474  27.072  23.617  1.00  0.00     0.076 C 
BRANCH  20  22
ATOM     22  C   UNL A   1      31.470  28.610  24.183  1.00  0.00     0.019 C 
ATOM     23  C   UNL A   1      30.640  29.879  24.229  1.00  0.00     0.018 C 
ATOM     24  C   UNL A   1      32.858  28.772  24.794  1.00  0.00     0.013 C 
ATOM     25  C   UNL A   1      32.713  28.671  23.305  1.00  0.00     0.013 C 
ENDBRANCH  20  22
ENDBRANCH  14  20
ENDBRANCH   9  13
ENDBRANCH   6   8
ENDBRANCH   5   6
ENDBRANCH   4   5
ENDBRANCH   3   4
ENDBRANCH   2   3
ENDBRANCH   1   2
BRANCH   1  26
ATOM     26  C   UNL A   1      40.420  20.122  26.191  1.00  0.00     0.188 C 
BRANCH  26  27
ATOM     27  O   UNL A   1      41.430  21.121  26.224  1.00  0.00    -0.376 OA
BRANCH  27  28
ATOM     28  C   UNL A   1      42.801  20.826  26.049  1.00  0.00     0.202 C 
BRANCH  28  29
ATOM     29  C   UNL A   1      43.667  21.820  25.271  1.00  0.00     0.261 C 
BRANCH  29  30
ATOM     30  O   UNL A   1      42.985  22.969  24.782  1.00  0.00    -0.460 OA
BRANCH  30  31
ATOM     31  C   UNL A   1      43.731  24.089  24.882  1.00  0.00     0.338 C 
ATOM     32  O   UNL A   1      44.851  24.301  24.449  1.00  0.00    -0.246 OA
BRANCH  31  33
ATOM     33  C   UNL A   1      43.016  25.068  25.690  1.00  0.00     0.060 A 
ATOM     34  C   UNL A   1      43.503  26.377  25.717  1.00  0.00     0.016 A 
ATOM     35  C   UNL A   1      42.031  24.615  26.576  1.00  0.00     0.016 A 
ATOM     36  C   UNL A   1      43.054  27.231  26.705  1.00  0.00     0.010 A 
ATOM     37  C   UNL A   1      41.612  25.457  27.587  1.00  0.00     0.010 A 
ATOM     38  C   UNL A   1      42.150  26.750  27.661  1.00  0.00    -0.014 A 
BRANCH  38  39
ATOM     39  C   UNL A   1      41.736  27.658  28.741  1.00  0.00     0.031 A 
ATOM     40  C   UNL A   1      42.591  27.491  29.998  1.00  0.00     0.074 A 
ATOM     41  C   UNL A   1      40.669  28.459  28.448  1.00  0.00     0.049 A 
ATOM     42  N   UNL A   1      42.353  27.849  31.222  1.00  0.00    -0.248 NA
ATOM     43  C   UNL A   1      43.898  26.784  29.886  1.00  0.00     0.031 C 
ATOM     44  C   UNL A   1      39.980  28.487  27.139  1.00  0.00     0.029 A 
ATOM     45  N   UNL A   1      39.940  29.388  29.162  1.00  0.00    -0.354 N 
ATOM     46  C   UNL A   1      43.531  27.616  31.958  1.00  0.00     0.074 A 
ATOM     47  C   UNL A   1      44.406  26.862  31.115  1.00  0.00     0.031 C 
ATOM     48  C   UNL A   1      38.910  29.307  27.176  1.00  0.00     0.029 A 
ATOM     49  C   UNL A   1      38.809  29.918  28.485  1.00  0.00     0.049 A 
ATOM     50  H   UNL A   1      40.185  29.662  30.074  1.00  0.00     0.167 HD
ATOM     51  C   UNL A   1      43.775  28.180  33.174  1.00  0.00     0.037 A 
ATOM     52  C   UNL A   1      37.840  30.762  28.956  1.00  0.00     0.037 A 
ATOM     53  C   UNL A   1      42.634  28.892  33.636  1.00  0.00     0.049 A 
ATOM     54  C   UNL A   1      38.291  31.147  30.301  1.00  0.00     0.074 A 
ATOM     55  C   UNL A   1      41.443  28.494  34.180  1.00  0.00     0.029 A 
ATOM     56  N   UNL A   1      42.542  30.216  33.292  1.00  0.00    -0.354 N 
ATOM     57  N   UNL A   1      39.242  31.999  30.543  1.00  0.00    -0.248 NA
ATOM     58  C   UNL A   1      37.709  30.469  31.466  1.00  0.00     0.031 C 
ATOM     59  C   UNL A   1      40.529  29.504  33.808  1.00  0.00     0.029 A 
ATOM     60  C   UNL A   1      41.212  30.514  33.122  1.00  0.00     0.049 A 
ATOM     61  H   UNL A   1      43.295  30.842  33.185  1.00  0.00     0.167 HD
ATOM     62  C   UNL A   1      39.572  31.711  31.847  1.00  0.00     0.074 A 
ATOM     63  C   UNL A   1      38.431  31.042  32.423  1.00  0.00     0.031 C 
ATOM     64  C   UNL A   1      40.876  31.571  32.197  1.00  0.00     0.037 A 
BRANCH  51  65
ATOM     65  C   UNL A   1      45.059  28.357  33.935  1.00  0.00     0.064 A 
ATOM     66  C   UNL A   1      46.011  29.280  33.437  1.00  0.00     0.173 A 
ATOM     67  C   UNL A   1      45.528  27.430  34.876  1.00  0.00     0.173 A 
ATOM     68  F   UNL A   1      45.649  30.236  32.567  1.00  0.00    -0.203 F 
ATOM     69  C   UNL A   1      47.365  29.185  33.752  1.00  0.00     0.198 A 
ATOM     70  C   UNL A   1      46.879  27.373  35.228  1.00  0.00     0.198 A 
ATOM     71  F   UNL A   1      44.720  26.496  35.395  1.00  0.00    -0.203 F 
ATOM     72  F   UNL A   1      48.249  29.989  33.144  1.00  0.00    -0.200 F 
ATOM     73  C   UNL A   1      47.801  28.218  34.634  1.00  0.00     0.200 A 
ATOM     74  F   UNL A   1      47.299  26.437  36.092  1.00  0.00    -0.200 F 
ATOM     75  F   UNL A   1      49.109  28.076  34.884  1.00  0.00    -0.200 F 
ENDBRANCH  51  65
BRANCH  52  76
ATOM     76  C   UNL A   1      36.507  31.317  28.499  1.00  0.00     0.064 A 
ATOM     77  C   UNL A   1      35.352  30.573  28.221  1.00  0.00     0.173 A 
ATOM     78  C   UNL A   1      36.334  32.724  28.341  1.00  0.00     0.173 A 
ATOM     79  F   UNL A   1      35.379  29.237  28.194  1.00  0.00    -0.203 F 
ATOM     80  C   UNL A   1      34.119  31.184  27.919  1.00  0.00     0.198 A 
ATOM     81  C   UNL A   1      35.109  33.332  28.068  1.00  0.00     0.198 A 
ATOM     82  F   UNL A   1      37.360  33.579  28.444  1.00  0.00    -0.203 F 
ATOM     83  F   UNL A   1      33.042  30.422  27.676  1.00  0.00    -0.200 F 
ATOM     84  C   UNL A   1      33.991  32.561  27.872  1.00  0.00     0.200 A 
ATOM     85  F   UNL A   1      35.030  34.670  28.010  1.00  0.00    -0.200 F 
ATOM     86  F   UNL A   1      32.808  33.138  27.626  1.00  0.00    -0.200 F 
ENDBRANCH  52  76
BRANCH  64  87
ATOM     87  C   UNL A   1      41.830  32.249  31.234  1.00  0.00     0.064 A 
ATOM     88  C   UNL A   1      41.914  33.647  31.194  1.00  0.00     0.173 A 
ATOM     89  C   UNL A   1      42.560  31.557  30.252  1.00  0.00     0.173 A 
ATOM     90  F   UNL A   1      41.253  34.383  32.102  1.00  0.00    -0.203 F 
ATOM     91  C   UNL A   1      42.672  34.307  30.221  1.00  0.00     0.198 A 
ATOM     92  C   UNL A   1      43.323  32.210  29.285  1.00  0.00     0.198 A 
ATOM     93  F   UNL A   1      42.551  30.226  30.215  1.00  0.00    -0.203 F 
ATOM     94  F   UNL A   1      42.724  35.646  30.213  1.00  0.00    -0.200 F 
ATOM     95  C   UNL A   1      43.374  33.589  29.266  1.00  0.00     0.200 A 
ATOM     96  F   UNL A   1      44.013  31.498  28.380  1.00  0.00    -0.200 F 
ATOM     97  F   UNL A   1      44.107  34.224  28.341  1.00  0.00    -0.200 F 
ENDBRANCH  64  87
ENDBRANCH  38  39
ENDBRANCH  31  33
ENDBRANCH  30  31
ENDBRANCH  29  30
ENDBRANCH  28  29
ENDBRANCH  27  28
ENDBRANCH  26  27
ENDBRANCH   1  26
TORSDOF 20
ENDMDL
