MODEL 1
REMARK VINA RESULT:     -11.1      0.000      0.000
REMARK SMILES O=C(OCCOCCOCCOC(=O)[C@@H]1O[C@H](OC(=O)c2cccnc2)[C@@H](O)[C@H](O)[C@H]1O)c1ccc(-c2c3nc(c(-c4c(F)c(F)c(F)c(F)c4F)c4ccc([nH]4)c(-c4c(F)c(F)c(F)c(F)c4F)c4nc(c(-c5c(F)c(F)c(F)c(F)c5F)c5ccc2[nH]5)C=C4)C=C3)cc1
REMARK SMILES IDX 8 1 7 2 6 3 5 4 4 5 3 6 2 7 1 8 33 9 34 10 95 11 35 12 94 13
REMARK SMILES IDX 36 14 37 15 38 16 88 17 39 18 93 19 87 20 89 21 40 22 92 23
REMARK SMILES IDX 86 24 85 25 41 27 73 28 53 29 72 30 54 31 57 32 71 33 90 34
REMARK SMILES IDX 55 35 56 36 70 38 91 39 58 40 42 41 43 42 51 43 44 44 45 45
REMARK SMILES IDX 49 46 52 47 46 48 47 49 50 50 48 51 74 52 75 53 83 54 76 55
REMARK SMILES IDX 77 56 81 57 84 58 78 59 79 60 82 61 80 62 59 63 60 64 68 65
REMARK SMILES IDX 61 66 62 67 66 68 69 69 63 70 64 71 67 72 65 73 9 74 10 75
REMARK SMILES IDX 11 76 12 77 13 78 14 79 15 80 16 81 31 82 17 83 29 84 27 85
REMARK SMILES IDX 32 86 18 88 19 89 20 90 21 91 22 92 26 93 23 94 25 95 24 96
REMARK SMILES IDX 30 97 28 99
REMARK H PARENT 89 26 57 37 32 87 30 98 28 100
REMARK Flexibility Score: inf
ROOT
ATOM      1  C   UNL A   1      34.609  31.736  27.688  1.00  0.00     0.188 C 
ENDROOT
BRANCH   1   2
ATOM      2  C   UNL A   1      34.396  33.196  28.113  1.00  0.00     0.188 C 
BRANCH   2   3
ATOM      3  O   UNL A   1      33.821  33.265  29.419  1.00  0.00    -0.376 OA
BRANCH   3   4
ATOM      4  C   UNL A   1      34.177  34.410  30.191  1.00  0.00     0.202 C 
BRANCH   4   5
ATOM      5  C   UNL A   1      34.273  34.181  31.702  1.00  0.00     0.261 C 
BRANCH   5   6
ATOM      6  O   UNL A   1      34.475  32.807  32.045  1.00  0.00    -0.460 OA
BRANCH   6   7
ATOM      7  C   UNL A   1      35.579  32.313  32.655  1.00  0.00     0.338 C 
ATOM      8  O   UNL A   1      35.710  32.430  33.871  1.00  0.00    -0.246 OA
BRANCH   7   9
ATOM      9  C   UNL A   1      36.610  31.551  31.906  1.00  0.00     0.060 A 
ATOM     10  C   UNL A   1      36.837  31.641  30.532  1.00  0.00     0.016 A 
ATOM     11  C   UNL A   1      37.500  30.804  32.667  1.00  0.00     0.016 A 
ATOM     12  C   UNL A   1      37.901  30.979  29.917  1.00  0.00     0.010 A 
ATOM     13  C   UNL A   1      38.640  30.263  32.070  1.00  0.00     0.010 A 
ATOM     14  C   UNL A   1      38.876  30.355  30.687  1.00  0.00    -0.014 A 
BRANCH  14  15
ATOM     15  C   UNL A   1      40.140  29.812  30.099  1.00  0.00     0.031 A 
ATOM     16  C   UNL A   1      41.284  30.761  29.862  1.00  0.00     0.074 A 
ATOM     17  C   UNL A   1      40.239  28.531  29.676  1.00  0.00     0.049 A 
ATOM     18  N   UNL A   1      42.335  30.626  29.097  1.00  0.00    -0.248 NA
ATOM     19  C   UNL A   1      41.199  32.069  30.533  1.00  0.00     0.031 C 
ATOM     20  C   UNL A   1      39.228  27.486  29.845  1.00  0.00     0.029 A 
ATOM     21  N   UNL A   1      41.236  27.884  28.979  1.00  0.00    -0.354 N 
ATOM     22  C   UNL A   1      42.990  31.850  29.150  1.00  0.00     0.074 A 
ATOM     23  C   UNL A   1      42.168  32.742  29.935  1.00  0.00     0.031 C 
ATOM     24  C   UNL A   1      39.629  26.354  29.247  1.00  0.00     0.029 A 
ATOM     25  C   UNL A   1      40.916  26.592  28.619  1.00  0.00     0.049 A 
ATOM     26  H   UNL A   1      42.098  28.306  28.758  1.00  0.00     0.167 HD
ATOM     27  C   UNL A   1      44.200  32.183  28.648  1.00  0.00     0.037 A 
ATOM     28  C   UNL A   1      41.575  25.701  27.852  1.00  0.00     0.037 A 
ATOM     29  C   UNL A   1      45.074  31.247  27.999  1.00  0.00     0.049 A 
ATOM     30  C   UNL A   1      42.925  26.087  27.315  1.00  0.00     0.074 A 
ATOM     31  C   UNL A   1      46.376  31.431  27.578  1.00  0.00     0.029 A 
ATOM     32  N   UNL A   1      44.737  29.931  27.714  1.00  0.00    -0.354 N 
ATOM     33  N   UNL A   1      43.556  27.232  27.427  1.00  0.00    -0.248 NA
ATOM     34  C   UNL A   1      43.668  25.060  26.576  1.00  0.00     0.031 C 
ATOM     35  C   UNL A   1      46.823  30.232  27.015  1.00  0.00     0.029 A 
ATOM     36  C   UNL A   1      45.806  29.294  27.112  1.00  0.00     0.049 A 
ATOM     37  H   UNL A   1      43.868  29.514  27.912  1.00  0.00     0.167 HD
ATOM     38  C   UNL A   1      44.789  27.045  26.820  1.00  0.00     0.074 A 
ATOM     39  C   UNL A   1      44.816  25.677  26.342  1.00  0.00     0.031 C 
ATOM     40  C   UNL A   1      45.810  27.923  26.675  1.00  0.00     0.037 A 
BRANCH  27  41
ATOM     41  C   UNL A   1      44.666  33.598  28.838  1.00  0.00     0.064 A 
ATOM     42  C   UNL A   1      45.447  33.978  29.940  1.00  0.00     0.173 A 
ATOM     43  C   UNL A   1      44.329  34.587  27.903  1.00  0.00     0.173 A 
ATOM     44  F   UNL A   1      45.783  33.072  30.872  1.00  0.00    -0.203 F 
ATOM     45  C   UNL A   1      45.835  35.301  30.124  1.00  0.00     0.198 A 
ATOM     46  C   UNL A   1      44.749  35.904  28.071  1.00  0.00     0.198 A 
ATOM     47  F   UNL A   1      43.585  34.279  26.829  1.00  0.00    -0.203 F 
ATOM     48  F   UNL A   1      46.521  35.649  31.222  1.00  0.00    -0.200 F 
ATOM     49  C   UNL A   1      45.492  36.262  29.186  1.00  0.00     0.200 A 
ATOM     50  F   UNL A   1      44.426  36.831  27.158  1.00  0.00    -0.200 F 
ATOM     51  F   UNL A   1      45.868  37.536  29.363  1.00  0.00    -0.200 F 
ENDBRANCH  27  41
BRANCH  28  52
ATOM     52  C   UNL A   1      40.988  24.362  27.558  1.00  0.00     0.064 A 
ATOM     53  C   UNL A   1      41.513  23.197  28.139  1.00  0.00     0.173 A 
ATOM     54  C   UNL A   1      39.917  24.212  26.664  1.00  0.00     0.173 A 
ATOM     55  F   UNL A   1      42.540  23.284  28.996  1.00  0.00    -0.203 F 
ATOM     56  C   UNL A   1      41.021  21.936  27.803  1.00  0.00     0.198 A 
ATOM     57  C   UNL A   1      39.409  22.952  26.349  1.00  0.00     0.198 A 
ATOM     58  F   UNL A   1      39.354  25.292  26.100  1.00  0.00    -0.203 F 
ATOM     59  F   UNL A   1      41.582  20.840  28.331  1.00  0.00    -0.200 F 
ATOM     60  C   UNL A   1      39.970  21.813  26.908  1.00  0.00     0.200 A 
ATOM     61  F   UNL A   1      38.377  22.841  25.500  1.00  0.00    -0.200 F 
ATOM     62  F   UNL A   1      39.504  20.601  26.579  1.00  0.00    -0.200 F 
ENDBRANCH  28  52
BRANCH  40  63
ATOM     63  C   UNL A   1      47.056  27.414  26.019  1.00  0.00     0.064 A 
ATOM     64  C   UNL A   1      48.051  26.755  26.754  1.00  0.00     0.173 A 
ATOM     65  C   UNL A   1      47.227  27.542  24.632  1.00  0.00     0.173 A 
ATOM     66  F   UNL A   1      47.936  26.629  28.084  1.00  0.00    -0.203 F 
ATOM     67  C   UNL A   1      49.184  26.253  26.122  1.00  0.00     0.198 A 
ATOM     68  C   UNL A   1      48.347  27.012  24.002  1.00  0.00     0.198 A 
ATOM     69  F   UNL A   1      46.299  28.163  23.891  1.00  0.00    -0.203 F 
ATOM     70  F   UNL A   1      50.143  25.661  26.848  1.00  0.00    -0.200 F 
ATOM     71  C   UNL A   1      49.327  26.372  24.748  1.00  0.00     0.200 A 
ATOM     72  F   UNL A   1      48.477  27.115  22.672  1.00  0.00    -0.200 F 
ATOM     73  F   UNL A   1      50.412  25.874  24.141  1.00  0.00    -0.200 F 
ENDBRANCH  40  63
ENDBRANCH  14  15
ENDBRANCH   7   9
ENDBRANCH   6   7
ENDBRANCH   5   6
ENDBRANCH   4   5
ENDBRANCH   3   4
ENDBRANCH   2   3
ENDBRANCH   1   2
BRANCH   1  74
ATOM     74  O   UNL A   1      33.498  31.095  27.057  1.00  0.00    -0.376 OA
BRANCH  74  75
ATOM     75  C   UNL A   1      33.549  29.676  26.950  1.00  0.00     0.202 C 
BRANCH  75  76
ATOM     76  C   UNL A   1      33.086  29.058  25.618  1.00  0.00     0.261 C 
BRANCH  76  77
ATOM     77  O   UNL A   1      32.507  27.738  25.719  1.00  0.00    -0.461 OA
BRANCH  77  78
ATOM     78  C   UNL A   1      31.742  27.375  24.662  1.00  0.00     0.338 C 
ATOM     79  O   UNL A   1      30.655  27.884  24.378  1.00  0.00    -0.249 OA
BRANCH  78  80
ATOM     80  C   UNL A   1      32.302  26.249  23.776  1.00  0.00     0.263 C 
ATOM     81  O   UNL A   1      33.281  25.309  24.214  1.00  0.00    -0.322 OA
ATOM     82  C   UNL A   1      32.744  26.812  22.411  1.00  0.00     0.186 C 
ATOM     83  C   UNL A   1      33.284  24.144  23.357  1.00  0.00     0.343 C 
ATOM     84  C   UNL A   1      32.675  25.644  21.406  1.00  0.00     0.181 C 
ATOM     85  C   UNL A   1      33.546  24.464  21.866  1.00  0.00     0.214 C 
BRANCH  82  86
ATOM     86  O   UNL A   1      31.961  27.900  21.922  1.00  0.00    -0.387 OA
ATOM     87  H   UNL A   1      31.339  28.185  22.610  1.00  0.00     0.211 HD
ENDBRANCH  82  86
BRANCH  83  88
ATOM     88  O   UNL A   1      34.063  23.041  23.863  1.00  0.00    -0.429 OA
BRANCH  88  89
ATOM     89  C   UNL A   1      33.570  22.269  24.854  1.00  0.00     0.342 C 
ATOM     90  O   UNL A   1      33.176  22.642  25.945  1.00  0.00    -0.246 OA
BRANCH  89  91
ATOM     91  C   UNL A   1      33.512  20.861  24.398  1.00  0.00     0.078 A 
ATOM     92  C   UNL A   1      32.458  20.336  23.643  1.00  0.00     0.019 A 
ATOM     93  C   UNL A   1      34.507  19.989  24.821  1.00  0.00     0.126 A 
ATOM     94  C   UNL A   1      32.415  18.964  23.387  1.00  0.00     0.021 A 
ATOM     95  N   UNL A   1      34.475  18.647  24.605  1.00  0.00    -0.264 NA
ATOM     96  C   UNL A   1      33.430  18.167  23.895  1.00  0.00     0.111 A 
ENDBRANCH  89  91
ENDBRANCH  88  89
ENDBRANCH  83  88
BRANCH  84  97
ATOM     97  O   UNL A   1      33.063  26.035  20.085  1.00  0.00    -0.387 OA
ATOM     98  H   UNL A   1      33.998  25.817  19.945  1.00  0.00     0.211 HD
ENDBRANCH  84  97
BRANCH  85  99
ATOM     99  O   UNL A   1      33.284  23.282  21.086  1.00  0.00    -0.384 OA
ATOM    100  H   UNL A   1      32.462  22.868  21.391  1.00  0.00     0.211 HD
ENDBRANCH  85  99
ENDBRANCH  78  80
ENDBRANCH  77  78
ENDBRANCH  76  77
ENDBRANCH  75  76
ENDBRANCH  74  75
ENDBRANCH   1  74
TORSDOF 23
ENDMDL
MODEL 2
REMARK VINA RESULT:     -11.1      5.173     10.693
REMARK SMILES O=C(OCCOCCOCCOC(=O)[C@@H]1O[C@H](OC(=O)c2cccnc2)[C@@H](O)[C@H](O)[C@H]1O)c1ccc(-c2c3nc(c(-c4c(F)c(F)c(F)c(F)c4F)c4ccc([nH]4)c(-c4c(F)c(F)c(F)c(F)c4F)c4nc(c(-c5c(F)c(F)c(F)c(F)c5F)c5ccc2[nH]5)C=C4)C=C3)cc1
REMARK SMILES IDX 8 1 7 2 6 3 5 4 4 5 3 6 2 7 1 8 33 9 34 10 95 11 35 12 94 13
REMARK SMILES IDX 36 14 37 15 38 16 88 17 39 18 93 19 87 20 89 21 40 22 92 23
REMARK SMILES IDX 86 24 85 25 41 27 73 28 53 29 72 30 54 31 57 32 71 33 90 34
REMARK SMILES IDX 55 35 56 36 70 38 91 39 58 40 42 41 43 42 51 43 44 44 45 45
REMARK SMILES IDX 49 46 52 47 46 48 47 49 50 50 48 51 74 52 75 53 83 54 76 55
REMARK SMILES IDX 77 56 81 57 84 58 78 59 79 60 82 61 80 62 59 63 60 64 68 65
REMARK SMILES IDX 61 66 62 67 66 68 69 69 63 70 64 71 67 72 65 73 9 74 10 75
REMARK SMILES IDX 11 76 12 77 13 78 14 79 15 80 16 81 31 82 17 83 29 84 27 85
REMARK SMILES IDX 32 86 18 88 19 89 20 90 21 91 22 92 26 93 23 94 25 95 24 96
REMARK SMILES IDX 30 97 28 99
REMARK H PARENT 89 26 57 37 32 87 30 98 28 100
REMARK Flexibility Score: inf
ROOT
ATOM      1  C   UNL A   1      40.752  20.433  27.046  1.00  0.00     0.188 C 
ENDROOT
BRANCH   1   2
ATOM      2  C   UNL A   1      42.097  19.724  26.842  1.00  0.00     0.188 C 
BRANCH   2   3
ATOM      3  O   UNL A   1      42.510  19.803  25.476  1.00  0.00    -0.376 OA
BRANCH   3   4
ATOM      4  C   UNL A   1      43.901  20.034  25.263  1.00  0.00     0.202 C 
BRANCH   4   5
ATOM      5  C   UNL A   1      44.266  21.430  24.750  1.00  0.00     0.261 C 
BRANCH   5   6
ATOM      6  O   UNL A   1      44.178  22.435  25.764  1.00  0.00    -0.460 OA
BRANCH   6   7
ATOM      7  C   UNL A   1      44.186  23.770  25.536  1.00  0.00     0.338 C 
ATOM      8  O   UNL A   1      44.736  24.216  24.533  1.00  0.00    -0.246 OA
BRANCH   7   9
ATOM      9  C   UNL A   1      43.471  24.718  26.428  1.00  0.00     0.060 A 
ATOM     10  C   UNL A   1      42.503  24.364  27.368  1.00  0.00     0.016 A 
ATOM     11  C   UNL A   1      43.915  26.035  26.412  1.00  0.00     0.016 A 
ATOM     12  C   UNL A   1      41.958  25.298  28.251  1.00  0.00     0.010 A 
ATOM     13  C   UNL A   1      43.472  26.928  27.388  1.00  0.00     0.010 A 
ATOM     14  C   UNL A   1      42.499  26.576  28.340  1.00  0.00    -0.014 A 
BRANCH  14  15
ATOM     15  C   UNL A   1      42.098  27.548  29.404  1.00  0.00     0.031 A 
ATOM     16  C   UNL A   1      42.777  27.461  30.745  1.00  0.00     0.074 A 
ATOM     17  C   UNL A   1      41.074  28.415  29.231  1.00  0.00     0.049 A 
ATOM     18  N   UNL A   1      42.407  27.949  31.900  1.00  0.00    -0.248 NA
ATOM     19  C   UNL A   1      44.011  26.660  30.803  1.00  0.00     0.031 C 
ATOM     20  C   UNL A   1      40.327  28.630  27.992  1.00  0.00     0.029 A 
ATOM     21  N   UNL A   1      40.453  29.268  30.117  1.00  0.00    -0.354 N 
ATOM     22  C   UNL A   1      43.327  27.458  32.819  1.00  0.00     0.074 A 
ATOM     23  C   UNL A   1      44.205  26.558  32.108  1.00  0.00     0.031 C 
ATOM     24  C   UNL A   1      39.338  29.514  28.195  1.00  0.00     0.029 A 
ATOM     25  C   UNL A   1      39.354  29.913  29.592  1.00  0.00     0.049 A 
ATOM     26  H   UNL A   1      40.767  29.405  31.040  1.00  0.00     0.167 HD
ATOM     27  C   UNL A   1      43.472  27.780  34.124  1.00  0.00     0.037 A 
ATOM     28  C   UNL A   1      38.444  30.721  30.172  1.00  0.00     0.037 A 
ATOM     29  C   UNL A   1      42.689  28.788  34.782  1.00  0.00     0.049 A 
ATOM     30  C   UNL A   1      38.631  31.076  31.620  1.00  0.00     0.074 A 
ATOM     31  C   UNL A   1      42.839  29.301  36.056  1.00  0.00     0.029 A 
ATOM     32  N   UNL A   1      41.629  29.463  34.194  1.00  0.00    -0.354 N 
ATOM     33  N   UNL A   1      39.545  30.649  32.459  1.00  0.00    -0.248 NA
ATOM     34  C   UNL A   1      37.690  32.044  32.197  1.00  0.00     0.031 C 
ATOM     35  C   UNL A   1      41.852  30.273  36.250  1.00  0.00     0.029 A 
ATOM     36  C   UNL A   1      41.107  30.383  35.086  1.00  0.00     0.049 A 
ATOM     37  H   UNL A   1      41.298  29.311  33.280  1.00  0.00     0.167 HD
ATOM     38  C   UNL A   1      39.320  31.334  33.644  1.00  0.00     0.074 A 
ATOM     39  C   UNL A   1      38.185  32.205  33.415  1.00  0.00     0.031 C 
ATOM     40  C   UNL A   1      39.995  31.255  34.815  1.00  0.00     0.037 A 
BRANCH  27  41
ATOM     41  C   UNL A   1      44.551  27.079  34.897  1.00  0.00     0.064 A 
ATOM     42  C   UNL A   1      45.854  27.595  34.982  1.00  0.00     0.173 A 
ATOM     43  C   UNL A   1      44.278  25.877  35.566  1.00  0.00     0.173 A 
ATOM     44  F   UNL A   1      46.171  28.734  34.346  1.00  0.00    -0.203 F 
ATOM     45  C   UNL A   1      46.853  26.912  35.667  1.00  0.00     0.198 A 
ATOM     46  C   UNL A   1      45.272  25.214  36.282  1.00  0.00     0.198 A 
ATOM     47  F   UNL A   1      43.049  25.341  35.520  1.00  0.00    -0.203 F 
ATOM     48  F   UNL A   1      48.106  27.390  35.673  1.00  0.00    -0.200 F 
ATOM     49  C   UNL A   1      46.561  25.726  36.323  1.00  0.00     0.200 A 
ATOM     50  F   UNL A   1      44.986  24.074  36.923  1.00  0.00    -0.200 F 
ATOM     51  F   UNL A   1      47.523  25.070  36.984  1.00  0.00    -0.200 F 
ENDBRANCH  27  41
BRANCH  28  52
ATOM     52  C   UNL A   1      37.292  31.260  29.393  1.00  0.00     0.064 A 
ATOM     53  C   UNL A   1      37.240  32.611  29.018  1.00  0.00     0.173 A 
ATOM     54  C   UNL A   1      36.203  30.449  29.038  1.00  0.00     0.173 A 
ATOM     55  F   UNL A   1      38.253  33.431  29.336  1.00  0.00    -0.203 F 
ATOM     56  C   UNL A   1      36.128  33.139  28.362  1.00  0.00     0.198 A 
ATOM     57  C   UNL A   1      35.103  30.972  28.360  1.00  0.00     0.198 A 
ATOM     58  F   UNL A   1      36.209  29.143  29.344  1.00  0.00    -0.203 F 
ATOM     59  F   UNL A   1      36.084  34.446  28.070  1.00  0.00    -0.200 F 
ATOM     60  C   UNL A   1      35.059  32.320  28.034  1.00  0.00     0.200 A 
ATOM     61  F   UNL A   1      34.082  30.170  28.025  1.00  0.00    -0.200 F 
ATOM     62  F   UNL A   1      33.987  32.828  27.412  1.00  0.00    -0.200 F 
ENDBRANCH  28  52
BRANCH  40  63
ATOM     63  C   UNL A   1      39.555  32.169  35.916  1.00  0.00     0.064 A 
ATOM     64  C   UNL A   1      40.116  33.443  36.076  1.00  0.00     0.173 A 
ATOM     65  C   UNL A   1      38.522  31.784  36.784  1.00  0.00     0.173 A 
ATOM     66  F   UNL A   1      41.119  33.843  35.280  1.00  0.00    -0.203 F 
ATOM     67  C   UNL A   1      39.668  34.295  37.079  1.00  0.00     0.198 A 
ATOM     68  C   UNL A   1      38.057  32.651  37.766  1.00  0.00     0.198 A 
ATOM     69  F   UNL A   1      37.955  30.575  36.665  1.00  0.00    -0.203 F 
ATOM     70  F   UNL A   1      40.246  35.494  37.242  1.00  0.00    -0.200 F 
ATOM     71  C   UNL A   1      38.634  33.904  37.916  1.00  0.00     0.200 A 
ATOM     72  F   UNL A   1      37.049  32.277  38.565  1.00  0.00    -0.200 F 
ATOM     73  F   UNL A   1      38.194  34.733  38.872  1.00  0.00    -0.200 F 
ENDBRANCH  40  63
ENDBRANCH  14  15
ENDBRANCH   7   9
ENDBRANCH   6   7
ENDBRANCH   5   6
ENDBRANCH   4   5
ENDBRANCH   3   4
ENDBRANCH   2   3
ENDBRANCH   1   2
BRANCH   1  74
ATOM     74  O   UNL A   1      40.348  21.330  26.008  1.00  0.00    -0.376 OA
BRANCH  74  75
ATOM     75  C   UNL A   1      39.714  22.539  26.412  1.00  0.00     0.202 C 
BRANCH  75  76
ATOM     76  C   UNL A   1      38.262  22.756  25.949  1.00  0.00     0.261 C 
BRANCH  76  77
ATOM     77  O   UNL A   1      37.728  21.722  25.092  1.00  0.00    -0.461 OA
BRANCH  77  78
ATOM     78  C   UNL A   1      36.726  22.126  24.276  1.00  0.00     0.338 C 
ATOM     79  O   UNL A   1      36.882  22.519  23.118  1.00  0.00    -0.249 OA
BRANCH  78  80
ATOM     80  C   UNL A   1      35.307  22.074  24.869  1.00  0.00     0.263 C 
ATOM     81  O   UNL A   1      34.741  23.114  25.664  1.00  0.00    -0.322 OA
ATOM     82  C   UNL A   1      35.077  20.731  25.590  1.00  0.00     0.186 C 
ATOM     83  C   UNL A   1      33.300  22.997  25.701  1.00  0.00     0.343 C 
ATOM     84  C   UNL A   1      33.555  20.478  25.581  1.00  0.00     0.181 C 
ATOM     85  C   UNL A   1      32.796  21.638  26.243  1.00  0.00     0.214 C 
BRANCH  82  86
ATOM     86  O   UNL A   1      35.743  19.610  25.009  1.00  0.00    -0.387 OA
ATOM     87  H   UNL A   1      35.110  18.886  24.888  1.00  0.00     0.211 HD
ENDBRANCH  82  86
BRANCH  83  88
ATOM     88  O   UNL A   1      32.630  24.138  26.273  1.00  0.00    -0.429 OA
BRANCH  88  89
ATOM     89  C   UNL A   1      31.743  24.836  25.534  1.00  0.00     0.342 C 
ATOM     90  O   UNL A   1      30.664  24.445  25.124  1.00  0.00    -0.246 OA
BRANCH  89  91
ATOM     91  C   UNL A   1      32.247  26.213  25.330  1.00  0.00     0.078 A 
ATOM     92  C   UNL A   1      33.501  26.650  25.771  1.00  0.00     0.019 A 
ATOM     93  C   UNL A   1      31.397  27.151  24.758  1.00  0.00     0.126 A 
ATOM     94  C   UNL A   1      33.831  28.003  25.669  1.00  0.00     0.021 A 
ATOM     95  N   UNL A   1      31.686  28.476  24.670  1.00  0.00    -0.264 NA
ATOM     96  C   UNL A   1      32.894  28.870  25.128  1.00  0.00     0.111 A 
ENDBRANCH  89  91
ENDBRANCH  88  89
ENDBRANCH  83  88
BRANCH  84  97
ATOM     97  O   UNL A   1      33.202  19.249  26.225  1.00  0.00    -0.387 OA
ATOM     98  H   UNL A   1      34.008  18.750  26.432  1.00  0.00     0.211 HD
ENDBRANCH  84  97
BRANCH  85  99
ATOM     99  O   UNL A   1      31.379  21.542  26.006  1.00  0.00    -0.384 OA
ATOM    100  H   UNL A   1      30.956  22.385  26.231  1.00  0.00     0.211 HD
ENDBRANCH  85  99
ENDBRANCH  78  80
ENDBRANCH  77  78
ENDBRANCH  76  77
ENDBRANCH  75  76
ENDBRANCH  74  75
ENDBRANCH   1  74
TORSDOF 23
ENDMDL
MODEL 3
REMARK VINA RESULT:     -11.1      5.074      7.365
REMARK SMILES O=C(OCCOCCOCCOC(=O)[C@@H]1O[C@H](OC(=O)c2cccnc2)[C@@H](O)[C@H](O)[C@H]1O)c1ccc(-c2c3nc(c(-c4c(F)c(F)c(F)c(F)c4F)c4ccc([nH]4)c(-c4c(F)c(F)c(F)c(F)c4F)c4nc(c(-c5c(F)c(F)c(F)c(F)c5F)c5ccc2[nH]5)C=C4)C=C3)cc1
REMARK SMILES IDX 8 1 7 2 6 3 5 4 4 5 3 6 2 7 1 8 33 9 34 10 95 11 35 12 94 13
REMARK SMILES IDX 36 14 37 15 38 16 88 17 39 18 93 19 87 20 89 21 40 22 92 23
REMARK SMILES IDX 86 24 85 25 41 27 73 28 53 29 72 30 54 31 57 32 71 33 90 34
REMARK SMILES IDX 55 35 56 36 70 38 91 39 58 40 42 41 43 42 51 43 44 44 45 45
REMARK SMILES IDX 49 46 52 47 46 48 47 49 50 50 48 51 74 52 75 53 83 54 76 55
REMARK SMILES IDX 77 56 81 57 84 58 78 59 79 60 82 61 80 62 59 63 60 64 68 65
REMARK SMILES IDX 61 66 62 67 66 68 69 69 63 70 64 71 67 72 65 73 9 74 10 75
REMARK SMILES IDX 11 76 12 77 13 78 14 79 15 80 16 81 31 82 17 83 29 84 27 85
REMARK SMILES IDX 32 86 18 88 19 89 20 90 21 91 22 92 26 93 23 94 25 95 24 96
REMARK SMILES IDX 30 97 28 99
REMARK H PARENT 89 26 57 37 32 87 30 98 28 100
REMARK Flexibility Score: inf
ROOT
ATOM      1  C   UNL A   1      35.760  31.831  28.033  1.00  0.00     0.188 C 
ENDROOT
BRANCH   1   2
ATOM      2  C   UNL A   1      35.437  33.318  28.233  1.00  0.00     0.188 C 
BRANCH   2   3
ATOM      3  O   UNL A   1      34.414  33.488  29.216  1.00  0.00    -0.376 OA
BRANCH   3   4
ATOM      4  C   UNL A   1      33.308  34.298  28.824  1.00  0.00     0.202 C 
BRANCH   4   5
ATOM      5  C   UNL A   1      33.274  35.704  29.430  1.00  0.00     0.261 C 
BRANCH   5   6
ATOM      6  O   UNL A   1      32.374  35.811  30.537  1.00  0.00    -0.460 OA
BRANCH   6   7
ATOM      7  C   UNL A   1      32.746  36.022  31.822  1.00  0.00     0.338 C 
ATOM      8  O   UNL A   1      32.183  36.887  32.488  1.00  0.00    -0.246 OA
BRANCH   7   9
ATOM      9  C   UNL A   1      33.768  35.175  32.488  1.00  0.00     0.060 A 
ATOM     10  C   UNL A   1      33.572  33.858  32.908  1.00  0.00     0.016 A 
ATOM     11  C   UNL A   1      35.052  35.698  32.561  1.00  0.00     0.016 A 
ATOM     12  C   UNL A   1      34.615  33.087  33.423  1.00  0.00     0.010 A 
ATOM     13  C   UNL A   1      36.115  34.879  32.941  1.00  0.00     0.010 A 
ATOM     14  C   UNL A   1      35.924  33.551  33.362  1.00  0.00    -0.014 A 
BRANCH  14  15
ATOM     15  C   UNL A   1      37.100  32.691  33.704  1.00  0.00     0.031 A 
ATOM     16  C   UNL A   1      37.867  32.996  34.963  1.00  0.00     0.074 A 
ATOM     17  C   UNL A   1      37.554  31.733  32.863  1.00  0.00     0.049 A 
ATOM     18  N   UNL A   1      39.071  32.629  35.316  1.00  0.00    -0.248 NA
ATOM     19  C   UNL A   1      37.208  33.890  35.930  1.00  0.00     0.031 C 
ATOM     20  C   UNL A   1      36.917  31.309  31.616  1.00  0.00     0.029 A 
ATOM     21  N   UNL A   1      38.688  30.952  32.912  1.00  0.00    -0.354 N 
ATOM     22  C   UNL A   1      39.327  33.299  36.505  1.00  0.00     0.074 A 
ATOM     23  C   UNL A   1      38.201  34.169  36.758  1.00  0.00     0.031 C 
ATOM     24  C   UNL A   1      37.672  30.384  31.003  1.00  0.00     0.029 A 
ATOM     25  C   UNL A   1      38.869  30.164  31.794  1.00  0.00     0.049 A 
ATOM     26  H   UNL A   1      39.310  30.956  33.674  1.00  0.00     0.167 HD
ATOM     27  C   UNL A   1      40.373  33.154  37.349  1.00  0.00     0.037 A 
ATOM     28  C   UNL A   1      39.895  29.368  31.434  1.00  0.00     0.037 A 
ATOM     29  C   UNL A   1      41.411  32.179  37.162  1.00  0.00     0.049 A 
ATOM     30  C   UNL A   1      41.042  29.211  32.392  1.00  0.00     0.074 A 
ATOM     31  C   UNL A   1      42.442  31.842  38.018  1.00  0.00     0.029 A 
ATOM     32  N   UNL A   1      41.521  31.357  36.050  1.00  0.00    -0.354 N 
ATOM     33  N   UNL A   1      41.238  29.808  33.543  1.00  0.00    -0.248 NA
ATOM     34  C   UNL A   1      42.093  28.253  32.024  1.00  0.00     0.031 C 
ATOM     35  C   UNL A   1      43.193  30.829  37.414  1.00  0.00     0.029 A 
ATOM     36  C   UNL A   1      42.612  30.518  36.194  1.00  0.00     0.049 A 
ATOM     37  H   UNL A   1      40.914  31.368  35.275  1.00  0.00     0.167 HD
ATOM     38  C   UNL A   1      42.403  29.261  34.060  1.00  0.00     0.074 A 
ATOM     39  C   UNL A   1      42.869  28.284  33.096  1.00  0.00     0.031 C 
ATOM     40  C   UNL A   1      43.030  29.536  35.229  1.00  0.00     0.037 A 
BRANCH  27  41
ATOM     41  C   UNL A   1      40.409  34.026  38.570  1.00  0.00     0.064 A 
ATOM     42  C   UNL A   1      41.105  35.245  38.587  1.00  0.00     0.173 A 
ATOM     43  C   UNL A   1      39.735  33.640  39.738  1.00  0.00     0.173 A 
ATOM     44  F   UNL A   1      41.779  35.652  37.501  1.00  0.00    -0.203 F 
ATOM     45  C   UNL A   1      41.164  36.022  39.740  1.00  0.00     0.198 A 
ATOM     46  C   UNL A   1      39.766  34.438  40.879  1.00  0.00     0.198 A 
ATOM     47  F   UNL A   1      39.053  32.486  39.775  1.00  0.00    -0.203 F 
ATOM     48  F   UNL A   1      41.894  37.146  39.751  1.00  0.00    -0.200 F 
ATOM     49  C   UNL A   1      40.489  35.622  40.882  1.00  0.00     0.200 A 
ATOM     50  F   UNL A   1      39.105  34.056  41.980  1.00  0.00    -0.200 F 
ATOM     51  F   UNL A   1      40.545  36.372  41.991  1.00  0.00    -0.200 F 
ENDBRANCH  27  41
BRANCH  28  52
ATOM     52  C   UNL A   1      39.883  28.649  30.128  1.00  0.00     0.064 A 
ATOM     53  C   UNL A   1      39.313  27.373  30.007  1.00  0.00     0.173 A 
ATOM     54  C   UNL A   1      40.474  29.203  28.981  1.00  0.00     0.173 A 
ATOM     55  F   UNL A   1      38.740  26.795  31.074  1.00  0.00    -0.203 F 
ATOM     56  C   UNL A   1      39.373  26.662  28.809  1.00  0.00     0.198 A 
ATOM     57  C   UNL A   1      40.510  28.503  27.776  1.00  0.00     0.198 A 
ATOM     58  F   UNL A   1      41.009  30.433  29.027  1.00  0.00    -0.203 F 
ATOM     59  F   UNL A   1      38.870  25.422  28.743  1.00  0.00    -0.200 F 
ATOM     60  C   UNL A   1      39.972  27.227  27.694  1.00  0.00     0.200 A 
ATOM     61  F   UNL A   1      41.071  29.063  26.695  1.00  0.00    -0.200 F 
ATOM     62  F   UNL A   1      40.038  26.540  26.545  1.00  0.00    -0.200 F 
ENDBRANCH  28  52
BRANCH  40  63
ATOM     63  C   UNL A   1      44.253  28.735  35.549  1.00  0.00     0.064 A 
ATOM     64  C   UNL A   1      45.525  29.142  35.125  1.00  0.00     0.173 A 
ATOM     65  C   UNL A   1      44.153  27.577  36.334  1.00  0.00     0.173 A 
ATOM     66  F   UNL A   1      45.663  30.232  34.356  1.00  0.00    -0.203 F 
ATOM     67  C   UNL A   1      46.655  28.406  35.465  1.00  0.00     0.198 A 
ATOM     68  C   UNL A   1      45.288  26.862  36.697  1.00  0.00     0.198 A 
ATOM     69  F   UNL A   1      42.955  27.152  36.764  1.00  0.00    -0.203 F 
ATOM     70  F   UNL A   1      47.859  28.790  35.016  1.00  0.00    -0.200 F 
ATOM     71  C   UNL A   1      46.538  27.274  36.258  1.00  0.00     0.200 A 
ATOM     72  F   UNL A   1      45.176  25.776  37.474  1.00  0.00    -0.200 F 
ATOM     73  F   UNL A   1      47.631  26.577  36.596  1.00  0.00    -0.200 F 
ENDBRANCH  40  63
ENDBRANCH  14  15
ENDBRANCH   7   9
ENDBRANCH   6   7
ENDBRANCH   5   6
ENDBRANCH   4   5
ENDBRANCH   3   4
ENDBRANCH   2   3
ENDBRANCH   1   2
BRANCH   1  74
ATOM     74  O   UNL A   1      34.678  30.919  28.237  1.00  0.00    -0.376 OA
BRANCH  74  75
ATOM     75  C   UNL A   1      33.818  30.680  27.127  1.00  0.00     0.202 C 
BRANCH  75  76
ATOM     76  C   UNL A   1      33.696  29.225  26.638  1.00  0.00     0.261 C 
BRANCH  76  77
ATOM     77  O   UNL A   1      33.365  29.071  25.240  1.00  0.00    -0.461 OA
BRANCH  77  78
ATOM     78  C   UNL A   1      32.411  28.145  24.985  1.00  0.00     0.338 C 
ATOM     79  O   UNL A   1      31.231  28.244  25.329  1.00  0.00    -0.249 OA
BRANCH  78  80
ATOM     80  C   UNL A   1      32.867  26.899  24.205  1.00  0.00     0.263 C 
ATOM     81  O   UNL A   1      33.898  26.020  24.650  1.00  0.00    -0.322 OA
ATOM     82  C   UNL A   1      33.137  27.260  22.731  1.00  0.00     0.186 C 
ATOM     83  C   UNL A   1      33.804  24.745  23.972  1.00  0.00     0.343 C 
ATOM     84  C   UNL A   1      32.953  25.962  21.917  1.00  0.00     0.181 C 
ATOM     85  C   UNL A   1      33.881  24.849  22.430  1.00  0.00     0.214 C 
BRANCH  82  86
ATOM     86  O   UNL A   1      32.293  28.275  22.191  1.00  0.00    -0.387 OA
ATOM     87  H   UNL A   1      32.821  28.878  21.646  1.00  0.00     0.211 HD
ENDBRANCH  82  86
BRANCH  83  88
ATOM     88  O   UNL A   1      34.646  23.717  24.531  1.00  0.00    -0.429 OA
BRANCH  88  89
ATOM     89  C   UNL A   1      34.293  23.113  25.685  1.00  0.00     0.342 C 
ATOM     90  O   UNL A   1      34.277  23.612  26.796  1.00  0.00    -0.246 OA
BRANCH  89  91
ATOM     91  C   UNL A   1      33.851  21.728  25.401  1.00  0.00     0.078 A 
ATOM     92  C   UNL A   1      34.723  20.701  25.022  1.00  0.00     0.019 A 
ATOM     93  C   UNL A   1      32.491  21.452  25.416  1.00  0.00     0.126 A 
ATOM     94  C   UNL A   1      34.201  19.468  24.629  1.00  0.00     0.021 A 
ATOM     95  N   UNL A   1      31.956  20.268  25.015  1.00  0.00    -0.264 NA
ATOM     96  C   UNL A   1      32.823  19.305  24.631  1.00  0.00     0.111 A 
ENDBRANCH  89  91
ENDBRANCH  88  89
ENDBRANCH  83  88
BRANCH  84  97
ATOM     97  O   UNL A   1      33.176  26.159  20.517  1.00  0.00    -0.387 OA
ATOM     98  H   UNL A   1      33.811  25.500  20.195  1.00  0.00     0.211 HD
ENDBRANCH  84  97
BRANCH  85  99
ATOM     99  O   UNL A   1      33.534  23.572  21.863  1.00  0.00    -0.384 OA
ATOM    100  H   UNL A   1      34.257  23.263  21.295  1.00  0.00     0.211 HD
ENDBRANCH  85  99
ENDBRANCH  78  80
ENDBRANCH  77  78
ENDBRANCH  76  77
ENDBRANCH  75  76
ENDBRANCH  74  75
ENDBRANCH   1  74
TORSDOF 23
ENDMDL
