MODEL 1
REMARK VINA RESULT:     -11.8      0.000      0.000
REMARK SMILES Cc1ccc(C(=O)OCCOCCOCCOC(=O)c2ccc(-c3c4nc(c(-c5c(F)c(F)c(F)c(F)c5F)c5ccc([nH]5)c(-c5c(F)c(F)c(F)c(F)c5F)c5nc(c(-c6c(F)c(F)c(F)c(F)c6F)c6ccc3[nH]6)C=C5)C=C4)cc2)cc1/[NH+]=C1\NCCS1
REMARK SMILES IDX 13 1 12 2 11 3 10 4 9 5 8 6 6 7 7 8 5 9 1 10 2 11 3 12 84 13
REMARK SMILES IDX 4 14 83 15 85 16 86 17 87 19 90 20 88 21 89 23 14 24 15 25
REMARK SMILES IDX 16 26 17 27 18 28 19 29 20 30 21 31 82 32 22 33 81 34 23 35
REMARK SMILES IDX 24 36 25 37 75 38 26 39 80 40 74 41 76 42 27 43 79 44 73 45
REMARK SMILES IDX 72 46 28 48 60 49 40 50 59 51 41 52 44 53 58 54 77 55 42 56
REMARK SMILES IDX 43 57 57 59 78 60 45 61 29 62 30 63 38 64 31 65 32 66 36 67
REMARK SMILES IDX 39 68 33 69 34 70 37 71 35 72 61 73 62 74 70 75 63 76 64 77
REMARK SMILES IDX 68 78 71 79 65 80 66 81 69 82 67 83 46 84 47 85 55 86 48 87
REMARK SMILES IDX 49 88 53 89 56 90 50 91 51 92 54 93 52 94
REMARK H PARENT 85 18 87 22 76 47 44 58
REMARK Flexibility Score: inf
ROOT
ATOM      1  C   UNL A   1      31.825  30.337  25.924  1.00  0.00     0.188 C 
ENDROOT
BRANCH   1   2
ATOM      2  C   UNL A   1      32.575  29.409  24.986  1.00  0.00     0.188 C 
BRANCH   2   3
ATOM      3  O   UNL A   1      31.894  28.354  24.322  1.00  0.00    -0.376 OA
BRANCH   3   4
ATOM      4  C   UNL A   1      32.084  28.180  22.914  1.00  0.00     0.202 C 
BRANCH   4   5
ATOM      5  C   UNL A   1      33.519  28.047  22.307  1.00  0.00     0.261 C 
BRANCH   5   6
ATOM      6  O   UNL A   1      33.923  26.799  21.616  1.00  0.00    -0.460 OA
BRANCH   6   7
ATOM      7  C   UNL A   1      33.117  25.727  21.238  1.00  0.00     0.338 C 
ATOM      8  O   UNL A   1      32.783  25.560  20.068  1.00  0.00    -0.246 OA
BRANCH   7   9
ATOM      9  C   UNL A   1      32.692  24.609  22.463  1.00  0.00     0.064 A 
ATOM     10  C   UNL A   1      31.736  21.475  25.407  1.00  0.00     0.049 C 
ATOM     11  C   UNL A   1      32.164  22.613  24.528  1.00  0.00    -0.004 A 
ATOM     12  C   UNL A   1      31.235  23.576  24.285  1.00  0.00     0.008 A 
ATOM     13  C   UNL A   1      33.382  22.707  23.815  1.00  0.00     0.129 A 
ATOM     14  C   UNL A   1      31.524  24.519  23.303  1.00  0.00     0.016 A 
ATOM     15  C   UNL A   1      33.637  23.677  22.804  1.00  0.00     0.067 A 
BRANCH  13  16
ATOM     16  N   UNL A   1      34.385  21.772  24.019  1.00  0.00    -0.235 N 
ATOM     17  C   UNL A   1      35.373  22.193  24.718  1.00  0.00     0.309 C 
ATOM     18  H   UNL A   1      34.342  20.858  23.657  1.00  0.00     0.313 HD
ATOM     19  N   UNL A   1      35.624  23.427  25.246  1.00  0.00    -0.268 N 
ATOM     20  S   UNL A   1      36.665  21.077  25.084  1.00  0.00    -0.035 SA
ATOM     21  C   UNL A   1      36.822  23.563  26.022  1.00  0.00     0.246 C 
ATOM     22  H   UNL A   1      35.012  24.184  25.101  1.00  0.00     0.305 HD
ATOM     23  C   UNL A   1      37.755  22.452  25.545  1.00  0.00     0.128 C 
ENDBRANCH  13  16
ENDBRANCH   7   9
ENDBRANCH   6   7
ENDBRANCH   5   6
ENDBRANCH   4   5
ENDBRANCH   3   4
ENDBRANCH   2   3
ENDBRANCH   1   2
BRANCH   1  24
ATOM     24  O   UNL A   1      32.618  30.563  27.082  1.00  0.00    -0.376 OA
BRANCH  24  25
ATOM     25  C   UNL A   1      33.965  30.127  26.947  1.00  0.00     0.202 C 
BRANCH  25  26
ATOM     26  C   UNL A   1      34.949  30.991  27.755  1.00  0.00     0.261 C 
BRANCH  26  27
ATOM     27  O   UNL A   1      34.240  31.681  28.809  1.00  0.00    -0.460 OA
BRANCH  27  28
ATOM     28  C   UNL A   1      34.461  33.027  28.943  1.00  0.00     0.338 C 
ATOM     29  O   UNL A   1      33.838  33.910  28.383  1.00  0.00    -0.246 OA
BRANCH  28  30
ATOM     30  C   UNL A   1      35.786  33.223  29.614  1.00  0.00     0.060 A 
ATOM     31  C   UNL A   1      36.944  33.621  28.946  1.00  0.00     0.016 A 
ATOM     32  C   UNL A   1      35.971  32.619  30.812  1.00  0.00     0.016 A 
ATOM     33  C   UNL A   1      38.245  33.136  29.345  1.00  0.00     0.010 A 
ATOM     34  C   UNL A   1      37.215  32.014  31.021  1.00  0.00     0.010 A 
ATOM     35  C   UNL A   1      38.435  32.131  30.306  1.00  0.00    -0.014 A 
BRANCH  35  36
ATOM     36  C   UNL A   1      39.828  31.150  30.358  1.00  0.00     0.031 A 
ATOM     37  C   UNL A   1      40.265  29.569  29.815  1.00  0.00     0.074 A 
ATOM     38  C   UNL A   1      40.877  31.701  31.009  1.00  0.00     0.049 A 
ATOM     39  N   UNL A   1      41.015  28.710  30.496  1.00  0.00    -0.248 NA
ATOM     40  C   UNL A   1      39.863  28.784  28.598  1.00  0.00     0.031 C 
ATOM     41  C   UNL A   1      42.267  31.278  30.967  1.00  0.00     0.029 A 
ATOM     42  N   UNL A   1      40.871  32.745  31.940  1.00  0.00    -0.354 N 
ATOM     43  C   UNL A   1      41.208  27.598  29.637  1.00  0.00     0.074 A 
ATOM     44  C   UNL A   1      40.031  27.499  28.888  1.00  0.00     0.031 C 
ATOM     45  C   UNL A   1      42.916  31.838  31.999  1.00  0.00     0.029 A 
ATOM     46  C   UNL A   1      41.923  32.500  32.823  1.00  0.00     0.049 A 
ATOM     47  H   UNL A   1      40.247  33.506  31.967  1.00  0.00     0.167 HD
ATOM     48  C   UNL A   1      42.439  27.147  29.226  1.00  0.00     0.037 A 
ATOM     49  C   UNL A   1      41.685  32.305  34.149  1.00  0.00     0.037 A 
ATOM     50  C   UNL A   1      43.400  27.546  30.211  1.00  0.00     0.049 A 
ATOM     51  C   UNL A   1      42.213  30.972  34.609  1.00  0.00     0.074 A 
ATOM     52  C   UNL A   1      44.462  28.419  30.251  1.00  0.00     0.029 A 
ATOM     53  N   UNL A   1      43.098  27.202  31.511  1.00  0.00    -0.354 N 
ATOM     54  N   UNL A   1      42.549  30.025  33.774  1.00  0.00    -0.248 NA
ATOM     55  C   UNL A   1      42.455  30.587  35.993  1.00  0.00     0.031 C 
ATOM     56  C   UNL A   1      44.675  28.733  31.626  1.00  0.00     0.029 A 
ATOM     57  C   UNL A   1      43.784  27.994  32.391  1.00  0.00     0.049 A 
ATOM     58  H   UNL A   1      42.475  26.486  31.772  1.00  0.00     0.167 HD
ATOM     59  C   UNL A   1      43.052  28.958  34.453  1.00  0.00     0.074 A 
ATOM     60  C   UNL A   1      42.957  29.346  35.844  1.00  0.00     0.031 C 
ATOM     61  C   UNL A   1      43.486  27.841  33.805  1.00  0.00     0.037 A 
BRANCH  48  62
ATOM     62  C   UNL A   1      42.817  26.491  27.863  1.00  0.00     0.064 A 
ATOM     63  C   UNL A   1      42.377  25.175  27.580  1.00  0.00     0.173 A 
ATOM     64  C   UNL A   1      43.680  27.010  26.856  1.00  0.00     0.173 A 
ATOM     65  F   UNL A   1      41.566  24.528  28.427  1.00  0.00    -0.203 F 
ATOM     66  C   UNL A   1      42.765  24.460  26.429  1.00  0.00     0.198 A 
ATOM     67  C   UNL A   1      44.015  26.317  25.679  1.00  0.00     0.198 A 
ATOM     68  F   UNL A   1      44.313  28.180  26.967  1.00  0.00    -0.203 F 
ATOM     69  F   UNL A   1      42.358  23.193  26.265  1.00  0.00    -0.200 F 
ATOM     70  C   UNL A   1      43.572  25.035  25.471  1.00  0.00     0.200 A 
ATOM     71  F   UNL A   1      44.809  26.901  24.766  1.00  0.00    -0.200 F 
ATOM     72  F   UNL A   1      43.942  24.355  24.377  1.00  0.00    -0.200 F 
ENDBRANCH  48  62
BRANCH  49  73
ATOM     73  C   UNL A   1      40.531  33.114  34.655  1.00  0.00     0.064 A 
ATOM     74  C   UNL A   1      39.303  32.424  34.812  1.00  0.00     0.173 A 
ATOM     75  C   UNL A   1      40.664  34.324  35.351  1.00  0.00     0.173 A 
ATOM     76  F   UNL A   1      39.119  31.246  34.193  1.00  0.00    -0.203 F 
ATOM     77  C   UNL A   1      38.326  32.842  35.714  1.00  0.00     0.198 A 
ATOM     78  C   UNL A   1      39.656  34.765  36.231  1.00  0.00     0.198 A 
ATOM     79  F   UNL A   1      41.813  35.012  35.305  1.00  0.00    -0.203 F 
ATOM     80  F   UNL A   1      37.268  32.057  35.964  1.00  0.00    -0.200 F 
ATOM     81  C   UNL A   1      38.510  34.006  36.436  1.00  0.00     0.200 A 
ATOM     82  F   UNL A   1      39.861  35.849  36.994  1.00  0.00    -0.200 F 
ATOM     83  F   UNL A   1      37.633  34.344  37.393  1.00  0.00    -0.200 F 
ENDBRANCH  49  73
BRANCH  61  84
ATOM     84  C   UNL A   1      43.589  26.464  34.412  1.00  0.00     0.064 A 
ATOM     85  C   UNL A   1      42.472  25.734  34.845  1.00  0.00     0.173 A 
ATOM     86  C   UNL A   1      44.803  25.736  34.326  1.00  0.00     0.173 A 
ATOM     87  F   UNL A   1      41.247  26.276  34.862  1.00  0.00    -0.203 F 
ATOM     88  C   UNL A   1      42.567  24.389  35.206  1.00  0.00     0.198 A 
ATOM     89  C   UNL A   1      44.876  24.375  34.611  1.00  0.00     0.198 A 
ATOM     90  F   UNL A   1      45.939  26.313  33.904  1.00  0.00    -0.203 F 
ATOM     91  F   UNL A   1      41.478  23.745  35.646  1.00  0.00    -0.200 F 
ATOM     92  C   UNL A   1      43.761  23.706  35.068  1.00  0.00     0.200 A 
ATOM     93  F   UNL A   1      46.021  23.711  34.400  1.00  0.00    -0.200 F 
ATOM     94  F   UNL A   1      43.829  22.399  35.352  1.00  0.00    -0.200 F 
ENDBRANCH  61  84
ENDBRANCH  35  36
ENDBRANCH  28  30
ENDBRANCH  27  28
ENDBRANCH  26  27
ENDBRANCH  25  26
ENDBRANCH  24  25
ENDBRANCH   1  24
TORSDOF 18
ENDMDL
MODEL 2
REMARK VINA RESULT:     -11.6      5.036     10.738
REMARK SMILES Cc1ccc(C(=O)OCCOCCOCCOC(=O)c2ccc(-c3c4nc(c(-c5c(F)c(F)c(F)c(F)c5F)c5ccc([nH]5)c(-c5c(F)c(F)c(F)c(F)c5F)c5nc(c(-c6c(F)c(F)c(F)c(F)c6F)c6ccc3[nH]6)C=C5)C=C4)cc2)cc1/[NH+]=C1\NCCS1
REMARK SMILES IDX 13 1 12 2 11 3 10 4 9 5 8 6 6 7 7 8 5 9 1 10 2 11 3 12 84 13
REMARK SMILES IDX 4 14 83 15 85 16 86 17 87 19 90 20 88 21 89 23 14 24 15 25
REMARK SMILES IDX 16 26 17 27 18 28 19 29 20 30 21 31 82 32 22 33 81 34 23 35
REMARK SMILES IDX 24 36 25 37 75 38 26 39 80 40 74 41 76 42 27 43 79 44 73 45
REMARK SMILES IDX 72 46 28 48 60 49 40 50 59 51 41 52 44 53 58 54 77 55 42 56
REMARK SMILES IDX 43 57 57 59 78 60 45 61 29 62 30 63 38 64 31 65 32 66 36 67
REMARK SMILES IDX 39 68 33 69 34 70 37 71 35 72 61 73 62 74 70 75 63 76 64 77
REMARK SMILES IDX 68 78 71 79 65 80 66 81 69 82 67 83 46 84 47 85 55 86 48 87
REMARK SMILES IDX 49 88 53 89 56 90 50 91 51 92 54 93 52 94
REMARK H PARENT 85 18 87 22 76 47 44 58
REMARK Flexibility Score: inf
ROOT
ATOM      1  C   UNL A   1      42.191  19.496  26.597  1.00  0.00     0.188 C 
ENDROOT
BRANCH   1   2
ATOM      2  C   UNL A   1      40.727  19.865  26.450  1.00  0.00     0.188 C 
BRANCH   2   3
ATOM      3  O   UNL A   1      40.201  21.002  27.120  1.00  0.00    -0.376 OA
BRANCH   3   4
ATOM      4  C   UNL A   1      40.097  22.242  26.412  1.00  0.00     0.202 C 
BRANCH   4   5
ATOM      5  C   UNL A   1      38.731  22.999  26.316  1.00  0.00     0.261 C 
BRANCH   5   6
ATOM      6  O   UNL A   1      37.469  22.240  26.143  1.00  0.00    -0.460 OA
BRANCH   6   7
ATOM      7  C   UNL A   1      37.024  21.561  25.010  1.00  0.00     0.338 C 
ATOM      8  O   UNL A   1      37.743  20.757  24.424  1.00  0.00    -0.246 OA
BRANCH   7   9
ATOM      9  C   UNL A   1      35.403  21.834  24.532  1.00  0.00     0.064 A 
ATOM     10  C   UNL A   1      31.283  22.886  23.379  1.00  0.00     0.049 C 
ATOM     11  C   UNL A   1      32.709  22.477  23.606  1.00  0.00    -0.004 A 
ATOM     12  C   UNL A   1      32.908  21.341  24.328  1.00  0.00     0.008 A 
ATOM     13  C   UNL A   1      33.858  23.228  23.269  1.00  0.00     0.129 A 
ATOM     14  C   UNL A   1      34.206  21.059  24.742  1.00  0.00     0.016 A 
ATOM     15  C   UNL A   1      35.172  22.918  23.725  1.00  0.00     0.067 A 
BRANCH  13  16
ATOM     16  N   UNL A   1      33.740  24.389  22.521  1.00  0.00    -0.235 N 
ATOM     17  C   UNL A   1      33.653  25.464  23.214  1.00  0.00     0.309 C 
ATOM     18  H   UNL A   1      33.724  24.389  21.537  1.00  0.00     0.313 HD
ATOM     19  N   UNL A   1      33.603  25.646  24.566  1.00  0.00    -0.268 N 
ATOM     20  S   UNL A   1      33.558  26.989  22.369  1.00  0.00    -0.035 SA
ATOM     21  C   UNL A   1      33.543  27.001  25.030  1.00  0.00     0.246 C 
ATOM     22  H   UNL A   1      33.608  24.884  25.189  1.00  0.00     0.305 HD
ATOM     23  C   UNL A   1      32.966  27.813  23.873  1.00  0.00     0.128 C 
ENDBRANCH  13  16
ENDBRANCH   7   9
ENDBRANCH   6   7
ENDBRANCH   5   6
ENDBRANCH   4   5
ENDBRANCH   3   4
ENDBRANCH   2   3
ENDBRANCH   1   2
BRANCH   1  24
ATOM     24  O   UNL A   1      42.658  18.961  25.365  1.00  0.00    -0.376 OA
BRANCH  24  25
ATOM     25  C   UNL A   1      44.069  18.797  25.309  1.00  0.00     0.202 C 
BRANCH  25  26
ATOM     26  C   UNL A   1      44.704  19.542  24.122  1.00  0.00     0.261 C 
BRANCH  26  27
ATOM     27  O   UNL A   1      45.527  20.625  24.609  1.00  0.00    -0.460 OA
BRANCH  27  28
ATOM     28  C   UNL A   1      45.121  21.903  24.327  1.00  0.00     0.338 C 
ATOM     29  O   UNL A   1      44.524  22.256  23.327  1.00  0.00    -0.246 OA
BRANCH  28  30
ATOM     30  C   UNL A   1      45.815  22.837  25.270  1.00  0.00     0.060 A 
ATOM     31  C   UNL A   1      45.667  22.792  26.657  1.00  0.00     0.016 A 
ATOM     32  C   UNL A   1      46.278  24.003  24.761  1.00  0.00     0.016 A 
ATOM     33  C   UNL A   1      45.695  23.997  27.453  1.00  0.00     0.010 A 
ATOM     34  C   UNL A   1      46.083  25.147  25.542  1.00  0.00     0.010 A 
ATOM     35  C   UNL A   1      45.712  25.288  26.905  1.00  0.00    -0.014 A 
BRANCH  35  36
ATOM     36  C   UNL A   1      45.152  26.661  27.747  1.00  0.00     0.031 A 
ATOM     37  C   UNL A   1      43.658  27.517  27.890  1.00  0.00     0.074 A 
ATOM     38  C   UNL A   1      46.096  27.289  28.482  1.00  0.00     0.049 A 
ATOM     39  N   UNL A   1      43.539  28.838  27.940  1.00  0.00    -0.248 NA
ATOM     40  C   UNL A   1      42.232  27.044  27.887  1.00  0.00     0.031 C 
ATOM     41  C   UNL A   1      45.891  28.274  29.532  1.00  0.00     0.029 A 
ATOM     42  N   UNL A   1      47.487  27.217  28.357  1.00  0.00    -0.354 N 
ATOM     43  C   UNL A   1      42.164  29.096  28.166  1.00  0.00     0.074 A 
ATOM     44  C   UNL A   1      41.480  28.070  27.506  1.00  0.00     0.031 C 
ATOM     45  C   UNL A   1      47.052  28.905  29.760  1.00  0.00     0.029 A 
ATOM     46  C   UNL A   1      47.990  28.459  28.748  1.00  0.00     0.049 A 
ATOM     47  H   UNL A   1      48.011  26.441  28.052  1.00  0.00     0.167 HD
ATOM     48  C   UNL A   1      41.678  29.792  29.248  1.00  0.00     0.037 A 
ATOM     49  C   UNL A   1      48.693  29.229  27.873  1.00  0.00     0.037 A 
ATOM     50  C   UNL A   1      42.720  30.661  29.709  1.00  0.00     0.049 A 
ATOM     51  C   UNL A   1      48.053  30.581  27.700  1.00  0.00     0.074 A 
ATOM     52  C   UNL A   1      43.503  30.744  30.837  1.00  0.00     0.029 A 
ATOM     53  N   UNL A   1      43.289  31.470  28.749  1.00  0.00    -0.354 N 
ATOM     54  N   UNL A   1      46.831  30.833  28.085  1.00  0.00    -0.248 NA
ATOM     55  C   UNL A   1      48.701  31.761  27.141  1.00  0.00     0.031 C 
ATOM     56  C   UNL A   1      44.664  31.488  30.468  1.00  0.00     0.029 A 
ATOM     57  C   UNL A   1      44.528  31.894  29.149  1.00  0.00     0.049 A 
ATOM     58  H   UNL A   1      42.864  31.710  27.894  1.00  0.00     0.167 HD
ATOM     59  C   UNL A   1      46.531  32.143  27.867  1.00  0.00     0.074 A 
ATOM     60  C   UNL A   1      47.726  32.684  27.257  1.00  0.00     0.031 C 
ATOM     61  C   UNL A   1      45.314  32.660  28.196  1.00  0.00     0.037 A 
BRANCH  48  62
ATOM     62  C   UNL A   1      40.329  29.581  30.001  1.00  0.00     0.064 A 
ATOM     63  C   UNL A   1      39.453  30.679  30.177  1.00  0.00     0.173 A 
ATOM     64  C   UNL A   1      39.879  28.407  30.669  1.00  0.00     0.173 A 
ATOM     65  F   UNL A   1      39.728  31.868  29.625  1.00  0.00    -0.203 F 
ATOM     66  C   UNL A   1      38.271  30.612  30.941  1.00  0.00     0.198 A 
ATOM     67  C   UNL A   1      38.668  28.326  31.380  1.00  0.00     0.198 A 
ATOM     68  F   UNL A   1      40.601  27.286  30.746  1.00  0.00    -0.203 F 
ATOM     69  F   UNL A   1      37.527  31.714  31.115  1.00  0.00    -0.200 F 
ATOM     70  C   UNL A   1      37.870  29.433  31.531  1.00  0.00     0.200 A 
ATOM     71  F   UNL A   1      38.307  27.164  31.950  1.00  0.00    -0.200 F 
ATOM     72  F   UNL A   1      36.746  29.368  32.259  1.00  0.00    -0.200 F 
ENDBRANCH  48  62
BRANCH  49  73
ATOM     73  C   UNL A   1      49.515  28.420  26.920  1.00  0.00     0.064 A 
ATOM     74  C   UNL A   1      50.782  27.992  27.392  1.00  0.00     0.173 A 
ATOM     75  C   UNL A   1      48.991  27.729  25.818  1.00  0.00     0.173 A 
ATOM     76  F   UNL A   1      51.331  28.594  28.460  1.00  0.00    -0.203 F 
ATOM     77  C   UNL A   1      51.419  26.858  26.889  1.00  0.00     0.198 A 
ATOM     78  C   UNL A   1      49.658  26.608  25.286  1.00  0.00     0.198 A 
ATOM     79  F   UNL A   1      47.775  28.029  25.344  1.00  0.00    -0.203 F 
ATOM     80  F   UNL A   1      52.519  26.387  27.493  1.00  0.00    -0.200 F 
ATOM     81  C   UNL A   1      50.848  26.157  25.844  1.00  0.00     0.200 A 
ATOM     82  F   UNL A   1      49.073  25.875  24.326  1.00  0.00    -0.200 F 
ATOM     83  F   UNL A   1      51.392  24.999  25.441  1.00  0.00    -0.200 F 
ENDBRANCH  49  73
BRANCH  61  84
ATOM     84  C   UNL A   1      44.695  33.893  27.586  1.00  0.00     0.064 A 
ATOM     85  C   UNL A   1      44.006  33.878  26.365  1.00  0.00     0.173 A 
ATOM     86  C   UNL A   1      44.557  35.076  28.356  1.00  0.00     0.173 A 
ATOM     87  F   UNL A   1      43.964  32.779  25.599  1.00  0.00    -0.203 F 
ATOM     88  C   UNL A   1      43.266  34.977  25.925  1.00  0.00     0.198 A 
ATOM     89  C   UNL A   1      43.753  36.138  27.950  1.00  0.00     0.198 A 
ATOM     90  F   UNL A   1      45.149  35.207  29.555  1.00  0.00    -0.203 F 
ATOM     91  F   UNL A   1      42.653  34.926  24.735  1.00  0.00    -0.200 F 
ATOM     92  C   UNL A   1      43.122  36.095  26.726  1.00  0.00     0.200 A 
ATOM     93  F   UNL A   1      43.563  37.181  28.770  1.00  0.00    -0.200 F 
ATOM     94  F   UNL A   1      42.356  37.119  26.327  1.00  0.00    -0.200 F 
ENDBRANCH  61  84
ENDBRANCH  35  36
ENDBRANCH  28  30
ENDBRANCH  27  28
ENDBRANCH  26  27
ENDBRANCH  25  26
ENDBRANCH  24  25
ENDBRANCH   1  24
TORSDOF 18
ENDMDL
MODEL 3
REMARK VINA RESULT:     -11.6      1.635      2.606
REMARK SMILES Cc1ccc(C(=O)OCCOCCOCCOC(=O)c2ccc(-c3c4nc(c(-c5c(F)c(F)c(F)c(F)c5F)c5ccc([nH]5)c(-c5c(F)c(F)c(F)c(F)c5F)c5nc(c(-c6c(F)c(F)c(F)c(F)c6F)c6ccc3[nH]6)C=C5)C=C4)cc2)cc1/[NH+]=C1\NCCS1
REMARK SMILES IDX 13 1 12 2 11 3 10 4 9 5 8 6 6 7 7 8 5 9 1 10 2 11 3 12 84 13
REMARK SMILES IDX 4 14 83 15 85 16 86 17 87 19 90 20 88 21 89 23 14 24 15 25
REMARK SMILES IDX 16 26 17 27 18 28 19 29 20 30 21 31 82 32 22 33 81 34 23 35
REMARK SMILES IDX 24 36 25 37 75 38 26 39 80 40 74 41 76 42 27 43 79 44 73 45
REMARK SMILES IDX 72 46 28 48 60 49 40 50 59 51 41 52 44 53 58 54 77 55 42 56
REMARK SMILES IDX 43 57 57 59 78 60 45 61 29 62 30 63 38 64 31 65 32 66 36 67
REMARK SMILES IDX 39 68 33 69 34 70 37 71 35 72 61 73 62 74 70 75 63 76 64 77
REMARK SMILES IDX 68 78 71 79 65 80 66 81 69 82 67 83 46 84 47 85 55 86 48 87
REMARK SMILES IDX 49 88 53 89 56 90 50 91 51 92 54 93 52 94
REMARK H PARENT 85 18 87 22 76 47 44 58
REMARK Flexibility Score: inf
ROOT
ATOM      1  C   UNL A   1      32.512  29.887  25.461  1.00  0.00     0.188 C 
ENDROOT
BRANCH   1   2
ATOM      2  C   UNL A   1      31.928  28.819  24.556  1.00  0.00     0.188 C 
BRANCH   2   3
ATOM      3  O   UNL A   1      31.022  27.854  25.072  1.00  0.00    -0.376 OA
BRANCH   3   4
ATOM      4  C   UNL A   1      31.277  26.464  24.841  1.00  0.00     0.202 C 
BRANCH   4   5
ATOM      5  C   UNL A   1      30.219  25.379  25.227  1.00  0.00     0.261 C 
BRANCH   5   6
ATOM      6  O   UNL A   1      30.258  24.744  26.567  1.00  0.00    -0.460 OA
BRANCH   6   7
ATOM      7  C   UNL A   1      30.494  23.406  26.877  1.00  0.00     0.338 C 
ATOM      8  O   UNL A   1      29.624  22.705  27.385  1.00  0.00    -0.246 OA
BRANCH   7   9
ATOM      9  C   UNL A   1      32.021  22.769  26.437  1.00  0.00     0.064 A 
ATOM     10  C   UNL A   1      35.793  20.803  25.290  1.00  0.00     0.049 C 
ATOM     11  C   UNL A   1      34.522  21.564  25.532  1.00  0.00    -0.004 A 
ATOM     12  C   UNL A   1      34.559  22.516  26.503  1.00  0.00     0.008 A 
ATOM     13  C   UNL A   1      33.261  21.290  24.953  1.00  0.00     0.129 A 
ATOM     14  C   UNL A   1      33.350  23.077  26.902  1.00  0.00     0.016 A 
ATOM     15  C   UNL A   1      32.040  21.874  25.399  1.00  0.00     0.067 A 
BRANCH  13  16
ATOM     16  N   UNL A   1      33.144  20.345  23.946  1.00  0.00    -0.235 N 
ATOM     17  C   UNL A   1      32.962  19.146  24.358  1.00  0.00     0.309 C 
ATOM     18  H   UNL A   1      33.196  20.576  22.991  1.00  0.00     0.313 HD
ATOM     19  N   UNL A   1      32.921  18.640  25.626  1.00  0.00    -0.268 N 
ATOM     20  S   UNL A   1      32.744  17.885  23.170  1.00  0.00    -0.035 SA
ATOM     21  C   UNL A   1      32.658  17.236  25.750  1.00  0.00     0.246 C 
ATOM     22  H   UNL A   1      33.064  19.212  26.414  1.00  0.00     0.305 HD
ATOM     23  C   UNL A   1      33.081  16.615  24.420  1.00  0.00     0.128 C 
ENDBRANCH  13  16
ENDBRANCH   7   9
ENDBRANCH   6   7
ENDBRANCH   5   6
ENDBRANCH   4   5
ENDBRANCH   3   4
ENDBRANCH   2   3
ENDBRANCH   1   2
BRANCH   1  24
ATOM     24  O   UNL A   1      32.855  29.298  26.709  1.00  0.00    -0.376 OA
BRANCH  24  25
ATOM     25  C   UNL A   1      34.255  29.142  26.903  1.00  0.00     0.202 C 
BRANCH  25  26
ATOM     26  C   UNL A   1      34.922  30.419  27.442  1.00  0.00     0.261 C 
BRANCH  26  27
ATOM     27  O   UNL A   1      34.023  31.094  28.349  1.00  0.00    -0.460 OA
BRANCH  27  28
ATOM     28  C   UNL A   1      34.195  32.443  28.524  1.00  0.00     0.338 C 
ATOM     29  O   UNL A   1      33.576  33.320  27.949  1.00  0.00    -0.246 OA
BRANCH  28  30
ATOM     30  C   UNL A   1      35.475  32.662  29.270  1.00  0.00     0.060 A 
ATOM     31  C   UNL A   1      36.649  33.129  28.678  1.00  0.00     0.016 A 
ATOM     32  C   UNL A   1      35.622  32.020  30.452  1.00  0.00     0.016 A 
ATOM     33  C   UNL A   1      37.946  32.677  29.126  1.00  0.00     0.010 A 
ATOM     34  C   UNL A   1      36.877  31.454  30.704  1.00  0.00     0.010 A 
ATOM     35  C   UNL A   1      38.127  31.644  30.058  1.00  0.00    -0.014 A 
BRANCH  35  36
ATOM     36  C   UNL A   1      39.553  30.714  30.146  1.00  0.00     0.031 A 
ATOM     37  C   UNL A   1      40.020  29.100  29.747  1.00  0.00     0.074 A 
ATOM     38  C   UNL A   1      40.608  31.360  30.691  1.00  0.00     0.049 A 
ATOM     39  N   UNL A   1      40.825  28.337  30.477  1.00  0.00    -0.248 NA
ATOM     40  C   UNL A   1      39.594  28.183  28.635  1.00  0.00     0.031 C 
ATOM     41  C   UNL A   1      42.009  30.975  30.630  1.00  0.00     0.029 A 
ATOM     42  N   UNL A   1      40.607  32.493  31.511  1.00  0.00    -0.354 N 
ATOM     43  C   UNL A   1      41.019  27.149  29.728  1.00  0.00     0.074 A 
ATOM     44  C   UNL A   1      39.816  26.940  29.046  1.00  0.00     0.031 C 
ATOM     45  C   UNL A   1      42.681  31.657  31.569  1.00  0.00     0.029 A 
ATOM     46  C   UNL A   1      41.702  32.370  32.366  1.00  0.00     0.049 A 
ATOM     47  H   UNL A   1      39.959  33.234  31.489  1.00  0.00     0.167 HD
ATOM     48  C   UNL A   1      42.247  26.694  29.309  1.00  0.00     0.037 A 
ATOM     49  C   UNL A   1      41.526  32.305  33.714  1.00  0.00     0.037 A 
ATOM     50  C   UNL A   1      43.234  27.220  30.205  1.00  0.00     0.049 A 
ATOM     51  C   UNL A   1      42.118  31.043  34.282  1.00  0.00     0.074 A 
ATOM     52  C   UNL A   1      44.267  28.123  30.108  1.00  0.00     0.029 A 
ATOM     53  N   UNL A   1      42.998  27.003  31.546  1.00  0.00    -0.354 N 
ATOM     54  N   UNL A   1      42.450  30.026  33.533  1.00  0.00    -0.248 NA
ATOM     55  C   UNL A   1      42.429  30.809  35.687  1.00  0.00     0.031 C 
ATOM     56  C   UNL A   1      44.527  28.583  31.434  1.00  0.00     0.029 A 
ATOM     57  C   UNL A   1      43.694  27.900  32.309  1.00  0.00     0.049 A 
ATOM     58  H   UNL A   1      42.411  26.299  31.905  1.00  0.00     0.167 HD
ATOM     59  C   UNL A   1      43.016  29.048  34.294  1.00  0.00     0.074 A 
ATOM     60  C   UNL A   1      42.966  29.574  35.641  1.00  0.00     0.031 C 
ATOM     61  C   UNL A   1      43.461  27.885  33.743  1.00  0.00     0.037 A 
BRANCH  48  62
ATOM     62  C   UNL A   1      42.590  25.913  28.004  1.00  0.00     0.064 A 
ATOM     63  C   UNL A   1      42.787  26.628  26.798  1.00  0.00     0.173 A 
ATOM     64  C   UNL A   1      42.626  24.501  27.817  1.00  0.00     0.173 A 
ATOM     65  F   UNL A   1      42.773  27.968  26.787  1.00  0.00    -0.203 F 
ATOM     66  C   UNL A   1      42.985  26.003  25.551  1.00  0.00     0.198 A 
ATOM     67  C   UNL A   1      42.885  23.881  26.582  1.00  0.00     0.198 A 
ATOM     68  F   UNL A   1      42.344  23.628  28.787  1.00  0.00    -0.203 F 
ATOM     69  F   UNL A   1      43.098  26.750  24.443  1.00  0.00    -0.200 F 
ATOM     70  C   UNL A   1      43.049  24.630  25.444  1.00  0.00     0.200 A 
ATOM     71  F   UNL A   1      42.934  22.541  26.508  1.00  0.00    -0.200 F 
ATOM     72  F   UNL A   1      43.236  24.035  24.257  1.00  0.00    -0.200 F 
ENDBRANCH  48  62
BRANCH  49  73
ATOM     73  C   UNL A   1      40.368  33.128  34.187  1.00  0.00     0.064 A 
ATOM     74  C   UNL A   1      39.170  32.423  34.466  1.00  0.00     0.173 A 
ATOM     75  C   UNL A   1      40.489  34.406  34.752  1.00  0.00     0.173 A 
ATOM     76  F   UNL A   1      39.000  31.183  33.977  1.00  0.00    -0.203 F 
ATOM     77  C   UNL A   1      38.218  32.901  35.364  1.00  0.00     0.198 A 
ATOM     78  C   UNL A   1      39.504  34.904  35.627  1.00  0.00     0.198 A 
ATOM     79  F   UNL A   1      41.611  35.118  34.588  1.00  0.00    -0.203 F 
ATOM     80  F   UNL A   1      37.198  32.116  35.737  1.00  0.00    -0.200 F 
ATOM     81  C   UNL A   1      38.392  34.137  35.957  1.00  0.00     0.200 A 
ATOM     82  F   UNL A   1      39.703  36.065  36.269  1.00  0.00    -0.200 F 
ATOM     83  F   UNL A   1      37.545  34.545  36.913  1.00  0.00    -0.200 F 
ENDBRANCH  49  73
BRANCH  61  84
ATOM     84  C   UNL A   1      43.634  26.580  34.481  1.00  0.00     0.064 A 
ATOM     85  C   UNL A   1      42.555  25.787  34.896  1.00  0.00     0.173 A 
ATOM     86  C   UNL A   1      44.911  25.967  34.554  1.00  0.00     0.173 A 
ATOM     87  F   UNL A   1      41.289  26.208  34.771  1.00  0.00    -0.203 F 
ATOM     88  C   UNL A   1      42.739  24.493  35.386  1.00  0.00     0.198 A 
ATOM     89  C   UNL A   1      45.081  24.649  34.967  1.00  0.00     0.198 A 
ATOM     90  F   UNL A   1      46.023  26.613  34.165  1.00  0.00    -0.203 F 
ATOM     91  F   UNL A   1      41.678  23.788  35.802  1.00  0.00    -0.200 F 
ATOM     92  C   UNL A   1      43.996  23.918  35.401  1.00  0.00     0.200 A 
ATOM     93  F   UNL A   1      46.294  24.082  34.905  1.00  0.00    -0.200 F 
ATOM     94  F   UNL A   1      44.156  22.652  35.809  1.00  0.00    -0.200 F 
ENDBRANCH  61  84
ENDBRANCH  35  36
ENDBRANCH  28  30
ENDBRANCH  27  28
ENDBRANCH  26  27
ENDBRANCH  25  26
ENDBRANCH  24  25
ENDBRANCH   1  24
TORSDOF 18
ENDMDL
