MODEL 1
REMARK VINA RESULT:     -11.9      0.000      0.000
REMARK SMILES COc1ccc(-n2ccnc2C[N@@H+]2CCn3nc(C(=O)OCCOCCOCCOC(=O)c4ccc(-c5c6nc(c(-c7c(F)c(F)c(F)c(F)c7F)c7ccc([nH]7)c(-c7c(F)c(F)c(F)c(F)c7F)c7nc(c(-c8c(F)c(F)c(F)c(F)c8F)c8ccc5[nH]8)C=C7)C=C6)cc4)cc3C2)cc1
REMARK SMILES IDX 25 1 24 2 23 3 22 4 21 5 19 6 20 7 18 8 13 9 14 10 98 11
REMARK SMILES IDX 15 13 97 14 16 15 96 16 17 17 12 18 11 19 7 20 8 21 9 22
REMARK SMILES IDX 10 23 6 24 3 25 4 26 100 27 5 28 99 29 2 30 1 31 26 32 27 33
REMARK SMILES IDX 28 34 29 35 30 36 31 37 32 38 33 39 34 40 95 41 35 42 94 43
REMARK SMILES IDX 36 44 37 45 38 46 88 47 39 48 93 49 87 50 89 51 40 52 92 53
REMARK SMILES IDX 86 54 85 55 41 57 73 58 53 59 72 60 54 61 57 62 71 63 90 64
REMARK SMILES IDX 55 65 56 66 70 68 91 69 58 70 42 71 43 72 51 73 44 74 45 75
REMARK SMILES IDX 49 76 52 77 46 78 47 79 50 80 48 81 74 82 75 83 83 84 76 85
REMARK SMILES IDX 77 86 81 87 84 88 78 89 79 90 82 91 80 92 59 93 60 94 68 95
REMARK SMILES IDX 61 96 62 97 66 98 69 99 63 100 64 101 67 102 65 103
REMARK H PARENT 13 12 89 56 57 67
REMARK Flexibility Score: inf
ROOT
ATOM      1  C   UNL A   1      41.634  20.595  26.294  1.00  0.00     0.188 C 
ENDROOT
BRANCH   1   2
ATOM      2  O   UNL A   1      40.343  20.694  26.915  1.00  0.00    -0.376 OA
BRANCH   2   3
ATOM      3  C   UNL A   1      39.614  21.868  26.525  1.00  0.00     0.202 C 
BRANCH   3   4
ATOM      4  C   UNL A   1      38.540  21.561  25.448  1.00  0.00     0.261 C 
BRANCH   4   5
ATOM      5  O   UNL A   1      37.145  21.586  25.873  1.00  0.00    -0.458 OA
BRANCH   5   6
ATOM      6  C   UNL A   1      36.429  22.762  25.797  1.00  0.00     0.358 C 
ATOM      7  O   UNL A   1      36.745  23.768  26.404  1.00  0.00    -0.244 OA
BRANCH   6   8
ATOM      8  C   UNL A   1      35.315  22.685  24.793  1.00  0.00     0.170 A 
ATOM      9  N   UNL A   1      32.015  24.318  22.235  1.00  0.00    -0.322 N 
ATOM     10  C   UNL A   1      31.262  23.871  23.425  1.00  0.00     0.286 C 
ATOM     11  C   UNL A   1      33.079  23.354  21.873  1.00  0.00     0.319 C 
ATOM     12  H   UNL A   1      31.264  24.358  21.545  1.00  0.00     0.348 HD
ATOM     13  C   UNL A   1      31.852  22.748  24.331  1.00  0.00     0.206 C 
ATOM     14  C   UNL A   1      33.930  23.045  23.056  1.00  0.00     0.094 A 
ATOM     15  N   UNL A   1      33.287  22.622  24.172  1.00  0.00    -0.257 N 
ATOM     16  C   UNL A   1      35.248  23.187  23.447  1.00  0.00     0.067 A 
ATOM     17  N   UNL A   1      34.106  22.167  25.131  1.00  0.00    -0.165 NA
BRANCH   9  18
ATOM     18  C   UNL A   1      32.596  25.681  22.222  1.00  0.00     0.339 C 
BRANCH  18  19
ATOM     19  C   UNL A   1      32.762  26.481  23.496  1.00  0.00     0.168 A 
ATOM     20  N   UNL A   1      31.866  27.459  23.908  1.00  0.00    -0.299 N 
ATOM     21  C   UNL A   1      32.126  27.754  25.217  1.00  0.00     0.113 A 
ATOM     22  C   UNL A   1      33.214  26.985  25.545  1.00  0.00     0.132 A 
ATOM     23  N   UNL A   1      33.615  26.220  24.476  1.00  0.00    -0.236 NA
BRANCH  20  24
ATOM     24  C   UNL A   1      30.831  28.008  23.150  1.00  0.00     0.047 A 
ATOM     25  C   UNL A   1      28.717  29.563  22.324  1.00  0.00     0.119 A 
ATOM     26  C   UNL A   1      30.037  29.883  21.960  1.00  0.00     0.048 A 
ATOM     27  C   UNL A   1      28.455  28.372  22.979  1.00  0.00     0.048 A 
ATOM     28  C   UNL A   1      31.109  29.124  22.382  1.00  0.00     0.030 A 
ATOM     29  C   UNL A   1      29.521  27.573  23.384  1.00  0.00     0.030 A 
BRANCH  25  30
ATOM     30  O   UNL A   1      27.784  30.488  21.976  1.00  0.00    -0.497 OA
ATOM     31  C   UNL A   1      27.880  31.215  20.759  1.00  0.00     0.278 C 
ENDBRANCH  25  30
ENDBRANCH  20  24
ENDBRANCH  18  19
ENDBRANCH   9  18
ENDBRANCH   6   8
ENDBRANCH   5   6
ENDBRANCH   4   5
ENDBRANCH   3   4
ENDBRANCH   2   3
ENDBRANCH   1   2
BRANCH   1  32
ATOM     32  C   UNL A   1      42.123  21.981  25.832  1.00  0.00     0.188 C 
BRANCH  32  33
ATOM     33  O   UNL A   1      43.392  22.042  25.180  1.00  0.00    -0.376 OA
BRANCH  33  34
ATOM     34  C   UNL A   1      43.658  23.161  24.346  1.00  0.00     0.202 C 
BRANCH  34  35
ATOM     35  C   UNL A   1      43.995  24.459  25.071  1.00  0.00     0.261 C 
BRANCH  35  36
ATOM     36  O   UNL A   1      42.822  25.239  25.315  1.00  0.00    -0.460 OA
BRANCH  36  37
ATOM     37  C   UNL A   1      43.010  26.576  25.333  1.00  0.00     0.338 C 
ATOM     38  O   UNL A   1      44.058  27.176  25.150  1.00  0.00    -0.246 OA
BRANCH  37  39
ATOM     39  C   UNL A   1      41.767  27.248  25.751  1.00  0.00     0.060 A 
ATOM     40  C   UNL A   1      41.797  28.644  25.684  1.00  0.00     0.016 A 
ATOM     41  C   UNL A   1      40.870  26.563  26.583  1.00  0.00     0.016 A 
ATOM     42  C   UNL A   1      41.200  29.343  26.705  1.00  0.00     0.010 A 
ATOM     43  C   UNL A   1      40.280  27.264  27.609  1.00  0.00     0.010 A 
ATOM     44  C   UNL A   1      40.579  28.618  27.727  1.00  0.00    -0.014 A 
BRANCH  44  45
ATOM     45  C   UNL A   1      40.409  29.298  28.992  1.00  0.00     0.031 A 
ATOM     46  C   UNL A   1      39.238  30.183  29.075  1.00  0.00     0.074 A 
ATOM     47  C   UNL A   1      41.268  29.113  30.015  1.00  0.00     0.049 A 
ATOM     48  N   UNL A   1      39.228  31.468  29.187  1.00  0.00    -0.248 NA
ATOM     49  C   UNL A   1      37.917  29.570  28.903  1.00  0.00     0.031 C 
ATOM     50  C   UNL A   1      42.302  28.085  30.166  1.00  0.00     0.029 A 
ATOM     51  N   UNL A   1      41.321  29.779  31.199  1.00  0.00    -0.354 N 
ATOM     52  C   UNL A   1      37.888  31.825  29.262  1.00  0.00     0.074 A 
ATOM     53  C   UNL A   1      37.129  30.645  28.934  1.00  0.00     0.031 C 
ATOM     54  C   UNL A   1      42.711  28.059  31.457  1.00  0.00     0.029 A 
ATOM     55  C   UNL A   1      42.061  29.140  32.180  1.00  0.00     0.049 A 
ATOM     56  H   UNL A   1      40.871  30.642  31.346  1.00  0.00     0.167 HD
ATOM     57  C   UNL A   1      37.504  33.011  29.804  1.00  0.00     0.037 A 
ATOM     58  C   UNL A   1      42.047  29.436  33.503  1.00  0.00     0.037 A 
ATOM     59  C   UNL A   1      38.592  33.954  29.850  1.00  0.00     0.049 A 
ATOM     60  C   UNL A   1      41.525  30.823  33.647  1.00  0.00     0.074 A 
ATOM     61  C   UNL A   1      39.413  34.526  28.896  1.00  0.00     0.029 A 
ATOM     62  N   UNL A   1      39.210  34.191  31.053  1.00  0.00    -0.354 N 
ATOM     63  N   UNL A   1      42.178  31.890  33.278  1.00  0.00    -0.248 NA
ATOM     64  C   UNL A   1      40.086  30.994  33.794  1.00  0.00     0.031 C 
ATOM     65  C   UNL A   1      40.691  34.633  29.518  1.00  0.00     0.029 A 
ATOM     66  C   UNL A   1      40.562  34.156  30.822  1.00  0.00     0.049 A 
ATOM     67  H   UNL A   1      38.767  34.355  31.917  1.00  0.00     0.167 HD
ATOM     68  C   UNL A   1      41.211  32.728  32.742  1.00  0.00     0.074 A 
ATOM     69  C   UNL A   1      39.934  32.166  33.172  1.00  0.00     0.031 C 
ATOM     70  C   UNL A   1      41.519  33.629  31.763  1.00  0.00     0.037 A 
BRANCH  57  71
ATOM     71  C   UNL A   1      36.241  33.190  30.600  1.00  0.00     0.064 A 
ATOM     72  C   UNL A   1      35.242  34.057  30.117  1.00  0.00     0.173 A 
ATOM     73  C   UNL A   1      36.098  32.783  31.945  1.00  0.00     0.173 A 
ATOM     74  F   UNL A   1      35.294  34.524  28.860  1.00  0.00    -0.203 F 
ATOM     75  C   UNL A   1      34.223  34.537  30.942  1.00  0.00     0.198 A 
ATOM     76  C   UNL A   1      35.047  33.217  32.748  1.00  0.00     0.198 A 
ATOM     77  F   UNL A   1      37.026  32.048  32.571  1.00  0.00    -0.203 F 
ATOM     78  F   UNL A   1      33.372  35.461  30.476  1.00  0.00    -0.200 F 
ATOM     79  C   UNL A   1      34.129  34.120  32.258  1.00  0.00     0.200 A 
ATOM     80  F   UNL A   1      34.984  32.815  34.024  1.00  0.00    -0.200 F 
ATOM     81  F   UNL A   1      33.191  34.627  33.067  1.00  0.00    -0.200 F 
ENDBRANCH  57  71
BRANCH  58  82
ATOM     82  C   UNL A   1      42.132  28.494  34.646  1.00  0.00     0.064 A 
ATOM     83  C   UNL A   1      41.395  27.298  34.652  1.00  0.00     0.173 A 
ATOM     84  C   UNL A   1      43.136  28.610  35.628  1.00  0.00     0.173 A 
ATOM     85  F   UNL A   1      40.451  27.083  33.723  1.00  0.00    -0.203 F 
ATOM     86  C   UNL A   1      41.665  26.272  35.564  1.00  0.00     0.198 A 
ATOM     87  C   UNL A   1      43.397  27.593  36.546  1.00  0.00     0.198 A 
ATOM     88  F   UNL A   1      43.955  29.670  35.660  1.00  0.00    -0.203 F 
ATOM     89  F   UNL A   1      40.986  25.118  35.495  1.00  0.00    -0.200 F 
ATOM     90  C   UNL A   1      42.672  26.418  36.505  1.00  0.00     0.200 A 
ATOM     91  F   UNL A   1      44.396  27.734  37.428  1.00  0.00    -0.200 F 
ATOM     92  F   UNL A   1      42.971  25.414  37.341  1.00  0.00    -0.200 F 
ENDBRANCH  58  82
BRANCH  70  93
ATOM     93  C   UNL A   1      42.970  33.877  31.467  1.00  0.00     0.064 A 
ATOM     94  C   UNL A   1      43.730  33.096  30.579  1.00  0.00     0.173 A 
ATOM     95  C   UNL A   1      43.570  35.033  31.984  1.00  0.00     0.173 A 
ATOM     96  F   UNL A   1      43.191  32.040  29.957  1.00  0.00    -0.203 F 
ATOM     97  C   UNL A   1      45.046  33.431  30.268  1.00  0.00     0.198 A 
ATOM     98  C   UNL A   1      44.872  35.386  31.641  1.00  0.00     0.198 A 
ATOM     99  F   UNL A   1      42.872  35.852  32.788  1.00  0.00    -0.203 F 
ATOM    100  F   UNL A   1      45.755  32.659  29.429  1.00  0.00    -0.200 F 
ATOM    101  C   UNL A   1      45.614  34.579  30.793  1.00  0.00     0.200 A 
ATOM    102  F   UNL A   1      45.399  36.526  32.109  1.00  0.00    -0.200 F 
ATOM    103  F   UNL A   1      46.865  34.925  30.460  1.00  0.00    -0.200 F 
ENDBRANCH  70  93
ENDBRANCH  44  45
ENDBRANCH  37  39
ENDBRANCH  36  37
ENDBRANCH  35  36
ENDBRANCH  34  35
ENDBRANCH  33  34
ENDBRANCH  32  33
ENDBRANCH   1  32
TORSDOF 21
ENDMDL
MODEL 2
REMARK VINA RESULT:     -11.8      3.218      8.478
REMARK SMILES COc1ccc(-n2ccnc2C[N@@H+]2CCn3nc(C(=O)OCCOCCOCCOC(=O)c4ccc(-c5c6nc(c(-c7c(F)c(F)c(F)c(F)c7F)c7ccc([nH]7)c(-c7c(F)c(F)c(F)c(F)c7F)c7nc(c(-c8c(F)c(F)c(F)c(F)c8F)c8ccc5[nH]8)C=C7)C=C6)cc4)cc3C2)cc1
REMARK SMILES IDX 25 1 24 2 23 3 22 4 21 5 19 6 20 7 18 8 13 9 14 10 98 11
REMARK SMILES IDX 15 13 97 14 16 15 96 16 17 17 12 18 11 19 7 20 8 21 9 22
REMARK SMILES IDX 10 23 6 24 3 25 4 26 100 27 5 28 99 29 2 30 1 31 26 32 27 33
REMARK SMILES IDX 28 34 29 35 30 36 31 37 32 38 33 39 34 40 95 41 35 42 94 43
REMARK SMILES IDX 36 44 37 45 38 46 88 47 39 48 93 49 87 50 89 51 40 52 92 53
REMARK SMILES IDX 86 54 85 55 41 57 73 58 53 59 72 60 54 61 57 62 71 63 90 64
REMARK SMILES IDX 55 65 56 66 70 68 91 69 58 70 42 71 43 72 51 73 44 74 45 75
REMARK SMILES IDX 49 76 52 77 46 78 47 79 50 80 48 81 74 82 75 83 83 84 76 85
REMARK SMILES IDX 77 86 81 87 84 88 78 89 79 90 82 91 80 92 59 93 60 94 68 95
REMARK SMILES IDX 61 96 62 97 66 98 69 99 63 100 64 101 67 102 65 103
REMARK H PARENT 13 12 89 56 57 67
REMARK Flexibility Score: inf
ROOT
ATOM      1  C   UNL A   1      34.395  31.539  28.092  1.00  0.00     0.188 C 
ENDROOT
BRANCH   1   2
ATOM      2  O   UNL A   1      34.805  30.389  27.334  1.00  0.00    -0.376 OA
BRANCH   2   3
ATOM      3  C   UNL A   1      33.780  29.388  27.223  1.00  0.00     0.202 C 
BRANCH   3   4
ATOM      4  C   UNL A   1      32.698  29.770  26.177  1.00  0.00     0.261 C 
BRANCH   4   5
ATOM      5  O   UNL A   1      31.502  28.938  26.124  1.00  0.00    -0.458 OA
BRANCH   5   6
ATOM      6  C   UNL A   1      31.450  27.873  25.248  1.00  0.00     0.358 C 
ATOM      7  O   UNL A   1      31.442  28.011  24.040  1.00  0.00    -0.244 OA
BRANCH   6   8
ATOM      8  C   UNL A   1      31.534  26.551  25.956  1.00  0.00     0.170 A 
ATOM      9  N   UNL A   1      32.108  22.114  26.246  1.00  0.00    -0.322 N 
ATOM     10  C   UNL A   1      30.637  22.208  26.142  1.00  0.00     0.286 C 
ATOM     11  C   UNL A   1      32.660  23.179  27.113  1.00  0.00     0.319 C 
ATOM     12  H   UNL A   1      32.207  21.182  26.650  1.00  0.00     0.348 HD
ATOM     13  C   UNL A   1      29.918  23.518  26.585  1.00  0.00     0.206 C 
ATOM     14  C   UNL A   1      32.160  24.515  26.684  1.00  0.00     0.094 A 
ATOM     15  N   UNL A   1      30.815  24.656  26.583  1.00  0.00    -0.257 N 
ATOM     16  C   UNL A   1      32.671  25.703  26.196  1.00  0.00     0.067 A 
ATOM     17  N   UNL A   1      30.414  25.921  26.395  1.00  0.00    -0.165 NA
BRANCH   9  18
ATOM     18  C   UNL A   1      32.913  22.060  25.002  1.00  0.00     0.339 C 
BRANCH  18  19
ATOM     19  C   UNL A   1      32.929  23.211  24.021  1.00  0.00     0.168 A 
ATOM     20  N   UNL A   1      34.094  23.822  23.577  1.00  0.00    -0.299 N 
ATOM     21  C   UNL A   1      33.789  24.587  22.486  1.00  0.00     0.113 A 
ATOM     22  C   UNL A   1      32.431  24.463  22.335  1.00  0.00     0.132 A 
ATOM     23  N   UNL A   1      31.904  23.633  23.294  1.00  0.00    -0.236 NA
BRANCH  20  24
ATOM     24  C   UNL A   1      35.376  23.644  24.102  1.00  0.00     0.047 A 
ATOM     25  C   UNL A   1      37.499  22.750  25.603  1.00  0.00     0.119 A 
ATOM     26  C   UNL A   1      37.229  22.206  24.336  1.00  0.00     0.048 A 
ATOM     27  C   UNL A   1      36.785  23.850  26.045  1.00  0.00     0.048 A 
ATOM     28  C   UNL A   1      36.156  22.630  23.579  1.00  0.00     0.030 A 
ATOM     29  C   UNL A   1      35.720  24.317  25.279  1.00  0.00     0.030 A 
BRANCH  25  30
ATOM     30  O   UNL A   1      38.483  22.122  26.301  1.00  0.00    -0.497 OA
ATOM     31  C   UNL A   1      39.274  21.101  25.708  1.00  0.00     0.278 C 
ENDBRANCH  25  30
ENDBRANCH  20  24
ENDBRANCH  18  19
ENDBRANCH   9  18
ENDBRANCH   6   8
ENDBRANCH   5   6
ENDBRANCH   4   5
ENDBRANCH   3   4
ENDBRANCH   2   3
ENDBRANCH   1   2
BRANCH   1  32
ATOM     32  C   UNL A   1      35.306  32.744  27.788  1.00  0.00     0.188 C 
BRANCH  32  33
ATOM     33  O   UNL A   1      34.681  34.023  27.681  1.00  0.00    -0.376 OA
BRANCH  33  34
ATOM     34  C   UNL A   1      33.363  34.164  28.191  1.00  0.00     0.202 C 
BRANCH  34  35
ATOM     35  C   UNL A   1      33.231  34.998  29.461  1.00  0.00     0.261 C 
BRANCH  35  36
ATOM     36  O   UNL A   1      33.706  34.283  30.604  1.00  0.00    -0.460 OA
BRANCH  36  37
ATOM     37  C   UNL A   1      34.044  35.048  31.665  1.00  0.00     0.338 C 
ATOM     38  O   UNL A   1      33.851  36.245  31.802  1.00  0.00    -0.246 OA
BRANCH  37  39
ATOM     39  C   UNL A   1      34.830  34.250  32.622  1.00  0.00     0.060 A 
ATOM     40  C   UNL A   1      35.999  34.863  33.084  1.00  0.00     0.016 A 
ATOM     41  C   UNL A   1      34.659  32.859  32.652  1.00  0.00     0.016 A 
ATOM     42  C   UNL A   1      37.117  34.077  33.222  1.00  0.00     0.010 A 
ATOM     43  C   UNL A   1      35.782  32.074  32.782  1.00  0.00     0.010 A 
ATOM     44  C   UNL A   1      37.009  32.716  32.921  1.00  0.00    -0.014 A 
BRANCH  44  45
ATOM     45  C   UNL A   1      38.237  32.027  32.590  1.00  0.00     0.031 A 
ATOM     46  C   UNL A   1      39.139  31.775  33.723  1.00  0.00     0.074 A 
ATOM     47  C   UNL A   1      38.512  31.641  31.327  1.00  0.00     0.049 A 
ATOM     48  N   UNL A   1      40.308  32.282  33.928  1.00  0.00    -0.248 NA
ATOM     49  C   UNL A   1      38.631  30.939  34.815  1.00  0.00     0.031 C 
ATOM     50  C   UNL A   1      37.613  31.587  30.171  1.00  0.00     0.029 A 
ATOM     51  N   UNL A   1      39.669  31.119  30.842  1.00  0.00    -0.354 N 
ATOM     52  C   UNL A   1      40.763  31.705  35.105  1.00  0.00     0.074 A 
ATOM     53  C   UNL A   1      39.641  31.008  35.682  1.00  0.00     0.031 C 
ATOM     54  C   UNL A   1      38.194  30.851  29.195  1.00  0.00     0.029 A 
ATOM     55  C   UNL A   1      39.540  30.493  29.612  1.00  0.00     0.049 A 
ATOM     56  H   UNL A   1      40.525  31.180  31.323  1.00  0.00     0.167 HD
ATOM     57  C   UNL A   1      42.089  31.663  35.403  1.00  0.00     0.037 A 
ATOM     58  C   UNL A   1      40.452  29.665  29.045  1.00  0.00     0.037 A 
ATOM     59  C   UNL A   1      42.838  32.623  34.635  1.00  0.00     0.049 A 
ATOM     60  C   UNL A   1      41.766  29.933  29.691  1.00  0.00     0.074 A 
ATOM     61  C   UNL A   1      42.796  33.999  34.504  1.00  0.00     0.029 A 
ATOM     62  N   UNL A   1      43.588  32.178  33.573  1.00  0.00    -0.354 N 
ATOM     63  N   UNL A   1      42.455  31.028  29.518  1.00  0.00    -0.248 NA
ATOM     64  C   UNL A   1      42.104  29.167  30.884  1.00  0.00     0.031 C 
ATOM     65  C   UNL A   1      43.091  34.253  33.132  1.00  0.00     0.029 A 
ATOM     66  C   UNL A   1      43.334  33.023  32.523  1.00  0.00     0.049 A 
ATOM     67  H   UNL A   1      44.193  31.401  33.568  1.00  0.00     0.167 HD
ATOM     68  C   UNL A   1      42.994  31.307  30.766  1.00  0.00     0.074 A 
ATOM     69  C   UNL A   1      42.824  30.081  31.541  1.00  0.00     0.031 C 
ATOM     70  C   UNL A   1      43.264  32.589  31.149  1.00  0.00     0.037 A 
BRANCH  57  71
ATOM     71  C   UNL A   1      42.740  30.522  36.134  1.00  0.00     0.064 A 
ATOM     72  C   UNL A   1      43.605  30.800  37.210  1.00  0.00     0.173 A 
ATOM     73  C   UNL A   1      42.784  29.199  35.641  1.00  0.00     0.173 A 
ATOM     74  F   UNL A   1      43.661  32.031  37.739  1.00  0.00    -0.203 F 
ATOM     75  C   UNL A   1      44.499  29.846  37.701  1.00  0.00     0.198 A 
ATOM     76  C   UNL A   1      43.634  28.233  36.173  1.00  0.00     0.198 A 
ATOM     77  F   UNL A   1      42.098  28.818  34.557  1.00  0.00    -0.203 F 
ATOM     78  F   UNL A   1      45.393  30.193  38.636  1.00  0.00    -0.200 F 
ATOM     79  C   UNL A   1      44.515  28.565  37.179  1.00  0.00     0.200 A 
ATOM     80  F   UNL A   1      43.646  27.003  35.642  1.00  0.00    -0.200 F 
ATOM     81  F   UNL A   1      45.413  27.667  37.605  1.00  0.00    -0.200 F 
ENDBRANCH  57  71
BRANCH  58  82
ATOM     82  C   UNL A   1      40.194  28.446  28.239  1.00  0.00     0.064 A 
ATOM     83  C   UNL A   1      40.822  28.255  26.997  1.00  0.00     0.173 A 
ATOM     84  C   UNL A   1      39.542  27.322  28.785  1.00  0.00     0.173 A 
ATOM     85  F   UNL A   1      41.506  29.258  26.426  1.00  0.00    -0.203 F 
ATOM     86  C   UNL A   1      40.822  27.012  26.356  1.00  0.00     0.198 A 
ATOM     87  C   UNL A   1      39.530  26.085  28.139  1.00  0.00     0.198 A 
ATOM     88  F   UNL A   1      38.985  27.368  30.003  1.00  0.00    -0.203 F 
ATOM     89  F   UNL A   1      41.490  26.851  25.205  1.00  0.00    -0.200 F 
ATOM     90  C   UNL A   1      40.182  25.926  26.932  1.00  0.00     0.200 A 
ATOM     91  F   UNL A   1      38.937  25.037  28.726  1.00  0.00    -0.200 F 
ATOM     92  F   UNL A   1      40.231  24.721  26.350  1.00  0.00    -0.200 F 
ENDBRANCH  58  82
BRANCH  70  93
ATOM     93  C   UNL A   1      43.215  33.662  30.100  1.00  0.00     0.064 A 
ATOM     94  C   UNL A   1      44.307  34.006  29.285  1.00  0.00     0.173 A 
ATOM     95  C   UNL A   1      41.980  34.258  29.809  1.00  0.00     0.173 A 
ATOM     96  F   UNL A   1      45.491  33.398  29.427  1.00  0.00    -0.203 F 
ATOM     97  C   UNL A   1      44.177  34.942  28.261  1.00  0.00     0.198 A 
ATOM     98  C   UNL A   1      41.844  35.164  28.761  1.00  0.00     0.198 A 
ATOM     99  F   UNL A   1      40.888  33.922  30.513  1.00  0.00    -0.203 F 
ATOM    100  F   UNL A   1      45.239  35.265  27.507  1.00  0.00    -0.200 F 
ATOM    101  C   UNL A   1      42.945  35.516  27.996  1.00  0.00     0.200 A 
ATOM    102  F   UNL A   1      40.639  35.675  28.473  1.00  0.00    -0.200 F 
ATOM    103  F   UNL A   1      42.810  36.384  26.983  1.00  0.00    -0.200 F 
ENDBRANCH  70  93
ENDBRANCH  44  45
ENDBRANCH  37  39
ENDBRANCH  36  37
ENDBRANCH  35  36
ENDBRANCH  34  35
ENDBRANCH  33  34
ENDBRANCH  32  33
ENDBRANCH   1  32
TORSDOF 21
ENDMDL
MODEL 3
REMARK VINA RESULT:     -11.8      3.385      8.631
REMARK SMILES COc1ccc(-n2ccnc2C[N@@H+]2CCn3nc(C(=O)OCCOCCOCCOC(=O)c4ccc(-c5c6nc(c(-c7c(F)c(F)c(F)c(F)c7F)c7ccc([nH]7)c(-c7c(F)c(F)c(F)c(F)c7F)c7nc(c(-c8c(F)c(F)c(F)c(F)c8F)c8ccc5[nH]8)C=C7)C=C6)cc4)cc3C2)cc1
REMARK SMILES IDX 25 1 24 2 23 3 22 4 21 5 19 6 20 7 18 8 13 9 14 10 98 11
REMARK SMILES IDX 15 13 97 14 16 15 96 16 17 17 12 18 11 19 7 20 8 21 9 22
REMARK SMILES IDX 10 23 6 24 3 25 4 26 100 27 5 28 99 29 2 30 1 31 26 32 27 33
REMARK SMILES IDX 28 34 29 35 30 36 31 37 32 38 33 39 34 40 95 41 35 42 94 43
REMARK SMILES IDX 36 44 37 45 38 46 88 47 39 48 93 49 87 50 89 51 40 52 92 53
REMARK SMILES IDX 86 54 85 55 41 57 73 58 53 59 72 60 54 61 57 62 71 63 90 64
REMARK SMILES IDX 55 65 56 66 70 68 91 69 58 70 42 71 43 72 51 73 44 74 45 75
REMARK SMILES IDX 49 76 52 77 46 78 47 79 50 80 48 81 74 82 75 83 83 84 76 85
REMARK SMILES IDX 77 86 81 87 84 88 78 89 79 90 82 91 80 92 59 93 60 94 68 95
REMARK SMILES IDX 61 96 62 97 66 98 69 99 63 100 64 101 67 102 65 103
REMARK H PARENT 13 12 89 56 57 67
REMARK Flexibility Score: inf
ROOT
ATOM      1  C   UNL A   1      34.783  31.693  27.691  1.00  0.00     0.188 C 
ENDROOT
BRANCH   1   2
ATOM      2  O   UNL A   1      33.386  31.867  27.401  1.00  0.00    -0.376 OA
BRANCH   2   3
ATOM      3  C   UNL A   1      32.674  30.626  27.276  1.00  0.00     0.202 C 
BRANCH   3   4
ATOM      4  C   UNL A   1      31.634  30.661  26.124  1.00  0.00     0.261 C 
BRANCH   4   5
ATOM      5  O   UNL A   1      31.302  29.391  25.488  1.00  0.00    -0.458 OA
BRANCH   5   6
ATOM      6  C   UNL A   1      30.763  29.384  24.219  1.00  0.00     0.358 C 
ATOM      7  O   UNL A   1      29.951  30.206  23.841  1.00  0.00    -0.244 OA
BRANCH   6   8
ATOM      8  C   UNL A   1      31.388  28.337  23.342  1.00  0.00     0.170 A 
ATOM      9  N   UNL A   1      32.564  24.170  22.175  1.00  0.00    -0.322 N 
ATOM     10  C   UNL A   1      33.788  24.633  22.862  1.00  0.00     0.286 C 
ATOM     11  C   UNL A   1      31.977  25.238  21.335  1.00  0.00     0.319 C 
ATOM     12  H   UNL A   1      32.940  23.396  21.628  1.00  0.00     0.348 HD
ATOM     13  C   UNL A   1      34.092  26.160  22.944  1.00  0.00     0.206 C 
ATOM     14  C   UNL A   1      31.800  26.489  22.124  1.00  0.00     0.094 A 
ATOM     15  N   UNL A   1      32.897  26.961  22.766  1.00  0.00    -0.257 N 
ATOM     16  C   UNL A   1      30.771  27.309  22.547  1.00  0.00     0.067 A 
ATOM     17  N   UNL A   1      32.737  28.185  23.289  1.00  0.00    -0.165 NA
BRANCH   9  18
ATOM     18  C   UNL A   1      31.479  23.558  22.977  1.00  0.00     0.339 C 
BRANCH  18  19
ATOM     19  C   UNL A   1      31.521  23.550  24.489  1.00  0.00     0.168 A 
ATOM     20  N   UNL A   1      32.288  22.659  25.230  1.00  0.00    -0.299 N 
ATOM     21  C   UNL A   1      32.351  23.114  26.517  1.00  0.00     0.113 A 
ATOM     22  C   UNL A   1      31.568  24.241  26.533  1.00  0.00     0.132 A 
ATOM     23  N   UNL A   1      31.043  24.493  25.289  1.00  0.00    -0.236 NA
BRANCH  20  24
ATOM     24  C   UNL A   1      32.944  21.527  24.743  1.00  0.00     0.047 A 
ATOM     25  C   UNL A   1      34.177  19.075  24.575  1.00  0.00     0.119 A 
ATOM     26  C   UNL A   1      32.811  19.220  24.275  1.00  0.00     0.048 A 
ATOM     27  C   UNL A   1      34.951  20.197  24.813  1.00  0.00     0.048 A 
ATOM     28  C   UNL A   1      32.174  20.440  24.374  1.00  0.00     0.030 A 
ATOM     29  C   UNL A   1      34.334  21.443  24.883  1.00  0.00     0.030 A 
BRANCH  25  30
ATOM     30  O   UNL A   1      34.628  17.792  24.595  1.00  0.00    -0.497 OA
ATOM     31  C   UNL A   1      34.114  16.813  23.702  1.00  0.00     0.278 C 
ENDBRANCH  25  30
ENDBRANCH  20  24
ENDBRANCH  18  19
ENDBRANCH   9  18
ENDBRANCH   6   8
ENDBRANCH   5   6
ENDBRANCH   4   5
ENDBRANCH   3   4
ENDBRANCH   2   3
ENDBRANCH   1   2
BRANCH   1  32
ATOM     32  C   UNL A   1      35.463  33.055  27.928  1.00  0.00     0.188 C 
BRANCH  32  33
ATOM     33  O   UNL A   1      34.776  34.217  27.463  1.00  0.00    -0.376 OA
BRANCH  33  34
ATOM     34  C   UNL A   1      34.454  35.224  28.413  1.00  0.00     0.202 C 
BRANCH  34  35
ATOM     35  C   UNL A   1      33.287  34.906  29.342  1.00  0.00     0.261 C 
BRANCH  35  36
ATOM     36  O   UNL A   1      33.729  34.221  30.517  1.00  0.00    -0.460 OA
BRANCH  36  37
ATOM     37  C   UNL A   1      33.981  35.009  31.584  1.00  0.00     0.338 C 
ATOM     38  O   UNL A   1      33.693  36.188  31.715  1.00  0.00    -0.246 OA
BRANCH  37  39
ATOM     39  C   UNL A   1      34.799  34.273  32.563  1.00  0.00     0.060 A 
ATOM     40  C   UNL A   1      35.971  34.923  32.963  1.00  0.00     0.016 A 
ATOM     41  C   UNL A   1      34.648  32.884  32.671  1.00  0.00     0.016 A 
ATOM     42  C   UNL A   1      37.102  34.159  33.115  1.00  0.00     0.010 A 
ATOM     43  C   UNL A   1      35.782  32.120  32.815  1.00  0.00     0.010 A 
ATOM     44  C   UNL A   1      37.005  32.782  32.889  1.00  0.00    -0.014 A 
BRANCH  44  45
ATOM     45  C   UNL A   1      38.233  32.090  32.564  1.00  0.00     0.031 A 
ATOM     46  C   UNL A   1      39.135  31.850  33.700  1.00  0.00     0.074 A 
ATOM     47  C   UNL A   1      38.508  31.693  31.306  1.00  0.00     0.049 A 
ATOM     48  N   UNL A   1      40.303  32.359  33.900  1.00  0.00    -0.248 NA
ATOM     49  C   UNL A   1      38.627  31.023  34.800  1.00  0.00     0.031 C 
ATOM     50  C   UNL A   1      37.610  31.628  30.150  1.00  0.00     0.029 A 
ATOM     51  N   UNL A   1      39.666  31.167  30.825  1.00  0.00    -0.354 N 
ATOM     52  C   UNL A   1      40.758  31.794  35.084  1.00  0.00     0.074 A 
ATOM     53  C   UNL A   1      39.637  31.102  35.667  1.00  0.00     0.031 C 
ATOM     54  C   UNL A   1      38.192  30.883  29.181  1.00  0.00     0.029 A 
ATOM     55  C   UNL A   1      39.538  30.530  29.602  1.00  0.00     0.049 A 
ATOM     56  H   UNL A   1      40.522  31.233  31.306  1.00  0.00     0.167 HD
ATOM     57  C   UNL A   1      42.085  31.755  35.382  1.00  0.00     0.037 A 
ATOM     58  C   UNL A   1      40.450  29.696  29.043  1.00  0.00     0.037 A 
ATOM     59  C   UNL A   1      42.834  32.708  34.605  1.00  0.00     0.049 A 
ATOM     60  C   UNL A   1      41.763  29.972  29.687  1.00  0.00     0.074 A 
ATOM     61  C   UNL A   1      42.790  34.082  34.461  1.00  0.00     0.029 A 
ATOM     62  N   UNL A   1      43.584  32.253  33.548  1.00  0.00    -0.354 N 
ATOM     63  N   UNL A   1      42.452  31.065  29.503  1.00  0.00    -0.248 NA
ATOM     64  C   UNL A   1      42.101  29.217  30.886  1.00  0.00     0.031 C 
ATOM     65  C   UNL A   1      43.086  34.324  33.087  1.00  0.00     0.029 A 
ATOM     66  C   UNL A   1      43.329  33.088  32.489  1.00  0.00     0.049 A 
ATOM     67  H   UNL A   1      44.189  31.477  33.550  1.00  0.00     0.167 HD
ATOM     68  C   UNL A   1      42.990  31.356  30.748  1.00  0.00     0.074 A 
ATOM     69  C   UNL A   1      42.821  30.138  31.535  1.00  0.00     0.031 C 
ATOM     70  C   UNL A   1      43.260  32.641  31.120  1.00  0.00     0.037 A 
BRANCH  57  71
ATOM     71  C   UNL A   1      42.736  30.621  36.124  1.00  0.00     0.064 A 
ATOM     72  C   UNL A   1      43.590  30.909  37.206  1.00  0.00     0.173 A 
ATOM     73  C   UNL A   1      42.792  29.296  35.638  1.00  0.00     0.173 A 
ATOM     74  F   UNL A   1      43.634  32.143  37.730  1.00  0.00    -0.203 F 
ATOM     75  C   UNL A   1      44.485  29.963  37.709  1.00  0.00     0.198 A 
ATOM     76  C   UNL A   1      43.643  28.338  36.181  1.00  0.00     0.198 A 
ATOM     77  F   UNL A   1      42.117  28.906  34.549  1.00  0.00    -0.203 F 
ATOM     78  F   UNL A   1      45.369  30.320  38.650  1.00  0.00    -0.200 F 
ATOM     79  C   UNL A   1      44.513  28.679  37.193  1.00  0.00     0.200 A 
ATOM     80  F   UNL A   1      43.667  27.105  35.656  1.00  0.00    -0.200 F 
ATOM     81  F   UNL A   1      45.412  27.789  37.631  1.00  0.00    -0.200 F 
ENDBRANCH  57  71
BRANCH  58  82
ATOM     82  C   UNL A   1      40.193  28.470  28.248  1.00  0.00     0.064 A 
ATOM     83  C   UNL A   1      40.821  28.268  27.008  1.00  0.00     0.173 A 
ATOM     84  C   UNL A   1      39.542  27.351  28.805  1.00  0.00     0.173 A 
ATOM     85  F   UNL A   1      41.504  29.266  26.428  1.00  0.00    -0.203 F 
ATOM     86  C   UNL A   1      40.821  27.018  26.379  1.00  0.00     0.198 A 
ATOM     87  C   UNL A   1      39.530  26.108  28.170  1.00  0.00     0.198 A 
ATOM     88  F   UNL A   1      38.984  27.408  30.022  1.00  0.00    -0.203 F 
ATOM     89  F   UNL A   1      41.490  26.848  25.229  1.00  0.00    -0.200 F 
ATOM     90  C   UNL A   1      40.183  25.938  26.965  1.00  0.00     0.200 A 
ATOM     91  F   UNL A   1      38.938  25.065  28.767  1.00  0.00    -0.200 F 
ATOM     92  F   UNL A   1      40.232  24.727  26.394  1.00  0.00    -0.200 F 
ENDBRANCH  58  82
BRANCH  70  93
ATOM     93  C   UNL A   1      43.210  33.705  30.060  1.00  0.00     0.064 A 
ATOM     94  C   UNL A   1      42.030  34.360  29.668  1.00  0.00     0.173 A 
ATOM     95  C   UNL A   1      44.418  34.180  29.532  1.00  0.00     0.173 A 
ATOM     96  F   UNL A   1      40.850  34.039  30.213  1.00  0.00    -0.203 F 
ATOM     97  C   UNL A   1      42.058  35.407  28.749  1.00  0.00     0.198 A 
ATOM     98  C   UNL A   1      44.446  35.251  28.643  1.00  0.00     0.198 A 
ATOM     99  F   UNL A   1      45.583  33.634  29.917  1.00  0.00    -0.203 F 
ATOM    100  F   UNL A   1      40.915  36.006  28.380  1.00  0.00    -0.200 F 
ATOM    101  C   UNL A   1      43.266  35.856  28.243  1.00  0.00     0.200 A 
ATOM    102  F   UNL A   1      45.621  35.717  28.197  1.00  0.00    -0.200 F 
ATOM    103  F   UNL A   1      43.296  36.892  27.392  1.00  0.00    -0.200 F 
ENDBRANCH  70  93
ENDBRANCH  44  45
ENDBRANCH  37  39
ENDBRANCH  36  37
ENDBRANCH  35  36
ENDBRANCH  34  35
ENDBRANCH  33  34
ENDBRANCH  32  33
ENDBRANCH   1  32
TORSDOF 21
ENDMDL
