MODEL 1
REMARK VINA RESULT:      -6.3      0.000      0.000
REMARK SMILES CC(C)C[C@H](NC(=O)[C@H](Cc1ccccc1)NC(=O)CNC(=O)C[NH3+])C(=O)OCCOCCOCCOC(=O)c1ccc(-c2c3nc(c(-c4c(F)c(F)c(F)c(F)c4F)c4ccc([nH]4)c(-c4c(F)c(F)c(F)c(F)c4F)c4nc(c(-c5c(F)c(F)c(F)c(F)c5F)c5ccc2[nH]5)C=C4)C=C3)cc1
REMARK SMILES IDX 30 1 29 2 28 3 26 4 27 5 5 6 4 7 2 8 1 9 3 10 6 11 7 12 8 14
REMARK SMILES IDX 9 15 17 16 18 17 19 19 20 20 21 21 22 22 23 24 24 25 25 26
REMARK SMILES IDX 10 30 11 31 12 32 16 33 13 34 15 35 14 36 31 37 32 38 33 39
REMARK SMILES IDX 34 40 35 41 36 42 37 43 38 44 39 45 40 46 41 47 102 48 42 49
REMARK SMILES IDX 101 50 43 51 44 52 45 53 95 54 46 55 100 56 94 57 96 58
REMARK SMILES IDX 47 59 99 60 93 61 92 62 48 64 80 65 60 66 79 67 61 68 64 69
REMARK SMILES IDX 78 70 97 71 62 72 63 73 77 75 98 76 65 77 49 78 50 79 58 80
REMARK SMILES IDX 51 81 52 82 56 83 59 84 53 85 54 86 57 87 55 88 81 89 82 90
REMARK SMILES IDX 90 91 83 92 84 93 88 94 91 95 85 96 86 97 89 98 87 99 66 100
REMARK SMILES IDX 67 101 75 102 68 103 69 104 73 105 76 106 70 107 71 108
REMARK SMILES IDX 74 109 72 110
REMARK H PARENT 6 13 17 18 21 23 25 27 25 28 25 29 96 63 64 74
REMARK Flexibility Score: inf
ROOT
ATOM      1  C   UNL A   1      46.877  28.065  25.798  1.00  0.00     0.202 C 
ENDROOT
BRANCH   1   2
ATOM      2  C   UNL A   1      45.603  28.885  26.092  1.00  0.00     0.261 C 
BRANCH   2   3
ATOM      3  O   UNL A   1      44.584  28.337  26.934  1.00  0.00    -0.462 OA
BRANCH   3   4
ATOM      4  C   UNL A   1      43.472  27.935  26.269  1.00  0.00     0.328 C 
ATOM      5  O   UNL A   1      43.423  27.835  25.047  1.00  0.00    -0.250 OA
BRANCH   4   6
ATOM      6  C   UNL A   1      42.218  27.864  27.168  1.00  0.00     0.192 C 
BRANCH   6   7
ATOM      7  C   UNL A   1      42.761  28.470  28.484  1.00  0.00     0.040 C 
BRANCH   7   8
ATOM      8  C   UNL A   1      41.734  28.547  29.668  1.00  0.00    -0.015 C 
ATOM      9  C   UNL A   1      42.283  28.513  31.107  1.00  0.00     0.007 C 
ATOM     10  C   UNL A   1      40.828  29.771  29.525  1.00  0.00     0.007 C 
ENDBRANCH   7   8
ENDBRANCH   6   7
BRANCH   6  11
ATOM     11  N   UNL A   1      41.556  26.541  27.338  1.00  0.00    -0.341 N 
ATOM     12  C   UNL A   1      42.025  25.324  27.821  1.00  0.00     0.243 C 
ATOM     13  H   UNL A   1      40.612  26.524  27.057  1.00  0.00     0.164 HD
ATOM     14  O   UNL A   1      41.194  24.583  28.358  1.00  0.00    -0.273 OA
BRANCH  12  15
ATOM     15  C   UNL A   1      43.531  24.888  27.783  1.00  0.00     0.175 C 
BRANCH  15  16
ATOM     16  N   UNL A   1      44.163  25.125  26.483  1.00  0.00    -0.342 N 
ATOM     17  C   UNL A   1      44.129  24.297  25.397  1.00  0.00     0.240 C 
ATOM     18  H   UNL A   1      44.661  25.968  26.381  1.00  0.00     0.164 HD
ATOM     19  O   UNL A   1      44.962  24.462  24.503  1.00  0.00    -0.273 OA
BRANCH  17  20
ATOM     20  C   UNL A   1      43.054  23.195  25.293  1.00  0.00     0.216 C 
BRANCH  20  21
ATOM     21  N   UNL A   1      43.473  21.815  25.069  1.00  0.00    -0.342 N 
ATOM     22  C   UNL A   1      43.020  20.610  25.544  1.00  0.00     0.275 C 
ATOM     23  H   UNL A   1      44.235  21.732  24.452  1.00  0.00     0.164 HD
ATOM     24  O   UNL A   1      43.430  19.579  25.005  1.00  0.00    -0.268 OA
BRANCH  22  25
ATOM     25  C   UNL A   1      41.987  20.523  26.660  1.00  0.00     0.360 C 
BRANCH  25  26
ATOM     26  N   UNL A   1      42.503  20.789  28.003  1.00  0.00    -0.350 N 
ATOM     27  H   UNL A   1      41.747  20.701  28.682  1.00  0.00     0.344 HD
ATOM     28  H   UNL A   1      42.886  21.733  28.040  1.00  0.00     0.344 HD
ATOM     29  H   UNL A   1      43.238  20.115  28.224  1.00  0.00     0.344 HD
ENDBRANCH  25  26
ENDBRANCH  22  25
ENDBRANCH  20  21
ENDBRANCH  17  20
ENDBRANCH  15  16
BRANCH  15  30
ATOM     30  C   UNL A   1      44.374  25.607  28.905  1.00  0.00     0.070 C 
BRANCH  30  31
ATOM     31  C   UNL A   1      44.290  25.027  30.319  1.00  0.00    -0.045 A 
ATOM     32  C   UNL A   1      43.990  23.662  30.498  1.00  0.00     0.004 A 
ATOM     33  C   UNL A   1      44.568  25.785  31.464  1.00  0.00     0.004 A 
ATOM     34  C   UNL A   1      44.139  23.044  31.746  1.00  0.00     0.000 A 
ATOM     35  C   UNL A   1      44.712  25.167  32.715  1.00  0.00     0.000 A 
ATOM     36  C   UNL A   1      44.539  23.791  32.847  1.00  0.00     0.000 A 
ENDBRANCH  30  31
ENDBRANCH  15  30
ENDBRANCH  12  15
ENDBRANCH   6  11
ENDBRANCH   4   6
ENDBRANCH   3   4
ENDBRANCH   2   3
ENDBRANCH   1   2
BRANCH   1  37
ATOM     37  O   UNL A   1      47.043  26.683  26.049  1.00  0.00    -0.376 OA
BRANCH  37  38
ATOM     38  C   UNL A   1      48.327  26.111  26.117  1.00  0.00     0.188 C 
BRANCH  38  39
ATOM     39  C   UNL A   1      49.462  27.064  25.695  1.00  0.00     0.188 C 
BRANCH  39  40
ATOM     40  O   UNL A   1      50.611  26.535  25.063  1.00  0.00    -0.376 OA
BRANCH  40  41
ATOM     41  C   UNL A   1      51.818  27.289  25.098  1.00  0.00     0.202 C 
BRANCH  41  42
ATOM     42  C   UNL A   1      52.718  27.412  26.353  1.00  0.00     0.261 C 
BRANCH  42  43
ATOM     43  O   UNL A   1      52.213  26.901  27.598  1.00  0.00    -0.460 OA
BRANCH  43  44
ATOM     44  C   UNL A   1      52.602  27.565  28.720  1.00  0.00     0.338 C 
ATOM     45  O   UNL A   1      53.682  28.063  28.939  1.00  0.00    -0.246 OA
BRANCH  44  46
ATOM     46  C   UNL A   1      51.407  27.807  29.573  1.00  0.00     0.060 A 
ATOM     47  C   UNL A   1      50.261  27.018  29.366  1.00  0.00     0.016 A 
ATOM     48  C   UNL A   1      51.407  28.799  30.552  1.00  0.00     0.016 A 
ATOM     49  C   UNL A   1      49.103  27.239  30.111  1.00  0.00     0.010 A 
ATOM     50  C   UNL A   1      50.229  29.052  31.267  1.00  0.00     0.010 A 
ATOM     51  C   UNL A   1      49.062  28.302  31.019  1.00  0.00    -0.014 A 
BRANCH  51  52
ATOM     52  C   UNL A   1      47.746  28.811  31.483  1.00  0.00     0.031 A 
ATOM     53  C   UNL A   1      47.027  29.794  30.598  1.00  0.00     0.074 A 
ATOM     54  C   UNL A   1      47.182  28.409  32.633  1.00  0.00     0.049 A 
ATOM     55  N   UNL A   1      45.908  30.442  30.797  1.00  0.00    -0.248 NA
ATOM     56  C   UNL A   1      47.674  30.094  29.309  1.00  0.00     0.031 C 
ATOM     57  C   UNL A   1      47.736  27.415  33.547  1.00  0.00     0.029 A 
ATOM     58  N   UNL A   1      46.010  28.803  33.229  1.00  0.00    -0.354 N 
ATOM     59  C   UNL A   1      45.727  31.234  29.670  1.00  0.00     0.074 A 
ATOM     60  C   UNL A   1      46.868  31.014  28.809  1.00  0.00     0.031 C 
ATOM     61  C   UNL A   1      46.908  27.283  34.599  1.00  0.00     0.029 A 
ATOM     62  C   UNL A   1      45.784  28.209  34.446  1.00  0.00     0.049 A 
ATOM     63  H   UNL A   1      45.389  29.450  32.823  1.00  0.00     0.167 HD
ATOM     64  C   UNL A   1      44.701  32.066  29.375  1.00  0.00     0.037 A 
ATOM     65  C   UNL A   1      44.794  28.409  35.338  1.00  0.00     0.037 A 
ATOM     66  C   UNL A   1      43.568  32.287  30.236  1.00  0.00     0.049 A 
ATOM     67  C   UNL A   1      43.702  29.405  35.030  1.00  0.00     0.074 A 
ATOM     68  C   UNL A   1      42.469  33.099  30.024  1.00  0.00     0.029 A 
ATOM     69  N   UNL A   1      43.397  31.697  31.481  1.00  0.00    -0.354 N 
ATOM     70  N   UNL A   1      43.528  30.144  33.962  1.00  0.00    -0.248 NA
ATOM     71  C   UNL A   1      42.667  29.590  36.057  1.00  0.00     0.031 C 
ATOM     72  C   UNL A   1      41.667  33.055  31.170  1.00  0.00     0.029 A 
ATOM     73  C   UNL A   1      42.225  32.153  32.063  1.00  0.00     0.049 A 
ATOM     74  H   UNL A   1      44.016  31.051  31.889  1.00  0.00     0.167 HD
ATOM     75  C   UNL A   1      42.345  30.846  34.167  1.00  0.00     0.074 A 
ATOM     76  C   UNL A   1      41.843  30.442  35.463  1.00  0.00     0.031 C 
ATOM     77  C   UNL A   1      41.727  31.737  33.350  1.00  0.00     0.037 A 
BRANCH  64  78
ATOM     78  C   UNL A   1      44.792  32.838  28.089  1.00  0.00     0.064 A 
ATOM     79  C   UNL A   1      44.170  32.399  26.910  1.00  0.00     0.173 A 
ATOM     80  C   UNL A   1      45.526  34.034  28.034  1.00  0.00     0.173 A 
ATOM     81  F   UNL A   1      43.468  31.254  26.902  1.00  0.00    -0.203 F 
ATOM     82  C   UNL A   1      44.318  33.101  25.717  1.00  0.00     0.198 A 
ATOM     83  C   UNL A   1      45.639  34.753  26.848  1.00  0.00     0.198 A 
ATOM     84  F   UNL A   1      46.138  34.503  29.131  1.00  0.00    -0.203 F 
ATOM     85  F   UNL A   1      43.776  32.622  24.587  1.00  0.00    -0.200 F 
ATOM     86  C   UNL A   1      45.047  34.280  25.688  1.00  0.00     0.200 A 
ATOM     87  F   UNL A   1      46.332  35.901  26.827  1.00  0.00    -0.200 F 
ATOM     88  F   UNL A   1      45.190  34.953  24.538  1.00  0.00    -0.200 F 
ENDBRANCH  64  78
BRANCH  65  89
ATOM     89  C   UNL A   1      44.780  27.644  36.614  1.00  0.00     0.064 A 
ATOM     90  C   UNL A   1      44.234  26.354  36.677  1.00  0.00     0.173 A 
ATOM     91  C   UNL A   1      45.299  28.189  37.798  1.00  0.00     0.173 A 
ATOM     92  F   UNL A   1      43.695  25.801  35.580  1.00  0.00    -0.203 F 
ATOM     93  C   UNL A   1      44.196  25.645  37.876  1.00  0.00     0.198 A 
ATOM     94  C   UNL A   1      45.288  27.467  38.990  1.00  0.00     0.198 A 
ATOM     95  F   UNL A   1      45.827  29.422  37.795  1.00  0.00    -0.203 F 
ATOM     96  F   UNL A   1      43.627  24.432  37.917  1.00  0.00    -0.200 F 
ATOM     97  C   UNL A   1      44.731  26.197  39.029  1.00  0.00     0.200 A 
ATOM     98  F   UNL A   1      45.815  28.001  40.099  1.00  0.00    -0.200 F 
ATOM     99  F   UNL A   1      44.701  25.512  40.179  1.00  0.00    -0.200 F 
ENDBRANCH  65  89
BRANCH  77 100
ATOM    100  C   UNL A   1      40.404  32.295  33.801  1.00  0.00     0.064 A 
ATOM    101  C   UNL A   1      39.187  31.669  33.496  1.00  0.00     0.173 A 
ATOM    102  C   UNL A   1      40.361  33.458  34.586  1.00  0.00     0.173 A 
ATOM    103  F   UNL A   1      39.168  30.560  32.739  1.00  0.00    -0.203 F 
ATOM    104  C   UNL A   1      37.975  32.204  33.932  1.00  0.00     0.198 A 
ATOM    105  C   UNL A   1      39.152  33.969  35.051  1.00  0.00     0.198 A 
ATOM    106  F   UNL A   1      41.495  34.094  34.918  1.00  0.00    -0.203 F 
ATOM    107  F   UNL A   1      36.822  31.620  33.580  1.00  0.00    -0.200 F 
ATOM    108  C   UNL A   1      37.960  33.348  34.715  1.00  0.00     0.200 A 
ATOM    109  F   UNL A   1      39.142  35.064  35.824  1.00  0.00    -0.200 F 
ATOM    110  F   UNL A   1      36.795  33.857  35.139  1.00  0.00    -0.200 F 
ENDBRANCH  77 100
ENDBRANCH  51  52
ENDBRANCH  44  46
ENDBRANCH  43  44
ENDBRANCH  42  43
ENDBRANCH  41  42
ENDBRANCH  40  41
ENDBRANCH  39  40
ENDBRANCH  38  39
ENDBRANCH  37  38
ENDBRANCH   1  37
TORSDOF 28
ENDMDL
MODEL 2
REMARK VINA RESULT:      -6.2      4.017     10.069
REMARK SMILES CC(C)C[C@H](NC(=O)[C@H](Cc1ccccc1)NC(=O)CNC(=O)C[NH3+])C(=O)OCCOCCOCCOC(=O)c1ccc(-c2c3nc(c(-c4c(F)c(F)c(F)c(F)c4F)c4ccc([nH]4)c(-c4c(F)c(F)c(F)c(F)c4F)c4nc(c(-c5c(F)c(F)c(F)c(F)c5F)c5ccc2[nH]5)C=C4)C=C3)cc1
REMARK SMILES IDX 30 1 29 2 28 3 26 4 27 5 5 6 4 7 2 8 1 9 3 10 6 11 7 12 8 14
REMARK SMILES IDX 9 15 17 16 18 17 19 19 20 20 21 21 22 22 23 24 24 25 25 26
REMARK SMILES IDX 10 30 11 31 12 32 16 33 13 34 15 35 14 36 31 37 32 38 33 39
REMARK SMILES IDX 34 40 35 41 36 42 37 43 38 44 39 45 40 46 41 47 102 48 42 49
REMARK SMILES IDX 101 50 43 51 44 52 45 53 95 54 46 55 100 56 94 57 96 58
REMARK SMILES IDX 47 59 99 60 93 61 92 62 48 64 80 65 60 66 79 67 61 68 64 69
REMARK SMILES IDX 78 70 97 71 62 72 63 73 77 75 98 76 65 77 49 78 50 79 58 80
REMARK SMILES IDX 51 81 52 82 56 83 59 84 53 85 54 86 57 87 55 88 81 89 82 90
REMARK SMILES IDX 90 91 83 92 84 93 88 94 91 95 85 96 86 97 89 98 87 99 66 100
REMARK SMILES IDX 67 101 75 102 68 103 69 104 73 105 76 106 70 107 71 108
REMARK SMILES IDX 74 109 72 110
REMARK H PARENT 6 13 17 18 21 23 25 27 25 28 25 29 96 63 64 74
REMARK Flexibility Score: inf
ROOT
ATOM      1  C   UNL A   1      46.237  24.087  24.824  1.00  0.00     0.202 C 
ENDROOT
BRANCH   1   2
ATOM      2  C   UNL A   1      47.187  24.833  25.785  1.00  0.00     0.261 C 
BRANCH   2   3
ATOM      3  O   UNL A   1      47.808  26.053  25.366  1.00  0.00    -0.462 OA
BRANCH   3   4
ATOM      4  C   UNL A   1      49.162  26.040  25.441  1.00  0.00     0.328 C 
ATOM      5  O   UNL A   1      49.775  25.545  26.383  1.00  0.00    -0.250 OA
BRANCH   4   6
ATOM      6  C   UNL A   1      49.839  26.921  24.369  1.00  0.00     0.192 C 
BRANCH   6   7
ATOM      7  C   UNL A   1      48.891  26.707  23.166  1.00  0.00     0.040 C 
BRANCH   7   8
ATOM      8  C   UNL A   1      49.154  27.629  21.924  1.00  0.00    -0.015 C 
ATOM      9  C   UNL A   1      49.875  27.018  20.707  1.00  0.00     0.007 C 
ATOM     10  C   UNL A   1      47.855  28.276  21.441  1.00  0.00     0.007 C 
ENDBRANCH   7   8
ENDBRANCH   6   7
BRANCH   6  11
ATOM     11  N   UNL A   1      51.275  26.668  24.063  1.00  0.00    -0.341 N 
ATOM     12  C   UNL A   1      52.423  27.410  24.323  1.00  0.00     0.243 C 
ATOM     13  H   UNL A   1      51.443  25.821  23.591  1.00  0.00     0.164 HD
ATOM     14  O   UNL A   1      53.473  26.773  24.471  1.00  0.00    -0.273 OA
BRANCH  12  15
ATOM     15  C   UNL A   1      52.438  28.967  24.503  1.00  0.00     0.175 C 
BRANCH  15  16
ATOM     16  N   UNL A   1      52.915  29.386  25.824  1.00  0.00    -0.342 N 
ATOM     17  C   UNL A   1      52.531  30.502  26.512  1.00  0.00     0.240 C 
ATOM     18  H   UNL A   1      53.579  28.804  26.259  1.00  0.00     0.164 HD
ATOM     19  O   UNL A   1      53.243  30.898  27.438  1.00  0.00    -0.273 OA
BRANCH  17  20
ATOM     20  C   UNL A   1      51.222  31.231  26.143  1.00  0.00     0.216 C 
BRANCH  20  21
ATOM     21  N   UNL A   1      51.291  32.599  25.639  1.00  0.00    -0.342 N 
ATOM     22  C   UNL A   1      50.430  33.665  25.704  1.00  0.00     0.275 C 
ATOM     23  H   UNL A   1      52.124  32.797  25.153  1.00  0.00     0.164 HD
ATOM     24  O   UNL A   1      50.851  34.777  25.375  1.00  0.00    -0.268 OA
BRANCH  22  25
ATOM     25  C   UNL A   1      49.008  33.519  26.230  1.00  0.00     0.360 C 
BRANCH  25  26
ATOM     26  N   UNL A   1      48.002  34.312  25.523  1.00  0.00    -0.350 N 
ATOM     27  H   UNL A   1      47.070  34.026  25.823  1.00  0.00     0.344 HD
ATOM     28  H   UNL A   1      48.098  34.165  24.518  1.00  0.00     0.344 HD
ATOM     29  H   UNL A   1      48.139  35.301  25.736  1.00  0.00     0.344 HD
ENDBRANCH  25  26
ENDBRANCH  22  25
ENDBRANCH  20  21
ENDBRANCH  17  20
ENDBRANCH  15  16
BRANCH  15  30
ATOM     30  C   UNL A   1      53.307  29.674  23.393  1.00  0.00     0.070 C 
BRANCH  30  31
ATOM     31  C   UNL A   1      52.776  29.625  21.958  1.00  0.00    -0.045 A 
ATOM     32  C   UNL A   1      51.607  30.334  21.620  1.00  0.00     0.004 A 
ATOM     33  C   UNL A   1      53.446  28.952  20.928  1.00  0.00     0.004 A 
ATOM     34  C   UNL A   1      51.226  30.512  20.284  1.00  0.00     0.000 A 
ATOM     35  C   UNL A   1      53.062  29.126  19.590  1.00  0.00     0.000 A 
ATOM     36  C   UNL A   1      51.978  29.939  19.266  1.00  0.00     0.000 A 
ENDBRANCH  30  31
ENDBRANCH  15  30
ENDBRANCH  12  15
ENDBRANCH   6  11
ENDBRANCH   4   6
ENDBRANCH   3   4
ENDBRANCH   2   3
ENDBRANCH   1   2
BRANCH   1  37
ATOM     37  O   UNL A   1      46.476  22.814  24.254  1.00  0.00    -0.376 OA
BRANCH  37  38
ATOM     38  C   UNL A   1      45.418  21.911  24.038  1.00  0.00     0.188 C 
BRANCH  38  39
ATOM     39  C   UNL A   1      44.223  22.104  24.991  1.00  0.00     0.188 C 
BRANCH  39  40
ATOM     40  O   UNL A   1      43.846  21.048  25.852  1.00  0.00    -0.376 OA
BRANCH  40  41
ATOM     41  C   UNL A   1      42.484  20.947  26.255  1.00  0.00     0.202 C 
BRANCH  41  42
ATOM     42  C   UNL A   1      41.850  21.821  27.366  1.00  0.00     0.261 C 
BRANCH  42  43
ATOM     43  O   UNL A   1      40.421  21.794  27.512  1.00  0.00    -0.460 OA
BRANCH  43  44
ATOM     44  C   UNL A   1      39.713  22.533  26.613  1.00  0.00     0.338 C 
ATOM     45  O   UNL A   1      39.013  22.121  25.717  1.00  0.00    -0.246 OA
BRANCH  44  46
ATOM     46  C   UNL A   1      39.730  23.957  27.045  1.00  0.00     0.060 A 
ATOM     47  C   UNL A   1      40.328  24.909  26.201  1.00  0.00     0.016 A 
ATOM     48  C   UNL A   1      39.177  24.349  28.262  1.00  0.00     0.016 A 
ATOM     49  C   UNL A   1      40.407  26.248  26.584  1.00  0.00     0.010 A 
ATOM     50  C   UNL A   1      39.297  25.684  28.668  1.00  0.00     0.010 A 
ATOM     51  C   UNL A   1      39.950  26.628  27.850  1.00  0.00    -0.014 A 
BRANCH  51  52
ATOM     52  C   UNL A   1      40.409  27.915  28.430  1.00  0.00     0.031 A 
ATOM     53  C   UNL A   1      41.885  28.081  28.680  1.00  0.00     0.074 A 
ATOM     54  C   UNL A   1      39.566  28.922  28.712  1.00  0.00     0.049 A 
ATOM     55  N   UNL A   1      42.537  29.068  29.239  1.00  0.00    -0.248 NA
ATOM     56  C   UNL A   1      42.742  26.966  28.242  1.00  0.00     0.031 C 
ATOM     57  C   UNL A   1      38.129  28.919  28.459  1.00  0.00     0.029 A 
ATOM     58  N   UNL A   1      39.809  30.146  29.285  1.00  0.00    -0.354 N 
ATOM     59  C   UNL A   1      43.873  28.685  29.235  1.00  0.00     0.074 A 
ATOM     60  C   UNL A   1      43.934  27.363  28.652  1.00  0.00     0.031 C 
ATOM     61  C   UNL A   1      37.611  30.085  28.885  1.00  0.00     0.029 A 
ATOM     62  C   UNL A   1      38.676  30.899  29.472  1.00  0.00     0.049 A 
ATOM     63  H   UNL A   1      40.708  30.454  29.538  1.00  0.00     0.167 HD
ATOM     64  C   UNL A   1      44.953  29.374  29.672  1.00  0.00     0.037 A 
ATOM     65  C   UNL A   1      38.521  32.099  30.068  1.00  0.00     0.037 A 
ATOM     66  C   UNL A   1      44.890  30.689  30.255  1.00  0.00     0.049 A 
ATOM     67  C   UNL A   1      39.728  32.814  30.627  1.00  0.00     0.074 A 
ATOM     68  C   UNL A   1      45.926  31.479  30.718  1.00  0.00     0.029 A 
ATOM     69  N   UNL A   1      43.718  31.402  30.466  1.00  0.00    -0.354 N 
ATOM     70  N   UNL A   1      40.988  32.456  30.613  1.00  0.00    -0.248 NA
ATOM     71  C   UNL A   1      39.483  34.107  31.284  1.00  0.00     0.031 C 
ATOM     72  C   UNL A   1      45.377  32.639  31.272  1.00  0.00     0.029 A 
ATOM     73  C   UNL A   1      44.004  32.610  31.083  1.00  0.00     0.049 A 
ATOM     74  H   UNL A   1      42.817  31.095  30.215  1.00  0.00     0.167 HD
ATOM     75  C   UNL A   1      41.691  33.494  31.215  1.00  0.00     0.074 A 
ATOM     76  C   UNL A   1      40.715  34.497  31.582  1.00  0.00     0.031 C 
ATOM     77  C   UNL A   1      43.026  33.608  31.435  1.00  0.00     0.037 A 
BRANCH  64  78
ATOM     78  C   UNL A   1      46.287  28.688  29.581  1.00  0.00     0.064 A 
ATOM     79  C   UNL A   1      46.730  27.785  30.560  1.00  0.00     0.173 A 
ATOM     80  C   UNL A   1      47.143  28.950  28.499  1.00  0.00     0.173 A 
ATOM     81  F   UNL A   1      45.959  27.510  31.624  1.00  0.00    -0.203 F 
ATOM     82  C   UNL A   1      47.995  27.208  30.483  1.00  0.00     0.198 A 
ATOM     83  C   UNL A   1      48.390  28.341  28.406  1.00  0.00     0.198 A 
ATOM     84  F   UNL A   1      46.770  29.802  27.532  1.00  0.00    -0.203 F 
ATOM     85  F   UNL A   1      48.425  26.406  31.468  1.00  0.00    -0.200 F 
ATOM     86  C   UNL A   1      48.822  27.482  29.404  1.00  0.00     0.200 A 
ATOM     87  F   UNL A   1      49.181  28.596  27.354  1.00  0.00    -0.200 F 
ATOM     88  F   UNL A   1      50.039  26.927  29.333  1.00  0.00    -0.200 F 
ENDBRANCH  64  78
BRANCH  65  89
ATOM     89  C   UNL A   1      37.169  32.709  30.164  1.00  0.00     0.064 A 
ATOM     90  C   UNL A   1      36.325  32.429  31.249  1.00  0.00     0.173 A 
ATOM     91  C   UNL A   1      36.685  33.573  29.171  1.00  0.00     0.173 A 
ATOM     92  F   UNL A   1      36.728  31.583  32.208  1.00  0.00    -0.203 F 
ATOM     93  C   UNL A   1      35.047  32.978  31.330  1.00  0.00     0.198 A 
ATOM     94  C   UNL A   1      35.418  34.146  29.268  1.00  0.00     0.198 A 
ATOM     95  F   UNL A   1      37.447  33.869  28.108  1.00  0.00    -0.203 F 
ATOM     96  F   UNL A   1      34.246  32.657  32.354  1.00  0.00    -0.200 F 
ATOM     97  C   UNL A   1      34.598  33.843  30.344  1.00  0.00     0.200 A 
ATOM     98  F   UNL A   1      34.992  34.989  28.318  1.00  0.00    -0.200 F 
ATOM     99  F   UNL A   1      33.373  34.378  30.426  1.00  0.00    -0.200 F 
ENDBRANCH  65  89
BRANCH  77 100
ATOM    100  C   UNL A   1      43.525  34.889  32.048  1.00  0.00     0.064 A 
ATOM    101  C   UNL A   1      43.725  35.028  33.429  1.00  0.00     0.173 A 
ATOM    102  C   UNL A   1      43.845  35.984  31.229  1.00  0.00     0.173 A 
ATOM    103  F   UNL A   1      43.425  34.018  34.261  1.00  0.00    -0.203 F 
ATOM    104  C   UNL A   1      44.195  36.224  33.970  1.00  0.00     0.198 A 
ATOM    105  C   UNL A   1      44.350  37.164  31.768  1.00  0.00     0.198 A 
ATOM    106  F   UNL A   1      43.684  35.904  29.899  1.00  0.00    -0.203 F 
ATOM    107  F   UNL A   1      44.323  36.352  35.297  1.00  0.00    -0.200 F 
ATOM    108  C   UNL A   1      44.514  37.287  33.138  1.00  0.00     0.200 A 
ATOM    109  F   UNL A   1      44.675  38.183  30.960  1.00  0.00    -0.200 F 
ATOM    110  F   UNL A   1      44.973  38.433  33.659  1.00  0.00    -0.200 F 
ENDBRANCH  77 100
ENDBRANCH  51  52
ENDBRANCH  44  46
ENDBRANCH  43  44
ENDBRANCH  42  43
ENDBRANCH  41  42
ENDBRANCH  40  41
ENDBRANCH  39  40
ENDBRANCH  38  39
ENDBRANCH  37  38
ENDBRANCH   1  37
TORSDOF 28
ENDMDL
MODEL 3
REMARK VINA RESULT:      -6.1      4.985     10.106
REMARK SMILES CC(C)C[C@H](NC(=O)[C@H](Cc1ccccc1)NC(=O)CNC(=O)C[NH3+])C(=O)OCCOCCOCCOC(=O)c1ccc(-c2c3nc(c(-c4c(F)c(F)c(F)c(F)c4F)c4ccc([nH]4)c(-c4c(F)c(F)c(F)c(F)c4F)c4nc(c(-c5c(F)c(F)c(F)c(F)c5F)c5ccc2[nH]5)C=C4)C=C3)cc1
REMARK SMILES IDX 30 1 29 2 28 3 26 4 27 5 5 6 4 7 2 8 1 9 3 10 6 11 7 12 8 14
REMARK SMILES IDX 9 15 17 16 18 17 19 19 20 20 21 21 22 22 23 24 24 25 25 26
REMARK SMILES IDX 10 30 11 31 12 32 16 33 13 34 15 35 14 36 31 37 32 38 33 39
REMARK SMILES IDX 34 40 35 41 36 42 37 43 38 44 39 45 40 46 41 47 102 48 42 49
REMARK SMILES IDX 101 50 43 51 44 52 45 53 95 54 46 55 100 56 94 57 96 58
REMARK SMILES IDX 47 59 99 60 93 61 92 62 48 64 80 65 60 66 79 67 61 68 64 69
REMARK SMILES IDX 78 70 97 71 62 72 63 73 77 75 98 76 65 77 49 78 50 79 58 80
REMARK SMILES IDX 51 81 52 82 56 83 59 84 53 85 54 86 57 87 55 88 81 89 82 90
REMARK SMILES IDX 90 91 83 92 84 93 88 94 91 95 85 96 86 97 89 98 87 99 66 100
REMARK SMILES IDX 67 101 75 102 68 103 69 104 73 105 76 106 70 107 71 108
REMARK SMILES IDX 74 109 72 110
REMARK H PARENT 6 13 17 18 21 23 25 27 25 28 25 29 96 63 64 74
REMARK Flexibility Score: inf
ROOT
ATOM      1  C   UNL A   1      49.917  25.966  30.584  1.00  0.00     0.202 C 
ENDROOT
BRANCH   1   2
ATOM      2  C   UNL A   1      50.786  25.366  31.708  1.00  0.00     0.261 C 
BRANCH   2   3
ATOM      3  O   UNL A   1      50.221  24.408  32.609  1.00  0.00    -0.462 OA
BRANCH   3   4
ATOM      4  C   UNL A   1      51.100  23.469  33.042  1.00  0.00     0.328 C 
ATOM      5  O   UNL A   1      51.520  22.565  32.325  1.00  0.00    -0.250 OA
BRANCH   4   6
ATOM      6  C   UNL A   1      51.317  23.498  34.570  1.00  0.00     0.192 C 
BRANCH   6   7
ATOM      7  C   UNL A   1      52.442  24.554  34.691  1.00  0.00     0.040 C 
BRANCH   7   8
ATOM      8  C   UNL A   1      52.086  25.827  35.536  1.00  0.00    -0.015 C 
ATOM      9  C   UNL A   1      50.597  26.164  35.746  1.00  0.00     0.007 C 
ATOM     10  C   UNL A   1      52.770  25.782  36.904  1.00  0.00     0.007 C 
ENDBRANCH   7   8
ENDBRANCH   6   7
BRANCH   6  11
ATOM     11  N   UNL A   1      51.618  22.210  35.257  1.00  0.00    -0.341 N 
ATOM     12  C   UNL A   1      50.827  21.364  36.027  1.00  0.00     0.243 C 
ATOM     13  H   UNL A   1      52.545  21.901  35.145  1.00  0.00     0.164 HD
ATOM     14  O   UNL A   1      51.121  20.163  36.011  1.00  0.00    -0.273 OA
BRANCH  12  15
ATOM     15  C   UNL A   1      49.571  21.836  36.839  1.00  0.00     0.175 C 
BRANCH  15  16
ATOM     16  N   UNL A   1      49.900  22.792  37.899  1.00  0.00    -0.342 N 
ATOM     17  C   UNL A   1      49.961  22.533  39.239  1.00  0.00     0.240 C 
ATOM     18  H   UNL A   1      50.098  23.714  37.617  1.00  0.00     0.164 HD
ATOM     19  O   UNL A   1      49.922  23.481  40.026  1.00  0.00    -0.273 OA
BRANCH  17  20
ATOM     20  C   UNL A   1      50.098  21.081  39.744  1.00  0.00     0.216 C 
BRANCH  20  21
ATOM     21  N   UNL A   1      49.164  20.592  40.754  1.00  0.00    -0.342 N 
ATOM     22  C   UNL A   1      48.911  19.346  41.270  1.00  0.00     0.275 C 
ATOM     23  H   UNL A   1      48.601  21.299  41.144  1.00  0.00     0.164 HD
ATOM     24  O   UNL A   1      48.211  19.265  42.282  1.00  0.00    -0.268 OA
BRANCH  22  25
ATOM     25  C   UNL A   1      49.523  18.088  40.668  1.00  0.00     0.360 C 
BRANCH  25  26
ATOM     26  N   UNL A   1      50.823  18.278  40.025  1.00  0.00    -0.350 N 
ATOM     27  H   UNL A   1      51.497  18.613  40.713  1.00  0.00     0.344 HD
ATOM     28  H   UNL A   1      50.734  18.963  39.274  1.00  0.00     0.344 HD
ATOM     29  H   UNL A   1      51.144  17.390  39.638  1.00  0.00     0.344 HD
ENDBRANCH  25  26
ENDBRANCH  22  25
ENDBRANCH  20  21
ENDBRANCH  17  20
ENDBRANCH  15  16
BRANCH  15  30
ATOM     30  C   UNL A   1      48.473  22.468  35.898  1.00  0.00     0.070 C 
BRANCH  30  31
ATOM     31  C   UNL A   1      47.306  21.567  35.488  1.00  0.00    -0.045 A 
ATOM     32  C   UNL A   1      47.207  20.266  36.017  1.00  0.00     0.004 A 
ATOM     33  C   UNL A   1      46.273  22.005  34.648  1.00  0.00     0.004 A 
ATOM     34  C   UNL A   1      46.042  19.504  35.861  1.00  0.00     0.000 A 
ATOM     35  C   UNL A   1      45.108  21.241  34.487  1.00  0.00     0.000 A 
ATOM     36  C   UNL A   1      44.976  20.010  35.127  1.00  0.00     0.000 A 
ENDBRANCH  30  31
ENDBRANCH  15  30
ENDBRANCH  12  15
ENDBRANCH   6  11
ENDBRANCH   4   6
ENDBRANCH   3   4
ENDBRANCH   2   3
ENDBRANCH   1   2
BRANCH   1  37
ATOM     37  O   UNL A   1      48.503  25.959  30.544  1.00  0.00    -0.376 OA
BRANCH  37  38
ATOM     38  C   UNL A   1      47.815  25.847  29.321  1.00  0.00     0.188 C 
BRANCH  38  39
ATOM     39  C   UNL A   1      46.431  25.181  29.438  1.00  0.00     0.188 C 
BRANCH  39  40
ATOM     40  O   UNL A   1      45.700  24.893  28.262  1.00  0.00    -0.376 OA
BRANCH  40  41
ATOM     41  C   UNL A   1      46.358  24.216  27.197  1.00  0.00     0.202 C 
BRANCH  41  42
ATOM     42  C   UNL A   1      45.611  23.494  26.047  1.00  0.00     0.261 C 
BRANCH  42  43
ATOM     43  O   UNL A   1      44.868  24.298  25.116  1.00  0.00    -0.460 OA
BRANCH  43  44
ATOM     44  C   UNL A   1      43.539  24.022  25.013  1.00  0.00     0.338 C 
ATOM     45  O   UNL A   1      43.029  23.054  24.498  1.00  0.00    -0.246 OA
BRANCH  44  46
ATOM     46  C   UNL A   1      42.782  24.988  25.855  1.00  0.00     0.060 A 
ATOM     47  C   UNL A   1      43.192  26.333  25.871  1.00  0.00     0.016 A 
ATOM     48  C   UNL A   1      41.695  24.579  26.624  1.00  0.00     0.016 A 
ATOM     49  C   UNL A   1      42.542  27.265  26.679  1.00  0.00     0.010 A 
ATOM     50  C   UNL A   1      41.070  25.503  27.471  1.00  0.00     0.010 A 
ATOM     51  C   UNL A   1      41.520  26.838  27.533  1.00  0.00    -0.014 A 
BRANCH  51  52
ATOM     52  C   UNL A   1      41.126  27.696  28.679  1.00  0.00     0.031 A 
ATOM     53  C   UNL A   1      41.948  27.598  29.937  1.00  0.00     0.074 A 
ATOM     54  C   UNL A   1      40.095  28.554  28.618  1.00  0.00     0.049 A 
ATOM     55  N   UNL A   1      41.780  28.178  31.098  1.00  0.00    -0.248 NA
ATOM     56  C   UNL A   1      43.120  26.709  29.874  1.00  0.00     0.031 C 
ATOM     57  C   UNL A   1      39.262  28.796  27.445  1.00  0.00     0.029 A 
ATOM     58  N   UNL A   1      39.572  29.379  29.583  1.00  0.00    -0.354 N 
ATOM     59  C   UNL A   1      42.811  27.712  31.904  1.00  0.00     0.074 A 
ATOM     60  C   UNL A   1      43.578  26.776  31.112  1.00  0.00     0.031 C 
ATOM     61  C   UNL A   1      38.321  29.703  27.761  1.00  0.00     0.029 A 
ATOM     62  C   UNL A   1      38.466  30.078  29.168  1.00  0.00     0.049 A 
ATOM     63  H   UNL A   1      39.953  29.461  30.487  1.00  0.00     0.167 HD
ATOM     64  C   UNL A   1      43.099  28.039  33.186  1.00  0.00     0.037 A 
ATOM     65  C   UNL A   1      37.656  30.908  29.856  1.00  0.00     0.037 A 
ATOM     66  C   UNL A   1      42.332  28.969  33.973  1.00  0.00     0.049 A 
ATOM     67  C   UNL A   1      37.943  31.194  31.310  1.00  0.00     0.074 A 
ATOM     68  C   UNL A   1      42.547  29.378  35.276  1.00  0.00     0.029 A 
ATOM     69  N   UNL A   1      41.192  29.626  33.529  1.00  0.00    -0.354 N 
ATOM     70  N   UNL A   1      38.923  30.761  32.065  1.00  0.00    -0.248 NA
ATOM     71  C   UNL A   1      37.006  32.089  32.005  1.00  0.00     0.031 C 
ATOM     72  C   UNL A   1      41.499  30.229  35.645  1.00  0.00     0.029 A 
ATOM     73  C   UNL A   1      40.674  30.413  34.545  1.00  0.00     0.049 A 
ATOM     74  H   UNL A   1      40.809  29.544  32.627  1.00  0.00     0.167 HD
ATOM     75  C   UNL A   1      38.748  31.364  33.307  1.00  0.00     0.074 A 
ATOM     76  C   UNL A   1      37.568  32.194  33.202  1.00  0.00     0.031 C 
ATOM     77  C   UNL A   1      39.504  31.246  34.428  1.00  0.00     0.037 A 
BRANCH  64  78
ATOM     78  C   UNL A   1      44.264  27.340  33.827  1.00  0.00     0.064 A 
ATOM     79  C   UNL A   1      44.107  26.167  34.582  1.00  0.00     0.173 A 
ATOM     80  C   UNL A   1      45.561  27.861  33.692  1.00  0.00     0.173 A 
ATOM     81  F   UNL A   1      42.887  25.634  34.757  1.00  0.00    -0.203 F 
ATOM     82  C   UNL A   1      45.194  25.570  35.215  1.00  0.00     0.198 A 
ATOM     83  C   UNL A   1      46.650  27.240  34.295  1.00  0.00     0.198 A 
ATOM     84  F   UNL A   1      45.771  28.977  32.979  1.00  0.00    -0.203 F 
ATOM     85  F   UNL A   1      45.007  24.494  35.992  1.00  0.00    -0.200 F 
ATOM     86  C   UNL A   1      46.466  26.104  35.067  1.00  0.00     0.200 A 
ATOM     87  F   UNL A   1      47.880  27.749  34.136  1.00  0.00    -0.200 F 
ATOM     88  F   UNL A   1      47.510  25.530  35.678  1.00  0.00    -0.200 F 
ENDBRANCH  64  78
BRANCH  65  89
ATOM     89  C   UNL A   1      36.493  31.539  29.177  1.00  0.00     0.064 A 
ATOM     90  C   UNL A   1      35.389  30.775  28.774  1.00  0.00     0.173 A 
ATOM     91  C   UNL A   1      36.465  32.916  28.904  1.00  0.00     0.173 A 
ATOM     92  F   UNL A   1      35.381  29.450  28.982  1.00  0.00    -0.203 F 
ATOM     93  C   UNL A   1      34.309  31.358  28.115  1.00  0.00     0.198 A 
ATOM     94  C   UNL A   1      35.371  33.503  28.272  1.00  0.00     0.198 A 
ATOM     95  F   UNL A   1      37.498  33.692  29.261  1.00  0.00    -0.203 F 
ATOM     96  F   UNL A   1      33.287  30.596  27.701  1.00  0.00    -0.200 F 
ATOM     97  C   UNL A   1      34.296  32.723  27.872  1.00  0.00     0.200 A 
ATOM     98  F   UNL A   1      35.359  34.824  28.048  1.00  0.00    -0.200 F 
ATOM     99  F   UNL A   1      33.255  33.285  27.245  1.00  0.00    -0.200 F 
ENDBRANCH  65  89
BRANCH  77 100
ATOM    100  C   UNL A   1      39.118  32.080  35.620  1.00  0.00     0.064 A 
ATOM    101  C   UNL A   1      38.303  31.583  36.647  1.00  0.00     0.173 A 
ATOM    102  C   UNL A   1      39.610  33.389  35.752  1.00  0.00     0.173 A 
ATOM    103  F   UNL A   1      37.795  30.343  36.568  1.00  0.00    -0.203 F 
ATOM    104  C   UNL A   1      37.966  32.376  37.743  1.00  0.00     0.198 A 
ATOM    105  C   UNL A   1      39.303  34.165  36.867  1.00  0.00     0.198 A 
ATOM    106  F   UNL A   1      40.404  33.912  34.805  1.00  0.00    -0.203 F 
ATOM    107  F   UNL A   1      37.139  31.900  38.683  1.00  0.00    -0.200 F 
ATOM    108  C   UNL A   1      38.474  33.662  37.856  1.00  0.00     0.200 A 
ATOM    109  F   UNL A   1      39.810  35.400  36.982  1.00  0.00    -0.200 F 
ATOM    110  F   UNL A   1      38.155  34.420  38.914  1.00  0.00    -0.200 F 
ENDBRANCH  77 100
ENDBRANCH  51  52
ENDBRANCH  44  46
ENDBRANCH  43  44
ENDBRANCH  42  43
ENDBRANCH  41  42
ENDBRANCH  40  41
ENDBRANCH  39  40
ENDBRANCH  38  39
ENDBRANCH  37  38
ENDBRANCH   1  37
TORSDOF 28
ENDMDL
