MODEL 1
REMARK VINA RESULT:     -10.7      0.000      0.000
REMARK SMILES Nc1cc([N+](=O)[O-])ccc1[C@H]([NH3+])C(=O)OCCOCCOCCOC(=O)c1ccc(-c2c3nc(c(-c4c(F)c(F)c(F)c(F)c4F)c4ccc([nH]4)c(-c4c(F)c(F)c(F)c(F)c4F)c4nc(c(-c5c(F)c(F)c(F)c(F)c5F)c5ccc2[nH]5)C=C4)C=C3)cc1
REMARK SMILES IDX 19 1 18 2 17 3 16 4 15 5 13 6 14 7 11 8 10 9 2 10 3 11 4 12
REMARK SMILES IDX 9 13 8 14 1 15 5 18 6 19 7 20 12 21 20 25 21 26 22 27 23 28
REMARK SMILES IDX 24 29 25 30 26 31 27 32 28 33 89 34 29 35 88 36 30 37 31 38
REMARK SMILES IDX 32 39 82 40 33 41 87 42 81 43 83 44 34 45 86 46 80 47 79 48
REMARK SMILES IDX 35 50 67 51 47 52 66 53 48 54 51 55 65 56 84 57 49 58 50 59
REMARK SMILES IDX 64 61 85 62 52 63 36 64 37 65 45 66 38 67 39 68 43 69 46 70
REMARK SMILES IDX 40 71 41 72 44 73 42 74 68 75 69 76 77 77 70 78 71 79 75 80
REMARK SMILES IDX 78 81 72 82 73 83 76 84 74 85 53 86 54 87 62 88 55 89 56 90
REMARK SMILES IDX 60 91 63 92 57 93 58 94 61 95 59 96
REMARK H PARENT 1 16 1 17 12 22 12 23 12 24 83 49 51 60
REMARK Flexibility Score: inf
ROOT
ATOM      1  C   UNL A   1      41.289  20.124  27.409  1.00  0.00     0.188 C 
ENDROOT
BRANCH   1   2
ATOM      2  O   UNL A   1      40.021  20.759  27.346  1.00  0.00    -0.376 OA
BRANCH   2   3
ATOM      3  C   UNL A   1      39.748  21.710  26.326  1.00  0.00     0.202 C 
BRANCH   3   4
ATOM      4  C   UNL A   1      38.578  21.486  25.357  1.00  0.00     0.261 C 
BRANCH   4   5
ATOM      5  O   UNL A   1      37.274  21.832  25.849  1.00  0.00    -0.459 OA
BRANCH   5   6
ATOM      6  C   UNL A   1      36.378  22.286  24.926  1.00  0.00     0.369 C 
ATOM      7  O   UNL A   1      36.532  23.320  24.278  1.00  0.00    -0.245 OA
BRANCH   6   8
ATOM      8  C   UNL A   1      35.124  21.370  24.751  1.00  0.00     0.325 C 
BRANCH   8   9
ATOM      9  C   UNL A   1      33.810  22.008  25.222  1.00  0.00     0.044 A 
ATOM     10  C   UNL A   1      32.548  21.717  24.646  1.00  0.00     0.048 A 
ATOM     11  C   UNL A   1      31.386  22.253  25.219  1.00  0.00     0.111 A 
ATOM     12  C   UNL A   1      31.465  23.162  26.278  1.00  0.00     0.271 A 
ATOM     13  C   UNL A   1      33.855  22.976  26.254  1.00  0.00     0.020 A 
ATOM     14  C   UNL A   1      32.701  23.548  26.782  1.00  0.00     0.086 A 
BRANCH  10  15
ATOM     15  N   UNL A   1      32.375  20.814  23.600  1.00  0.00    -0.398 N 
ATOM     16  H   UNL A   1      31.517  20.778  23.118  1.00  0.00     0.156 HD
ATOM     17  H   UNL A   1      33.109  20.212  23.343  1.00  0.00     0.156 HD
ENDBRANCH  10  15
BRANCH  12  18
ATOM     18  N   UNL A   1      30.239  23.715  26.855  1.00  0.00     0.062 N 
ATOM     19  O   UNL A   1      29.586  22.994  27.622  1.00  0.00    -0.258 OA
ATOM     20  O   UNL A   1      29.928  24.873  26.544  1.00  0.00    -0.258 OA
ENDBRANCH  12  18
ENDBRANCH   8   9
BRANCH   8  21
ATOM     21  N   UNL A   1      35.372  20.040  25.346  1.00  0.00    -0.342 N 
ATOM     22  H   UNL A   1      35.286  19.324  24.625  1.00  0.00     0.345 HD
ATOM     23  H   UNL A   1      34.690  19.864  26.083  1.00  0.00     0.345 HD
ATOM     24  H   UNL A   1      36.314  20.014  25.740  1.00  0.00     0.345 HD
ENDBRANCH   8  21
ENDBRANCH   6   8
ENDBRANCH   5   6
ENDBRANCH   4   5
ENDBRANCH   3   4
ENDBRANCH   2   3
ENDBRANCH   1   2
BRANCH   1  25
ATOM     25  C   UNL A   1      41.727  19.136  26.314  1.00  0.00     0.188 C 
BRANCH  25  26
ATOM     26  O   UNL A   1      42.434  19.682  25.235  1.00  0.00    -0.376 OA
BRANCH  26  27
ATOM     27  C   UNL A   1      43.762  20.134  25.404  1.00  0.00     0.202 C 
BRANCH  27  28
ATOM     28  C   UNL A   1      44.242  21.583  25.180  1.00  0.00     0.261 C 
BRANCH  28  29
ATOM     29  O   UNL A   1      43.411  22.659  25.630  1.00  0.00    -0.460 OA
BRANCH  29  30
ATOM     30  C   UNL A   1      43.784  23.908  25.255  1.00  0.00     0.338 C 
ATOM     31  O   UNL A   1      44.413  24.226  24.263  1.00  0.00    -0.246 OA
BRANCH  30  32
ATOM     32  C   UNL A   1      43.115  24.882  26.145  1.00  0.00     0.060 A 
ATOM     33  C   UNL A   1      43.536  26.220  26.119  1.00  0.00     0.016 A 
ATOM     34  C   UNL A   1      42.097  24.479  27.009  1.00  0.00     0.016 A 
ATOM     35  C   UNL A   1      42.956  27.156  26.978  1.00  0.00     0.010 A 
ATOM     36  C   UNL A   1      41.535  25.411  27.887  1.00  0.00     0.010 A 
ATOM     37  C   UNL A   1      41.983  26.746  27.897  1.00  0.00    -0.014 A 
BRANCH  37  38
ATOM     38  C   UNL A   1      41.579  27.647  29.006  1.00  0.00     0.031 A 
ATOM     39  C   UNL A   1      42.328  27.556  30.306  1.00  0.00     0.074 A 
ATOM     40  C   UNL A   1      40.565  28.519  28.876  1.00  0.00     0.049 A 
ATOM     41  N   UNL A   1      42.100  28.154  31.447  1.00  0.00    -0.248 NA
ATOM     42  C   UNL A   1      43.494  26.658  30.318  1.00  0.00     0.031 C 
ATOM     43  C   UNL A   1      39.785  28.735  27.663  1.00  0.00     0.029 A 
ATOM     44  N   UNL A   1      40.005  29.372  29.797  1.00  0.00    -0.354 N 
ATOM     45  C   UNL A   1      43.083  27.695  32.315  1.00  0.00     0.074 A 
ATOM     46  C   UNL A   1      43.891  26.748  31.578  1.00  0.00     0.031 C 
ATOM     47  C   UNL A   1      38.823  29.639  27.921  1.00  0.00     0.029 A 
ATOM     48  C   UNL A   1      38.899  30.035  29.327  1.00  0.00     0.049 A 
ATOM     49  H   UNL A   1      40.361  29.494  30.706  1.00  0.00     0.167 HD
ATOM     50  C   UNL A   1      43.297  28.036  33.608  1.00  0.00     0.037 A 
ATOM     51  C   UNL A   1      38.028  30.840  29.969  1.00  0.00     0.037 A 
ATOM     52  C   UNL A   1      42.484  28.968  34.345  1.00  0.00     0.049 A 
ATOM     53  C   UNL A   1      38.237  31.149  31.431  1.00  0.00     0.074 A 
ATOM     54  C   UNL A   1      42.628  29.391  35.654  1.00  0.00     0.029 A 
ATOM     55  N   UNL A   1      41.364  29.611  33.837  1.00  0.00    -0.354 N 
ATOM     56  N   UNL A   1      39.182  30.734  32.240  1.00  0.00    -0.248 NA
ATOM     57  C   UNL A   1      37.258  32.043  32.067  1.00  0.00     0.031 C 
ATOM     58  C   UNL A   1      41.561  30.244  35.958  1.00  0.00     0.029 A 
ATOM     59  C   UNL A   1      40.790  30.405  34.817  1.00  0.00     0.049 A 
ATOM     60  H   UNL A   1      41.027  29.516  32.917  1.00  0.00     0.167 HD
ATOM     61  C   UNL A   1      38.929  31.335  33.469  1.00  0.00     0.074 A 
ATOM     62  C   UNL A   1      37.748  32.155  33.294  1.00  0.00     0.031 C 
ATOM     63  C   UNL A   1      39.615  31.220  34.634  1.00  0.00     0.037 A 
BRANCH  50  64
ATOM     64  C   UNL A   1      44.436  27.361  34.316  1.00  0.00     0.064 A 
ATOM     65  C   UNL A   1      45.723  27.919  34.347  1.00  0.00     0.173 A 
ATOM     66  C   UNL A   1      44.236  26.139  34.975  1.00  0.00     0.173 A 
ATOM     67  F   UNL A   1      45.972  29.078  33.719  1.00  0.00    -0.203 F 
ATOM     68  C   UNL A   1      46.775  27.259  34.977  1.00  0.00     0.198 A 
ATOM     69  C   UNL A   1      45.282  25.499  35.633  1.00  0.00     0.198 A 
ATOM     70  F   UNL A   1      43.025  25.562  34.981  1.00  0.00    -0.203 F 
ATOM     71  F   UNL A   1      48.010  27.780  34.938  1.00  0.00    -0.200 F 
ATOM     72  C   UNL A   1      46.553  26.053  35.625  1.00  0.00     0.200 A 
ATOM     73  F   UNL A   1      45.063  24.339  36.270  1.00  0.00    -0.200 F 
ATOM     74  F   UNL A   1      47.566  25.419  36.231  1.00  0.00    -0.200 F 
ENDBRANCH  50  64
BRANCH  51  75
ATOM     75  C   UNL A   1      36.856  31.391  29.238  1.00  0.00     0.064 A 
ATOM     76  C   UNL A   1      36.798  32.741  28.869  1.00  0.00     0.173 A 
ATOM     77  C   UNL A   1      35.764  30.575  28.903  1.00  0.00     0.173 A 
ATOM     78  F   UNL A   1      37.803  33.567  29.193  1.00  0.00    -0.203 F 
ATOM     79  C   UNL A   1      35.688  33.259  28.204  1.00  0.00     0.198 A 
ATOM     80  C   UNL A   1      34.668  31.087  28.212  1.00  0.00     0.198 A 
ATOM     81  F   UNL A   1      35.766  29.277  29.239  1.00  0.00    -0.203 F 
ATOM     82  F   UNL A   1      35.637  34.563  27.905  1.00  0.00    -0.200 F 
ATOM     83  C   UNL A   1      34.626  32.430  27.870  1.00  0.00     0.200 A 
ATOM     84  F   UNL A   1      33.649  30.281  27.882  1.00  0.00    -0.200 F 
ATOM     85  F   UNL A   1      33.562  32.927  27.225  1.00  0.00    -0.200 F 
ENDBRANCH  51  75
BRANCH  63  86
ATOM     86  C   UNL A   1      39.133  32.027  35.808  1.00  0.00     0.064 A 
ATOM     87  C   UNL A   1      38.284  31.482  36.782  1.00  0.00     0.173 A 
ATOM     88  C   UNL A   1      39.568  33.349  35.985  1.00  0.00     0.173 A 
ATOM     89  F   UNL A   1      37.827  30.226  36.656  1.00  0.00    -0.203 F 
ATOM     90  C   UNL A   1      37.868  32.240  37.875  1.00  0.00     0.198 A 
ATOM     91  C   UNL A   1      39.177  34.093  37.095  1.00  0.00     0.198 A 
ATOM     92  F   UNL A   1      40.389  33.916  35.088  1.00  0.00    -0.203 F 
ATOM     93  F   UNL A   1      37.018  31.714  38.768  1.00  0.00    -0.200 F 
ATOM     94  C   UNL A   1      38.321  33.541  38.035  1.00  0.00     0.200 A 
ATOM     95  F   UNL A   1      39.631  35.344  37.256  1.00  0.00    -0.200 F 
ATOM     96  F   UNL A   1      37.929  34.264  39.092  1.00  0.00    -0.200 F 
ENDBRANCH  63  86
ENDBRANCH  37  38
ENDBRANCH  30  32
ENDBRANCH  29  30
ENDBRANCH  28  29
ENDBRANCH  27  28
ENDBRANCH  26  27
ENDBRANCH  25  26
ENDBRANCH   1  25
TORSDOF 21
ENDMDL
MODEL 2
REMARK VINA RESULT:     -10.3      5.977     11.797
REMARK SMILES Nc1cc([N+](=O)[O-])ccc1[C@H]([NH3+])C(=O)OCCOCCOCCOC(=O)c1ccc(-c2c3nc(c(-c4c(F)c(F)c(F)c(F)c4F)c4ccc([nH]4)c(-c4c(F)c(F)c(F)c(F)c4F)c4nc(c(-c5c(F)c(F)c(F)c(F)c5F)c5ccc2[nH]5)C=C4)C=C3)cc1
REMARK SMILES IDX 19 1 18 2 17 3 16 4 15 5 13 6 14 7 11 8 10 9 2 10 3 11 4 12
REMARK SMILES IDX 9 13 8 14 1 15 5 18 6 19 7 20 12 21 20 25 21 26 22 27 23 28
REMARK SMILES IDX 24 29 25 30 26 31 27 32 28 33 89 34 29 35 88 36 30 37 31 38
REMARK SMILES IDX 32 39 82 40 33 41 87 42 81 43 83 44 34 45 86 46 80 47 79 48
REMARK SMILES IDX 35 50 67 51 47 52 66 53 48 54 51 55 65 56 84 57 49 58 50 59
REMARK SMILES IDX 64 61 85 62 52 63 36 64 37 65 45 66 38 67 39 68 43 69 46 70
REMARK SMILES IDX 40 71 41 72 44 73 42 74 68 75 69 76 77 77 70 78 71 79 75 80
REMARK SMILES IDX 78 81 72 82 73 83 76 84 74 85 53 86 54 87 62 88 55 89 56 90
REMARK SMILES IDX 60 91 63 92 57 93 58 94 61 95 59 96
REMARK H PARENT 1 16 1 17 12 22 12 23 12 24 83 49 51 60
REMARK Flexibility Score: inf
ROOT
ATOM      1  C   UNL A   1      33.213  37.140  31.407  1.00  0.00     0.188 C 
ENDROOT
BRANCH   1   2
ATOM      2  O   UNL A   1      33.074  37.305  30.004  1.00  0.00    -0.376 OA
BRANCH   2   3
ATOM      3  C   UNL A   1      32.980  36.169  29.157  1.00  0.00     0.202 C 
BRANCH   3   4
ATOM      4  C   UNL A   1      34.250  35.540  28.567  1.00  0.00     0.261 C 
BRANCH   4   5
ATOM      5  O   UNL A   1      34.073  34.300  27.862  1.00  0.00    -0.459 OA
BRANCH   5   6
ATOM      6  C   UNL A   1      35.098  33.403  27.945  1.00  0.00     0.369 C 
ATOM      7  O   UNL A   1      36.238  33.633  27.545  1.00  0.00    -0.245 OA
BRANCH   6   8
ATOM      8  C   UNL A   1      34.702  32.043  28.604  1.00  0.00     0.325 C 
BRANCH   8   9
ATOM      9  C   UNL A   1      33.901  31.110  27.686  1.00  0.00     0.044 A 
ATOM     10  C   UNL A   1      34.397  29.876  27.198  1.00  0.00     0.048 A 
ATOM     11  C   UNL A   1      33.551  29.031  26.465  1.00  0.00     0.111 A 
ATOM     12  C   UNL A   1      32.263  29.442  26.111  1.00  0.00     0.271 A 
ATOM     13  C   UNL A   1      32.614  31.517  27.259  1.00  0.00     0.020 A 
ATOM     14  C   UNL A   1      31.799  30.698  26.483  1.00  0.00     0.086 A 
BRANCH  10  15
ATOM     15  N   UNL A   1      35.660  29.382  27.512  1.00  0.00    -0.398 N 
ATOM     16  H   UNL A   1      35.750  28.600  28.104  1.00  0.00     0.156 HD
ATOM     17  H   UNL A   1      36.464  29.815  27.143  1.00  0.00     0.156 HD
ENDBRANCH  10  15
BRANCH  12  18
ATOM     18  N   UNL A   1      31.401  28.547  25.339  1.00  0.00     0.062 N 
ATOM     19  O   UNL A   1      31.206  27.408  25.784  1.00  0.00    -0.258 OA
ATOM     20  O   UNL A   1      30.915  28.983  24.285  1.00  0.00    -0.258 OA
ENDBRANCH  12  18
ENDBRANCH   8   9
BRANCH   8  21
ATOM     21  N   UNL A   1      34.052  32.275  29.911  1.00  0.00    -0.342 N 
ATOM     22  H   UNL A   1      34.145  31.441  30.490  1.00  0.00     0.345 HD
ATOM     23  H   UNL A   1      33.063  32.481  29.767  1.00  0.00     0.345 HD
ATOM     24  H   UNL A   1      34.500  33.065  30.378  1.00  0.00     0.345 HD
ENDBRANCH   8  21
ENDBRANCH   6   8
ENDBRANCH   5   6
ENDBRANCH   4   5
ENDBRANCH   3   4
ENDBRANCH   2   3
ENDBRANCH   1   2
BRANCH   1  25
ATOM     25  C   UNL A   1      32.341  36.127  32.168  1.00  0.00     0.188 C 
BRANCH  25  26
ATOM     26  O   UNL A   1      32.921  34.876  32.419  1.00  0.00    -0.376 OA
BRANCH  26  27
ATOM     27  C   UNL A   1      34.124  34.780  33.153  1.00  0.00     0.202 C 
BRANCH  27  28
ATOM     28  C   UNL A   1      35.539  34.734  32.538  1.00  0.00     0.261 C 
BRANCH  28  29
ATOM     29  O   UNL A   1      35.972  33.526  31.903  1.00  0.00    -0.460 OA
BRANCH  29  30
ATOM     30  C   UNL A   1      36.434  32.547  32.720  1.00  0.00     0.338 C 
ATOM     31  O   UNL A   1      36.005  32.231  33.813  1.00  0.00    -0.246 OA
BRANCH  30  32
ATOM     32  C   UNL A   1      37.439  31.755  31.977  1.00  0.00     0.060 A 
ATOM     33  C   UNL A   1      38.348  30.969  32.700  1.00  0.00     0.016 A 
ATOM     34  C   UNL A   1      37.497  31.801  30.584  1.00  0.00     0.016 A 
ATOM     35  C   UNL A   1      39.337  30.244  32.032  1.00  0.00     0.010 A 
ATOM     36  C   UNL A   1      38.504  31.096  29.917  1.00  0.00     0.010 A 
ATOM     37  C   UNL A   1      39.447  30.339  30.639  1.00  0.00    -0.014 A 
BRANCH  37  38
ATOM     38  C   UNL A   1      40.658  29.826  29.951  1.00  0.00     0.031 A 
ATOM     39  C   UNL A   1      41.782  30.786  29.679  1.00  0.00     0.074 A 
ATOM     40  C   UNL A   1      40.763  28.544  29.562  1.00  0.00     0.049 A 
ATOM     41  N   UNL A   1      42.889  30.609  29.004  1.00  0.00    -0.248 NA
ATOM     42  C   UNL A   1      41.629  32.137  30.242  1.00  0.00     0.031 C 
ATOM     43  C   UNL A   1      39.767  27.504  29.799  1.00  0.00     0.029 A 
ATOM     44  N   UNL A   1      41.758  27.908  28.859  1.00  0.00    -0.354 N 
ATOM     45  C   UNL A   1      43.556  31.827  29.050  1.00  0.00     0.074 A 
ATOM     46  C   UNL A   1      42.718  32.742  29.793  1.00  0.00     0.031 C 
ATOM     47  C   UNL A   1      40.185  26.364  29.222  1.00  0.00     0.029 A 
ATOM     48  C   UNL A   1      41.459  26.606  28.546  1.00  0.00     0.049 A 
ATOM     49  H   UNL A   1      42.602  28.345  28.604  1.00  0.00     0.167 HD
ATOM     50  C   UNL A   1      44.762  32.151  28.525  1.00  0.00     0.037 A 
ATOM     51  C   UNL A   1      42.122  25.724  27.770  1.00  0.00     0.037 A 
ATOM     52  C   UNL A   1      45.589  31.244  27.774  1.00  0.00     0.049 A 
ATOM     53  C   UNL A   1      43.427  26.126  27.130  1.00  0.00     0.074 A 
ATOM     54  C   UNL A   1      46.834  31.473  27.214  1.00  0.00     0.029 A 
ATOM     55  N   UNL A   1      45.247  29.935  27.466  1.00  0.00    -0.354 N 
ATOM     56  N   UNL A   1      44.067  27.270  27.197  1.00  0.00    -0.248 NA
ATOM     57  C   UNL A   1      44.104  25.113  26.307  1.00  0.00     0.031 C 
ATOM     58  C   UNL A   1      47.219  30.322  26.518  1.00  0.00     0.029 A 
ATOM     59  C   UNL A   1      46.245  29.354  26.699  1.00  0.00     0.049 A 
ATOM     60  H   UNL A   1      44.419  29.486  27.751  1.00  0.00     0.167 HD
ATOM     61  C   UNL A   1      45.229  27.105  26.452  1.00  0.00     0.074 A 
ATOM     62  C   UNL A   1      45.213  25.746  25.952  1.00  0.00     0.031 C 
ATOM     63  C   UNL A   1      46.221  27.998  26.208  1.00  0.00     0.037 A 
BRANCH  50  64
ATOM     64  C   UNL A   1      45.234  33.564  28.715  1.00  0.00     0.064 A 
ATOM     65  C   UNL A   1      46.023  33.940  29.814  1.00  0.00     0.173 A 
ATOM     66  C   UNL A   1      44.895  34.556  27.782  1.00  0.00     0.173 A 
ATOM     67  F   UNL A   1      46.362  33.034  30.743  1.00  0.00    -0.203 F 
ATOM     68  C   UNL A   1      46.419  35.263  29.992  1.00  0.00     0.198 A 
ATOM     69  C   UNL A   1      45.322  35.871  27.946  1.00  0.00     0.198 A 
ATOM     70  F   UNL A   1      44.147  34.251  26.711  1.00  0.00    -0.203 F 
ATOM     71  F   UNL A   1      47.117  35.611  31.082  1.00  0.00    -0.200 F 
ATOM     72  C   UNL A   1      46.074  36.226  29.055  1.00  0.00     0.200 A 
ATOM     73  F   UNL A   1      44.999  36.798  27.032  1.00  0.00    -0.200 F 
ATOM     74  F   UNL A   1      46.457  37.498  29.227  1.00  0.00    -0.200 F 
ENDBRANCH  50  64
BRANCH  51  75
ATOM     75  C   UNL A   1      41.545  24.373  27.532  1.00  0.00     0.064 A 
ATOM     76  C   UNL A   1      42.115  23.228  28.104  1.00  0.00     0.173 A 
ATOM     77  C   UNL A   1      40.417  24.202  26.715  1.00  0.00     0.173 A 
ATOM     78  F   UNL A   1      43.212  23.337  28.867  1.00  0.00    -0.203 F 
ATOM     79  C   UNL A   1      41.586  21.962  27.860  1.00  0.00     0.198 A 
ATOM     80  C   UNL A   1      39.871  22.939  26.496  1.00  0.00     0.198 A 
ATOM     81  F   UNL A   1      39.838  25.265  26.137  1.00  0.00    -0.203 F 
ATOM     82  F   UNL A   1      42.177  20.879  28.381  1.00  0.00    -0.200 F 
ATOM     83  C   UNL A   1      40.460  21.819  27.062  1.00  0.00     0.200 A 
ATOM     84  F   UNL A   1      38.777  22.807  25.732  1.00  0.00    -0.200 F 
ATOM     85  F   UNL A   1      39.948  20.602  26.833  1.00  0.00    -0.200 F 
ENDBRANCH  51  75
BRANCH  63  86
ATOM     86  C   UNL A   1      47.395  27.530  25.393  1.00  0.00     0.064 A 
ATOM     87  C   UNL A   1      47.456  27.718  24.005  1.00  0.00     0.173 A 
ATOM     88  C   UNL A   1      48.496  26.928  26.021  1.00  0.00     0.173 A 
ATOM     89  F   UNL A   1      46.425  28.277  23.352  1.00  0.00    -0.203 F 
ATOM     90  C   UNL A   1      48.564  27.297  23.272  1.00  0.00     0.198 A 
ATOM     91  C   UNL A   1      49.616  26.538  25.290  1.00  0.00     0.198 A 
ATOM     92  F   UNL A   1      48.495  26.732  27.347  1.00  0.00    -0.203 F 
ATOM     93  F   UNL A   1      48.579  27.444  21.939  1.00  0.00    -0.200 F 
ATOM     94  C   UNL A   1      49.646  26.715  23.916  1.00  0.00     0.200 A 
ATOM     95  F   UNL A   1      50.668  25.993  25.917  1.00  0.00    -0.200 F 
ATOM     96  F   UNL A   1      50.715  26.321  23.211  1.00  0.00    -0.200 F 
ENDBRANCH  63  86
ENDBRANCH  37  38
ENDBRANCH  30  32
ENDBRANCH  29  30
ENDBRANCH  28  29
ENDBRANCH  27  28
ENDBRANCH  26  27
ENDBRANCH  25  26
ENDBRANCH   1  25
TORSDOF 21
ENDMDL
MODEL 3
REMARK VINA RESULT:     -10.3      1.659      2.003
REMARK SMILES Nc1cc([N+](=O)[O-])ccc1[C@H]([NH3+])C(=O)OCCOCCOCCOC(=O)c1ccc(-c2c3nc(c(-c4c(F)c(F)c(F)c(F)c4F)c4ccc([nH]4)c(-c4c(F)c(F)c(F)c(F)c4F)c4nc(c(-c5c(F)c(F)c(F)c(F)c5F)c5ccc2[nH]5)C=C4)C=C3)cc1
REMARK SMILES IDX 19 1 18 2 17 3 16 4 15 5 13 6 14 7 11 8 10 9 2 10 3 11 4 12
REMARK SMILES IDX 9 13 8 14 1 15 5 18 6 19 7 20 12 21 20 25 21 26 22 27 23 28
REMARK SMILES IDX 24 29 25 30 26 31 27 32 28 33 89 34 29 35 88 36 30 37 31 38
REMARK SMILES IDX 32 39 82 40 33 41 87 42 81 43 83 44 34 45 86 46 80 47 79 48
REMARK SMILES IDX 35 50 67 51 47 52 66 53 48 54 51 55 65 56 84 57 49 58 50 59
REMARK SMILES IDX 64 61 85 62 52 63 36 64 37 65 45 66 38 67 39 68 43 69 46 70
REMARK SMILES IDX 40 71 41 72 44 73 42 74 68 75 69 76 77 77 70 78 71 79 75 80
REMARK SMILES IDX 78 81 72 82 73 83 76 84 74 85 53 86 54 87 62 88 55 89 56 90
REMARK SMILES IDX 60 91 63 92 57 93 58 94 61 95 59 96
REMARK H PARENT 1 16 1 17 12 22 12 23 12 24 83 49 51 60
REMARK Flexibility Score: inf
ROOT
ATOM      1  C   UNL A   1      38.733  21.734  26.032  1.00  0.00     0.188 C 
ENDROOT
BRANCH   1   2
ATOM      2  O   UNL A   1      37.776  21.521  25.006  1.00  0.00    -0.376 OA
BRANCH   2   3
ATOM      3  C   UNL A   1      37.052  20.300  24.947  1.00  0.00     0.202 C 
BRANCH   3   4
ATOM      4  C   UNL A   1      35.516  20.314  24.966  1.00  0.00     0.261 C 
BRANCH   4   5
ATOM      5  O   UNL A   1      34.902  21.447  25.600  1.00  0.00    -0.459 OA
BRANCH   5   6
ATOM      6  C   UNL A   1      34.161  22.264  24.796  1.00  0.00     0.369 C 
ATOM      7  O   UNL A   1      33.099  21.926  24.277  1.00  0.00    -0.245 OA
BRANCH   6   8
ATOM      8  C   UNL A   1      34.778  23.685  24.591  1.00  0.00     0.325 C 
BRANCH   8   9
ATOM      9  C   UNL A   1      33.758  24.760  24.190  1.00  0.00     0.044 A 
ATOM     10  C   UNL A   1      32.665  25.144  25.006  1.00  0.00     0.048 A 
ATOM     11  C   UNL A   1      31.855  26.220  24.614  1.00  0.00     0.111 A 
ATOM     12  C   UNL A   1      32.041  26.842  23.376  1.00  0.00     0.271 A 
ATOM     13  C   UNL A   1      33.879  25.372  22.920  1.00  0.00     0.020 A 
ATOM     14  C   UNL A   1      33.036  26.402  22.512  1.00  0.00     0.086 A 
BRANCH  10  15
ATOM     15  N   UNL A   1      32.413  24.590  26.258  1.00  0.00    -0.398 N 
ATOM     16  H   UNL A   1      33.124  24.571  26.939  1.00  0.00     0.156 HD
ATOM     17  H   UNL A   1      31.525  24.218  26.462  1.00  0.00     0.156 HD
ENDBRANCH  10  15
BRANCH  12  18
ATOM     18  N   UNL A   1      31.178  27.957  22.986  1.00  0.00     0.062 N 
ATOM     19  O   UNL A   1      30.501  27.830  21.957  1.00  0.00    -0.258 OA
ATOM     20  O   UNL A   1      31.175  28.963  23.710  1.00  0.00    -0.258 OA
ENDBRANCH  12  18
ENDBRANCH   8   9
BRANCH   8  21
ATOM     21  N   UNL A   1      35.939  23.614  23.680  1.00  0.00    -0.342 N 
ATOM     22  H   UNL A   1      36.259  24.559  23.463  1.00  0.00     0.345 HD
ATOM     23  H   UNL A   1      35.668  23.140  22.819  1.00  0.00     0.345 HD
ATOM     24  H   UNL A   1      36.694  23.095  24.131  1.00  0.00     0.345 HD
ENDBRANCH   8  21
ENDBRANCH   6   8
ENDBRANCH   5   6
ENDBRANCH   4   5
ENDBRANCH   3   4
ENDBRANCH   2   3
ENDBRANCH   1   2
BRANCH   1  25
ATOM     25  C   UNL A   1      40.014  20.884  26.099  1.00  0.00     0.188 C 
BRANCH  25  26
ATOM     26  O   UNL A   1      40.928  21.220  27.107  1.00  0.00    -0.376 OA
BRANCH  26  27
ATOM     27  C   UNL A   1      42.311  21.007  26.919  1.00  0.00     0.202 C 
BRANCH  27  28
ATOM     28  C   UNL A   1      43.135  21.525  25.720  1.00  0.00     0.261 C 
BRANCH  28  29
ATOM     29  O   UNL A   1      42.668  22.682  25.016  1.00  0.00    -0.460 OA
BRANCH  29  30
ATOM     30  C   UNL A   1      43.488  23.762  25.023  1.00  0.00     0.338 C 
ATOM     31  O   UNL A   1      44.458  23.960  24.316  1.00  0.00    -0.246 OA
BRANCH  30  32
ATOM     32  C   UNL A   1      42.891  24.795  25.899  1.00  0.00     0.060 A 
ATOM     33  C   UNL A   1      43.532  26.038  26.011  1.00  0.00     0.016 A 
ATOM     34  C   UNL A   1      41.724  24.535  26.618  1.00  0.00     0.016 A 
ATOM     35  C   UNL A   1      43.020  27.018  26.863  1.00  0.00     0.010 A 
ATOM     36  C   UNL A   1      41.228  25.507  27.491  1.00  0.00     0.010 A 
ATOM     37  C   UNL A   1      41.889  26.741  27.641  1.00  0.00    -0.014 A 
BRANCH  37  38
ATOM     38  C   UNL A   1      41.514  27.644  28.758  1.00  0.00     0.031 A 
ATOM     39  C   UNL A   1      42.302  27.561  30.035  1.00  0.00     0.074 A 
ATOM     40  C   UNL A   1      40.492  28.511  28.655  1.00  0.00     0.049 A 
ATOM     41  N   UNL A   1      42.105  28.162  31.181  1.00  0.00    -0.248 NA
ATOM     42  C   UNL A   1      43.472  26.670  30.016  1.00  0.00     0.031 C 
ATOM     43  C   UNL A   1      39.675  28.719  27.464  1.00  0.00     0.029 A 
ATOM     44  N   UNL A   1      39.955  29.364  29.589  1.00  0.00    -0.354 N 
ATOM     45  C   UNL A   1      43.115  27.712  32.020  1.00  0.00     0.074 A 
ATOM     46  C   UNL A   1      43.906  26.766  31.263  1.00  0.00     0.031 C 
ATOM     47  C   UNL A   1      38.717  29.619  27.748  1.00  0.00     0.029 A 
ATOM     48  C   UNL A   1      38.833  30.020  29.149  1.00  0.00     0.049 A 
ATOM     49  H   UNL A   1      40.338  29.492  30.487  1.00  0.00     0.167 HD
ATOM     50  C   UNL A   1      43.365  28.059  33.305  1.00  0.00     0.037 A 
ATOM     51  C   UNL A   1      37.977  30.823  29.814  1.00  0.00     0.037 A 
ATOM     52  C   UNL A   1      42.570  28.989  34.062  1.00  0.00     0.049 A 
ATOM     53  C   UNL A   1      38.228  31.139  31.268  1.00  0.00     0.074 A 
ATOM     54  C   UNL A   1      42.750  29.418  35.365  1.00  0.00     0.029 A 
ATOM     55  N   UNL A   1      41.432  29.625  33.586  1.00  0.00    -0.354 N 
ATOM     56  N   UNL A   1      39.199  30.732  32.051  1.00  0.00    -0.248 NA
ATOM     57  C   UNL A   1      37.264  32.030  31.930  1.00  0.00     0.031 C 
ATOM     58  C   UNL A   1      41.689  30.268  35.697  1.00  0.00     0.029 A 
ATOM     59  C   UNL A   1      40.884  30.420  34.580  1.00  0.00     0.049 A 
ATOM     60  H   UNL A   1      41.068  29.525  32.677  1.00  0.00     0.167 HD
ATOM     61  C   UNL A   1      38.979  31.336  33.284  1.00  0.00     0.074 A 
ATOM     62  C   UNL A   1      37.789  32.149  33.142  1.00  0.00     0.031 C 
ATOM     63  C   UNL A   1      39.699  31.229  34.428  1.00  0.00     0.037 A 
BRANCH  50  64
ATOM     64  C   UNL A   1      44.528  27.392  33.982  1.00  0.00     0.064 A 
ATOM     65  C   UNL A   1      45.814  27.957  33.972  1.00  0.00     0.173 A 
ATOM     66  C   UNL A   1      44.354  26.171  34.650  1.00  0.00     0.173 A 
ATOM     67  F   UNL A   1      46.038  29.115  33.333  1.00  0.00    -0.203 F 
ATOM     68  C   UNL A   1      46.887  27.304  34.573  1.00  0.00     0.198 A 
ATOM     69  C   UNL A   1      45.423  25.539  35.279  1.00  0.00     0.198 A 
ATOM     70  F   UNL A   1      43.147  25.589  34.694  1.00  0.00    -0.203 F 
ATOM     71  F   UNL A   1      48.117  27.831  34.497  1.00  0.00    -0.200 F 
ATOM     72  C   UNL A   1      46.690  26.099  35.232  1.00  0.00     0.200 A 
ATOM     73  F   UNL A   1      45.228  24.381  35.927  1.00  0.00    -0.200 F 
ATOM     74  F   UNL A   1      47.724  25.473  35.809  1.00  0.00    -0.200 F 
ENDBRANCH  50  64
BRANCH  51  75
ATOM     75  C   UNL A   1      36.781  31.366  29.116  1.00  0.00     0.064 A 
ATOM     76  C   UNL A   1      36.706  32.714  28.743  1.00  0.00     0.173 A 
ATOM     77  C   UNL A   1      35.683  30.544  28.818  1.00  0.00     0.173 A 
ATOM     78  F   UNL A   1      37.717  33.546  29.034  1.00  0.00    -0.203 F 
ATOM     79  C   UNL A   1      35.574  33.224  28.110  1.00  0.00     0.198 A 
ATOM     80  C   UNL A   1      34.564  31.048  28.158  1.00  0.00     0.198 A 
ATOM     81  F   UNL A   1      35.701  29.247  29.160  1.00  0.00    -0.203 F 
ATOM     82  F   UNL A   1      35.508  34.527  27.807  1.00  0.00    -0.200 F 
ATOM     83  C   UNL A   1      34.507  32.389  27.811  1.00  0.00     0.200 A 
ATOM     84  F   UNL A   1      33.540  30.235  27.862  1.00  0.00    -0.200 F 
ATOM     85  F   UNL A   1      33.421  32.878  27.196  1.00  0.00    -0.200 F 
ENDBRANCH  51  75
BRANCH  63  86
ATOM     86  C   UNL A   1      39.249  32.037  35.614  1.00  0.00     0.064 A 
ATOM     87  C   UNL A   1      38.414  31.499  36.603  1.00  0.00     0.173 A 
ATOM     88  C   UNL A   1      39.700  33.355  35.784  1.00  0.00     0.173 A 
ATOM     89  F   UNL A   1      37.943  30.248  36.484  1.00  0.00    -0.203 F 
ATOM     90  C   UNL A   1      38.027  32.259  37.706  1.00  0.00     0.198 A 
ATOM     91  C   UNL A   1      39.338  34.100  36.904  1.00  0.00     0.198 A 
ATOM     92  F   UNL A   1      40.508  33.916  34.872  1.00  0.00    -0.203 F 
ATOM     93  F   UNL A   1      37.190  31.739  38.615  1.00  0.00    -0.200 F 
ATOM     94  C   UNL A   1      38.496  33.555  37.859  1.00  0.00     0.200 A 
ATOM     95  F   UNL A   1      39.807  35.346  37.058  1.00  0.00    -0.200 F 
ATOM     96  F   UNL A   1      38.131  34.279  38.925  1.00  0.00    -0.200 F 
ENDBRANCH  63  86
ENDBRANCH  37  38
ENDBRANCH  30  32
ENDBRANCH  29  30
ENDBRANCH  28  29
ENDBRANCH  27  28
ENDBRANCH  26  27
ENDBRANCH  25  26
ENDBRANCH   1  25
TORSDOF 21
ENDMDL
