MODEL 1
REMARK VINA RESULT:      -8.7      0.000      0.000
REMARK SMILES O=C(/C=C/c1ccc(NC(=O)c2cc(C(F)(F)F)cc(C(F)(F)F)c2)cc1)OCCOCCOCCOC(=O)c1ccc(-c2c3nc(c(-c4c(F)c(F)c(F)c(F)c4F)c4ccc([nH]4)c(-c4c(F)c(F)c(F)c(F)c4F)c4nc(c(-c5c(F)c(F)c(F)c(F)c5F)c5ccc2[nH]5)C=C4)C=C3)cc1
REMARK SMILES IDX 32 1 31 2 30 3 29 4 28 5 2 6 1 7 3 8 4 9 5 10 6 11 27 12
REMARK SMILES IDX 7 13 26 14 8 15 9 16 10 17 11 19 12 20 13 21 25 22 14 23
REMARK SMILES IDX 20 24 19 25 15 26 16 27 17 28 18 29 21 30 22 31 23 32 24 33
REMARK SMILES IDX 33 34 34 35 35 36 36 37 37 38 38 39 39 40 40 41 41 42 102 43
REMARK SMILES IDX 42 44 101 45 43 46 44 47 45 48 95 49 46 50 100 51 94 52
REMARK SMILES IDX 96 53 47 54 99 55 93 56 92 57 48 59 80 60 60 61 79 62 61 63
REMARK SMILES IDX 64 64 78 65 97 66 62 67 63 68 77 70 98 71 65 72 49 73 50 74
REMARK SMILES IDX 58 75 51 76 52 77 56 78 59 79 53 80 54 81 57 82 55 83 81 84
REMARK SMILES IDX 82 85 90 86 83 87 84 88 88 89 91 90 85 91 86 92 89 93 87 94
REMARK SMILES IDX 66 95 67 96 75 97 68 98 69 99 73 100 76 101 70 102 71 103
REMARK SMILES IDX 74 104 72 105
REMARK H PARENT 9 18 96 58 64 69
REMARK Flexibility Score: inf
ROOT
ATOM      1  C   UNL A   1      44.094  22.919  29.801  1.00  0.00     0.188 C 
ENDROOT
BRANCH   1   2
ATOM      2  O   UNL A   1      42.853  22.730  29.155  1.00  0.00    -0.376 OA
BRANCH   2   3
ATOM      3  C   UNL A   1      42.709  22.816  27.753  1.00  0.00     0.202 C 
BRANCH   3   4
ATOM      4  C   UNL A   1      41.927  23.950  27.082  1.00  0.00     0.261 C 
BRANCH   4   5
ATOM      5  O   UNL A   1      41.920  25.218  27.745  1.00  0.00    -0.460 OA
BRANCH   5   6
ATOM      6  C   UNL A   1      40.845  26.031  27.626  1.00  0.00     0.330 C 
ATOM      7  O   UNL A   1      40.403  26.403  26.549  1.00  0.00    -0.247 OA
BRANCH   6   8
ATOM      8  C   UNL A   1      40.540  26.755  28.870  1.00  0.00     0.094 C 
ATOM      9  C   UNL A   1      39.374  27.385  29.061  1.00  0.00     0.015 C 
BRANCH   9  10
ATOM     10  C   UNL A   1      39.032  28.016  30.340  1.00  0.00    -0.025 A 
ATOM     11  C   UNL A   1      40.020  28.124  31.322  1.00  0.00     0.010 A 
ATOM     12  C   UNL A   1      37.746  28.481  30.627  1.00  0.00     0.010 A 
ATOM     13  C   UNL A   1      39.734  28.696  32.567  1.00  0.00     0.027 A 
ATOM     14  C   UNL A   1      37.467  29.067  31.868  1.00  0.00     0.027 A 
ATOM     15  C   UNL A   1      38.465  29.203  32.842  1.00  0.00     0.041 A 
BRANCH  15  16
ATOM     16  N   UNL A   1      38.090  29.794  34.063  1.00  0.00    -0.322 N 
ATOM     17  C   UNL A   1      37.893  31.101  34.451  1.00  0.00     0.255 C 
ATOM     18  H   UNL A   1      37.938  29.143  34.785  1.00  0.00     0.170 HD
ATOM     19  O   UNL A   1      37.870  31.381  35.648  1.00  0.00    -0.269 OA
BRANCH  17  20
ATOM     20  C   UNL A   1      37.632  32.189  33.482  1.00  0.00     0.041 A 
ATOM     21  C   UNL A   1      36.419  32.883  33.565  1.00  0.00     0.027 A 
ATOM     22  C   UNL A   1      38.540  32.490  32.461  1.00  0.00     0.027 A 
ATOM     23  C   UNL A   1      36.128  33.923  32.667  1.00  0.00     0.057 A 
ATOM     24  C   UNL A   1      38.291  33.556  31.582  1.00  0.00     0.057 A 
ATOM     25  C   UNL A   1      37.078  34.258  31.689  1.00  0.00     0.026 A 
BRANCH  23  26
ATOM     26  C   UNL A   1      34.817  34.669  32.775  1.00  0.00     0.416 C 
ATOM     27  F   UNL A   1      34.869  35.692  33.669  1.00  0.00    -0.166 F 
ATOM     28  F   UNL A   1      34.438  35.218  31.590  1.00  0.00    -0.166 F 
ATOM     29  F   UNL A   1      33.780  33.878  33.169  1.00  0.00    -0.166 F 
ENDBRANCH  23  26
BRANCH  24  30
ATOM     30  C   UNL A   1      39.312  33.957  30.546  1.00  0.00     0.416 C 
ATOM     31  F   UNL A   1      38.746  34.309  29.361  1.00  0.00    -0.166 F 
ATOM     32  F   UNL A   1      40.060  35.024  30.939  1.00  0.00    -0.166 F 
ATOM     33  F   UNL A   1      40.197  32.966  30.259  1.00  0.00    -0.166 F 
ENDBRANCH  24  30
ENDBRANCH  17  20
ENDBRANCH  15  16
ENDBRANCH   9  10
ENDBRANCH   6   8
ENDBRANCH   5   6
ENDBRANCH   4   5
ENDBRANCH   3   4
ENDBRANCH   2   3
ENDBRANCH   1   2
BRANCH   1  34
ATOM     34  C   UNL A   1      44.352  24.141  30.690  1.00  0.00     0.188 C 
BRANCH  34  35
ATOM     35  O   UNL A   1      44.451  24.008  32.097  1.00  0.00    -0.376 OA
BRANCH  35  36
ATOM     36  C   UNL A   1      43.769  22.957  32.764  1.00  0.00     0.202 C 
BRANCH  36  37
ATOM     37  C   UNL A   1      44.161  22.620  34.205  1.00  0.00     0.261 C 
BRANCH  37  38
ATOM     38  O   UNL A   1      43.283  23.207  35.180  1.00  0.00    -0.460 OA
BRANCH  38  39
ATOM     39  C   UNL A   1      43.863  24.080  36.036  1.00  0.00     0.338 C 
ATOM     40  O   UNL A   1      44.517  23.825  37.031  1.00  0.00    -0.246 OA
BRANCH  39  41
ATOM     41  C   UNL A   1      43.686  25.457  35.543  1.00  0.00     0.060 A 
ATOM     42  C   UNL A   1      42.439  25.824  35.021  1.00  0.00     0.016 A 
ATOM     43  C   UNL A   1      44.763  26.341  35.492  1.00  0.00     0.016 A 
ATOM     44  C   UNL A   1      42.277  27.069  34.413  1.00  0.00     0.010 A 
ATOM     45  C   UNL A   1      44.602  27.589  34.884  1.00  0.00     0.010 A 
ATOM     46  C   UNL A   1      43.369  27.942  34.307  1.00  0.00    -0.014 A 
BRANCH  46  47
ATOM     47  C   UNL A   1      43.288  29.142  33.441  1.00  0.00     0.031 A 
ATOM     48  C   UNL A   1      43.578  28.991  31.973  1.00  0.00     0.074 A 
ATOM     49  C   UNL A   1      42.987  30.349  33.949  1.00  0.00     0.049 A 
ATOM     50  N   UNL A   1      43.676  29.908  31.044  1.00  0.00    -0.248 NA
ATOM     51  C   UNL A   1      43.796  27.619  31.490  1.00  0.00     0.031 C 
ATOM     52  C   UNL A   1      42.656  30.619  35.345  1.00  0.00     0.029 A 
ATOM     53  N   UNL A   1      42.933  31.579  33.341  1.00  0.00    -0.354 N 
ATOM     54  C   UNL A   1      43.984  29.226  29.875  1.00  0.00     0.074 A 
ATOM     55  C   UNL A   1      44.076  27.822  30.212  1.00  0.00     0.031 C 
ATOM     56  C   UNL A   1      42.456  31.939  35.495  1.00  0.00     0.029 A 
ATOM     57  C   UNL A   1      42.683  32.609  34.213  1.00  0.00     0.049 A 
ATOM     58  H   UNL A   1      43.060  31.710  32.374  1.00  0.00     0.167 HD
ATOM     59  C   UNL A   1      44.170  29.726  28.631  1.00  0.00     0.037 A 
ATOM     60  C   UNL A   1      42.675  33.941  34.005  1.00  0.00     0.037 A 
ATOM     61  C   UNL A   1      44.068  31.119  28.292  1.00  0.00     0.049 A 
ATOM     62  C   UNL A   1      42.940  34.481  32.622  1.00  0.00     0.074 A 
ATOM     63  C   UNL A   1      44.196  31.719  27.052  1.00  0.00     0.029 A 
ATOM     64  N   UNL A   1      43.821  32.134  29.205  1.00  0.00    -0.354 N 
ATOM     65  N   UNL A   1      43.194  33.828  31.514  1.00  0.00    -0.248 NA
ATOM     66  C   UNL A   1      42.918  35.942  32.462  1.00  0.00     0.031 C 
ATOM     67  C   UNL A   1      44.076  33.102  27.221  1.00  0.00     0.029 A 
ATOM     68  C   UNL A   1      43.825  33.360  28.559  1.00  0.00     0.049 A 
ATOM     69  H   UNL A   1      43.667  32.002  30.169  1.00  0.00     0.167 HD
ATOM     70  C   UNL A   1      43.338  34.793  30.524  1.00  0.00     0.074 A 
ATOM     71  C   UNL A   1      43.136  36.078  31.161  1.00  0.00     0.031 C 
ATOM     72  C   UNL A   1      43.612  34.629  29.207  1.00  0.00     0.037 A 
BRANCH  59  73
ATOM     73  C   UNL A   1      44.535  28.756  27.547  1.00  0.00     0.064 A 
ATOM     74  C   UNL A   1      43.596  28.312  26.605  1.00  0.00     0.173 A 
ATOM     75  C   UNL A   1      45.851  28.281  27.439  1.00  0.00     0.173 A 
ATOM     76  F   UNL A   1      42.322  28.726  26.675  1.00  0.00    -0.203 F 
ATOM     77  C   UNL A   1      43.953  27.404  25.612  1.00  0.00     0.198 A 
ATOM     78  C   UNL A   1      46.211  27.393  26.429  1.00  0.00     0.198 A 
ATOM     79  F   UNL A   1      46.788  28.678  28.313  1.00  0.00    -0.203 F 
ATOM     80  F   UNL A   1      43.029  26.955  24.752  1.00  0.00    -0.200 F 
ATOM     81  C   UNL A   1      45.262  26.949  25.521  1.00  0.00     0.200 A 
ATOM     82  F   UNL A   1      47.477  26.963  26.337  1.00  0.00    -0.200 F 
ATOM     83  F   UNL A   1      45.604  26.077  24.564  1.00  0.00    -0.200 F 
ENDBRANCH  59  73
BRANCH  60  84
ATOM     84  C   UNL A   1      42.434  34.860  35.147  1.00  0.00     0.064 A 
ATOM     85  C   UNL A   1      43.499  35.399  35.880  1.00  0.00     0.173 A 
ATOM     86  C   UNL A   1      41.133  35.221  35.525  1.00  0.00     0.173 A 
ATOM     87  F   UNL A   1      44.761  35.067  35.570  1.00  0.00    -0.203 F 
ATOM     88  C   UNL A   1      43.271  36.254  36.957  1.00  0.00     0.198 A 
ATOM     89  C   UNL A   1      40.907  36.097  36.583  1.00  0.00     0.198 A 
ATOM     90  F   UNL A   1      40.077  34.743  34.849  1.00  0.00    -0.203 F 
ATOM     91  F   UNL A   1      44.306  36.729  37.664  1.00  0.00    -0.200 F 
ATOM     92  C   UNL A   1      41.976  36.607  37.304  1.00  0.00     0.200 A 
ATOM     93  F   UNL A   1      39.654  36.453  36.899  1.00  0.00    -0.200 F 
ATOM     94  F   UNL A   1      41.757  37.439  38.331  1.00  0.00    -0.200 F 
ENDBRANCH  60  84
BRANCH  72  95
ATOM     95  C   UNL A   1      43.680  35.860  28.350  1.00  0.00     0.064 A 
ATOM     96  C   UNL A   1      42.526  36.437  27.803  1.00  0.00     0.173 A 
ATOM     97  C   UNL A   1      44.906  36.508  28.136  1.00  0.00     0.173 A 
ATOM     98  F   UNL A   1      41.333  35.846  27.968  1.00  0.00    -0.203 F 
ATOM     99  C   UNL A   1      42.598  37.614  27.062  1.00  0.00     0.198 A 
ATOM    100  C   UNL A   1      44.971  37.698  27.416  1.00  0.00     0.198 A 
ATOM    101  F   UNL A   1      46.038  35.999  28.645  1.00  0.00    -0.203 F 
ATOM    102  F   UNL A   1      41.487  38.133  26.522  1.00  0.00    -0.200 F 
ATOM    103  C   UNL A   1      43.818  38.248  26.877  1.00  0.00     0.200 A 
ATOM    104  F   UNL A   1      46.149  38.316  27.250  1.00  0.00    -0.200 F 
ATOM    105  F   UNL A   1      43.884  39.388  26.175  1.00  0.00    -0.200 F 
ENDBRANCH  72  95
ENDBRANCH  46  47
ENDBRANCH  39  41
ENDBRANCH  38  39
ENDBRANCH  37  38
ENDBRANCH  36  37
ENDBRANCH  35  36
ENDBRANCH  34  35
ENDBRANCH   1  34
TORSDOF 22
ENDMDL
MODEL 2
REMARK VINA RESULT:      -8.6      0.381      2.537
REMARK SMILES O=C(/C=C/c1ccc(NC(=O)c2cc(C(F)(F)F)cc(C(F)(F)F)c2)cc1)OCCOCCOCCOC(=O)c1ccc(-c2c3nc(c(-c4c(F)c(F)c(F)c(F)c4F)c4ccc([nH]4)c(-c4c(F)c(F)c(F)c(F)c4F)c4nc(c(-c5c(F)c(F)c(F)c(F)c5F)c5ccc2[nH]5)C=C4)C=C3)cc1
REMARK SMILES IDX 32 1 31 2 30 3 29 4 28 5 2 6 1 7 3 8 4 9 5 10 6 11 27 12
REMARK SMILES IDX 7 13 26 14 8 15 9 16 10 17 11 19 12 20 13 21 25 22 14 23
REMARK SMILES IDX 20 24 19 25 15 26 16 27 17 28 18 29 21 30 22 31 23 32 24 33
REMARK SMILES IDX 33 34 34 35 35 36 36 37 37 38 38 39 39 40 40 41 41 42 102 43
REMARK SMILES IDX 42 44 101 45 43 46 44 47 45 48 95 49 46 50 100 51 94 52
REMARK SMILES IDX 96 53 47 54 99 55 93 56 92 57 48 59 80 60 60 61 79 62 61 63
REMARK SMILES IDX 64 64 78 65 97 66 62 67 63 68 77 70 98 71 65 72 49 73 50 74
REMARK SMILES IDX 58 75 51 76 52 77 56 78 59 79 53 80 54 81 57 82 55 83 81 84
REMARK SMILES IDX 82 85 90 86 83 87 84 88 88 89 91 90 85 91 86 92 89 93 87 94
REMARK SMILES IDX 66 95 67 96 75 97 68 98 69 99 73 100 76 101 70 102 71 103
REMARK SMILES IDX 74 104 72 105
REMARK H PARENT 9 18 96 58 64 69
REMARK Flexibility Score: inf
ROOT
ATOM      1  C   UNL A   1      43.979  22.936  29.881  1.00  0.00     0.188 C 
ENDROOT
BRANCH   1   2
ATOM      2  O   UNL A   1      42.932  23.025  28.939  1.00  0.00    -0.376 OA
BRANCH   2   3
ATOM      3  C   UNL A   1      43.122  23.563  27.646  1.00  0.00     0.202 C 
BRANCH   3   4
ATOM      4  C   UNL A   1      42.262  24.711  27.107  1.00  0.00     0.261 C 
BRANCH   4   5
ATOM      5  O   UNL A   1      41.975  25.786  28.006  1.00  0.00    -0.460 OA
BRANCH   5   6
ATOM      6  C   UNL A   1      40.776  26.413  27.939  1.00  0.00     0.330 C 
ATOM      7  O   UNL A   1      40.179  26.606  26.890  1.00  0.00    -0.247 OA
BRANCH   6   8
ATOM      8  C   UNL A   1      40.481  27.203  29.145  1.00  0.00     0.094 C 
ATOM      9  C   UNL A   1      39.231  27.399  29.581  1.00  0.00     0.015 C 
BRANCH   9  10
ATOM     10  C   UNL A   1      38.946  28.097  30.838  1.00  0.00    -0.025 A 
ATOM     11  C   UNL A   1      39.973  28.242  31.774  1.00  0.00     0.010 A 
ATOM     12  C   UNL A   1      37.677  28.591  31.152  1.00  0.00     0.010 A 
ATOM     13  C   UNL A   1      39.743  28.879  32.999  1.00  0.00     0.027 A 
ATOM     14  C   UNL A   1      37.454  29.242  32.372  1.00  0.00     0.027 A 
ATOM     15  C   UNL A   1      38.491  29.414  33.298  1.00  0.00     0.041 A 
BRANCH  15  16
ATOM     16  N   UNL A   1      38.171  30.071  34.501  1.00  0.00    -0.322 N 
ATOM     17  C   UNL A   1      38.005  31.397  34.830  1.00  0.00     0.255 C 
ATOM     18  H   UNL A   1      38.039  29.458  35.259  1.00  0.00     0.170 HD
ATOM     19  O   UNL A   1      38.032  31.736  36.013  1.00  0.00    -0.269 OA
BRANCH  17  20
ATOM     20  C   UNL A   1      37.721  32.440  33.819  1.00  0.00     0.041 A 
ATOM     21  C   UNL A   1      38.642  32.638  32.784  1.00  0.00     0.027 A 
ATOM     22  C   UNL A   1      36.591  33.260  33.914  1.00  0.00     0.027 A 
ATOM     23  C   UNL A   1      38.415  33.615  31.801  1.00  0.00     0.057 A 
ATOM     24  C   UNL A   1      36.320  34.211  32.918  1.00  0.00     0.057 A 
ATOM     25  C   UNL A   1      37.243  34.385  31.872  1.00  0.00     0.026 A 
BRANCH  23  26
ATOM     26  C   UNL A   1      39.415  33.811  30.685  1.00  0.00     0.416 C 
ATOM     27  F   UNL A   1      40.409  32.883  30.704  1.00  0.00    -0.166 F 
ATOM     28  F   UNL A   1      38.838  33.726  29.456  1.00  0.00    -0.166 F 
ATOM     29  F   UNL A   1      40.033  35.024  30.724  1.00  0.00    -0.166 F 
ENDBRANCH  23  26
BRANCH  24  30
ATOM     30  C   UNL A   1      35.050  35.026  32.954  1.00  0.00     0.416 C 
ATOM     31  F   UNL A   1      34.465  35.031  34.182  1.00  0.00    -0.166 F 
ATOM     32  F   UNL A   1      35.262  36.332  32.631  1.00  0.00    -0.166 F 
ATOM     33  F   UNL A   1      34.103  34.576  32.089  1.00  0.00    -0.166 F 
ENDBRANCH  24  30
ENDBRANCH  17  20
ENDBRANCH  15  16
ENDBRANCH   9  10
ENDBRANCH   6   8
ENDBRANCH   5   6
ENDBRANCH   4   5
ENDBRANCH   3   4
ENDBRANCH   2   3
ENDBRANCH   1   2
BRANCH   1  34
ATOM     34  C   UNL A   1      44.389  24.143  30.733  1.00  0.00     0.188 C 
BRANCH  34  35
ATOM     35  O   UNL A   1      44.317  24.092  32.147  1.00  0.00    -0.376 OA
BRANCH  35  36
ATOM     36  C   UNL A   1      43.792  22.943  32.794  1.00  0.00     0.202 C 
BRANCH  36  37
ATOM     37  C   UNL A   1      44.245  22.628  34.222  1.00  0.00     0.261 C 
BRANCH  37  38
ATOM     38  O   UNL A   1      43.385  23.194  35.224  1.00  0.00    -0.460 OA
BRANCH  38  39
ATOM     39  C   UNL A   1      43.976  24.065  36.076  1.00  0.00     0.338 C 
ATOM     40  O   UNL A   1      44.665  23.807  37.046  1.00  0.00    -0.246 OA
BRANCH  39  41
ATOM     41  C   UNL A   1      43.760  25.446  35.609  1.00  0.00     0.060 A 
ATOM     42  C   UNL A   1      42.530  25.766  35.021  1.00  0.00     0.016 A 
ATOM     43  C   UNL A   1      44.793  26.382  35.648  1.00  0.00     0.016 A 
ATOM     44  C   UNL A   1      42.344  27.019  34.436  1.00  0.00     0.010 A 
ATOM     45  C   UNL A   1      44.606  27.637  35.064  1.00  0.00     0.010 A 
ATOM     46  C   UNL A   1      43.394  27.947  34.421  1.00  0.00    -0.014 A 
BRANCH  46  47
ATOM     47  C   UNL A   1      43.306  29.167  33.583  1.00  0.00     0.031 A 
ATOM     48  C   UNL A   1      43.611  29.055  32.116  1.00  0.00     0.074 A 
ATOM     49  C   UNL A   1      42.984  30.357  34.117  1.00  0.00     0.049 A 
ATOM     50  N   UNL A   1      43.706  29.996  31.210  1.00  0.00    -0.248 NA
ATOM     51  C   UNL A   1      43.852  27.698  31.602  1.00  0.00     0.031 C 
ATOM     52  C   UNL A   1      42.636  30.589  35.516  1.00  0.00     0.029 A 
ATOM     53  N   UNL A   1      42.919  31.600  33.539  1.00  0.00    -0.354 N 
ATOM     54  C   UNL A   1      44.034  29.346  30.028  1.00  0.00     0.074 A 
ATOM     55  C   UNL A   1      44.142  27.935  30.331  1.00  0.00     0.031 C 
ATOM     56  C   UNL A   1      42.418  31.902  35.696  1.00  0.00     0.029 A 
ATOM     57  C   UNL A   1      42.647  32.606  34.433  1.00  0.00     0.049 A 
ATOM     58  H   UNL A   1      43.054  31.757  32.576  1.00  0.00     0.167 HD
ATOM     59  C   UNL A   1      44.226  29.878  28.797  1.00  0.00     0.037 A 
ATOM     60  C   UNL A   1      42.623  33.942  34.257  1.00  0.00     0.037 A 
ATOM     61  C   UNL A   1      44.108  31.278  28.492  1.00  0.00     0.049 A 
ATOM     62  C   UNL A   1      42.894  34.519  32.890  1.00  0.00     0.074 A 
ATOM     63  C   UNL A   1      44.240  31.909  27.268  1.00  0.00     0.029 A 
ATOM     64  N   UNL A   1      43.839  32.267  29.426  1.00  0.00    -0.354 N 
ATOM     65  N   UNL A   1      43.168  33.896  31.770  1.00  0.00    -0.248 NA
ATOM     66  C   UNL A   1      42.855  35.983  32.765  1.00  0.00     0.031 C 
ATOM     67  C   UNL A   1      44.100  33.286  27.469  1.00  0.00     0.029 A 
ATOM     68  C   UNL A   1      43.833  33.508  28.811  1.00  0.00     0.049 A 
ATOM     69  H   UNL A   1      43.678  32.110  30.385  1.00  0.00     0.167 HD
ATOM     70  C   UNL A   1      43.309  34.887  30.804  1.00  0.00     0.074 A 
ATOM     71  C   UNL A   1      43.084  36.153  31.470  1.00  0.00     0.031 C 
ATOM     72  C   UNL A   1      43.597  34.758  29.486  1.00  0.00     0.037 A 
BRANCH  59  73
ATOM     73  C   UNL A   1      44.614  28.940  27.694  1.00  0.00     0.064 A 
ATOM     74  C   UNL A   1      45.925  28.462  27.557  1.00  0.00     0.173 A 
ATOM     75  C   UNL A   1      43.653  28.500  26.771  1.00  0.00     0.173 A 
ATOM     76  F   UNL A   1      46.883  28.865  28.406  1.00  0.00    -0.203 F 
ATOM     77  C   UNL A   1      46.267  27.598  26.520  1.00  0.00     0.198 A 
ATOM     78  C   UNL A   1      43.993  27.616  25.751  1.00  0.00     0.198 A 
ATOM     79  F   UNL A   1      42.384  28.926  26.861  1.00  0.00    -0.203 F 
ATOM     80  F   UNL A   1      47.536  27.191  26.379  1.00  0.00    -0.200 F 
ATOM     81  C   UNL A   1      45.300  27.172  25.621  1.00  0.00     0.200 A 
ATOM     82  F   UNL A   1      43.055  27.198  24.889  1.00  0.00    -0.200 F 
ATOM     83  F   UNL A   1      45.630  26.340  24.624  1.00  0.00    -0.200 F 
ENDBRANCH  59  73
BRANCH  60  84
ATOM     84  C   UNL A   1      42.360  34.830  35.419  1.00  0.00     0.064 A 
ATOM     85  C   UNL A   1      41.053  35.179  35.783  1.00  0.00     0.173 A 
ATOM     86  C   UNL A   1      43.413  35.343  36.191  1.00  0.00     0.173 A 
ATOM     87  F   UNL A   1      40.015  34.729  35.063  1.00  0.00    -0.203 F 
ATOM     88  C   UNL A   1      40.809  36.019  36.868  1.00  0.00     0.198 A 
ATOM     89  C   UNL A   1      43.167  36.160  37.292  1.00  0.00     0.198 A 
ATOM     90  F   UNL A   1      44.683  35.030  35.893  1.00  0.00    -0.203 F 
ATOM     91  F   UNL A   1      39.552  36.365  37.175  1.00  0.00    -0.200 F 
ATOM     92  C   UNL A   1      41.866  36.504  37.625  1.00  0.00     0.200 A 
ATOM     93  F   UNL A   1      44.190  36.606  38.033  1.00  0.00    -0.200 F 
ATOM     94  F   UNL A   1      41.631  37.301  38.675  1.00  0.00    -0.200 F 
ENDBRANCH  60  84
BRANCH  72  95
ATOM     95  C   UNL A   1      43.657  36.010  28.660  1.00  0.00     0.064 A 
ATOM     96  C   UNL A   1      44.866  36.682  28.433  1.00  0.00     0.173 A 
ATOM     97  C   UNL A   1      42.502  36.501  28.031  1.00  0.00     0.173 A 
ATOM     98  F   UNL A   1      45.994  36.260  29.023  1.00  0.00    -0.203 F 
ATOM     99  C   UNL A   1      44.916  37.807  27.613  1.00  0.00     0.198 A 
ATOM    100  C   UNL A   1      42.559  37.610  27.193  1.00  0.00     0.198 A 
ATOM    101  F   UNL A   1      41.323  35.889  28.212  1.00  0.00    -0.203 F 
ATOM    102  F   UNL A   1      46.076  38.452  27.432  1.00  0.00    -0.200 F 
ATOM    103  C   UNL A   1      43.765  38.264  26.987  1.00  0.00     0.200 A 
ATOM    104  F   UNL A   1      41.449  38.043  26.579  1.00  0.00    -0.200 F 
ATOM    105  F   UNL A   1      43.817  39.339  26.187  1.00  0.00    -0.200 F 
ENDBRANCH  72  95
ENDBRANCH  46  47
ENDBRANCH  39  41
ENDBRANCH  38  39
ENDBRANCH  37  38
ENDBRANCH  36  37
ENDBRANCH  35  36
ENDBRANCH  34  35
ENDBRANCH   1  34
TORSDOF 22
ENDMDL
MODEL 3
REMARK VINA RESULT:      -8.4      5.695     10.296
REMARK SMILES O=C(/C=C/c1ccc(NC(=O)c2cc(C(F)(F)F)cc(C(F)(F)F)c2)cc1)OCCOCCOCCOC(=O)c1ccc(-c2c3nc(c(-c4c(F)c(F)c(F)c(F)c4F)c4ccc([nH]4)c(-c4c(F)c(F)c(F)c(F)c4F)c4nc(c(-c5c(F)c(F)c(F)c(F)c5F)c5ccc2[nH]5)C=C4)C=C3)cc1
REMARK SMILES IDX 32 1 31 2 30 3 29 4 28 5 2 6 1 7 3 8 4 9 5 10 6 11 27 12
REMARK SMILES IDX 7 13 26 14 8 15 9 16 10 17 11 19 12 20 13 21 25 22 14 23
REMARK SMILES IDX 20 24 19 25 15 26 16 27 17 28 18 29 21 30 22 31 23 32 24 33
REMARK SMILES IDX 33 34 34 35 35 36 36 37 37 38 38 39 39 40 40 41 41 42 102 43
REMARK SMILES IDX 42 44 101 45 43 46 44 47 45 48 95 49 46 50 100 51 94 52
REMARK SMILES IDX 96 53 47 54 99 55 93 56 92 57 48 59 80 60 60 61 79 62 61 63
REMARK SMILES IDX 64 64 78 65 97 66 62 67 63 68 77 70 98 71 65 72 49 73 50 74
REMARK SMILES IDX 58 75 51 76 52 77 56 78 59 79 53 80 54 81 57 82 55 83 81 84
REMARK SMILES IDX 82 85 90 86 83 87 84 88 88 89 91 90 85 91 86 92 89 93 87 94
REMARK SMILES IDX 66 95 67 96 75 97 68 98 69 99 73 100 76 101 70 102 71 103
REMARK SMILES IDX 74 104 72 105
REMARK H PARENT 9 18 96 58 64 69
REMARK Flexibility Score: inf
ROOT
ATOM      1  C   UNL A   1      34.053  34.251  31.466  1.00  0.00     0.188 C 
ENDROOT
BRANCH   1   2
ATOM      2  O   UNL A   1      34.028  33.104  30.642  1.00  0.00    -0.376 OA
BRANCH   2   3
ATOM      3  C   UNL A   1      34.730  33.037  29.418  1.00  0.00     0.202 C 
BRANCH   3   4
ATOM      4  C   UNL A   1      34.013  32.875  28.075  1.00  0.00     0.261 C 
BRANCH   4   5
ATOM      5  O   UNL A   1      33.573  31.558  27.727  1.00  0.00    -0.460 OA
BRANCH   5   6
ATOM      6  C   UNL A   1      32.531  31.402  26.877  1.00  0.00     0.330 C 
ATOM      7  O   UNL A   1      31.437  31.918  27.058  1.00  0.00    -0.247 OA
BRANCH   6   8
ATOM      8  C   UNL A   1      32.692  30.242  25.987  1.00  0.00     0.094 C 
ATOM      9  C   UNL A   1      31.667  29.717  25.305  1.00  0.00     0.015 C 
BRANCH   9  10
ATOM     10  C   UNL A   1      31.851  28.629  24.340  1.00  0.00    -0.025 A 
ATOM     11  C   UNL A   1      30.720  28.022  23.787  1.00  0.00     0.010 A 
ATOM     12  C   UNL A   1      33.113  28.150  23.980  1.00  0.00     0.010 A 
ATOM     13  C   UNL A   1      30.845  26.963  22.881  1.00  0.00     0.027 A 
ATOM     14  C   UNL A   1      33.235  27.100  23.061  1.00  0.00     0.027 A 
ATOM     15  C   UNL A   1      32.103  26.513  22.483  1.00  0.00     0.041 A 
BRANCH  15  16
ATOM     16  N   UNL A   1      32.322  25.457  21.579  1.00  0.00    -0.322 N 
ATOM     17  C   UNL A   1      32.948  24.236  21.696  1.00  0.00     0.255 C 
ATOM     18  H   UNL A   1      31.954  25.624  20.682  1.00  0.00     0.170 HD
ATOM     19  O   UNL A   1      33.278  23.624  20.681  1.00  0.00    -0.269 OA
BRANCH  17  20
ATOM     20  C   UNL A   1      33.182  23.583  23.003  1.00  0.00     0.041 A 
ATOM     21  C   UNL A   1      32.171  23.638  23.970  1.00  0.00     0.027 A 
ATOM     22  C   UNL A   1      34.404  22.971  23.305  1.00  0.00     0.027 A 
ATOM     23  C   UNL A   1      32.348  23.033  25.225  1.00  0.00     0.057 A 
ATOM     24  C   UNL A   1      34.585  22.319  24.535  1.00  0.00     0.057 A 
ATOM     25  C   UNL A   1      33.555  22.365  25.489  1.00  0.00     0.026 A 
BRANCH  23  26
ATOM     26  C   UNL A   1      31.244  23.095  26.255  1.00  0.00     0.416 C 
ATOM     27  F   UNL A   1      30.350  22.078  26.127  1.00  0.00    -0.166 F 
ATOM     28  F   UNL A   1      31.722  23.023  27.527  1.00  0.00    -0.166 F 
ATOM     29  F   UNL A   1      30.516  24.244  26.195  1.00  0.00    -0.166 F 
ENDBRANCH  23  26
BRANCH  24  30
ATOM     30  C   UNL A   1      35.859  21.566  24.828  1.00  0.00     0.416 C 
ATOM     31  F   UNL A   1      36.351  21.830  26.068  1.00  0.00    -0.166 F 
ATOM     32  F   UNL A   1      35.691  20.216  24.768  1.00  0.00    -0.166 F 
ATOM     33  F   UNL A   1      36.862  21.855  23.957  1.00  0.00    -0.166 F 
ENDBRANCH  24  30
ENDBRANCH  17  20
ENDBRANCH  15  16
ENDBRANCH   9  10
ENDBRANCH   6   8
ENDBRANCH   5   6
ENDBRANCH   4   5
ENDBRANCH   3   4
ENDBRANCH   2   3
ENDBRANCH   1   2
BRANCH   1  34
ATOM     34  C   UNL A   1      35.372  34.949  31.818  1.00  0.00     0.188 C 
BRANCH  34  35
ATOM     35  O   UNL A   1      35.744  35.159  33.169  1.00  0.00    -0.376 OA
BRANCH  35  36
ATOM     36  C   UNL A   1      35.728  34.079  34.089  1.00  0.00     0.202 C 
BRANCH  36  37
ATOM     37  C   UNL A   1      37.050  33.396  34.450  1.00  0.00     0.261 C 
BRANCH  37  38
ATOM     38  O   UNL A   1      37.013  31.969  34.279  1.00  0.00    -0.460 OA
BRANCH  38  39
ATOM     39  C   UNL A   1      36.769  31.540  33.019  1.00  0.00     0.338 C 
ATOM     40  O   UNL A   1      35.690  31.291  32.512  1.00  0.00    -0.246 OA
BRANCH  39  41
ATOM     41  C   UNL A   1      38.027  31.497  32.252  1.00  0.00     0.060 A 
ATOM     42  C   UNL A   1      38.005  31.900  30.911  1.00  0.00     0.016 A 
ATOM     43  C   UNL A   1      39.186  30.963  32.813  1.00  0.00     0.016 A 
ATOM     44  C   UNL A   1      39.139  31.735  30.116  1.00  0.00     0.010 A 
ATOM     45  C   UNL A   1      40.323  30.799  32.018  1.00  0.00     0.010 A 
ATOM     46  C   UNL A   1      40.291  31.147  30.655  1.00  0.00    -0.014 A 
BRANCH  46  47
ATOM     47  C   UNL A   1      41.403  30.724  29.771  1.00  0.00     0.031 A 
ATOM     48  C   UNL A   1      41.365  29.344  29.178  1.00  0.00     0.074 A 
ATOM     49  C   UNL A   1      42.440  31.541  29.515  1.00  0.00     0.049 A 
ATOM     50  N   UNL A   1      42.269  28.716  28.468  1.00  0.00    -0.248 NA
ATOM     51  C   UNL A   1      40.145  28.560  29.427  1.00  0.00     0.031 C 
ATOM     52  C   UNL A   1      42.577  32.910  30.003  1.00  0.00     0.029 A 
ATOM     53  N   UNL A   1      43.586  31.319  28.793  1.00  0.00    -0.354 N 
ATOM     54  C   UNL A   1      41.733  27.462  28.204  1.00  0.00     0.074 A 
ATOM     55  C   UNL A   1      40.437  27.408  28.844  1.00  0.00     0.031 C 
ATOM     56  C   UNL A   1      43.756  33.401  29.587  1.00  0.00     0.029 A 
ATOM     57  C   UNL A   1      44.471  32.368  28.836  1.00  0.00     0.049 A 
ATOM     58  H   UNL A   1      43.758  30.489  28.292  1.00  0.00     0.167 HD
ATOM     59  C   UNL A   1      42.275  26.447  27.489  1.00  0.00     0.037 A 
ATOM     60  C   UNL A   1      45.726  32.466  28.355  1.00  0.00     0.037 A 
ATOM     61  C   UNL A   1      43.558  26.504  26.844  1.00  0.00     0.049 A 
ATOM     62  C   UNL A   1      46.331  31.304  27.610  1.00  0.00     0.074 A 
ATOM     63  C   UNL A   1      44.174  25.544  26.061  1.00  0.00     0.029 A 
ATOM     64  N   UNL A   1      44.428  27.581  26.917  1.00  0.00    -0.354 N 
ATOM     65  N   UNL A   1      45.806  30.135  27.333  1.00  0.00    -0.248 NA
ATOM     66  C   UNL A   1      47.705  31.473  27.112  1.00  0.00     0.031 C 
ATOM     67  C   UNL A   1      45.439  26.020  25.700  1.00  0.00     0.029 A 
ATOM     68  C   UNL A   1      45.590  27.296  26.219  1.00  0.00     0.049 A 
ATOM     69  H   UNL A   1      44.248  28.422  27.396  1.00  0.00     0.167 HD
ATOM     70  C   UNL A   1      46.770  29.442  26.610  1.00  0.00     0.074 A 
ATOM     71  C   UNL A   1      47.912  30.324  26.485  1.00  0.00     0.031 C 
ATOM     72  C   UNL A   1      46.715  28.189  26.096  1.00  0.00     0.037 A 
BRANCH  59  73
ATOM     73  C   UNL A   1      41.487  25.175  27.395  1.00  0.00     0.064 A 
ATOM     74  C   UNL A   1      40.357  25.064  26.573  1.00  0.00     0.173 A 
ATOM     75  C   UNL A   1      41.882  24.044  28.126  1.00  0.00     0.173 A 
ATOM     76  F   UNL A   1      39.930  26.122  25.865  1.00  0.00    -0.203 F 
ATOM     77  C   UNL A   1      39.633  23.877  26.506  1.00  0.00     0.198 A 
ATOM     78  C   UNL A   1      41.172  22.851  28.037  1.00  0.00     0.198 A 
ATOM     79  F   UNL A   1      42.959  24.098  28.925  1.00  0.00    -0.203 F 
ATOM     80  F   UNL A   1      38.529  23.807  25.751  1.00  0.00    -0.200 F 
ATOM     81  C   UNL A   1      40.045  22.769  27.235  1.00  0.00     0.200 A 
ATOM     82  F   UNL A   1      41.577  21.779  28.734  1.00  0.00    -0.200 F 
ATOM     83  F   UNL A   1      39.349  21.626  27.168  1.00  0.00    -0.200 F 
ENDBRANCH  59  73
BRANCH  60  84
ATOM     84  C   UNL A   1      46.507  33.707  28.593  1.00  0.00     0.064 A 
ATOM     85  C   UNL A   1      46.464  34.775  27.688  1.00  0.00     0.173 A 
ATOM     86  C   UNL A   1      47.309  33.851  29.735  1.00  0.00     0.173 A 
ATOM     87  F   UNL A   1      45.727  34.677  26.572  1.00  0.00    -0.203 F 
ATOM     88  C   UNL A   1      47.205  35.936  27.908  1.00  0.00     0.198 A 
ATOM     89  C   UNL A   1      48.027  35.021  29.969  1.00  0.00     0.198 A 
ATOM     90  F   UNL A   1      47.376  32.863  30.640  1.00  0.00    -0.203 F 
ATOM     91  F   UNL A   1      47.173  36.929  27.010  1.00  0.00    -0.200 F 
ATOM     92  C   UNL A   1      47.980  36.060  29.051  1.00  0.00     0.200 A 
ATOM     93  F   UNL A   1      48.756  35.144  31.086  1.00  0.00    -0.200 F 
ATOM     94  F   UNL A   1      48.682  37.180  29.270  1.00  0.00    -0.200 F 
ENDBRANCH  60  84
BRANCH  72  95
ATOM     95  C   UNL A   1      47.904  27.699  25.323  1.00  0.00     0.064 A 
ATOM     96  C   UNL A   1      47.947  27.766  23.924  1.00  0.00     0.173 A 
ATOM     97  C   UNL A   1      49.040  27.224  25.995  1.00  0.00     0.173 A 
ATOM     98  F   UNL A   1      46.880  28.199  23.235  1.00  0.00    -0.203 F 
ATOM     99  C   UNL A   1      49.082  27.365  23.223  1.00  0.00     0.198 A 
ATOM    100  C   UNL A   1      50.182  26.847  25.294  1.00  0.00     0.198 A 
ATOM    101  F   UNL A   1      49.051  27.147  27.334  1.00  0.00    -0.203 F 
ATOM    102  F   UNL A   1      49.092  27.409  21.884  1.00  0.00    -0.200 F 
ATOM    103  C   UNL A   1      50.201  26.915  23.909  1.00  0.00     0.200 A 
ATOM    104  F   UNL A   1      51.267  26.424  25.959  1.00  0.00    -0.200 F 
ATOM    105  F   UNL A   1      51.298  26.542  23.234  1.00  0.00    -0.200 F 
ENDBRANCH  72  95
ENDBRANCH  46  47
ENDBRANCH  39  41
ENDBRANCH  38  39
ENDBRANCH  37  38
ENDBRANCH  36  37
ENDBRANCH  35  36
ENDBRANCH  34  35
ENDBRANCH   1  34
TORSDOF 22
ENDMDL
