MODEL 1
REMARK VINA RESULT:     -10.8      0.000      0.000
REMARK SMILES Cc1c(Cl)cccc1NC(=O)C[C@H](C(=O)OCCOCCOCCOC(=O)c1ccc(-c2c3nc(c(-c4c(F)c(F)c(F)c(F)c4F)c4ccc([nH]4)c(-c4c(F)c(F)c(F)c(F)c4F)c4nc(c(-c5c(F)c(F)c(F)c(F)c5F)c5ccc2[nH]5)C=C4)C=C3)cc1)[C@H](C)c1ccccc1
REMARK SMILES IDX 20 1 19 2 18 3 17 4 16 5 14 6 15 7 13 8 12 9 10 10 9 11
REMARK SMILES IDX 11 13 8 14 1 15 2 16 3 17 4 18 5 19 7 20 6 21 91 22 92 23
REMARK SMILES IDX 93 24 94 25 98 26 95 27 97 28 96 29 21 30 22 31 23 32 24 33
REMARK SMILES IDX 25 34 26 35 27 36 28 37 29 38 90 39 30 40 89 41 31 42 32 43
REMARK SMILES IDX 33 44 83 45 34 46 88 47 82 48 84 49 35 50 87 51 81 52 80 53
REMARK SMILES IDX 36 55 68 56 48 57 67 58 49 59 52 60 66 61 85 62 50 63 51 64
REMARK SMILES IDX 65 66 86 67 53 68 37 69 38 70 46 71 39 72 40 73 44 74 47 75
REMARK SMILES IDX 41 76 42 77 45 78 43 79 69 80 70 81 78 82 71 83 72 84 76 85
REMARK SMILES IDX 79 86 73 87 74 88 77 89 75 90 54 91 55 92 63 93 56 94 57 95
REMARK SMILES IDX 61 96 64 97 58 98 59 99 62 100 60 101
REMARK H PARENT 9 12 84 54 52 65
REMARK Flexibility Score: inf
ROOT
ATOM      1  C   UNL A   1      34.553  31.684  28.587  1.00  0.00     0.188 C 
ENDROOT
BRANCH   1   2
ATOM      2  O   UNL A   1      33.426  31.289  27.827  1.00  0.00    -0.376 OA
BRANCH   2   3
ATOM      3  C   UNL A   1      33.553  30.067  27.108  1.00  0.00     0.202 C 
BRANCH   3   4
ATOM      4  C   UNL A   1      32.694  29.922  25.841  1.00  0.00     0.261 C 
BRANCH   4   5
ATOM      5  O   UNL A   1      33.251  29.077  24.805  1.00  0.00    -0.463 OA
BRANCH   5   6
ATOM      6  C   UNL A   1      32.429  28.107  24.306  1.00  0.00     0.310 C 
ATOM      7  O   UNL A   1      31.475  28.331  23.570  1.00  0.00    -0.252 OA
BRANCH   6   8
ATOM      8  C   UNL A   1      32.784  26.691  24.793  1.00  0.00     0.116 C 
BRANCH   8   9
ATOM      9  C   UNL A   1      31.723  26.192  25.797  1.00  0.00     0.116 C 
BRANCH   9  10
ATOM     10  C   UNL A   1      30.655  25.189  25.433  1.00  0.00     0.225 C 
ATOM     11  N   UNL A   1      30.835  23.837  25.413  1.00  0.00    -0.326 N 
ATOM     12  H   UNL A   1      30.089  23.343  25.004  1.00  0.00     0.169 HD
ATOM     13  O   UNL A   1      29.528  25.602  25.132  1.00  0.00    -0.275 OA
BRANCH  11  14
ATOM     14  C   UNL A   1      31.885  23.008  25.862  1.00  0.00     0.045 A 
ATOM     15  C   UNL A   1      31.849  21.758  23.608  1.00  0.00     0.048 C 
ATOM     16  C   UNL A   1      32.358  21.973  25.015  1.00  0.00    -0.009 A 
ATOM     17  C   UNL A   1      33.247  21.018  25.560  1.00  0.00     0.046 A 
ATOM     18  Cl  UNL A   1      33.802  19.659  24.641  1.00  0.00    -0.084 Cl
ATOM     19  C   UNL A   1      33.677  21.097  26.885  1.00  0.00     0.021 A 
ATOM     20  C   UNL A   1      32.397  23.109  27.157  1.00  0.00     0.026 A 
ATOM     21  C   UNL A   1      33.269  22.157  27.677  1.00  0.00     0.004 A 
ENDBRANCH  11  14
ENDBRANCH   9  10
ENDBRANCH   8   9
BRANCH   8  22
ATOM     22  C   UNL A   1      33.317  25.929  23.543  1.00  0.00     0.031 C 
ATOM     23  C   UNL A   1      32.366  25.259  22.558  1.00  0.00     0.013 C 
BRANCH  22  24
ATOM     24  C   UNL A   1      34.344  24.878  23.989  1.00  0.00    -0.044 A 
ATOM     25  C   UNL A   1      34.878  24.927  25.284  1.00  0.00     0.004 A 
ATOM     26  C   UNL A   1      34.762  23.846  23.130  1.00  0.00     0.004 A 
ATOM     27  C   UNL A   1      35.838  24.001  25.691  1.00  0.00     0.000 A 
ATOM     28  C   UNL A   1      35.736  22.933  23.532  1.00  0.00     0.000 A 
ATOM     29  C   UNL A   1      36.279  23.016  24.811  1.00  0.00     0.000 A 
ENDBRANCH  22  24
ENDBRANCH   8  22
ENDBRANCH   6   8
ENDBRANCH   5   6
ENDBRANCH   4   5
ENDBRANCH   3   4
ENDBRANCH   2   3
ENDBRANCH   1   2
BRANCH   1  30
ATOM     30  C   UNL A   1      34.756  33.184  28.784  1.00  0.00     0.188 C 
BRANCH  30  31
ATOM     31  O   UNL A   1      33.839  34.055  28.136  1.00  0.00    -0.376 OA
BRANCH  31  32
ATOM     32  C   UNL A   1      34.009  35.451  28.425  1.00  0.00     0.202 C 
BRANCH  32  33
ATOM     33  C   UNL A   1      32.944  36.136  29.307  1.00  0.00     0.261 C 
BRANCH  33  34
ATOM     34  O   UNL A   1      32.401  35.313  30.362  1.00  0.00    -0.460 OA
BRANCH  34  35
ATOM     35  C   UNL A   1      32.605  35.716  31.644  1.00  0.00     0.338 C 
ATOM     36  O   UNL A   1      31.847  36.369  32.322  1.00  0.00    -0.246 OA
BRANCH  35  37
ATOM     37  C   UNL A   1      33.785  34.964  32.175  1.00  0.00     0.060 A 
ATOM     38  C   UNL A   1      35.044  35.587  32.128  1.00  0.00     0.016 A 
ATOM     39  C   UNL A   1      33.655  33.723  32.807  1.00  0.00     0.016 A 
ATOM     40  C   UNL A   1      36.170  34.953  32.666  1.00  0.00     0.010 A 
ATOM     41  C   UNL A   1      34.783  33.086  33.337  1.00  0.00     0.010 A 
ATOM     42  C   UNL A   1      36.054  33.679  33.237  1.00  0.00    -0.014 A 
BRANCH  42  43
ATOM     43  C   UNL A   1      37.273  32.867  33.505  1.00  0.00     0.031 A 
ATOM     44  C   UNL A   1      38.015  33.119  34.792  1.00  0.00     0.074 A 
ATOM     45  C   UNL A   1      37.716  31.916  32.661  1.00  0.00     0.049 A 
ATOM     46  N   UNL A   1      39.132  32.599  35.232  1.00  0.00    -0.248 NA
ATOM     47  C   UNL A   1      37.407  34.101  35.705  1.00  0.00     0.031 C 
ATOM     48  C   UNL A   1      37.075  31.525  31.411  1.00  0.00     0.029 A 
ATOM     49  N   UNL A   1      38.827  31.110  32.739  1.00  0.00    -0.354 N 
ATOM     50  C   UNL A   1      39.363  33.195  36.465  1.00  0.00     0.074 A 
ATOM     51  C   UNL A   1      38.291  34.140  36.689  1.00  0.00     0.031 C 
ATOM     52  C   UNL A   1      37.808  30.555  30.831  1.00  0.00     0.029 A 
ATOM     53  C   UNL A   1      38.990  30.285  31.652  1.00  0.00     0.049 A 
ATOM     54  H   UNL A   1      39.450  31.121  33.502  1.00  0.00     0.167 HD
ATOM     55  C   UNL A   1      40.370  32.971  37.343  1.00  0.00     0.037 A 
ATOM     56  C   UNL A   1      39.988  29.431  31.346  1.00  0.00     0.037 A 
ATOM     57  C   UNL A   1      41.440  32.034  37.130  1.00  0.00     0.049 A 
ATOM     58  C   UNL A   1      41.152  29.264  32.296  1.00  0.00     0.074 A 
ATOM     59  C   UNL A   1      42.500  31.732  37.968  1.00  0.00     0.029 A 
ATOM     60  N   UNL A   1      41.592  31.253  35.995  1.00  0.00    -0.354 N 
ATOM     61  N   UNL A   1      41.357  29.820  33.466  1.00  0.00    -0.248 NA
ATOM     62  C   UNL A   1      42.227  28.349  31.877  1.00  0.00     0.031 C 
ATOM     63  C   UNL A   1      43.325  30.812  37.313  1.00  0.00     0.029 A 
ATOM     64  C   UNL A   1      42.747  30.491  36.096  1.00  0.00     0.049 A 
ATOM     65  H   UNL A   1      40.972  31.240  35.230  1.00  0.00     0.167 HD
ATOM     66  C   UNL A   1      42.558  29.299  33.934  1.00  0.00     0.074 A 
ATOM     67  C   UNL A   1      43.033  28.374  32.930  1.00  0.00     0.031 C 
ATOM     68  C   UNL A   1      43.208  29.563  35.095  1.00  0.00     0.037 A 
BRANCH  55  69
ATOM     69  C   UNL A   1      40.380  33.788  38.600  1.00  0.00     0.064 A 
ATOM     70  C   UNL A   1      39.632  33.421  39.729  1.00  0.00     0.173 A 
ATOM     71  C   UNL A   1      41.159  34.953  38.681  1.00  0.00     0.173 A 
ATOM     72  F   UNL A   1      38.855  32.327  39.697  1.00  0.00    -0.203 F 
ATOM     73  C   UNL A   1      39.638  34.205  40.880  1.00  0.00     0.198 A 
ATOM     74  C   UNL A   1      41.190  35.715  39.845  1.00  0.00     0.198 A 
ATOM     75  F   UNL A   1      41.894  35.348  37.631  1.00  0.00    -0.203 F 
ATOM     76  F   UNL A   1      38.870  33.866  41.924  1.00  0.00    -0.200 F 
ATOM     77  C   UNL A   1      40.422  35.347  40.939  1.00  0.00     0.200 A 
ATOM     78  F   UNL A   1      41.959  36.812  39.904  1.00  0.00    -0.200 F 
ATOM     79  F   UNL A   1      40.431  36.100  42.048  1.00  0.00    -0.200 F 
ENDBRANCH  55  69
BRANCH  56  80
ATOM     80  C   UNL A   1      39.956  28.671  30.066  1.00  0.00     0.064 A 
ATOM     81  C   UNL A   1      39.381  27.393  29.992  1.00  0.00     0.173 A 
ATOM     82  C   UNL A   1      40.544  29.186  28.900  1.00  0.00     0.173 A 
ATOM     83  F   UNL A   1      38.842  26.838  31.087  1.00  0.00    -0.203 F 
ATOM     84  C   UNL A   1      39.409  26.656  28.808  1.00  0.00     0.198 A 
ATOM     85  C   UNL A   1      40.544  28.461  27.710  1.00  0.00     0.198 A 
ATOM     86  F   UNL A   1      41.122  30.396  28.918  1.00  0.00    -0.203 F 
ATOM     87  F   UNL A   1      38.903  25.416  28.783  1.00  0.00    -0.200 F 
ATOM     88  C   UNL A   1      39.984  27.193  27.667  1.00  0.00     0.200 A 
ATOM     89  F   UNL A   1      41.097  28.986  26.608  1.00  0.00    -0.200 F 
ATOM     90  F   UNL A   1      40.013  26.484  26.531  1.00  0.00    -0.200 F 
ENDBRANCH  56  80
BRANCH  68  91
ATOM     91  C   UNL A   1      44.484  28.816  35.372  1.00  0.00     0.064 A 
ATOM     92  C   UNL A   1      45.737  29.319  34.988  1.00  0.00     0.173 A 
ATOM     93  C   UNL A   1      44.456  27.603  36.079  1.00  0.00     0.173 A 
ATOM     94  F   UNL A   1      45.821  30.469  34.303  1.00  0.00    -0.203 F 
ATOM     95  C   UNL A   1      46.908  28.623  35.279  1.00  0.00     0.198 A 
ATOM     96  C   UNL A   1      45.631  26.927  36.396  1.00  0.00     0.198 A 
ATOM     97  F   UNL A   1      43.287  27.081  36.479  1.00  0.00    -0.203 F 
ATOM     98  F   UNL A   1      48.089  29.100  34.860  1.00  0.00    -0.200 F 
ATOM     99  C   UNL A   1      46.856  27.434  35.988  1.00  0.00     0.200 A 
ATOM    100  F   UNL A   1      45.579  25.787  37.098  1.00  0.00    -0.200 F 
ATOM    101  F   UNL A   1      47.985  26.771  36.276  1.00  0.00    -0.200 F 
ENDBRANCH  68  91
ENDBRANCH  42  43
ENDBRANCH  35  37
ENDBRANCH  34  35
ENDBRANCH  33  34
ENDBRANCH  32  33
ENDBRANCH  31  32
ENDBRANCH  30  31
ENDBRANCH   1  30
TORSDOF 22
ENDMDL
MODEL 2
REMARK VINA RESULT:     -10.6      0.898      2.075
REMARK SMILES Cc1c(Cl)cccc1NC(=O)C[C@H](C(=O)OCCOCCOCCOC(=O)c1ccc(-c2c3nc(c(-c4c(F)c(F)c(F)c(F)c4F)c4ccc([nH]4)c(-c4c(F)c(F)c(F)c(F)c4F)c4nc(c(-c5c(F)c(F)c(F)c(F)c5F)c5ccc2[nH]5)C=C4)C=C3)cc1)[C@H](C)c1ccccc1
REMARK SMILES IDX 20 1 19 2 18 3 17 4 16 5 14 6 15 7 13 8 12 9 10 10 9 11
REMARK SMILES IDX 11 13 8 14 1 15 2 16 3 17 4 18 5 19 7 20 6 21 91 22 92 23
REMARK SMILES IDX 93 24 94 25 98 26 95 27 97 28 96 29 21 30 22 31 23 32 24 33
REMARK SMILES IDX 25 34 26 35 27 36 28 37 29 38 90 39 30 40 89 41 31 42 32 43
REMARK SMILES IDX 33 44 83 45 34 46 88 47 82 48 84 49 35 50 87 51 81 52 80 53
REMARK SMILES IDX 36 55 68 56 48 57 67 58 49 59 52 60 66 61 85 62 50 63 51 64
REMARK SMILES IDX 65 66 86 67 53 68 37 69 38 70 46 71 39 72 40 73 44 74 47 75
REMARK SMILES IDX 41 76 42 77 45 78 43 79 69 80 70 81 78 82 71 83 72 84 76 85
REMARK SMILES IDX 79 86 73 87 74 88 77 89 75 90 54 91 55 92 63 93 56 94 57 95
REMARK SMILES IDX 61 96 64 97 58 98 59 99 62 100 60 101
REMARK H PARENT 9 12 84 54 52 65
REMARK Flexibility Score: inf
ROOT
ATOM      1  C   UNL A   1      34.536  31.279  28.130  1.00  0.00     0.188 C 
ENDROOT
BRANCH   1   2
ATOM      2  O   UNL A   1      33.698  31.199  26.992  1.00  0.00    -0.376 OA
BRANCH   2   3
ATOM      3  C   UNL A   1      32.614  30.280  27.077  1.00  0.00     0.202 C 
BRANCH   3   4
ATOM      4  C   UNL A   1      31.974  29.846  25.747  1.00  0.00     0.261 C 
BRANCH   4   5
ATOM      5  O   UNL A   1      32.676  28.803  25.030  1.00  0.00    -0.463 OA
BRANCH   5   6
ATOM      6  C   UNL A   1      31.987  28.190  24.023  1.00  0.00     0.310 C 
ATOM      7  O   UNL A   1      31.495  28.784  23.071  1.00  0.00    -0.252 OA
BRANCH   6   8
ATOM      8  C   UNL A   1      31.843  26.670  24.214  1.00  0.00     0.116 C 
BRANCH   8   9
ATOM      9  C   UNL A   1      31.830  25.961  22.843  1.00  0.00     0.116 C 
BRANCH   9  10
ATOM     10  C   UNL A   1      33.089  25.595  22.094  1.00  0.00     0.225 C 
ATOM     11  N   UNL A   1      33.822  24.466  22.314  1.00  0.00    -0.326 N 
ATOM     12  H   UNL A   1      34.692  24.461  21.853  1.00  0.00     0.169 HD
ATOM     13  O   UNL A   1      33.500  26.360  21.212  1.00  0.00    -0.275 OA
BRANCH  11  14
ATOM     14  C   UNL A   1      33.578  23.303  23.075  1.00  0.00     0.045 A 
ATOM     15  C   UNL A   1      36.058  23.254  23.776  1.00  0.00     0.048 C 
ATOM     16  C   UNL A   1      34.658  22.684  23.755  1.00  0.00    -0.009 A 
ATOM     17  C   UNL A   1      34.444  21.407  24.325  1.00  0.00     0.046 A 
ATOM     18  Cl  UNL A   1      35.724  20.522  25.087  1.00  0.00    -0.084 Cl
ATOM     19  C   UNL A   1      33.202  20.777  24.251  1.00  0.00     0.021 A 
ATOM     20  C   UNL A   1      32.326  22.686  23.090  1.00  0.00     0.026 A 
ATOM     21  C   UNL A   1      32.137  21.427  23.653  1.00  0.00     0.004 A 
ENDBRANCH  11  14
ENDBRANCH   9  10
ENDBRANCH   8   9
BRANCH   8  22
ATOM     22  C   UNL A   1      32.728  26.306  25.444  1.00  0.00     0.031 C 
ATOM     23  C   UNL A   1      34.244  26.206  25.327  1.00  0.00     0.013 C 
BRANCH  22  24
ATOM     24  C   UNL A   1      32.220  24.997  26.065  1.00  0.00    -0.044 A 
ATOM     25  C   UNL A   1      33.126  24.104  26.654  1.00  0.00     0.004 A 
ATOM     26  C   UNL A   1      30.853  24.668  26.071  1.00  0.00     0.004 A 
ATOM     27  C   UNL A   1      32.682  22.895  27.189  1.00  0.00     0.000 A 
ATOM     28  C   UNL A   1      30.415  23.449  26.588  1.00  0.00     0.000 A 
ATOM     29  C   UNL A   1      31.331  22.560  27.141  1.00  0.00     0.000 A 
ENDBRANCH  22  24
ENDBRANCH   8  22
ENDBRANCH   6   8
ENDBRANCH   5   6
ENDBRANCH   4   5
ENDBRANCH   3   4
ENDBRANCH   2   3
ENDBRANCH   1   2
BRANCH   1  30
ATOM     30  C   UNL A   1      34.614  32.634  28.830  1.00  0.00     0.188 C 
BRANCH  30  31
ATOM     31  O   UNL A   1      33.518  33.520  28.654  1.00  0.00    -0.376 OA
BRANCH  31  32
ATOM     32  C   UNL A   1      33.861  34.913  28.577  1.00  0.00     0.202 C 
BRANCH  32  33
ATOM     33  C   UNL A   1      33.081  35.893  29.478  1.00  0.00     0.261 C 
BRANCH  33  34
ATOM     34  O   UNL A   1      32.363  35.281  30.572  1.00  0.00    -0.460 OA
BRANCH  34  35
ATOM     35  C   UNL A   1      32.626  35.729  31.828  1.00  0.00     0.338 C 
ATOM     36  O   UNL A   1      31.910  36.425  32.509  1.00  0.00    -0.246 OA
BRANCH  35  37
ATOM     37  C   UNL A   1      33.810  34.972  32.342  1.00  0.00     0.060 A 
ATOM     38  C   UNL A   1      35.055  35.623  32.365  1.00  0.00     0.016 A 
ATOM     39  C   UNL A   1      33.693  33.692  32.894  1.00  0.00     0.016 A 
ATOM     40  C   UNL A   1      36.182  34.982  32.891  1.00  0.00     0.010 A 
ATOM     41  C   UNL A   1      34.823  33.047  33.413  1.00  0.00     0.010 A 
ATOM     42  C   UNL A   1      36.082  33.672  33.381  1.00  0.00    -0.014 A 
BRANCH  42  43
ATOM     43  C   UNL A   1      37.312  32.872  33.630  1.00  0.00     0.031 A 
ATOM     44  C   UNL A   1      38.063  33.120  34.913  1.00  0.00     0.074 A 
ATOM     45  C   UNL A   1      37.759  31.935  32.773  1.00  0.00     0.049 A 
ATOM     46  N   UNL A   1      39.190  32.609  35.338  1.00  0.00    -0.248 NA
ATOM     47  C   UNL A   1      37.452  34.086  35.841  1.00  0.00     0.031 C 
ATOM     48  C   UNL A   1      37.111  31.548  31.524  1.00  0.00     0.029 A 
ATOM     49  N   UNL A   1      38.880  31.141  32.833  1.00  0.00    -0.354 N 
ATOM     50  C   UNL A   1      39.425  33.195  36.575  1.00  0.00     0.074 A 
ATOM     51  C   UNL A   1      38.344  34.126  36.817  1.00  0.00     0.031 C 
ATOM     52  C   UNL A   1      37.849  30.594  30.929  1.00  0.00     0.029 A 
ATOM     53  C   UNL A   1      39.042  30.329  31.737  1.00  0.00     0.049 A 
ATOM     54  H   UNL A   1      39.509  31.152  33.590  1.00  0.00     0.167 HD
ATOM     55  C   UNL A   1      40.442  32.974  37.441  1.00  0.00     0.037 A 
ATOM     56  C   UNL A   1      40.047  29.489  31.412  1.00  0.00     0.037 A 
ATOM     57  C   UNL A   1      41.521  32.051  37.209  1.00  0.00     0.049 A 
ATOM     58  C   UNL A   1      41.221  29.327  32.350  1.00  0.00     0.074 A 
ATOM     59  C   UNL A   1      42.592  31.753  38.035  1.00  0.00     0.029 A 
ATOM     60  N   UNL A   1      41.672  31.283  36.065  1.00  0.00    -0.354 N 
ATOM     61  N   UNL A   1      41.431  29.873  33.524  1.00  0.00    -0.248 NA
ATOM     62  C   UNL A   1      42.302  28.428  31.914  1.00  0.00     0.031 C 
ATOM     63  C   UNL A   1      43.422  30.850  37.364  1.00  0.00     0.029 A 
ATOM     64  C   UNL A   1      42.836  30.534  36.149  1.00  0.00     0.049 A 
ATOM     65  H   UNL A   1      41.045  31.271  35.306  1.00  0.00     0.167 HD
ATOM     66  C   UNL A   1      42.642  29.361  33.977  1.00  0.00     0.074 A 
ATOM     67  C   UNL A   1      43.118  28.452  32.959  1.00  0.00     0.031 C 
ATOM     68  C   UNL A   1      43.299  29.622  35.134  1.00  0.00     0.037 A 
BRANCH  55  69
ATOM     69  C   UNL A   1      40.454  33.779  38.706  1.00  0.00     0.064 A 
ATOM     70  C   UNL A   1      41.222  34.947  38.835  1.00  0.00     0.173 A 
ATOM     71  C   UNL A   1      39.676  33.382  39.804  1.00  0.00     0.173 A 
ATOM     72  F   UNL A   1      41.999  35.360  37.822  1.00  0.00    -0.203 F 
ATOM     73  C   UNL A   1      41.235  35.668  40.027  1.00  0.00     0.198 A 
ATOM     74  C   UNL A   1      39.664  34.124  40.982  1.00  0.00     0.198 A 
ATOM     75  F   UNL A   1      38.922  32.274  39.734  1.00  0.00    -0.203 F 
ATOM     76  F   UNL A   1      42.021  36.747  40.146  1.00  0.00    -0.200 F 
ATOM     77  C   UNL A   1      40.451  35.261  41.095  1.00  0.00     0.200 A 
ATOM     78  F   UNL A   1      38.897  33.736  42.009  1.00  0.00    -0.200 F 
ATOM     79  F   UNL A   1      40.462  35.957  42.240  1.00  0.00    -0.200 F 
ENDBRANCH  55  69
BRANCH  56  80
ATOM     80  C   UNL A   1      40.012  28.741  30.125  1.00  0.00     0.064 A 
ATOM     81  C   UNL A   1      39.404  27.481  30.033  1.00  0.00     0.173 A 
ATOM     82  C   UNL A   1      40.629  29.251  28.973  1.00  0.00     0.173 A 
ATOM     83  F   UNL A   1      38.835  26.931  31.115  1.00  0.00    -0.203 F 
ATOM     84  C   UNL A   1      39.428  26.754  28.843  1.00  0.00     0.198 A 
ATOM     85  C   UNL A   1      40.626  28.536  27.776  1.00  0.00     0.198 A 
ATOM     86  F   UNL A   1      41.240  30.444  29.009  1.00  0.00    -0.203 F 
ATOM     87  F   UNL A   1      38.890  25.528  28.799  1.00  0.00    -0.200 F 
ATOM     88  C   UNL A   1      40.033  27.285  27.714  1.00  0.00     0.200 A 
ATOM     89  F   UNL A   1      41.208  29.056  26.687  1.00  0.00    -0.200 F 
ATOM     90  F   UNL A   1      40.058  26.585  26.572  1.00  0.00    -0.200 F 
ENDBRANCH  56  80
BRANCH  68  91
ATOM     91  C   UNL A   1      44.585  28.887  35.392  1.00  0.00     0.064 A 
ATOM     92  C   UNL A   1      45.833  29.434  35.056  1.00  0.00     0.173 A 
ATOM     93  C   UNL A   1      44.572  27.638  36.034  1.00  0.00     0.173 A 
ATOM     94  F   UNL A   1      45.904  30.620  34.433  1.00  0.00    -0.203 F 
ATOM     95  C   UNL A   1      47.015  28.747  35.328  1.00  0.00     0.198 A 
ATOM     96  C   UNL A   1      45.756  26.970  36.334  1.00  0.00     0.198 A 
ATOM     97  F   UNL A   1      43.409  27.072  36.388  1.00  0.00    -0.203 F 
ATOM     98  F   UNL A   1      48.191  29.270  34.955  1.00  0.00    -0.200 F 
ATOM     99  C   UNL A   1      46.976  27.521  35.973  1.00  0.00     0.200 A 
ATOM    100  F   UNL A   1      45.717  25.793  36.975  1.00  0.00    -0.200 F 
ATOM    101  F   UNL A   1      48.114  26.868  36.245  1.00  0.00    -0.200 F 
ENDBRANCH  68  91
ENDBRANCH  42  43
ENDBRANCH  35  37
ENDBRANCH  34  35
ENDBRANCH  33  34
ENDBRANCH  32  33
ENDBRANCH  31  32
ENDBRANCH  30  31
ENDBRANCH   1  30
TORSDOF 22
ENDMDL
MODEL 3
REMARK VINA RESULT:     -10.6      2.516      4.468
REMARK SMILES Cc1c(Cl)cccc1NC(=O)C[C@H](C(=O)OCCOCCOCCOC(=O)c1ccc(-c2c3nc(c(-c4c(F)c(F)c(F)c(F)c4F)c4ccc([nH]4)c(-c4c(F)c(F)c(F)c(F)c4F)c4nc(c(-c5c(F)c(F)c(F)c(F)c5F)c5ccc2[nH]5)C=C4)C=C3)cc1)[C@H](C)c1ccccc1
REMARK SMILES IDX 20 1 19 2 18 3 17 4 16 5 14 6 15 7 13 8 12 9 10 10 9 11
REMARK SMILES IDX 11 13 8 14 1 15 2 16 3 17 4 18 5 19 7 20 6 21 91 22 92 23
REMARK SMILES IDX 93 24 94 25 98 26 95 27 97 28 96 29 21 30 22 31 23 32 24 33
REMARK SMILES IDX 25 34 26 35 27 36 28 37 29 38 90 39 30 40 89 41 31 42 32 43
REMARK SMILES IDX 33 44 83 45 34 46 88 47 82 48 84 49 35 50 87 51 81 52 80 53
REMARK SMILES IDX 36 55 68 56 48 57 67 58 49 59 52 60 66 61 85 62 50 63 51 64
REMARK SMILES IDX 65 66 86 67 53 68 37 69 38 70 46 71 39 72 40 73 44 74 47 75
REMARK SMILES IDX 41 76 42 77 45 78 43 79 69 80 70 81 78 82 71 83 72 84 76 85
REMARK SMILES IDX 79 86 73 87 74 88 77 89 75 90 54 91 55 92 63 93 56 94 57 95
REMARK SMILES IDX 61 96 64 97 58 98 59 99 62 100 60 101
REMARK H PARENT 9 12 84 54 52 65
REMARK Flexibility Score: inf
ROOT
ATOM      1  C   UNL A   1      33.814  29.168  26.269  1.00  0.00     0.188 C 
ENDROOT
BRANCH   1   2
ATOM      2  O   UNL A   1      34.219  27.963  25.646  1.00  0.00    -0.376 OA
BRANCH   2   3
ATOM      3  C   UNL A   1      33.467  26.802  25.983  1.00  0.00     0.202 C 
BRANCH   3   4
ATOM      4  C   UNL A   1      34.122  25.445  25.675  1.00  0.00     0.261 C 
BRANCH   4   5
ATOM      5  O   UNL A   1      33.237  24.300  25.731  1.00  0.00    -0.463 OA
BRANCH   5   6
ATOM      6  C   UNL A   1      33.803  23.112  26.095  1.00  0.00     0.310 C 
ATOM      7  O   UNL A   1      34.303  22.902  27.195  1.00  0.00    -0.252 OA
BRANCH   6   8
ATOM      8  C   UNL A   1      33.800  22.061  24.973  1.00  0.00     0.116 C 
BRANCH   8   9
ATOM      9  C   UNL A   1      33.813  22.755  23.594  1.00  0.00     0.116 C 
BRANCH   9  10
ATOM     10  C   UNL A   1      32.615  22.780  22.674  1.00  0.00     0.225 C 
ATOM     11  N   UNL A   1      31.918  23.902  22.340  1.00  0.00    -0.326 N 
ATOM     12  H   UNL A   1      31.077  23.720  21.861  1.00  0.00     0.169 HD
ATOM     13  O   UNL A   1      32.226  21.716  22.176  1.00  0.00    -0.275 OA
BRANCH  11  14
ATOM     14  C   UNL A   1      32.164  25.276  22.548  1.00  0.00     0.045 A 
ATOM     15  C   UNL A   1      29.805  25.536  23.555  1.00  0.00     0.048 C 
ATOM     16  C   UNL A   1      31.138  26.086  23.098  1.00  0.00    -0.009 A 
ATOM     17  C   UNL A   1      31.318  27.489  23.092  1.00  0.00     0.046 A 
ATOM     18  Cl  UNL A   1      30.083  28.570  23.646  1.00  0.00    -0.084 Cl
ATOM     19  C   UNL A   1      32.482  28.070  22.588  1.00  0.00     0.021 A 
ATOM     20  C   UNL A   1      33.350  25.880  22.128  1.00  0.00     0.026 A 
ATOM     21  C   UNL A   1      33.508  27.263  22.126  1.00  0.00     0.004 A 
ENDBRANCH  11  14
ENDBRANCH   9  10
ENDBRANCH   8   9
BRANCH   8  22
ATOM     22  C   UNL A   1      34.746  20.918  25.451  1.00  0.00     0.031 C 
ATOM     23  C   UNL A   1      36.250  20.983  25.211  1.00  0.00     0.013 C 
BRANCH  22  24
ATOM     24  C   UNL A   1      34.242  19.577  24.899  1.00  0.00    -0.044 A 
ATOM     25  C   UNL A   1      32.870  19.377  24.693  1.00  0.00     0.004 A 
ATOM     26  C   UNL A   1      35.128  18.534  24.579  1.00  0.00     0.004 A 
ATOM     27  C   UNL A   1      32.395  18.151  24.227  1.00  0.00     0.000 A 
ATOM     28  C   UNL A   1      34.649  17.303  24.132  1.00  0.00     0.000 A 
ATOM     29  C   UNL A   1      33.281  17.110  23.963  1.00  0.00     0.000 A 
ENDBRANCH  22  24
ENDBRANCH   8  22
ENDBRANCH   6   8
ENDBRANCH   5   6
ENDBRANCH   4   5
ENDBRANCH   3   4
ENDBRANCH   2   3
ENDBRANCH   1   2
BRANCH   1  30
ATOM     30  C   UNL A   1      32.380  29.626  26.011  1.00  0.00     0.188 C 
BRANCH  30  31
ATOM     31  O   UNL A   1      31.811  30.534  26.944  1.00  0.00    -0.376 OA
BRANCH  31  32
ATOM     32  C   UNL A   1      31.352  31.777  26.389  1.00  0.00     0.202 C 
BRANCH  32  33
ATOM     33  C   UNL A   1      31.808  33.080  27.078  1.00  0.00     0.261 C 
BRANCH  33  34
ATOM     34  O   UNL A   1      33.231  33.323  27.052  1.00  0.00    -0.460 OA
BRANCH  34  35
ATOM     35  C   UNL A   1      33.781  33.960  28.120  1.00  0.00     0.338 C 
ATOM     36  O   UNL A   1      33.281  34.854  28.760  1.00  0.00    -0.246 OA
BRANCH  35  37
ATOM     37  C   UNL A   1      34.975  33.170  28.555  1.00  0.00     0.060 A 
ATOM     38  C   UNL A   1      34.800  31.805  28.839  1.00  0.00     0.016 A 
ATOM     39  C   UNL A   1      36.262  33.718  28.582  1.00  0.00     0.016 A 
ATOM     40  C   UNL A   1      35.895  31.007  29.192  1.00  0.00     0.010 A 
ATOM     41  C   UNL A   1      37.355  32.922  28.944  1.00  0.00     0.010 A 
ATOM     42  C   UNL A   1      37.174  31.570  29.288  1.00  0.00    -0.014 A 
BRANCH  42  43
ATOM     43  C   UNL A   1      38.268  30.828  29.973  1.00  0.00     0.031 A 
ATOM     44  C   UNL A   1      38.521  31.135  31.426  1.00  0.00     0.074 A 
ATOM     45  C   UNL A   1      39.012  29.892  29.355  1.00  0.00     0.049 A 
ATOM     46  N   UNL A   1      39.447  30.680  32.231  1.00  0.00    -0.248 NA
ATOM     47  C   UNL A   1      37.596  32.094  32.053  1.00  0.00     0.031 C 
ATOM     48  C   UNL A   1      38.847  29.451  27.974  1.00  0.00     0.029 A 
ATOM     49  N   UNL A   1      40.067  29.146  29.825  1.00  0.00    -0.354 N 
ATOM     50  C   UNL A   1      39.222  31.303  33.452  1.00  0.00     0.074 A 
ATOM     51  C   UNL A   1      38.096  32.193  33.275  1.00  0.00     0.031 C 
ATOM     52  C   UNL A   1      39.776  28.515  27.703  1.00  0.00     0.029 A 
ATOM     53  C   UNL A   1      40.624  28.318  28.881  1.00  0.00     0.049 A 
ATOM     54  H   UNL A   1      40.396  29.200  30.752  1.00  0.00     0.167 HD
ATOM     55  C   UNL A   1      39.884  31.143  34.622  1.00  0.00     0.037 A 
ATOM     56  C   UNL A   1      41.705  27.514  28.952  1.00  0.00     0.037 A 
ATOM     57  C   UNL A   1      41.005  30.261  34.808  1.00  0.00     0.049 A 
ATOM     58  C   UNL A   1      42.487  27.421  30.241  1.00  0.00     0.074 A 
ATOM     59  C   UNL A   1      41.734  30.026  35.962  1.00  0.00     0.029 A 
ATOM     60  N   UNL A   1      41.566  29.476  33.814  1.00  0.00    -0.354 N 
ATOM     61  N   UNL A   1      42.262  28.001  31.396  1.00  0.00    -0.248 NA
ATOM     62  C   UNL A   1      43.681  26.559  30.235  1.00  0.00     0.031 C 
ATOM     63  C   UNL A   1      42.773  29.144  35.649  1.00  0.00     0.029 A 
ATOM     64  C   UNL A   1      42.653  28.778  34.319  1.00  0.00     0.049 A 
ATOM     65  H   UNL A   1      41.240  29.421  32.886  1.00  0.00     0.167 HD
ATOM     66  C   UNL A   1      43.257  27.550  32.255  1.00  0.00     0.074 A 
ATOM     67  C   UNL A   1      44.085  26.640  31.496  1.00  0.00     0.031 C 
ATOM     68  C   UNL A   1      43.466  27.863  33.558  1.00  0.00     0.037 A 
BRANCH  55  69
ATOM     69  C   UNL A   1      39.433  31.976  35.786  1.00  0.00     0.064 A 
ATOM     70  C   UNL A   1      39.977  33.243  36.046  1.00  0.00     0.173 A 
ATOM     71  C   UNL A   1      38.432  31.502  36.648  1.00  0.00     0.173 A 
ATOM     72  F   UNL A   1      40.950  33.734  35.263  1.00  0.00    -0.203 F 
ATOM     73  C   UNL A   1      39.559  33.990  37.144  1.00  0.00     0.198 A 
ATOM     74  C   UNL A   1      37.992  32.266  37.724  1.00  0.00     0.198 A 
ATOM     75  F   UNL A   1      37.878  30.297  36.443  1.00  0.00    -0.203 F 
ATOM     76  F   UNL A   1      40.134  35.172  37.406  1.00  0.00    -0.200 F 
ATOM     77  C   UNL A   1      38.562  33.505  37.977  1.00  0.00     0.200 A 
ATOM     78  F   UNL A   1      37.020  31.801  38.521  1.00  0.00    -0.200 F 
ATOM     79  F   UNL A   1      38.158  34.226  39.032  1.00  0.00    -0.200 F 
ENDBRANCH  55  69
BRANCH  56  80
ATOM     80  C   UNL A   1      42.141  26.738  27.758  1.00  0.00     0.064 A 
ATOM     81  C   UNL A   1      41.622  25.462  27.491  1.00  0.00     0.173 A 
ATOM     82  C   UNL A   1      43.121  27.235  26.886  1.00  0.00     0.173 A 
ATOM     83  F   UNL A   1      40.712  24.923  28.316  1.00  0.00    -0.203 F 
ATOM     84  C   UNL A   1      42.077  24.709  26.409  1.00  0.00     0.198 A 
ATOM     85  C   UNL A   1      43.553  26.494  25.787  1.00  0.00     0.198 A 
ATOM     86  F   UNL A   1      43.663  28.443  27.103  1.00  0.00    -0.203 F 
ATOM     87  F   UNL A   1      41.606  23.471  26.211  1.00  0.00    -0.200 F 
ATOM     88  C   UNL A   1      43.037  25.229  25.554  1.00  0.00     0.200 A 
ATOM     89  F   UNL A   1      44.478  27.003  24.962  1.00  0.00    -0.200 F 
ATOM     90  F   UNL A   1      43.477  24.505  24.516  1.00  0.00    -0.200 F 
ENDBRANCH  56  80
BRANCH  68  91
ATOM     91  C   UNL A   1      44.607  27.188  34.269  1.00  0.00     0.064 A 
ATOM     92  C   UNL A   1      45.876  27.779  34.363  1.00  0.00     0.173 A 
ATOM     93  C   UNL A   1      44.412  25.954  34.910  1.00  0.00     0.173 A 
ATOM     94  F   UNL A   1      46.120  28.953  33.761  1.00  0.00    -0.203 F 
ATOM     95  C   UNL A   1      46.912  27.149  35.049  1.00  0.00     0.198 A 
ATOM     96  C   UNL A   1      45.440  25.343  35.623  1.00  0.00     0.198 A 
ATOM     97  F   UNL A   1      43.217  25.349  34.862  1.00  0.00    -0.203 F 
ATOM     98  F   UNL A   1      48.128  27.711  35.086  1.00  0.00    -0.200 F 
ATOM     99  C   UNL A   1      46.692  25.937  35.685  1.00  0.00     0.200 A 
ATOM    100  F   UNL A   1      45.220  24.180  36.252  1.00  0.00    -0.200 F 
ATOM    101  F   UNL A   1      47.687  25.337  36.354  1.00  0.00    -0.200 F 
ENDBRANCH  68  91
ENDBRANCH  42  43
ENDBRANCH  35  37
ENDBRANCH  34  35
ENDBRANCH  33  34
ENDBRANCH  32  33
ENDBRANCH  31  32
ENDBRANCH  30  31
ENDBRANCH   1  30
TORSDOF 22
ENDMDL
