MODEL 1
REMARK VINA RESULT:     -15.1      0.000      0.000
REMARK SMILES Cc1cccc(N2C(=O)/C(=C/c3ccc(C(=O)OCCOCCOCCOC(=O)c4ccc(-c5c6nc(c(-c7c(F)c(F)c(F)c(F)c7F)c7ccc([nH]7)c(-c7c(F)c(F)c(F)c(F)c7F)c7nc(c(-c8c(F)c(F)c(F)c(F)c8F)c8ccc5[nH]8)C=C7)C=C6)cc4)cc3)c3ccccc3C2=O)c1
REMARK SMILES IDX 22 1 21 2 20 3 19 4 18 5 16 6 17 7 15 8 12 9 13 10 94 11
REMARK SMILES IDX 14 12 93 13 11 14 7 15 8 16 101 17 9 18 10 19 100 20 102 21
REMARK SMILES IDX 95 22 99 23 96 24 98 25 97 26 6 27 1 28 2 29 3 30 103 31
REMARK SMILES IDX 4 32 5 33 23 34 24 35 25 36 26 37 27 38 28 39 29 40 30 41
REMARK SMILES IDX 31 42 92 43 32 44 91 45 33 46 34 47 35 48 85 49 36 50 90 51
REMARK SMILES IDX 84 52 86 53 37 54 89 55 83 56 82 57 38 59 70 60 50 61 69 62
REMARK SMILES IDX 51 63 54 64 68 65 87 66 52 67 53 68 67 70 88 71 55 72 39 73
REMARK SMILES IDX 40 74 48 75 41 76 42 77 46 78 49 79 43 80 44 81 47 82 45 83
REMARK SMILES IDX 71 84 72 85 80 86 73 87 74 88 78 89 81 90 75 91 76 92 79 93
REMARK SMILES IDX 77 94 56 95 57 96 65 97 58 98 59 99 63 100 66 101 60 102
REMARK SMILES IDX 61 103 64 104 62 105
REMARK H PARENT 86 58 54 69
REMARK Flexibility Score: inf
ROOT
ATOM      1  C   UNL A   1      32.953  36.185  30.562  1.00  0.00     0.188 C 
ENDROOT
BRANCH   1   2
ATOM      2  O   UNL A   1      32.510  35.150  29.670  1.00  0.00    -0.376 OA
BRANCH   2   3
ATOM      3  C   UNL A   1      33.124  34.770  28.451  1.00  0.00     0.202 C 
BRANCH   3   4
ATOM      4  C   UNL A   1      34.082  33.403  28.182  1.00  0.00     0.261 C 
BRANCH   4   5
ATOM      5  O   UNL A   1      33.822  31.755  27.781  1.00  0.00    -0.460 OA
BRANCH   5   6
ATOM      6  C   UNL A   1      32.860  30.882  27.253  1.00  0.00     0.338 C 
ATOM      7  O   UNL A   1      31.805  31.108  26.669  1.00  0.00    -0.246 OA
BRANCH   6   8
ATOM      8  C   UNL A   1      32.920  29.430  27.172  1.00  0.00     0.060 A 
ATOM      9  C   UNL A   1      32.596  26.825  26.239  1.00  0.00    -0.025 A 
ATOM     10  C   UNL A   1      33.703  27.548  25.822  1.00  0.00     0.009 A 
ATOM     11  C   UNL A   1      31.522  27.468  26.871  1.00  0.00     0.009 A 
ATOM     12  C   UNL A   1      33.844  28.855  26.272  1.00  0.00     0.016 A 
ATOM     13  C   UNL A   1      31.694  28.766  27.351  1.00  0.00     0.016 A 
BRANCH   9  14
ATOM     14  C   UNL A   1      32.767  25.383  26.363  1.00  0.00     0.022 C 
ATOM     15  N   UNL A   1      33.603  22.769  24.444  1.00  0.00    -0.242 N 
ATOM     16  C   UNL A   1      32.725  23.172  25.472  1.00  0.00     0.265 C 
ATOM     17  C   UNL A   1      33.826  23.609  23.312  1.00  0.00     0.265 C 
ATOM     18  O   UNL A   1      32.279  22.555  26.435  1.00  0.00    -0.268 OA
ATOM     19  C   UNL A   1      32.346  24.587  25.355  1.00  0.00     0.049 C 
ATOM     20  C   UNL A   1      32.800  24.654  23.016  1.00  0.00     0.048 A 
ATOM     21  O   UNL A   1      34.773  23.580  22.529  1.00  0.00    -0.268 OA
ATOM     22  C   UNL A   1      31.933  25.039  24.029  1.00  0.00    -0.000 A 
ATOM     23  C   UNL A   1      32.730  25.291  21.771  1.00  0.00     0.014 A 
ATOM     24  C   UNL A   1      30.892  25.938  23.767  1.00  0.00     0.010 A 
ATOM     25  C   UNL A   1      31.758  26.269  21.538  1.00  0.00     0.001 A 
ATOM     26  C   UNL A   1      30.821  26.573  22.526  1.00  0.00     0.001 A 
BRANCH  15  27
ATOM     27  C   UNL A   1      34.329  21.513  24.594  1.00  0.00     0.053 A 
ATOM     28  C   UNL A   1      33.611  17.751  24.376  1.00  0.00     0.044 C 
ATOM     29  C   UNL A   1      34.354  19.037  24.584  1.00  0.00    -0.049 A 
ATOM     30  C   UNL A   1      35.707  19.036  24.901  1.00  0.00     0.003 A 
ATOM     31  C   UNL A   1      33.695  20.266  24.419  1.00  0.00     0.030 A 
ATOM     32  C   UNL A   1      36.373  20.243  25.068  1.00  0.00     0.002 A 
ATOM     33  C   UNL A   1      35.692  21.458  24.920  1.00  0.00     0.027 A 
ENDBRANCH  15  27
ENDBRANCH   9  14
ENDBRANCH   6   8
ENDBRANCH   5   6
ENDBRANCH   4   5
ENDBRANCH   3   4
ENDBRANCH   2   3
ENDBRANCH   1   2
BRANCH   1  34
ATOM     34  C   UNL A   1      32.541  36.170  32.028  1.00  0.00     0.188 C 
BRANCH  34  35
ATOM     35  O   UNL A   1      32.801  34.889  32.566  1.00  0.00    -0.376 OA
BRANCH  35  36
ATOM     36  C   UNL A   1      34.170  34.544  32.670  1.00  0.00     0.202 C 
BRANCH  36  37
ATOM     37  C   UNL A   1      34.357  33.047  32.959  1.00  0.00     0.261 C 
BRANCH  37  38
ATOM     38  O   UNL A   1      34.608  32.329  31.725  1.00  0.00    -0.460 OA
BRANCH  38  39
ATOM     39  C   UNL A   1      35.842  32.482  31.144  1.00  0.00     0.338 C 
ATOM     40  O   UNL A   1      36.388  33.560  30.947  1.00  0.00    -0.246 OA
BRANCH  39  41
ATOM     41  C   UNL A   1      36.300  31.180  30.539  1.00  0.00     0.060 A 
ATOM     42  C   UNL A   1      36.808  30.081  31.248  1.00  0.00     0.016 A 
ATOM     43  C   UNL A   1      36.631  31.217  29.228  1.00  0.00     0.016 A 
ATOM     44  C   UNL A   1      37.809  29.175  30.673  1.00  0.00     0.010 A 
ATOM     45  C   UNL A   1      37.796  30.515  28.883  1.00  0.00     0.010 A 
ATOM     46  C   UNL A   1      38.472  29.414  29.458  1.00  0.00    -0.014 A 
BRANCH  46  47
ATOM     47  C   UNL A   1      39.963  28.742  28.999  1.00  0.00     0.031 A 
ATOM     48  C   UNL A   1      40.486  27.254  28.389  1.00  0.00     0.074 A 
ATOM     49  C   UNL A   1      41.068  29.480  29.263  1.00  0.00     0.049 A 
ATOM     50  N   UNL A   1      41.427  26.513  28.967  1.00  0.00    -0.248 NA
ATOM     51  C   UNL A   1      39.965  26.440  27.248  1.00  0.00     0.031 C 
ATOM     52  C   UNL A   1      42.448  29.174  28.886  1.00  0.00     0.029 A 
ATOM     53  N   UNL A   1      41.183  30.631  30.050  1.00  0.00    -0.354 N 
ATOM     54  C   UNL A   1      41.547  25.289  28.288  1.00  0.00     0.074 A 
ATOM     55  C   UNL A   1      40.518  25.243  27.336  1.00  0.00     0.031 C 
ATOM     56  C   UNL A   1      43.273  29.870  29.677  1.00  0.00     0.029 A 
ATOM     57  C   UNL A   1      42.456  30.590  30.634  1.00  0.00     0.049 A 
ATOM     58  H   UNL A   1      40.502  31.332  30.171  1.00  0.00     0.167 HD
ATOM     59  C   UNL A   1      42.562  24.388  28.375  1.00  0.00     0.037 A 
ATOM     60  C   UNL A   1      42.640  30.641  31.979  1.00  0.00     0.037 A 
ATOM     61  C   UNL A   1      43.645  24.975  29.089  1.00  0.00     0.049 A 
ATOM     62  C   UNL A   1      43.464  29.505  32.521  1.00  0.00     0.074 A 
ATOM     63  C   UNL A   1      44.659  25.801  28.641  1.00  0.00     0.029 A 
ATOM     64  N   UNL A   1      43.544  25.130  30.451  1.00  0.00    -0.354 N 
ATOM     65  N   UNL A   1      43.685  28.394  31.878  1.00  0.00    -0.248 NA
ATOM     66  C   UNL A   1      44.077  29.513  33.846  1.00  0.00     0.031 C 
ATOM     67  C   UNL A   1      45.169  26.487  29.759  1.00  0.00     0.029 A 
ATOM     68  C   UNL A   1      44.500  26.022  30.878  1.00  0.00     0.049 A 
ATOM     69  H   UNL A   1      42.890  24.676  31.029  1.00  0.00     0.167 HD
ATOM     70  C   UNL A   1      44.386  27.534  32.685  1.00  0.00     0.074 A 
ATOM     71  C   UNL A   1      44.635  28.291  33.891  1.00  0.00     0.031 C 
ATOM     72  C   UNL A   1      44.674  26.261  32.289  1.00  0.00     0.037 A 
BRANCH  59  73
ATOM     73  C   UNL A   1      42.656  23.209  27.418  1.00  0.00     0.064 A 
ATOM     74  C   UNL A   1      42.042  21.980  27.717  1.00  0.00     0.173 A 
ATOM     75  C   UNL A   1      43.460  23.215  26.256  1.00  0.00     0.173 A 
ATOM     76  F   UNL A   1      41.178  21.865  28.732  1.00  0.00    -0.203 F 
ATOM     77  C   UNL A   1      42.334  20.810  27.006  1.00  0.00     0.198 A 
ATOM     78  C   UNL A   1      43.792  22.035  25.575  1.00  0.00     0.198 A 
ATOM     79  F   UNL A   1      44.006  24.358  25.807  1.00  0.00    -0.203 F 
ATOM     80  F   UNL A   1      41.762  19.653  27.366  1.00  0.00    -0.200 F 
ATOM     81  C   UNL A   1      43.245  20.828  25.967  1.00  0.00     0.200 A 
ATOM     82  F   UNL A   1      44.688  22.065  24.576  1.00  0.00    -0.200 F 
ATOM     83  F   UNL A   1      43.601  19.689  25.356  1.00  0.00    -0.200 F 
ENDBRANCH  59  73
BRANCH  60  84
ATOM     84  C   UNL A   1      41.572  31.372  32.715  1.00  0.00     0.064 A 
ATOM     85  C   UNL A   1      41.504  32.772  32.562  1.00  0.00     0.173 A 
ATOM     86  C   UNL A   1      40.456  30.729  33.264  1.00  0.00     0.173 A 
ATOM     87  F   UNL A   1      42.543  33.440  32.033  1.00  0.00    -0.203 F 
ATOM     88  C   UNL A   1      40.337  33.481  32.837  1.00  0.00     0.198 A 
ATOM     89  C   UNL A   1      39.288  31.447  33.554  1.00  0.00     0.198 A 
ATOM     90  F   UNL A   1      40.439  29.397  33.400  1.00  0.00    -0.203 F 
ATOM     91  F   UNL A   1      40.269  34.791  32.559  1.00  0.00    -0.200 F 
ATOM     92  C   UNL A   1      39.223  32.814  33.313  1.00  0.00     0.200 A 
ATOM     93  F   UNL A   1      38.186  30.798  33.956  1.00  0.00    -0.200 F 
ATOM     94  F   UNL A   1      38.065  33.472  33.472  1.00  0.00    -0.200 F 
ENDBRANCH  60  84
BRANCH  72  95
ATOM     95  C   UNL A   1      45.180  25.111  33.127  1.00  0.00     0.064 A 
ATOM     96  C   UNL A   1      46.531  24.757  33.230  1.00  0.00     0.173 A 
ATOM     97  C   UNL A   1      44.302  24.441  34.023  1.00  0.00     0.173 A 
ATOM     98  F   UNL A   1      47.473  25.380  32.513  1.00  0.00    -0.203 F 
ATOM     99  C   UNL A   1      46.967  23.783  34.132  1.00  0.00     0.198 A 
ATOM    100  C   UNL A   1      44.752  23.523  34.967  1.00  0.00     0.198 A 
ATOM    101  F   UNL A   1      42.982  24.683  34.035  1.00  0.00    -0.203 F 
ATOM    102  F   UNL A   1      48.265  23.451  34.167  1.00  0.00    -0.200 F 
ATOM    103  C   UNL A   1      46.085  23.182  35.012  1.00  0.00     0.200 A 
ATOM    104  F   UNL A   1      43.888  22.993  35.847  1.00  0.00    -0.200 F 
ATOM    105  F   UNL A   1      46.521  22.291  35.912  1.00  0.00    -0.200 F 
ENDBRANCH  72  95
ENDBRANCH  46  47
ENDBRANCH  39  41
ENDBRANCH  38  39
ENDBRANCH  37  38
ENDBRANCH  36  37
ENDBRANCH  35  36
ENDBRANCH  34  35
ENDBRANCH   1  34
TORSDOF 19
ENDMDL
MODEL 2
REMARK VINA RESULT:     -14.2      1.480      2.116
REMARK SMILES Cc1cccc(N2C(=O)/C(=C/c3ccc(C(=O)OCCOCCOCCOC(=O)c4ccc(-c5c6nc(c(-c7c(F)c(F)c(F)c(F)c7F)c7ccc([nH]7)c(-c7c(F)c(F)c(F)c(F)c7F)c7nc(c(-c8c(F)c(F)c(F)c(F)c8F)c8ccc5[nH]8)C=C7)C=C6)cc4)cc3)c3ccccc3C2=O)c1
REMARK SMILES IDX 22 1 21 2 20 3 19 4 18 5 16 6 17 7 15 8 12 9 13 10 94 11
REMARK SMILES IDX 14 12 93 13 11 14 7 15 8 16 101 17 9 18 10 19 100 20 102 21
REMARK SMILES IDX 95 22 99 23 96 24 98 25 97 26 6 27 1 28 2 29 3 30 103 31
REMARK SMILES IDX 4 32 5 33 23 34 24 35 25 36 26 37 27 38 28 39 29 40 30 41
REMARK SMILES IDX 31 42 92 43 32 44 91 45 33 46 34 47 35 48 85 49 36 50 90 51
REMARK SMILES IDX 84 52 86 53 37 54 89 55 83 56 82 57 38 59 70 60 50 61 69 62
REMARK SMILES IDX 51 63 54 64 68 65 87 66 52 67 53 68 67 70 88 71 55 72 39 73
REMARK SMILES IDX 40 74 48 75 41 76 42 77 46 78 49 79 43 80 44 81 47 82 45 83
REMARK SMILES IDX 71 84 72 85 80 86 73 87 74 88 78 89 81 90 75 91 76 92 79 93
REMARK SMILES IDX 77 94 56 95 57 96 65 97 58 98 59 99 63 100 66 101 60 102
REMARK SMILES IDX 61 103 64 104 62 105
REMARK H PARENT 86 58 54 69
REMARK Flexibility Score: inf
ROOT
ATOM      1  C   UNL A   1      32.953  36.052  30.493  1.00  0.00     0.188 C 
ENDROOT
BRANCH   1   2
ATOM      2  O   UNL A   1      32.694  35.008  29.540  1.00  0.00    -0.376 OA
BRANCH   2   3
ATOM      3  C   UNL A   1      33.594  34.523  28.559  1.00  0.00     0.202 C 
BRANCH   3   4
ATOM      4  C   UNL A   1      34.398  33.036  28.569  1.00  0.00     0.261 C 
BRANCH   4   5
ATOM      5  O   UNL A   1      34.036  31.419  28.124  1.00  0.00    -0.460 OA
BRANCH   5   6
ATOM      6  C   UNL A   1      33.179  30.657  27.315  1.00  0.00     0.338 C 
ATOM      7  O   UNL A   1      32.360  30.998  26.469  1.00  0.00    -0.246 OA
BRANCH   6   8
ATOM      8  C   UNL A   1      33.113  29.207  27.201  1.00  0.00     0.060 A 
ATOM      9  C   UNL A   1      32.599  26.663  26.192  1.00  0.00    -0.025 A 
ATOM     10  C   UNL A   1      33.782  27.291  25.837  1.00  0.00     0.009 A 
ATOM     11  C   UNL A   1      31.561  27.386  26.796  1.00  0.00     0.009 A 
ATOM     12  C   UNL A   1      34.020  28.570  26.325  1.00  0.00     0.016 A 
ATOM     13  C   UNL A   1      31.827  28.652  27.315  1.00  0.00     0.016 A 
BRANCH   9  14
ATOM     14  C   UNL A   1      32.636  25.208  26.287  1.00  0.00     0.022 C 
ATOM     15  N   UNL A   1      33.272  22.569  24.326  1.00  0.00    -0.242 N 
ATOM     16  C   UNL A   1      32.413  23.029  25.346  1.00  0.00     0.265 C 
ATOM     17  C   UNL A   1      33.595  23.409  23.218  1.00  0.00     0.265 C 
ATOM     18  O   UNL A   1      31.892  22.436  26.285  1.00  0.00    -0.268 OA
ATOM     19  C   UNL A   1      32.166  24.475  25.253  1.00  0.00     0.049 C 
ATOM     20  C   UNL A   1      32.675  24.549  22.925  1.00  0.00     0.048 A 
ATOM     21  O   UNL A   1      34.553  23.310  22.453  1.00  0.00    -0.268 OA
ATOM     22  C   UNL A   1      31.825  24.990  23.930  1.00  0.00    -0.000 A 
ATOM     23  C   UNL A   1      32.690  25.215  21.694  1.00  0.00     0.014 A 
ATOM     24  C   UNL A   1      30.876  25.985  23.667  1.00  0.00     0.010 A 
ATOM     25  C   UNL A   1      31.816  26.282  21.464  1.00  0.00     0.001 A 
ATOM     26  C   UNL A   1      30.890  26.649  22.439  1.00  0.00     0.001 A 
BRANCH  15  27
ATOM     27  C   UNL A   1      33.878  21.250  24.462  1.00  0.00     0.053 A 
ATOM     28  C   UNL A   1      37.355  19.747  25.068  1.00  0.00     0.044 C 
ATOM     29  C   UNL A   1      35.880  19.835  24.808  1.00  0.00    -0.049 A 
ATOM     30  C   UNL A   1      35.104  18.687  24.710  1.00  0.00     0.003 A 
ATOM     31  C   UNL A   1      35.258  21.089  24.701  1.00  0.00     0.030 A 
ATOM     32  C   UNL A   1      33.737  18.801  24.488  1.00  0.00     0.002 A 
ATOM     33  C   UNL A   1      33.139  20.061  24.363  1.00  0.00     0.027 A 
ENDBRANCH  15  27
ENDBRANCH   9  14
ENDBRANCH   6   8
ENDBRANCH   5   6
ENDBRANCH   4   5
ENDBRANCH   3   4
ENDBRANCH   2   3
ENDBRANCH   1   2
BRANCH   1  34
ATOM     34  C   UNL A   1      32.447  35.933  31.925  1.00  0.00     0.188 C 
BRANCH  34  35
ATOM     35  O   UNL A   1      32.788  34.657  32.430  1.00  0.00    -0.376 OA
BRANCH  35  36
ATOM     36  C   UNL A   1      34.155  34.308  32.314  1.00  0.00     0.202 C 
BRANCH  36  37
ATOM     37  C   UNL A   1      34.700  33.715  33.621  1.00  0.00     0.261 C 
BRANCH  37  38
ATOM     38  O   UNL A   1      35.144  32.352  33.403  1.00  0.00    -0.460 OA
BRANCH  38  39
ATOM     39  C   UNL A   1      36.497  32.125  33.372  1.00  0.00     0.338 C 
ATOM     40  O   UNL A   1      37.343  32.913  33.777  1.00  0.00    -0.246 OA
BRANCH  39  41
ATOM     41  C   UNL A   1      36.805  30.915  32.528  1.00  0.00     0.060 A 
ATOM     42  C   UNL A   1      37.606  29.830  32.915  1.00  0.00     0.016 A 
ATOM     43  C   UNL A   1      36.653  31.066  31.193  1.00  0.00     0.016 A 
ATOM     44  C   UNL A   1      38.404  29.064  31.950  1.00  0.00     0.010 A 
ATOM     45  C   UNL A   1      37.670  30.505  30.405  1.00  0.00     0.010 A 
ATOM     46  C   UNL A   1      38.581  29.443  30.609  1.00  0.00    -0.014 A 
BRANCH  46  47
ATOM     47  C   UNL A   1      39.860  28.951  29.605  1.00  0.00     0.031 A 
ATOM     48  C   UNL A   1      40.358  27.498  28.898  1.00  0.00     0.074 A 
ATOM     49  C   UNL A   1      40.825  29.870  29.359  1.00  0.00     0.049 A 
ATOM     50  N   UNL A   1      41.568  26.975  29.069  1.00  0.00    -0.248 NA
ATOM     51  C   UNL A   1      39.583  26.491  28.110  1.00  0.00     0.031 C 
ATOM     52  C   UNL A   1      41.970  29.731  28.460  1.00  0.00     0.029 A 
ATOM     53  N   UNL A   1      41.033  31.107  29.978  1.00  0.00    -0.354 N 
ATOM     54  C   UNL A   1      41.628  25.713  28.455  1.00  0.00     0.074 A 
ATOM     55  C   UNL A   1      40.332  25.407  28.013  1.00  0.00     0.031 C 
ATOM     56  C   UNL A   1      42.901  30.628  28.810  1.00  0.00     0.029 A 
ATOM     57  C   UNL A   1      42.417  31.322  29.986  1.00  0.00     0.049 A 
ATOM     58  H   UNL A   1      40.341  31.709  30.338  1.00  0.00     0.167 HD
ATOM     59  C   UNL A   1      42.739  24.988  28.154  1.00  0.00     0.037 A 
ATOM     60  C   UNL A   1      43.110  31.553  31.132  1.00  0.00     0.037 A 
ATOM     61  C   UNL A   1      43.890  25.806  28.332  1.00  0.00     0.049 A 
ATOM     62  C   UNL A   1      44.273  30.620  31.335  1.00  0.00     0.074 A 
ATOM     63  C   UNL A   1      44.474  26.717  27.471  1.00  0.00     0.029 A 
ATOM     64  N   UNL A   1      44.314  26.099  29.606  1.00  0.00    -0.354 N 
ATOM     65  N   UNL A   1      44.417  29.488  30.706  1.00  0.00    -0.248 NA
ATOM     66  C   UNL A   1      45.350  30.869  32.288  1.00  0.00     0.031 C 
ATOM     67  C   UNL A   1      45.253  27.593  28.249  1.00  0.00     0.029 A 
ATOM     68  C   UNL A   1      45.182  27.165  29.562  1.00  0.00     0.049 A 
ATOM     69  H   UNL A   1      44.039  25.621  30.422  1.00  0.00     0.167 HD
ATOM     70  C   UNL A   1      45.525  28.839  31.189  1.00  0.00     0.074 A 
ATOM     71  C   UNL A   1      46.092  29.756  32.152  1.00  0.00     0.031 C 
ATOM     72  C   UNL A   1      45.857  27.586  30.765  1.00  0.00     0.037 A 
BRANCH  59  73
ATOM     73  C   UNL A   1      42.656  23.735  27.295  1.00  0.00     0.064 A 
ATOM     74  C   UNL A   1      42.348  22.485  27.860  1.00  0.00     0.173 A 
ATOM     75  C   UNL A   1      43.009  23.708  25.926  1.00  0.00     0.173 A 
ATOM     76  F   UNL A   1      41.903  22.384  29.118  1.00  0.00    -0.203 F 
ATOM     77  C   UNL A   1      42.532  21.287  27.162  1.00  0.00     0.198 A 
ATOM     78  C   UNL A   1      43.242  22.506  25.243  1.00  0.00     0.198 A 
ATOM     79  F   UNL A   1      43.215  24.850  25.250  1.00  0.00    -0.203 F 
ATOM     80  F   UNL A   1      42.274  20.119  27.766  1.00  0.00    -0.200 F 
ATOM     81  C   UNL A   1      43.025  21.294  25.871  1.00  0.00     0.200 A 
ATOM     82  F   UNL A   1      43.733  22.527  23.994  1.00  0.00    -0.200 F 
ATOM     83  F   UNL A   1      43.298  20.143  25.242  1.00  0.00    -0.200 F 
ENDBRANCH  59  73
BRANCH  60  84
ATOM     84  C   UNL A   1      42.310  32.195  32.211  1.00  0.00     0.064 A 
ATOM     85  C   UNL A   1      41.693  31.359  33.164  1.00  0.00     0.173 A 
ATOM     86  C   UNL A   1      42.415  33.557  32.522  1.00  0.00     0.173 A 
ATOM     87  F   UNL A   1      41.573  30.043  32.922  1.00  0.00    -0.203 F 
ATOM     88  C   UNL A   1      41.302  31.837  34.412  1.00  0.00     0.198 A 
ATOM     89  C   UNL A   1      42.006  34.039  33.772  1.00  0.00     0.198 A 
ATOM     90  F   UNL A   1      43.025  34.400  31.679  1.00  0.00    -0.203 F 
ATOM     91  F   UNL A   1      40.836  30.987  35.338  1.00  0.00    -0.200 F 
ATOM     92  C   UNL A   1      41.478  33.174  34.723  1.00  0.00     0.200 A 
ATOM     93  F   UNL A   1      42.232  35.318  34.103  1.00  0.00    -0.200 F 
ATOM     94  F   UNL A   1      41.208  33.614  35.960  1.00  0.00    -0.200 F 
ENDBRANCH  60  84
BRANCH  72  95
ATOM     95  C   UNL A   1      46.855  26.626  31.368  1.00  0.00     0.064 A 
ATOM     96  C   UNL A   1      48.101  26.337  30.799  1.00  0.00     0.173 A 
ATOM     97  C   UNL A   1      46.645  26.109  32.677  1.00  0.00     0.173 A 
ATOM     98  F   UNL A   1      48.462  26.843  29.614  1.00  0.00    -0.203 F 
ATOM     99  C   UNL A   1      49.051  25.559  31.468  1.00  0.00     0.198 A 
ATOM    100  C   UNL A   1      47.621  25.395  33.365  1.00  0.00     0.198 A 
ATOM    101  F   UNL A   1      45.498  26.310  33.343  1.00  0.00    -0.203 F 
ATOM    102  F   UNL A   1      50.214  25.278  30.866  1.00  0.00    -0.200 F 
ATOM    103  C   UNL A   1      48.820  25.107  32.755  1.00  0.00     0.200 A 
ATOM    104  F   UNL A   1      47.398  25.012  34.632  1.00  0.00    -0.200 F 
ATOM    105  F   UNL A   1      49.759  24.411  33.410  1.00  0.00    -0.200 F 
ENDBRANCH  72  95
ENDBRANCH  46  47
ENDBRANCH  39  41
ENDBRANCH  38  39
ENDBRANCH  37  38
ENDBRANCH  36  37
ENDBRANCH  35  36
ENDBRANCH  34  35
ENDBRANCH   1  34
TORSDOF 19
ENDMDL
MODEL 3
REMARK VINA RESULT:     -14.0      3.949      8.003
REMARK SMILES Cc1cccc(N2C(=O)/C(=C/c3ccc(C(=O)OCCOCCOCCOC(=O)c4ccc(-c5c6nc(c(-c7c(F)c(F)c(F)c(F)c7F)c7ccc([nH]7)c(-c7c(F)c(F)c(F)c(F)c7F)c7nc(c(-c8c(F)c(F)c(F)c(F)c8F)c8ccc5[nH]8)C=C7)C=C6)cc4)cc3)c3ccccc3C2=O)c1
REMARK SMILES IDX 22 1 21 2 20 3 19 4 18 5 16 6 17 7 15 8 12 9 13 10 94 11
REMARK SMILES IDX 14 12 93 13 11 14 7 15 8 16 101 17 9 18 10 19 100 20 102 21
REMARK SMILES IDX 95 22 99 23 96 24 98 25 97 26 6 27 1 28 2 29 3 30 103 31
REMARK SMILES IDX 4 32 5 33 23 34 24 35 25 36 26 37 27 38 28 39 29 40 30 41
REMARK SMILES IDX 31 42 92 43 32 44 91 45 33 46 34 47 35 48 85 49 36 50 90 51
REMARK SMILES IDX 84 52 86 53 37 54 89 55 83 56 82 57 38 59 70 60 50 61 69 62
REMARK SMILES IDX 51 63 54 64 68 65 87 66 52 67 53 68 67 70 88 71 55 72 39 73
REMARK SMILES IDX 40 74 48 75 41 76 42 77 46 78 49 79 43 80 44 81 47 82 45 83
REMARK SMILES IDX 71 84 72 85 80 86 73 87 74 88 78 89 81 90 75 91 76 92 79 93
REMARK SMILES IDX 77 94 56 95 57 96 65 97 58 98 59 99 63 100 66 101 60 102
REMARK SMILES IDX 61 103 64 104 62 105
REMARK H PARENT 86 58 54 69
REMARK Flexibility Score: inf
ROOT
ATOM      1  C   UNL A   1      35.105  32.769  32.637  1.00  0.00     0.188 C 
ENDROOT
BRANCH   1   2
ATOM      2  O   UNL A   1      34.281  32.736  31.462  1.00  0.00    -0.376 OA
BRANCH   2   3
ATOM      3  C   UNL A   1      34.465  33.501  30.283  1.00  0.00     0.202 C 
BRANCH   3   4
ATOM      4  C   UNL A   1      34.411  32.936  28.691  1.00  0.00     0.261 C 
BRANCH   4   5
ATOM      5  O   UNL A   1      34.146  31.432  27.908  1.00  0.00    -0.460 OA
BRANCH   5   6
ATOM      6  C   UNL A   1      33.158  30.684  27.252  1.00  0.00     0.338 C 
ATOM      7  O   UNL A   1      32.205  31.038  26.566  1.00  0.00    -0.246 OA
BRANCH   6   8
ATOM      8  C   UNL A   1      33.066  29.236  27.132  1.00  0.00     0.060 A 
ATOM      9  C   UNL A   1      32.470  26.706  26.131  1.00  0.00    -0.025 A 
ATOM     10  C   UNL A   1      33.644  27.320  25.726  1.00  0.00     0.009 A 
ATOM     11  C   UNL A   1      31.470  27.439  26.787  1.00  0.00     0.009 A 
ATOM     12  C   UNL A   1      33.922  28.592  26.210  1.00  0.00     0.016 A 
ATOM     13  C   UNL A   1      31.778  28.698  27.301  1.00  0.00     0.016 A 
BRANCH   9  14
ATOM     14  C   UNL A   1      32.490  25.250  26.215  1.00  0.00     0.022 C 
ATOM     15  N   UNL A   1      33.171  22.621  24.256  1.00  0.00    -0.242 N 
ATOM     16  C   UNL A   1      32.281  23.081  25.248  1.00  0.00     0.265 C 
ATOM     17  C   UNL A   1      33.541  23.467  23.167  1.00  0.00     0.265 C 
ATOM     18  O   UNL A   1      31.722  22.485  26.164  1.00  0.00    -0.268 OA
ATOM     19  C   UNL A   1      32.050  24.530  25.159  1.00  0.00     0.049 C 
ATOM     20  C   UNL A   1      32.641  24.617  22.851  1.00  0.00     0.048 A 
ATOM     21  O   UNL A   1      34.523  23.365  22.435  1.00  0.00    -0.268 OA
ATOM     22  C   UNL A   1      31.761  25.059  23.829  1.00  0.00    -0.000 A 
ATOM     23  C   UNL A   1      32.706  25.293  21.627  1.00  0.00     0.014 A 
ATOM     24  C   UNL A   1      30.830  26.065  23.542  1.00  0.00     0.010 A 
ATOM     25  C   UNL A   1      31.849  26.370  21.375  1.00  0.00     0.001 A 
ATOM     26  C   UNL A   1      30.893  26.738  22.321  1.00  0.00     0.001 A 
BRANCH  15  27
ATOM     27  C   UNL A   1      33.760  21.295  24.402  1.00  0.00     0.053 A 
ATOM     28  C   UNL A   1      32.729  17.636  23.887  1.00  0.00     0.044 C 
ATOM     29  C   UNL A   1      33.560  18.832  24.246  1.00  0.00    -0.049 A 
ATOM     30  C   UNL A   1      34.866  18.683  24.696  1.00  0.00     0.003 A 
ATOM     31  C   UNL A   1      33.037  20.126  24.090  1.00  0.00     0.030 A 
ATOM     32  C   UNL A   1      35.619  19.811  25.001  1.00  0.00     0.002 A 
ATOM     33  C   UNL A   1      35.071  21.092  24.859  1.00  0.00     0.027 A 
ENDBRANCH  15  27
ENDBRANCH   9  14
ENDBRANCH   6   8
ENDBRANCH   5   6
ENDBRANCH   4   5
ENDBRANCH   3   4
ENDBRANCH   2   3
ENDBRANCH   1   2
BRANCH   1  34
ATOM     34  C   UNL A   1      36.519  32.203  32.605  1.00  0.00     0.188 C 
BRANCH  34  35
ATOM     35  O   UNL A   1      37.381  33.152  32.009  1.00  0.00    -0.376 OA
BRANCH  35  36
ATOM     36  C   UNL A   1      37.987  32.739  30.797  1.00  0.00     0.202 C 
BRANCH  36  37
ATOM     37  C   UNL A   1      37.916  31.216  30.619  1.00  0.00     0.261 C 
BRANCH  37  38
ATOM     38  O   UNL A   1      37.861  30.881  29.210  1.00  0.00    -0.460 OA
BRANCH  38  39
ATOM     39  C   UNL A   1      37.367  29.645  28.872  1.00  0.00     0.338 C 
ATOM     40  O   UNL A   1      36.178  29.349  28.876  1.00  0.00    -0.246 OA
BRANCH  39  41
ATOM     41  C   UNL A   1      38.488  28.643  28.770  1.00  0.00     0.060 A 
ATOM     42  C   UNL A   1      39.034  27.915  29.838  1.00  0.00     0.016 A 
ATOM     43  C   UNL A   1      39.286  28.751  27.684  1.00  0.00     0.016 A 
ATOM     44  C   UNL A   1      40.444  27.507  29.864  1.00  0.00     0.010 A 
ATOM     45  C   UNL A   1      40.660  28.610  27.931  1.00  0.00     0.010 A 
ATOM     46  C   UNL A   1      41.402  27.947  28.936  1.00  0.00    -0.014 A 
BRANCH  46  47
ATOM     47  C   UNL A   1      43.082  27.969  29.186  1.00  0.00     0.031 A 
ATOM     48  C   UNL A   1      44.290  29.152  29.208  1.00  0.00     0.074 A 
ATOM     49  C   UNL A   1      43.695  26.765  29.286  1.00  0.00     0.049 A 
ATOM     50  N   UNL A   1      45.377  29.106  28.444  1.00  0.00    -0.248 NA
ATOM     51  C   UNL A   1      44.343  30.466  29.920  1.00  0.00     0.031 C 
ATOM     52  C   UNL A   1      45.102  26.512  29.594  1.00  0.00     0.029 A 
ATOM     53  N   UNL A   1      43.179  25.495  29.007  1.00  0.00    -0.354 N 
ATOM     54  C   UNL A   1      46.119  30.287  28.608  1.00  0.00     0.074 A 
ATOM     55  C   UNL A   1      45.355  31.146  29.412  1.00  0.00     0.031 C 
ATOM     56  C   UNL A   1      45.417  25.279  29.176  1.00  0.00     0.029 A 
ATOM     57  C   UNL A   1      44.247  24.727  28.525  1.00  0.00     0.049 A 
ATOM     58  H   UNL A   1      42.247  25.198  29.126  1.00  0.00     0.167 HD
ATOM     59  C   UNL A   1      47.408  30.515  28.240  1.00  0.00     0.037 A 
ATOM     60  C   UNL A   1      44.210  24.111  27.314  1.00  0.00     0.037 A 
ATOM     61  C   UNL A   1      48.011  29.280  27.867  1.00  0.00     0.049 A 
ATOM     62  C   UNL A   1      45.375  24.452  26.425  1.00  0.00     0.074 A 
ATOM     63  C   UNL A   1      48.598  28.306  28.652  1.00  0.00     0.029 A 
ATOM     64  N   UNL A   1      47.672  28.706  26.665  1.00  0.00    -0.354 N 
ATOM     65  N   UNL A   1      46.151  25.483  26.605  1.00  0.00    -0.248 NA
ATOM     66  C   UNL A   1      45.739  23.680  25.241  1.00  0.00     0.031 C 
ATOM     67  C   UNL A   1      48.596  27.109  27.912  1.00  0.00     0.029 A 
ATOM     68  C   UNL A   1      48.064  27.387  26.665  1.00  0.00     0.049 A 
ATOM     69  H   UNL A   1      47.221  29.165  25.921  1.00  0.00     0.167 HD
ATOM     70  C   UNL A   1      47.050  25.560  25.571  1.00  0.00     0.074 A 
ATOM     71  C   UNL A   1      46.773  24.394  24.762  1.00  0.00     0.031 C 
ATOM     72  C   UNL A   1      47.925  26.601  25.466  1.00  0.00     0.037 A 
BRANCH  59  73
ATOM     73  C   UNL A   1      48.144  31.773  28.677  1.00  0.00     0.064 A 
ATOM     74  C   UNL A   1      48.475  32.780  27.752  1.00  0.00     0.173 A 
ATOM     75  C   UNL A   1      48.660  31.958  29.980  1.00  0.00     0.173 A 
ATOM     76  F   UNL A   1      47.970  32.776  26.513  1.00  0.00    -0.203 F 
ATOM     77  C   UNL A   1      49.378  33.803  28.059  1.00  0.00     0.198 A 
ATOM     78  C   UNL A   1      49.603  32.953  30.272  1.00  0.00     0.198 A 
ATOM     79  F   UNL A   1      48.318  31.122  30.975  1.00  0.00    -0.203 F 
ATOM     80  F   UNL A   1      49.701  34.707  27.123  1.00  0.00    -0.200 F 
ATOM     81  C   UNL A   1      49.979  33.862  29.301  1.00  0.00     0.200 A 
ATOM     82  F   UNL A   1      50.188  32.991  31.479  1.00  0.00    -0.200 F 
ATOM     83  F   UNL A   1      50.921  34.781  29.557  1.00  0.00    -0.200 F 
ENDBRANCH  59  73
BRANCH  60  84
ATOM     84  C   UNL A   1      42.842  23.746  26.855  1.00  0.00     0.064 A 
ATOM     85  C   UNL A   1      42.352  22.466  27.188  1.00  0.00     0.173 A 
ATOM     86  C   UNL A   1      41.911  24.697  26.418  1.00  0.00     0.173 A 
ATOM     87  F   UNL A   1      43.199  21.518  27.621  1.00  0.00    -0.203 F 
ATOM     88  C   UNL A   1      40.988  22.185  27.194  1.00  0.00     0.198 A 
ATOM     89  C   UNL A   1      40.541  24.406  26.410  1.00  0.00     0.198 A 
ATOM     90  F   UNL A   1      42.303  25.944  26.123  1.00  0.00    -0.203 F 
ATOM     91  F   UNL A   1      40.553  20.997  27.639  1.00  0.00    -0.200 F 
ATOM     92  C   UNL A   1      40.082  23.162  26.825  1.00  0.00     0.200 A 
ATOM     93  F   UNL A   1      39.654  25.367  26.114  1.00  0.00    -0.200 F 
ATOM     94  F   UNL A   1      38.766  22.931  26.937  1.00  0.00    -0.200 F 
ENDBRANCH  60  84
BRANCH  72  95
ATOM     95  C   UNL A   1      48.776  26.992  24.281  1.00  0.00     0.064 A 
ATOM     96  C   UNL A   1      50.141  26.701  24.172  1.00  0.00     0.173 A 
ATOM     97  C   UNL A   1      48.167  27.518  23.108  1.00  0.00     0.173 A 
ATOM     98  F   UNL A   1      50.813  26.114  25.169  1.00  0.00    -0.203 F 
ATOM     99  C   UNL A   1      50.853  26.950  22.994  1.00  0.00     0.198 A 
ATOM    100  C   UNL A   1      48.865  27.698  21.918  1.00  0.00     0.198 A 
ATOM    101  F   UNL A   1      46.866  27.841  23.069  1.00  0.00    -0.203 F 
ATOM    102  F   UNL A   1      52.167  26.690  22.951  1.00  0.00    -0.200 F 
ATOM    103  C   UNL A   1      50.214  27.428  21.865  1.00  0.00     0.200 A 
ATOM    104  F   UNL A   1      48.215  28.110  20.819  1.00  0.00    -0.200 F 
ATOM    105  F   UNL A   1      50.892  27.609  20.724  1.00  0.00    -0.200 F 
ENDBRANCH  72  95
ENDBRANCH  46  47
ENDBRANCH  39  41
ENDBRANCH  38  39
ENDBRANCH  37  38
ENDBRANCH  36  37
ENDBRANCH  35  36
ENDBRANCH  34  35
ENDBRANCH   1  34
TORSDOF 19
ENDMDL
