MODEL 1
REMARK VINA RESULT:     -10.1      0.000      0.000
REMARK SMILES CS(=O)(=O)Nc1cc(C(=O)OCCOCCOCCOC(=O)c2ccc(-c3c4nc(c(-c5c(F)c(F)c(F)c(F)c5F)c5ccc([nH]5)c(-c5c(F)c(F)c(F)c(F)c5F)c5nc(c(-c6c(F)c(F)c(F)c(F)c6F)c6ccc3[nH]6)C=C5)C=C4)cc2)ccc1N1CC[NH+](CC(=O)N2CCCC2)CC1
REMARK SMILES IDX 15 1 14 2 13 3 12 4 11 5 9 6 10 7 8 8 6 9 7 10 88 11 87 12
REMARK SMILES IDX 86 13 5 14 2 16 1 17 3 18 4 19 89 20 90 21 102 22 91 23
REMARK SMILES IDX 101 24 92 25 93 27 94 28 95 29 96 30 97 31 100 32 98 33
REMARK SMILES IDX 99 34 16 35 17 36 18 37 19 38 20 39 21 40 22 41 23 42 24 43
REMARK SMILES IDX 85 44 25 45 84 46 26 47 27 48 28 49 78 50 29 51 83 52 77 53
REMARK SMILES IDX 79 54 30 55 82 56 76 57 75 58 31 60 63 61 43 62 62 63 44 64
REMARK SMILES IDX 47 65 61 66 80 67 45 68 46 69 60 71 81 72 48 73 32 74 33 75
REMARK SMILES IDX 41 76 34 77 35 78 39 79 42 80 36 81 37 82 40 83 38 84 64 85
REMARK SMILES IDX 65 86 73 87 66 88 67 89 71 90 74 91 68 92 69 93 72 94 70 95
REMARK SMILES IDX 49 96 50 97 58 98 51 99 52 100 56 101 59 102 53 103 54 104
REMARK SMILES IDX 57 105 55 106
REMARK H PARENT 5 15 92 26 79 59 47 70
REMARK Flexibility Score: inf
ROOT
ATOM      1  C   UNL A   1      34.693  34.572  29.611  1.00  0.00     0.188 C 
ENDROOT
BRANCH   1   2
ATOM      2  O   UNL A   1      35.769  33.935  28.954  1.00  0.00    -0.376 OA
BRANCH   2   3
ATOM      3  C   UNL A   1      35.468  32.864  28.076  1.00  0.00     0.202 C 
BRANCH   3   4
ATOM      4  C   UNL A   1      34.026  32.370  27.816  1.00  0.00     0.261 C 
BRANCH   4   5
ATOM      5  O   UNL A   1      33.806  30.960  27.655  1.00  0.00    -0.460 OA
BRANCH   5   6
ATOM      6  C   UNL A   1      32.633  30.571  27.105  1.00  0.00     0.338 C 
ATOM      7  O   UNL A   1      31.696  31.289  26.806  1.00  0.00    -0.246 OA
BRANCH   6   8
ATOM      8  C   UNL A   1      32.728  29.140  26.723  1.00  0.00     0.062 A 
ATOM      9  C   UNL A   1      31.557  27.086  26.143  1.00  0.00     0.073 A 
ATOM     10  C   UNL A   1      31.541  28.429  26.545  1.00  0.00     0.044 A 
ATOM     11  C   UNL A   1      32.787  26.390  25.968  1.00  0.00     0.062 A 
ATOM     12  C   UNL A   1      33.965  27.157  26.110  1.00  0.00     0.029 A 
ATOM     13  C   UNL A   1      33.943  28.517  26.456  1.00  0.00     0.018 A 
BRANCH   9  14
ATOM     14  N   UNL A   1      30.291  26.631  25.660  1.00  0.00    -0.282 N 
ATOM     15  H   UNL A   1      29.589  26.476  26.332  1.00  0.00     0.180 HD
BRANCH  14  16
ATOM     16  S   UNL A   1      29.889  26.337  24.080  1.00  0.00     0.229 S 
ATOM     17  C   UNL A   1      28.127  26.489  23.875  1.00  0.00     0.183 C 
ATOM     18  O   UNL A   1      30.268  24.955  23.856  1.00  0.00    -0.207 OA
ATOM     19  O   UNL A   1      30.517  27.383  23.298  1.00  0.00    -0.207 OA
ENDBRANCH  14  16
ENDBRANCH   9  14
BRANCH  11  20
ATOM     20  N   UNL A   1      32.868  25.027  25.656  1.00  0.00    -0.359 N 
ATOM     21  C   UNL A   1      32.328  24.001  26.596  1.00  0.00     0.178 C 
ATOM     22  C   UNL A   1      34.099  24.562  25.028  1.00  0.00     0.178 C 
ATOM     23  C   UNL A   1      32.270  22.580  25.953  1.00  0.00     0.284 C 
ATOM     24  C   UNL A   1      33.862  23.252  24.260  1.00  0.00     0.284 C 
ATOM     25  N   UNL A   1      33.409  22.158  25.115  1.00  0.00    -0.324 N 
ATOM     26  H   UNL A   1      33.023  21.419  24.527  1.00  0.00     0.348 HD
BRANCH  25  27
ATOM     27  C   UNL A   1      34.503  21.422  25.769  1.00  0.00     0.363 C 
BRANCH  27  28
ATOM     28  C   UNL A   1      35.121  20.246  25.007  1.00  0.00     0.277 C 
ATOM     29  O   UNL A   1      36.339  20.231  24.797  1.00  0.00    -0.268 OA
ATOM     30  N   UNL A   1      34.323  19.176  24.628  1.00  0.00    -0.338 N 
ATOM     31  C   UNL A   1      32.871  19.085  24.490  1.00  0.00     0.119 C 
ATOM     32  C   UNL A   1      34.949  17.921  24.248  1.00  0.00     0.119 C 
ATOM     33  C   UNL A   1      32.573  17.606  24.317  1.00  0.00     0.023 C 
ATOM     34  C   UNL A   1      33.837  17.075  23.650  1.00  0.00     0.023 C 
ENDBRANCH  27  28
ENDBRANCH  25  27
ENDBRANCH  11  20
ENDBRANCH   6   8
ENDBRANCH   5   6
ENDBRANCH   4   5
ENDBRANCH   3   4
ENDBRANCH   2   3
ENDBRANCH   1   2
BRANCH   1  35
ATOM     35  C   UNL A   1      34.715  34.310  31.126  1.00  0.00     0.188 C 
BRANCH  35  36
ATOM     36  O   UNL A   1      34.234  33.063  31.590  1.00  0.00    -0.376 OA
BRANCH  36  37
ATOM     37  C   UNL A   1      35.102  31.941  31.675  1.00  0.00     0.202 C 
BRANCH  37  38
ATOM     38  C   UNL A   1      36.247  31.759  32.702  1.00  0.00     0.261 C 
BRANCH  38  39
ATOM     39  O   UNL A   1      36.799  30.454  32.906  1.00  0.00    -0.460 OA
BRANCH  39  40
ATOM     40  C   UNL A   1      37.244  29.807  31.809  1.00  0.00     0.338 C 
ATOM     41  O   UNL A   1      36.661  28.949  31.159  1.00  0.00    -0.246 OA
BRANCH  40  42
ATOM     42  C   UNL A   1      38.511  30.433  31.381  1.00  0.00     0.060 A 
ATOM     43  C   UNL A   1      38.689  30.752  30.028  1.00  0.00     0.016 A 
ATOM     44  C   UNL A   1      39.521  30.694  32.307  1.00  0.00     0.016 A 
ATOM     45  C   UNL A   1      39.886  31.322  29.593  1.00  0.00     0.010 A 
ATOM     46  C   UNL A   1      40.730  31.242  31.866  1.00  0.00     0.010 A 
ATOM     47  C   UNL A   1      40.927  31.539  30.504  1.00  0.00    -0.014 A 
BRANCH  47  48
ATOM     48  C   UNL A   1      42.273  31.928  30.015  1.00  0.00     0.031 A 
ATOM     49  C   UNL A   1      42.589  33.390  29.854  1.00  0.00     0.074 A 
ATOM     50  C   UNL A   1      43.202  31.002  29.720  1.00  0.00     0.049 A 
ATOM     51  N   UNL A   1      43.662  33.962  29.370  1.00  0.00    -0.248 NA
ATOM     52  C   UNL A   1      41.552  34.336  30.297  1.00  0.00     0.031 C 
ATOM     53  C   UNL A   1      43.038  29.559  29.875  1.00  0.00     0.029 A 
ATOM     54  N   UNL A   1      44.471  31.145  29.210  1.00  0.00    -0.354 N 
ATOM     55  C   UNL A   1      43.423  35.329  29.435  1.00  0.00     0.074 A 
ATOM     56  C   UNL A   1      42.097  35.503  29.986  1.00  0.00     0.031 C 
ATOM     57  C   UNL A   1      44.156  28.945  29.449  1.00  0.00     0.029 A 
ATOM     58  C   UNL A   1      45.097  29.949  28.953  1.00  0.00     0.049 A 
ATOM     59  H   UNL A   1      44.891  32.019  29.045  1.00  0.00     0.167 HD
ATOM     60  C   UNL A   1      44.239  36.344  29.069  1.00  0.00     0.037 A 
ATOM     61  C   UNL A   1      46.278  29.694  28.354  1.00  0.00     0.037 A 
ATOM     62  C   UNL A   1      45.562  36.169  28.531  1.00  0.00     0.049 A 
ATOM     63  C   UNL A   1      47.137  30.847  27.892  1.00  0.00     0.074 A 
ATOM     64  C   UNL A   1      46.479  37.141  28.170  1.00  0.00     0.029 A 
ATOM     65  N   UNL A   1      46.153  34.944  28.265  1.00  0.00    -0.354 N 
ATOM     66  N   UNL A   1      46.922  32.137  27.991  1.00  0.00    -0.248 NA
ATOM     67  C   UNL A   1      48.408  30.508  27.235  1.00  0.00     0.031 C 
ATOM     68  C   UNL A   1      47.596  36.506  27.619  1.00  0.00     0.029 A 
ATOM     69  C   UNL A   1      47.406  35.137  27.706  1.00  0.00     0.049 A 
ATOM     70  H   UNL A   1      45.743  34.067  28.445  1.00  0.00     0.167 HD
ATOM     71  C   UNL A   1      48.040  32.757  27.447  1.00  0.00     0.074 A 
ATOM     72  C   UNL A   1      48.940  31.704  27.029  1.00  0.00     0.031 C 
ATOM     73  C   UNL A   1      48.300  34.080  27.305  1.00  0.00     0.037 A 
BRANCH  60  74
ATOM     74  C   UNL A   1      43.720  37.746  29.204  1.00  0.00     0.064 A 
ATOM     75  C   UNL A   1      42.897  38.330  28.231  1.00  0.00     0.173 A 
ATOM     76  C   UNL A   1      43.992  38.487  30.366  1.00  0.00     0.173 A 
ATOM     77  F   UNL A   1      42.619  37.671  27.096  1.00  0.00    -0.203 F 
ATOM     78  C   UNL A   1      42.376  39.610  28.410  1.00  0.00     0.198 A 
ATOM     79  C   UNL A   1      43.444  39.752  30.554  1.00  0.00     0.198 A 
ATOM     80  F   UNL A   1      44.771  37.972  31.329  1.00  0.00    -0.203 F 
ATOM     81  F   UNL A   1      41.620  40.163  27.451  1.00  0.00    -0.200 F 
ATOM     82  C   UNL A   1      42.640  40.314  29.576  1.00  0.00     0.200 A 
ATOM     83  F   UNL A   1      43.688  40.423  31.688  1.00  0.00    -0.200 F 
ATOM     84  F   UNL A   1      42.120  41.535  29.754  1.00  0.00    -0.200 F 
ENDBRANCH  60  74
BRANCH  61  85
ATOM     85  C   UNL A   1      46.708  28.291  28.109  1.00  0.00     0.064 A 
ATOM     86  C   UNL A   1      46.329  27.601  26.947  1.00  0.00     0.173 A 
ATOM     87  C   UNL A   1      47.457  27.587  29.064  1.00  0.00     0.173 A 
ATOM     88  F   UNL A   1      45.579  28.215  26.020  1.00  0.00    -0.203 F 
ATOM     89  C   UNL A   1      46.652  26.257  26.768  1.00  0.00     0.198 A 
ATOM     90  C   UNL A   1      47.812  26.255  28.867  1.00  0.00     0.198 A 
ATOM     91  F   UNL A   1      47.839  28.192  30.199  1.00  0.00    -0.203 F 
ATOM     92  F   UNL A   1      46.209  25.603  25.686  1.00  0.00    -0.200 F 
ATOM     93  C   UNL A   1      47.396  25.586  27.725  1.00  0.00     0.200 A 
ATOM     94  F   UNL A   1      48.536  25.612  29.793  1.00  0.00    -0.200 F 
ATOM     95  F   UNL A   1      47.696  24.291  27.558  1.00  0.00    -0.200 F 
ENDBRANCH  61  85
BRANCH  73  96
ATOM     96  C   UNL A   1      49.627  34.474  26.719  1.00  0.00     0.064 A 
ATOM     97  C   UNL A   1      50.817  34.396  27.458  1.00  0.00     0.173 A 
ATOM     98  C   UNL A   1      49.715  34.889  25.380  1.00  0.00     0.173 A 
ATOM     99  F   UNL A   1      50.789  34.016  28.745  1.00  0.00    -0.203 F 
ATOM    100  C   UNL A   1      52.039  34.746  26.888  1.00  0.00     0.198 A 
ATOM    101  C   UNL A   1      50.942  35.202  24.803  1.00  0.00     0.198 A 
ATOM    102  F   UNL A   1      48.611  34.970  24.623  1.00  0.00    -0.203 F 
ATOM    103  F   UNL A   1      53.156  34.711  27.629  1.00  0.00    -0.200 F 
ATOM    104  C   UNL A   1      52.101  35.139  25.559  1.00  0.00     0.200 A 
ATOM    105  F   UNL A   1      51.002  35.562  23.514  1.00  0.00    -0.200 F 
ATOM    106  F   UNL A   1      53.280  35.461  25.010  1.00  0.00    -0.200 F 
ENDBRANCH  73  96
ENDBRANCH  47  48
ENDBRANCH  40  42
ENDBRANCH  39  40
ENDBRANCH  38  39
ENDBRANCH  37  38
ENDBRANCH  36  37
ENDBRANCH  35  36
ENDBRANCH   1  35
TORSDOF 22
ENDMDL
MODEL 2
REMARK VINA RESULT:      -9.7      1.551      2.281
REMARK SMILES CS(=O)(=O)Nc1cc(C(=O)OCCOCCOCCOC(=O)c2ccc(-c3c4nc(c(-c5c(F)c(F)c(F)c(F)c5F)c5ccc([nH]5)c(-c5c(F)c(F)c(F)c(F)c5F)c5nc(c(-c6c(F)c(F)c(F)c(F)c6F)c6ccc3[nH]6)C=C5)C=C4)cc2)ccc1N1CC[NH+](CC(=O)N2CCCC2)CC1
REMARK SMILES IDX 15 1 14 2 13 3 12 4 11 5 9 6 10 7 8 8 6 9 7 10 88 11 87 12
REMARK SMILES IDX 86 13 5 14 2 16 1 17 3 18 4 19 89 20 90 21 102 22 91 23
REMARK SMILES IDX 101 24 92 25 93 27 94 28 95 29 96 30 97 31 100 32 98 33
REMARK SMILES IDX 99 34 16 35 17 36 18 37 19 38 20 39 21 40 22 41 23 42 24 43
REMARK SMILES IDX 85 44 25 45 84 46 26 47 27 48 28 49 78 50 29 51 83 52 77 53
REMARK SMILES IDX 79 54 30 55 82 56 76 57 75 58 31 60 63 61 43 62 62 63 44 64
REMARK SMILES IDX 47 65 61 66 80 67 45 68 46 69 60 71 81 72 48 73 32 74 33 75
REMARK SMILES IDX 41 76 34 77 35 78 39 79 42 80 36 81 37 82 40 83 38 84 64 85
REMARK SMILES IDX 65 86 73 87 66 88 67 89 71 90 74 91 68 92 69 93 72 94 70 95
REMARK SMILES IDX 49 96 50 97 58 98 51 99 52 100 56 101 59 102 53 103 54 104
REMARK SMILES IDX 57 105 55 106
REMARK H PARENT 5 15 92 26 79 59 47 70
REMARK Flexibility Score: inf
ROOT
ATOM      1  C   UNL A   1      34.927  33.781  30.564  1.00  0.00     0.188 C 
ENDROOT
BRANCH   1   2
ATOM      2  O   UNL A   1      35.853  33.645  29.506  1.00  0.00    -0.376 OA
BRANCH   2   3
ATOM      3  C   UNL A   1      35.506  32.790  28.429  1.00  0.00     0.202 C 
BRANCH   3   4
ATOM      4  C   UNL A   1      34.060  32.310  28.169  1.00  0.00     0.261 C 
BRANCH   4   5
ATOM      5  O   UNL A   1      33.850  30.935  27.811  1.00  0.00    -0.460 OA
BRANCH   5   6
ATOM      6  C   UNL A   1      32.714  30.630  27.144  1.00  0.00     0.338 C 
ATOM      7  O   UNL A   1      31.780  31.379  26.918  1.00  0.00    -0.246 OA
BRANCH   6   8
ATOM      8  C   UNL A   1      32.854  29.282  26.538  1.00  0.00     0.062 A 
ATOM      9  C   UNL A   1      31.888  27.557  25.119  1.00  0.00     0.073 A 
ATOM     10  C   UNL A   1      31.803  28.804  25.755  1.00  0.00     0.044 A 
ATOM     11  C   UNL A   1      33.020  26.714  25.308  1.00  0.00     0.062 A 
ATOM     12  C   UNL A   1      34.081  27.255  26.067  1.00  0.00     0.029 A 
ATOM     13  C   UNL A   1      34.017  28.528  26.655  1.00  0.00     0.018 A 
BRANCH   9  14
ATOM     14  N   UNL A   1      30.914  27.389  24.085  1.00  0.00    -0.282 N 
ATOM     15  H   UNL A   1      30.036  27.034  24.355  1.00  0.00     0.180 HD
BRANCH  14  16
ATOM     16  S   UNL A   1      31.118  27.732  22.477  1.00  0.00     0.229 S 
ATOM     17  C   UNL A   1      31.489  26.233  21.591  1.00  0.00     0.183 C 
ATOM     18  O   UNL A   1      32.279  28.602  22.432  1.00  0.00    -0.207 OA
ATOM     19  O   UNL A   1      29.841  28.223  22.001  1.00  0.00    -0.207 OA
ENDBRANCH  14  16
ENDBRANCH   9  14
BRANCH  11  20
ATOM     20  N   UNL A   1      33.122  25.424  24.773  1.00  0.00    -0.359 N 
ATOM     21  C   UNL A   1      31.998  24.452  24.919  1.00  0.00     0.178 C 
ATOM     22  C   UNL A   1      34.411  24.754  24.901  1.00  0.00     0.178 C 
ATOM     23  C   UNL A   1      32.196  23.182  24.034  1.00  0.00     0.284 C 
ATOM     24  C   UNL A   1      34.561  23.649  23.843  1.00  0.00     0.284 C 
ATOM     25  N   UNL A   1      33.551  22.602  23.957  1.00  0.00    -0.324 N 
ATOM     26  H   UNL A   1      33.539  22.060  23.093  1.00  0.00     0.348 HD
BRANCH  25  27
ATOM     27  C   UNL A   1      33.896  21.543  24.919  1.00  0.00     0.363 C 
BRANCH  27  28
ATOM     28  C   UNL A   1      32.931  20.361  25.051  1.00  0.00     0.277 C 
ATOM     29  O   UNL A   1      31.756  20.570  25.373  1.00  0.00    -0.268 OA
ATOM     30  N   UNL A   1      33.363  19.081  24.737  1.00  0.00    -0.338 N 
ATOM     31  C   UNL A   1      34.718  18.543  24.630  1.00  0.00     0.119 C 
ATOM     32  C   UNL A   1      32.381  18.037  24.504  1.00  0.00     0.119 C 
ATOM     33  C   UNL A   1      34.559  17.173  23.995  1.00  0.00     0.023 C 
ATOM     34  C   UNL A   1      33.171  16.739  24.451  1.00  0.00     0.023 C 
ENDBRANCH  27  28
ENDBRANCH  25  27
ENDBRANCH  11  20
ENDBRANCH   6   8
ENDBRANCH   5   6
ENDBRANCH   4   5
ENDBRANCH   3   4
ENDBRANCH   2   3
ENDBRANCH   1   2
BRANCH   1  35
ATOM     35  C   UNL A   1      35.579  33.508  31.930  1.00  0.00     0.188 C 
BRANCH  35  36
ATOM     36  O   UNL A   1      35.361  32.245  32.527  1.00  0.00    -0.376 OA
BRANCH  36  37
ATOM     37  C   UNL A   1      36.308  31.197  32.364  1.00  0.00     0.202 C 
BRANCH  37  38
ATOM     38  C   UNL A   1      37.543  30.945  33.264  1.00  0.00     0.261 C 
BRANCH  38  39
ATOM     39  O   UNL A   1      38.117  29.634  33.310  1.00  0.00    -0.460 OA
BRANCH  39  40
ATOM     40  C   UNL A   1      38.546  29.120  32.138  1.00  0.00     0.338 C 
ATOM     41  O   UNL A   1      38.041  28.212  31.491  1.00  0.00    -0.246 OA
BRANCH  40  42
ATOM     42  C   UNL A   1      39.650  29.961  31.637  1.00  0.00     0.060 A 
ATOM     43  C   UNL A   1      39.806  30.128  30.254  1.00  0.00     0.016 A 
ATOM     44  C   UNL A   1      40.535  30.573  32.526  1.00  0.00     0.016 A 
ATOM     45  C   UNL A   1      40.855  30.899  29.754  1.00  0.00     0.010 A 
ATOM     46  C   UNL A   1      41.601  31.325  32.022  1.00  0.00     0.010 A 
ATOM     47  C   UNL A   1      41.781  31.473  30.634  1.00  0.00    -0.014 A 
BRANCH  47  48
ATOM     48  C   UNL A   1      43.020  32.097  30.107  1.00  0.00     0.031 A 
ATOM     49  C   UNL A   1      42.978  33.538  29.678  1.00  0.00     0.074 A 
ATOM     50  C   UNL A   1      44.165  31.399  30.011  1.00  0.00     0.049 A 
ATOM     51  N   UNL A   1      43.907  34.267  29.115  1.00  0.00    -0.248 NA
ATOM     52  C   UNL A   1      41.713  34.254  29.913  1.00  0.00     0.031 C 
ATOM     53  C   UNL A   1      44.350  30.013  30.434  1.00  0.00     0.029 A 
ATOM     54  N   UNL A   1      45.391  31.765  29.508  1.00  0.00    -0.354 N 
ATOM     55  C   UNL A   1      43.337  35.517  28.915  1.00  0.00     0.074 A 
ATOM     56  C   UNL A   1      41.976  35.446  29.397  1.00  0.00     0.031 C 
ATOM     57  C   UNL A   1      45.610  29.636  30.154  1.00  0.00     0.029 A 
ATOM     58  C   UNL A   1      46.307  30.740  29.495  1.00  0.00     0.049 A 
ATOM     59  H   UNL A   1      45.594  32.673  29.188  1.00  0.00     0.167 HD
ATOM     60  C   UNL A   1      43.902  36.624  28.379  1.00  0.00     0.037 A 
ATOM     61  C   UNL A   1      47.552  30.690  28.979  1.00  0.00     0.037 A 
ATOM     62  C   UNL A   1      45.261  36.697  27.910  1.00  0.00     0.049 A 
ATOM     63  C   UNL A   1      48.131  31.922  28.323  1.00  0.00     0.074 A 
ATOM     64  C   UNL A   1      45.934  37.789  27.389  1.00  0.00     0.029 A 
ATOM     65  N   UNL A   1      46.150  35.634  27.893  1.00  0.00    -0.354 N 
ATOM     66  N   UNL A   1      47.600  33.111  28.172  1.00  0.00    -0.248 NA
ATOM     67  C   UNL A   1      49.487  31.803  27.768  1.00  0.00     0.031 C 
ATOM     68  C   UNL A   1      47.206  37.369  26.990  1.00  0.00     0.029 A 
ATOM     69  C   UNL A   1      47.352  36.035  27.332  1.00  0.00     0.049 A 
ATOM     70  H   UNL A   1      45.957  34.728  28.228  1.00  0.00     0.167 HD
ATOM     71  C   UNL A   1      48.566  33.887  27.542  1.00  0.00     0.074 A 
ATOM     72  C   UNL A   1      49.723  33.038  27.349  1.00  0.00     0.031 C 
ATOM     73  C   UNL A   1      48.503  35.185  27.157  1.00  0.00     0.037 A 
BRANCH  60  74
ATOM     74  C   UNL A   1      43.048  37.850  28.236  1.00  0.00     0.064 A 
ATOM     75  C   UNL A   1      43.047  38.870  29.197  1.00  0.00     0.173 A 
ATOM     76  C   UNL A   1      42.277  38.038  27.078  1.00  0.00     0.173 A 
ATOM     77  F   UNL A   1      43.754  38.734  30.329  1.00  0.00    -0.203 F 
ATOM     78  C   UNL A   1      42.294  40.027  29.011  1.00  0.00     0.198 A 
ATOM     79  C   UNL A   1      41.552  39.209  26.881  1.00  0.00     0.198 A 
ATOM     80  F   UNL A   1      42.247  37.093  26.125  1.00  0.00    -0.203 F 
ATOM     81  F   UNL A   1      42.280  40.975  29.959  1.00  0.00    -0.200 F 
ATOM     82  C   UNL A   1      41.558  40.201  27.848  1.00  0.00     0.200 A 
ATOM     83  F   UNL A   1      40.854  39.380  25.750  1.00  0.00    -0.200 F 
ATOM     84  F   UNL A   1      40.852  41.324  27.662  1.00  0.00    -0.200 F 
ENDBRANCH  60  74
BRANCH  61  85
ATOM     85  C   UNL A   1      48.328  29.421  29.012  1.00  0.00     0.064 A 
ATOM     86  C   UNL A   1      48.277  28.504  27.952  1.00  0.00     0.173 A 
ATOM     87  C   UNL A   1      49.089  29.070  30.138  1.00  0.00     0.173 A 
ATOM     88  F   UNL A   1      47.533  28.774  26.869  1.00  0.00    -0.203 F 
ATOM     89  C   UNL A   1      48.929  27.274  28.031  1.00  0.00     0.198 A 
ATOM     90  C   UNL A   1      49.769  27.855  30.200  1.00  0.00     0.198 A 
ATOM     91  F   UNL A   1      49.165  29.903  31.187  1.00  0.00    -0.203 F 
ATOM     92  F   UNL A   1      48.798  26.385  27.037  1.00  0.00    -0.200 F 
ATOM     93  C   UNL A   1      49.677  26.952  29.152  1.00  0.00     0.200 A 
ATOM     94  F   UNL A   1      50.496  27.552  31.284  1.00  0.00    -0.200 F 
ATOM     95  F   UNL A   1      50.292  25.764  29.233  1.00  0.00    -0.200 F 
ENDBRANCH  61  85
BRANCH  73  96
ATOM     96  C   UNL A   1      49.729  35.791  26.532  1.00  0.00     0.064 A 
ATOM     97  C   UNL A   1      49.896  35.857  25.141  1.00  0.00     0.173 A 
ATOM     98  C   UNL A   1      50.729  36.357  27.339  1.00  0.00     0.173 A 
ATOM     99  F   UNL A   1      48.976  35.322  24.323  1.00  0.00    -0.203 F 
ATOM    100  C   UNL A   1      51.030  36.442  24.582  1.00  0.00     0.198 A 
ATOM    101  C   UNL A   1      51.843  36.974  26.777  1.00  0.00     0.198 A 
ATOM    102  F   UNL A   1      50.615  36.332  28.675  1.00  0.00    -0.203 F 
ATOM    103  F   UNL A   1      51.191  36.449  23.251  1.00  0.00    -0.200 F 
ATOM    104  C   UNL A   1      51.997  37.008  25.400  1.00  0.00     0.200 A 
ATOM    105  F   UNL A   1      52.766  37.537  27.568  1.00  0.00    -0.200 F 
ATOM    106  F   UNL A   1      53.081  37.582  24.860  1.00  0.00    -0.200 F 
ENDBRANCH  73  96
ENDBRANCH  47  48
ENDBRANCH  40  42
ENDBRANCH  39  40
ENDBRANCH  38  39
ENDBRANCH  37  38
ENDBRANCH  36  37
ENDBRANCH  35  36
ENDBRANCH   1  35
TORSDOF 22
ENDMDL
MODEL 3
REMARK VINA RESULT:      -9.5      1.951      2.371
REMARK SMILES CS(=O)(=O)Nc1cc(C(=O)OCCOCCOCCOC(=O)c2ccc(-c3c4nc(c(-c5c(F)c(F)c(F)c(F)c5F)c5ccc([nH]5)c(-c5c(F)c(F)c(F)c(F)c5F)c5nc(c(-c6c(F)c(F)c(F)c(F)c6F)c6ccc3[nH]6)C=C5)C=C4)cc2)ccc1N1CC[NH+](CC(=O)N2CCCC2)CC1
REMARK SMILES IDX 15 1 14 2 13 3 12 4 11 5 9 6 10 7 8 8 6 9 7 10 88 11 87 12
REMARK SMILES IDX 86 13 5 14 2 16 1 17 3 18 4 19 89 20 90 21 102 22 91 23
REMARK SMILES IDX 101 24 92 25 93 27 94 28 95 29 96 30 97 31 100 32 98 33
REMARK SMILES IDX 99 34 16 35 17 36 18 37 19 38 20 39 21 40 22 41 23 42 24 43
REMARK SMILES IDX 85 44 25 45 84 46 26 47 27 48 28 49 78 50 29 51 83 52 77 53
REMARK SMILES IDX 79 54 30 55 82 56 76 57 75 58 31 60 63 61 43 62 62 63 44 64
REMARK SMILES IDX 47 65 61 66 80 67 45 68 46 69 60 71 81 72 48 73 32 74 33 75
REMARK SMILES IDX 41 76 34 77 35 78 39 79 42 80 36 81 37 82 40 83 38 84 64 85
REMARK SMILES IDX 65 86 73 87 66 88 67 89 71 90 74 91 68 92 69 93 72 94 70 95
REMARK SMILES IDX 49 96 50 97 58 98 51 99 52 100 56 101 59 102 53 103 54 104
REMARK SMILES IDX 57 105 55 106
REMARK H PARENT 5 15 92 26 79 59 47 70
REMARK Flexibility Score: inf
ROOT
ATOM      1  C   UNL A   1      35.503  33.434  30.427  1.00  0.00     0.188 C 
ENDROOT
BRANCH   1   2
ATOM      2  O   UNL A   1      36.331  33.352  29.285  1.00  0.00    -0.376 OA
BRANCH   2   3
ATOM      3  C   UNL A   1      35.832  32.658  28.154  1.00  0.00     0.202 C 
BRANCH   3   4
ATOM      4  C   UNL A   1      34.337  32.302  27.979  1.00  0.00     0.261 C 
BRANCH   4   5
ATOM      5  O   UNL A   1      33.999  31.102  27.267  1.00  0.00    -0.460 OA
BRANCH   5   6
ATOM      6  C   UNL A   1      32.729  30.979  26.818  1.00  0.00     0.338 C 
ATOM      7  O   UNL A   1      31.848  31.815  26.894  1.00  0.00    -0.246 OA
BRANCH   6   8
ATOM      8  C   UNL A   1      32.615  29.730  26.024  1.00  0.00     0.062 A 
ATOM      9  C   UNL A   1      31.211  28.288  24.655  1.00  0.00     0.073 A 
ATOM     10  C   UNL A   1      31.378  29.429  25.453  1.00  0.00     0.044 A 
ATOM     11  C   UNL A   1      32.281  27.368  24.460  1.00  0.00     0.062 A 
ATOM     12  C   UNL A   1      33.527  27.734  25.014  1.00  0.00     0.029 A 
ATOM     13  C   UNL A   1      33.706  28.907  25.764  1.00  0.00     0.018 A 
BRANCH   9  14
ATOM     14  N   UNL A   1      30.019  28.326  23.866  1.00  0.00    -0.282 N 
ATOM     15  H   UNL A   1      29.362  27.610  24.019  1.00  0.00     0.180 HD
BRANCH  14  16
ATOM     16  S   UNL A   1      29.637  29.457  22.717  1.00  0.00     0.229 S 
ATOM     17  C   UNL A   1      29.091  30.953  23.513  1.00  0.00     0.183 C 
ATOM     18  O   UNL A   1      28.521  28.879  21.992  1.00  0.00    -0.207 OA
ATOM     19  O   UNL A   1      30.867  29.754  22.013  1.00  0.00    -0.207 OA
ENDBRANCH  14  16
ENDBRANCH   9  14
BRANCH  11  20
ATOM     20  N   UNL A   1      32.150  26.168  23.751  1.00  0.00    -0.359 N 
ATOM     21  C   UNL A   1      31.429  25.007  24.353  1.00  0.00     0.178 C 
ATOM     22  C   UNL A   1      33.306  25.723  22.982  1.00  0.00     0.178 C 
ATOM     23  C   UNL A   1      31.162  23.874  23.313  1.00  0.00     0.284 C 
ATOM     24  C   UNL A   1      32.882  24.759  21.862  1.00  0.00     0.284 C 
ATOM     25  N   UNL A   1      32.239  23.546  22.359  1.00  0.00    -0.324 N 
ATOM     26  H   UNL A   1      31.755  23.090  21.586  1.00  0.00     0.348 HD
BRANCH  25  27
ATOM     27  C   UNL A   1      33.184  22.483  22.734  1.00  0.00     0.363 C 
BRANCH  27  28
ATOM     28  C   UNL A   1      32.859  21.650  23.978  1.00  0.00     0.277 C 
ATOM     29  O   UNL A   1      32.108  20.673  23.875  1.00  0.00    -0.268 OA
ATOM     30  N   UNL A   1      33.465  21.954  25.188  1.00  0.00    -0.338 N 
ATOM     31  C   UNL A   1      34.124  23.182  25.631  1.00  0.00     0.119 C 
ATOM     32  C   UNL A   1      33.453  20.970  26.256  1.00  0.00     0.119 C 
ATOM     33  C   UNL A   1      34.823  22.819  26.929  1.00  0.00     0.023 C 
ATOM     34  C   UNL A   1      33.950  21.703  27.492  1.00  0.00     0.023 C 
ENDBRANCH  27  28
ENDBRANCH  25  27
ENDBRANCH  11  20
ENDBRANCH   6   8
ENDBRANCH   5   6
ENDBRANCH   4   5
ENDBRANCH   3   4
ENDBRANCH   2   3
ENDBRANCH   1   2
BRANCH   1  35
ATOM     35  C   UNL A   1      36.328  33.491  31.724  1.00  0.00     0.188 C 
BRANCH  35  36
ATOM     36  O   UNL A   1      36.151  32.452  32.667  1.00  0.00    -0.376 OA
BRANCH  36  37
ATOM     37  C   UNL A   1      36.926  31.262  32.584  1.00  0.00     0.202 C 
BRANCH  37  38
ATOM     38  C   UNL A   1      38.154  30.919  33.461  1.00  0.00     0.261 C 
BRANCH  38  39
ATOM     39  O   UNL A   1      38.633  29.570  33.494  1.00  0.00    -0.460 OA
BRANCH  39  40
ATOM     40  C   UNL A   1      39.060  29.052  32.323  1.00  0.00     0.338 C 
ATOM     41  O   UNL A   1      38.563  28.131  31.688  1.00  0.00    -0.246 OA
BRANCH  40  42
ATOM     42  C   UNL A   1      40.149  29.904  31.806  1.00  0.00     0.060 A 
ATOM     43  C   UNL A   1      40.309  30.038  30.420  1.00  0.00     0.016 A 
ATOM     44  C   UNL A   1      41.015  30.558  32.684  1.00  0.00     0.016 A 
ATOM     45  C   UNL A   1      41.345  30.817  29.906  1.00  0.00     0.010 A 
ATOM     46  C   UNL A   1      42.068  31.319  32.166  1.00  0.00     0.010 A 
ATOM     47  C   UNL A   1      42.253  31.435  30.776  1.00  0.00    -0.014 A 
BRANCH  47  48
ATOM     48  C   UNL A   1      43.481  32.071  30.238  1.00  0.00     0.031 A 
ATOM     49  C   UNL A   1      43.413  33.501  29.779  1.00  0.00     0.074 A 
ATOM     50  C   UNL A   1      44.640  31.393  30.161  1.00  0.00     0.049 A 
ATOM     51  N   UNL A   1      44.330  34.237  29.203  1.00  0.00    -0.248 NA
ATOM     52  C   UNL A   1      42.134  34.197  29.995  1.00  0.00     0.031 C 
ATOM     53  C   UNL A   1      44.851  30.021  30.614  1.00  0.00     0.029 A 
ATOM     54  N   UNL A   1      45.860  31.772  29.654  1.00  0.00    -0.354 N 
ATOM     55  C   UNL A   1      43.736  35.471  28.975  1.00  0.00     0.074 A 
ATOM     56  C   UNL A   1      42.374  35.383  29.455  1.00  0.00     0.031 C 
ATOM     57  C   UNL A   1      46.118  29.662  30.345  1.00  0.00     0.029 A 
ATOM     58  C   UNL A   1      46.796  30.766  29.665  1.00  0.00     0.049 A 
ATOM     59  H   UNL A   1      46.047  32.677  29.316  1.00  0.00     0.167 HD
ATOM     60  C   UNL A   1      44.281  36.577  28.418  1.00  0.00     0.037 A 
ATOM     61  C   UNL A   1      48.043  30.729  29.153  1.00  0.00     0.037 A 
ATOM     62  C   UNL A   1      45.640  36.666  27.951  1.00  0.00     0.049 A 
ATOM     63  C   UNL A   1      48.601  31.957  28.474  1.00  0.00     0.074 A 
ATOM     64  C   UNL A   1      46.293  37.760  27.409  1.00  0.00     0.029 A 
ATOM     65  N   UNL A   1      46.550  35.620  27.959  1.00  0.00    -0.354 N 
ATOM     66  N   UNL A   1      48.047  33.133  28.296  1.00  0.00    -0.248 NA
ATOM     67  C   UNL A   1      49.961  31.854  27.925  1.00  0.00     0.031 C 
ATOM     68  C   UNL A   1      47.574  37.356  27.023  1.00  0.00     0.029 A 
ATOM     69  C   UNL A   1      47.745  36.033  27.394  1.00  0.00     0.049 A 
ATOM     70  H   UNL A   1      46.373  34.719  28.313  1.00  0.00     0.167 HD
ATOM     71  C   UNL A   1      49.000  33.914  27.652  1.00  0.00     0.074 A 
ATOM     72  C   UNL A   1      50.173  33.084  27.481  1.00  0.00     0.031 C 
ATOM     73  C   UNL A   1      48.913  35.202  27.240  1.00  0.00     0.037 A 
BRANCH  60  74
ATOM     74  C   UNL A   1      43.404  37.783  28.246  1.00  0.00     0.064 A 
ATOM     75  C   UNL A   1      42.544  37.925  27.148  1.00  0.00     0.173 A 
ATOM     76  C   UNL A   1      43.370  38.774  29.239  1.00  0.00     0.173 A 
ATOM     77  F   UNL A   1      42.547  37.013  26.163  1.00  0.00    -0.203 F 
ATOM     78  C   UNL A   1      41.693  39.022  27.043  1.00  0.00     0.198 A 
ATOM     79  C   UNL A   1      42.496  39.853  29.146  1.00  0.00     0.198 A 
ATOM     80  F   UNL A   1      44.171  38.684  30.312  1.00  0.00    -0.203 F 
ATOM     81  F   UNL A   1      40.904  39.156  25.968  1.00  0.00    -0.200 F 
ATOM     82  C   UNL A   1      41.661  39.978  28.048  1.00  0.00     0.200 A 
ATOM     83  F   UNL A   1      42.457  40.767  30.126  1.00  0.00    -0.200 F 
ATOM     84  F   UNL A   1      40.826  41.022  27.955  1.00  0.00    -0.200 F 
ENDBRANCH  60  74
BRANCH  61  85
ATOM     85  C   UNL A   1      48.844  29.477  29.216  1.00  0.00     0.064 A 
ATOM     86  C   UNL A   1      48.730  28.484  28.231  1.00  0.00     0.173 A 
ATOM     87  C   UNL A   1      49.696  29.217  30.302  1.00  0.00     0.173 A 
ATOM     88  F   UNL A   1      47.900  28.665  27.193  1.00  0.00    -0.203 F 
ATOM     89  C   UNL A   1      49.408  27.272  28.346  1.00  0.00     0.198 A 
ATOM     90  C   UNL A   1      50.402  28.020  30.396  1.00  0.00     0.198 A 
ATOM     91  F   UNL A   1      49.836  30.125  31.279  1.00  0.00    -0.203 F 
ATOM     92  F   UNL A   1      49.219  26.312  27.430  1.00  0.00    -0.200 F 
ATOM     93  C   UNL A   1      50.246  27.043  29.425  1.00  0.00     0.200 A 
ATOM     94  F   UNL A   1      51.215  27.805  31.439  1.00  0.00    -0.200 F 
ATOM     95  F   UNL A   1      50.888  25.872  29.541  1.00  0.00    -0.200 F 
ENDBRANCH  61  85
BRANCH  73  96
ATOM     96  C   UNL A   1      50.129  35.818  26.606  1.00  0.00     0.064 A 
ATOM     97  C   UNL A   1      51.191  36.320  27.373  1.00  0.00     0.173 A 
ATOM     98  C   UNL A   1      50.254  35.863  25.208  1.00  0.00     0.173 A 
ATOM     99  F   UNL A   1      51.119  36.312  28.713  1.00  0.00    -0.203 F 
ATOM    100  C   UNL A   1      52.319  36.867  26.765  1.00  0.00     0.198 A 
ATOM    101  C   UNL A   1      51.398  36.377  24.604  1.00  0.00     0.198 A 
ATOM    102  F   UNL A   1      49.274  35.386  24.426  1.00  0.00    -0.203 F 
ATOM    103  F   UNL A   1      53.298  37.385  27.519  1.00  0.00    -0.200 F 
ATOM    104  C   UNL A   1      52.425  36.886  25.382  1.00  0.00     0.200 A 
ATOM    105  F   UNL A   1      51.507  36.375  23.268  1.00  0.00    -0.200 F 
ATOM    106  F   UNL A   1      53.517  37.401  24.800  1.00  0.00    -0.200 F 
ENDBRANCH  73  96
ENDBRANCH  47  48
ENDBRANCH  40  42
ENDBRANCH  39  40
ENDBRANCH  38  39
ENDBRANCH  37  38
ENDBRANCH  36  37
ENDBRANCH  35  36
ENDBRANCH   1  35
TORSDOF 22
ENDMDL
