MODEL 1
REMARK VINA RESULT:     -11.7      0.000      0.000
REMARK SMILES Cc1cc(N2N=C(C(=O)OCCOCCOCCOC(=O)c3ccc(-c4c5nc(c(-c6c(F)c(F)c(F)c(F)c6F)c6ccc([nH]6)c(-c6c(F)c(F)c(F)c(F)c6F)c6nc(c(-c7c(F)c(F)c(F)c(F)c7F)c7ccc4[nH]7)C=C6)C=C5)cc3)C[C@H]2c2ccccc2)c([N+](=O)[O-])cc1C
REMARK SMILES IDX 14 1 13 2 12 3 11 4 10 5 8 6 9 7 7 8 5 9 6 10 86 11 85 12
REMARK SMILES IDX 4 13 1 14 2 15 3 16 98 17 97 18 99 19 93 20 94 21 95 22
REMARK SMILES IDX 96 23 87 24 88 25 92 26 89 27 91 28 90 29 15 30 16 31 17 32
REMARK SMILES IDX 18 33 19 34 20 35 21 36 22 37 23 38 84 39 24 40 83 41 25 42
REMARK SMILES IDX 26 43 27 44 77 45 28 46 82 47 76 48 78 49 29 50 81 51 75 52
REMARK SMILES IDX 74 53 30 55 62 56 42 57 61 58 43 59 46 60 60 61 79 62 44 63
REMARK SMILES IDX 45 64 59 66 80 67 47 68 31 69 32 70 40 71 33 72 34 73 38 74
REMARK SMILES IDX 41 75 35 76 36 77 39 78 37 79 63 80 64 81 72 82 65 83 66 84
REMARK SMILES IDX 70 85 73 86 67 87 68 88 71 89 69 90 48 91 49 92 57 93 50 94
REMARK SMILES IDX 51 95 55 96 58 97 52 98 53 99 56 100 54 101
REMARK H PARENT 78 54 46 65
REMARK Flexibility Score: inf
ROOT
ATOM      1  C   UNL A   1      35.311  34.160  28.028  1.00  0.00     0.188 C 
ENDROOT
BRANCH   1   2
ATOM      2  O   UNL A   1      35.150  32.791  27.668  1.00  0.00    -0.376 OA
BRANCH   2   3
ATOM      3  C   UNL A   1      33.998  32.079  28.104  1.00  0.00     0.202 C 
BRANCH   3   4
ATOM      4  C   UNL A   1      33.456  30.974  27.188  1.00  0.00     0.261 C 
BRANCH   4   5
ATOM      5  O   UNL A   1      33.440  29.684  27.820  1.00  0.00    -0.459 OA
BRANCH   5   6
ATOM      6  C   UNL A   1      34.072  28.703  27.141  1.00  0.00     0.354 C 
ATOM      7  O   UNL A   1      35.250  28.605  26.897  1.00  0.00    -0.245 OA
BRANCH   6   8
ATOM      8  C   UNL A   1      33.082  27.627  26.754  1.00  0.00     0.148 C 
ATOM      9  N   UNL A   1      32.248  25.935  25.808  1.00  0.00    -0.250 N 
ATOM     10  N   UNL A   1      33.417  26.595  26.036  1.00  0.00    -0.169 NA
ATOM     11  C   UNL A   1      31.058  26.733  26.152  1.00  0.00     0.144 C 
ATOM     12  C   UNL A   1      31.653  27.678  27.206  1.00  0.00     0.098 C 
BRANCH   9  13
ATOM     13  C   UNL A   1      32.244  24.737  25.110  1.00  0.00     0.138 A 
ATOM     14  C   UNL A   1      33.049  23.728  21.511  1.00  0.00     0.045 C 
ATOM     15  C   UNL A   1      32.675  23.586  22.960  1.00  0.00    -0.046 A 
ATOM     16  C   UNL A   1      32.702  24.732  23.779  1.00  0.00     0.039 A 
ATOM     17  C   UNL A   1      32.276  22.361  23.511  1.00  0.00    -0.041 A 
ATOM     18  C   UNL A   1      31.855  22.332  24.851  1.00  0.00     0.091 A 
ATOM     19  C   UNL A   1      32.313  21.062  22.751  1.00  0.00     0.045 C 
ATOM     20  C   UNL A   1      31.805  23.509  25.629  1.00  0.00     0.294 A 
BRANCH  20  21
ATOM     21  N   UNL A   1      31.267  23.388  26.991  1.00  0.00     0.065 N 
ATOM     22  O   UNL A   1      32.019  22.919  27.860  1.00  0.00    -0.258 OA
ATOM     23  O   UNL A   1      30.091  23.707  27.221  1.00  0.00    -0.258 OA
ENDBRANCH  20  21
ENDBRANCH   9  13
BRANCH  11  24
ATOM     24  C   UNL A   1      30.462  27.434  24.933  1.00  0.00    -0.023 A 
ATOM     25  C   UNL A   1      31.003  28.604  24.370  1.00  0.00     0.006 A 
ATOM     26  C   UNL A   1      29.324  26.881  24.317  1.00  0.00     0.006 A 
ATOM     27  C   UNL A   1      30.429  29.197  23.244  1.00  0.00     0.000 A 
ATOM     28  C   UNL A   1      28.773  27.454  23.169  1.00  0.00     0.000 A 
ATOM     29  C   UNL A   1      29.323  28.615  22.636  1.00  0.00     0.000 A 
ENDBRANCH  11  24
ENDBRANCH   6   8
ENDBRANCH   5   6
ENDBRANCH   4   5
ENDBRANCH   3   4
ENDBRANCH   2   3
ENDBRANCH   1   2
BRANCH   1  30
ATOM     30  C   UNL A   1      34.072  35.021  28.349  1.00  0.00     0.188 C 
BRANCH  30  31
ATOM     31  O   UNL A   1      34.100  35.645  29.619  1.00  0.00    -0.376 OA
BRANCH  31  32
ATOM     32  C   UNL A   1      33.498  34.910  30.678  1.00  0.00     0.202 C 
BRANCH  32  33
ATOM     33  C   UNL A   1      34.456  34.408  31.769  1.00  0.00     0.261 C 
BRANCH  33  34
ATOM     34  O   UNL A   1      34.824  33.020  31.672  1.00  0.00    -0.460 OA
BRANCH  34  35
ATOM     35  C   UNL A   1      35.672  32.540  32.611  1.00  0.00     0.338 C 
ATOM     36  O   UNL A   1      35.520  32.562  33.817  1.00  0.00    -0.246 OA
BRANCH  35  37
ATOM     37  C   UNL A   1      36.762  31.826  31.910  1.00  0.00     0.060 A 
ATOM     38  C   UNL A   1      37.780  31.238  32.665  1.00  0.00     0.016 A 
ATOM     39  C   UNL A   1      36.784  31.741  30.516  1.00  0.00     0.016 A 
ATOM     40  C   UNL A   1      38.825  30.568  32.025  1.00  0.00     0.010 A 
ATOM     41  C   UNL A   1      37.849  31.091  29.877  1.00  0.00     0.010 A 
ATOM     42  C   UNL A   1      38.889  30.517  30.629  1.00  0.00    -0.014 A 
BRANCH  42  43
ATOM     43  C   UNL A   1      40.123  30.003  29.979  1.00  0.00     0.031 A 
ATOM     44  C   UNL A   1      41.298  30.930  29.820  1.00  0.00     0.074 A 
ATOM     45  C   UNL A   1      40.228  28.719  29.588  1.00  0.00     0.049 A 
ATOM     46  N   UNL A   1      42.455  30.718  29.244  1.00  0.00    -0.248 NA
ATOM     47  C   UNL A   1      41.151  32.277  30.392  1.00  0.00     0.031 C 
ATOM     48  C   UNL A   1      39.194  27.698  29.747  1.00  0.00     0.029 A 
ATOM     49  N   UNL A   1      41.263  28.056  28.972  1.00  0.00    -0.354 N 
ATOM     50  C   UNL A   1      43.160  31.908  29.364  1.00  0.00     0.074 A 
ATOM     51  C   UNL A   1      42.302  32.842  30.060  1.00  0.00     0.031 C 
ATOM     52  C   UNL A   1      39.640  26.542  29.226  1.00  0.00     0.029 A 
ATOM     53  C   UNL A   1      40.974  26.748  28.665  1.00  0.00     0.049 A 
ATOM     54  H   UNL A   1      42.129  28.478  28.770  1.00  0.00     0.167 HD
ATOM     55  C   UNL A   1      44.411  32.195  28.934  1.00  0.00     0.037 A 
ATOM     56  C   UNL A   1      41.694  25.834  27.983  1.00  0.00     0.037 A 
ATOM     57  C   UNL A   1      45.281  31.260  28.272  1.00  0.00     0.049 A 
ATOM     58  C   UNL A   1      43.059  26.204  27.459  1.00  0.00     0.074 A 
ATOM     59  C   UNL A   1      46.582  31.452  27.839  1.00  0.00     0.029 A 
ATOM     60  N   UNL A   1      44.938  29.958  27.945  1.00  0.00    -0.354 N 
ATOM     61  N   UNL A   1      43.727  27.324  27.596  1.00  0.00    -0.248 NA
ATOM     62  C   UNL A   1      43.774  25.177  26.683  1.00  0.00     0.031 C 
ATOM     63  C   UNL A   1      47.007  30.282  27.202  1.00  0.00     0.029 A 
ATOM     64  C   UNL A   1      45.992  29.345  27.285  1.00  0.00     0.049 A 
ATOM     65  H   UNL A   1      44.075  29.532  28.150  1.00  0.00     0.167 HD
ATOM     66  C   UNL A   1      44.942  27.128  26.951  1.00  0.00     0.074 A 
ATOM     67  C   UNL A   1      44.931  25.774  26.439  1.00  0.00     0.031 C 
ATOM     68  C   UNL A   1      45.974  27.992  26.793  1.00  0.00     0.037 A 
BRANCH  55  69
ATOM     69  C   UNL A   1      44.916  33.593  29.130  1.00  0.00     0.064 A 
ATOM     70  C   UNL A   1      44.727  34.592  28.164  1.00  0.00     0.173 A 
ATOM     71  C   UNL A   1      45.535  33.952  30.337  1.00  0.00     0.173 A 
ATOM     72  F   UNL A   1      44.151  34.296  26.990  1.00  0.00    -0.203 F 
ATOM     73  C   UNL A   1      45.147  35.899  28.399  1.00  0.00     0.198 A 
ATOM     74  C   UNL A   1      45.930  35.263  30.578  1.00  0.00     0.198 A 
ATOM     75  F   UNL A   1      45.734  33.032  31.294  1.00  0.00    -0.203 F 
ATOM     76  F   UNL A   1      44.979  36.834  27.454  1.00  0.00    -0.200 F 
ATOM     77  C   UNL A   1      45.739  36.236  29.608  1.00  0.00     0.200 A 
ATOM     78  F   UNL A   1      46.489  35.590  31.752  1.00  0.00    -0.200 F 
ATOM     79  F   UNL A   1      46.124  37.498  29.838  1.00  0.00    -0.200 F 
ENDBRANCH  55  69
BRANCH  56  80
ATOM     80  C   UNL A   1      41.129  24.485  27.704  1.00  0.00     0.064 A 
ATOM     81  C   UNL A   1      41.676  23.332  28.284  1.00  0.00     0.173 A 
ATOM     82  C   UNL A   1      40.075  24.317  26.793  1.00  0.00     0.173 A 
ATOM     83  F   UNL A   1      42.709  23.435  29.133  1.00  0.00    -0.203 F 
ATOM     84  C   UNL A   1      41.212  22.063  27.940  1.00  0.00     0.198 A 
ATOM     85  C   UNL A   1      39.590  23.050  26.475  1.00  0.00     0.198 A 
ATOM     86  F   UNL A   1      39.523  25.385  26.199  1.00  0.00    -0.203 F 
ATOM     87  F   UNL A   1      41.802  20.975  28.454  1.00  0.00    -0.200 F 
ATOM     88  C   UNL A   1      40.167  21.923  27.039  1.00  0.00     0.200 A 
ATOM     89  F   UNL A   1      38.577  22.921  25.607  1.00  0.00    -0.200 F 
ATOM     90  F   UNL A   1      39.731  20.703  26.699  1.00  0.00    -0.200 F 
ENDBRANCH  56  80
BRANCH  68  91
ATOM     91  C   UNL A   1      47.193  27.493  26.073  1.00  0.00     0.064 A 
ATOM     92  C   UNL A   1      48.213  26.798  26.742  1.00  0.00     0.173 A 
ATOM     93  C   UNL A   1      47.328  27.681  24.689  1.00  0.00     0.173 A 
ATOM     94  F   UNL A   1      48.139  26.605  28.068  1.00  0.00    -0.203 F 
ATOM     95  C   UNL A   1      49.334  26.337  26.058  1.00  0.00     0.198 A 
ATOM     96  C   UNL A   1      48.435  27.190  24.002  1.00  0.00     0.198 A 
ATOM     97  F   UNL A   1      46.378  28.330  23.998  1.00  0.00    -0.203 F 
ATOM     98  F   UNL A   1      50.318  25.721  26.727  1.00  0.00    -0.200 F 
ATOM     99  C   UNL A   1      49.441  26.526  24.688  1.00  0.00     0.200 A 
ATOM    100  F   UNL A   1      48.530  27.361  22.676  1.00  0.00    -0.200 F 
ATOM    101  F   UNL A   1      50.519  26.077  24.029  1.00  0.00    -0.200 F 
ENDBRANCH  68  91
ENDBRANCH  42  43
ENDBRANCH  35  37
ENDBRANCH  34  35
ENDBRANCH  33  34
ENDBRANCH  32  33
ENDBRANCH  31  32
ENDBRANCH  30  31
ENDBRANCH   1  30
TORSDOF 20
ENDMDL
MODEL 2
REMARK VINA RESULT:     -11.6      4.774      6.929
REMARK SMILES Cc1cc(N2N=C(C(=O)OCCOCCOCCOC(=O)c3ccc(-c4c5nc(c(-c6c(F)c(F)c(F)c(F)c6F)c6ccc([nH]6)c(-c6c(F)c(F)c(F)c(F)c6F)c6nc(c(-c7c(F)c(F)c(F)c(F)c7F)c7ccc4[nH]7)C=C6)C=C5)cc3)C[C@H]2c2ccccc2)c([N+](=O)[O-])cc1C
REMARK SMILES IDX 14 1 13 2 12 3 11 4 10 5 8 6 9 7 7 8 5 9 6 10 86 11 85 12
REMARK SMILES IDX 4 13 1 14 2 15 3 16 98 17 97 18 99 19 93 20 94 21 95 22
REMARK SMILES IDX 96 23 87 24 88 25 92 26 89 27 91 28 90 29 15 30 16 31 17 32
REMARK SMILES IDX 18 33 19 34 20 35 21 36 22 37 23 38 84 39 24 40 83 41 25 42
REMARK SMILES IDX 26 43 27 44 77 45 28 46 82 47 76 48 78 49 29 50 81 51 75 52
REMARK SMILES IDX 74 53 30 55 62 56 42 57 61 58 43 59 46 60 60 61 79 62 44 63
REMARK SMILES IDX 45 64 59 66 80 67 47 68 31 69 32 70 40 71 33 72 34 73 38 74
REMARK SMILES IDX 41 75 35 76 36 77 39 78 37 79 63 80 64 81 72 82 65 83 66 84
REMARK SMILES IDX 70 85 73 86 67 87 68 88 71 89 69 90 48 91 49 92 57 93 50 94
REMARK SMILES IDX 51 95 55 96 58 97 52 98 53 99 56 100 54 101
REMARK H PARENT 78 54 46 65
REMARK Flexibility Score: inf
ROOT
ATOM      1  C   UNL A   1      34.418  33.342  29.527  1.00  0.00     0.188 C 
ENDROOT
BRANCH   1   2
ATOM      2  O   UNL A   1      34.871  32.071  29.069  1.00  0.00    -0.376 OA
BRANCH   2   3
ATOM      3  C   UNL A   1      34.759  31.739  27.689  1.00  0.00     0.202 C 
BRANCH   3   4
ATOM      4  C   UNL A   1      33.499  30.990  27.239  1.00  0.00     0.261 C 
BRANCH   4   5
ATOM      5  O   UNL A   1      33.398  29.675  27.809  1.00  0.00    -0.459 OA
BRANCH   5   6
ATOM      6  C   UNL A   1      34.033  28.701  27.123  1.00  0.00     0.354 C 
ATOM      7  O   UNL A   1      35.210  28.610  26.876  1.00  0.00    -0.245 OA
BRANCH   6   8
ATOM      8  C   UNL A   1      33.046  27.622  26.733  1.00  0.00     0.148 C 
ATOM      9  N   UNL A   1      32.225  25.920  25.795  1.00  0.00    -0.250 N 
ATOM     10  N   UNL A   1      33.391  26.580  26.035  1.00  0.00    -0.169 NA
ATOM     11  C   UNL A   1      31.031  26.725  26.109  1.00  0.00     0.144 C 
ATOM     12  C   UNL A   1      31.610  27.682  27.160  1.00  0.00     0.098 C 
BRANCH   9  13
ATOM     13  C   UNL A   1      32.229  24.712  25.114  1.00  0.00     0.138 A 
ATOM     14  C   UNL A   1      33.028  23.665  21.524  1.00  0.00     0.045 C 
ATOM     15  C   UNL A   1      32.662  23.538  22.977  1.00  0.00    -0.046 A 
ATOM     16  C   UNL A   1      32.682  24.695  23.781  1.00  0.00     0.039 A 
ATOM     17  C   UNL A   1      32.278  22.317  23.546  1.00  0.00    -0.041 A 
ATOM     18  C   UNL A   1      31.864  22.300  24.887  1.00  0.00     0.091 A 
ATOM     19  C   UNL A   1      32.325  21.009  22.802  1.00  0.00     0.045 C 
ATOM     20  C   UNL A   1      31.806  23.488  25.651  1.00  0.00     0.294 A 
BRANCH  20  21
ATOM     21  N   UNL A   1      31.275  23.378  27.017  1.00  0.00     0.065 N 
ATOM     22  O   UNL A   1      32.052  22.976  27.898  1.00  0.00    -0.258 OA
ATOM     23  O   UNL A   1      30.084  23.642  27.239  1.00  0.00    -0.258 OA
ENDBRANCH  20  21
ENDBRANCH   9  13
BRANCH  11  24
ATOM     24  C   UNL A   1      30.457  27.411  24.871  1.00  0.00    -0.023 A 
ATOM     25  C   UNL A   1      29.352  26.918  24.154  1.00  0.00     0.006 A 
ATOM     26  C   UNL A   1      31.041  28.611  24.424  1.00  0.00     0.006 A 
ATOM     27  C   UNL A   1      28.855  27.592  23.037  1.00  0.00     0.000 A 
ATOM     28  C   UNL A   1      30.520  29.304  23.329  1.00  0.00     0.000 A 
ATOM     29  C   UNL A   1      29.431  28.792  22.633  1.00  0.00     0.000 A 
ENDBRANCH  11  24
ENDBRANCH   6   8
ENDBRANCH   5   6
ENDBRANCH   4   5
ENDBRANCH   3   4
ENDBRANCH   2   3
ENDBRANCH   1   2
BRANCH   1  30
ATOM     30  C   UNL A   1      33.628  34.264  28.576  1.00  0.00     0.188 C 
BRANCH  30  31
ATOM     31  O   UNL A   1      34.283  35.476  28.249  1.00  0.00    -0.376 OA
BRANCH  31  32
ATOM     32  C   UNL A   1      33.712  36.654  28.805  1.00  0.00     0.202 C 
BRANCH  32  33
ATOM     33  C   UNL A   1      32.641  36.430  29.884  1.00  0.00     0.261 C 
BRANCH  33  34
ATOM     34  O   UNL A   1      33.080  36.642  31.238  1.00  0.00    -0.460 OA
BRANCH  34  35
ATOM     35  C   UNL A   1      32.667  35.747  32.165  1.00  0.00     0.338 C 
ATOM     36  O   UNL A   1      31.520  35.478  32.467  1.00  0.00    -0.246 OA
BRANCH  35  37
ATOM     37  C   UNL A   1      33.860  35.018  32.649  1.00  0.00     0.060 A 
ATOM     38  C   UNL A   1      35.118  35.609  32.505  1.00  0.00     0.016 A 
ATOM     39  C   UNL A   1      33.741  33.756  33.237  1.00  0.00     0.016 A 
ATOM     40  C   UNL A   1      36.260  34.935  32.944  1.00  0.00     0.010 A 
ATOM     41  C   UNL A   1      34.892  33.072  33.651  1.00  0.00     0.010 A 
ATOM     42  C   UNL A   1      36.163  33.650  33.489  1.00  0.00    -0.014 A 
BRANCH  42  43
ATOM     43  C   UNL A   1      37.406  32.870  33.731  1.00  0.00     0.031 A 
ATOM     44  C   UNL A   1      38.179  33.116  34.998  1.00  0.00     0.074 A 
ATOM     45  C   UNL A   1      37.813  31.916  32.874  1.00  0.00     0.049 A 
ATOM     46  N   UNL A   1      39.311  32.592  35.398  1.00  0.00    -0.248 NA
ATOM     47  C   UNL A   1      37.596  34.079  35.945  1.00  0.00     0.031 C 
ATOM     48  C   UNL A   1      37.121  31.528  31.647  1.00  0.00     0.029 A 
ATOM     49  N   UNL A   1      38.919  31.099  32.908  1.00  0.00    -0.354 N 
ATOM     50  C   UNL A   1      39.584  33.178  36.627  1.00  0.00     0.074 A 
ATOM     51  C   UNL A   1      38.508  34.102  36.907  1.00  0.00     0.031 C 
ATOM     52  C   UNL A   1      37.825  30.559  31.036  1.00  0.00     0.029 A 
ATOM     53  C   UNL A   1      39.037  30.285  31.808  1.00  0.00     0.049 A 
ATOM     54  H   UNL A   1      39.565  31.098  33.651  1.00  0.00     0.167 HD
ATOM     55  C   UNL A   1      40.638  32.963  37.449  1.00  0.00     0.037 A 
ATOM     56  C   UNL A   1      40.024  29.438  31.453  1.00  0.00     0.037 A 
ATOM     57  C   UNL A   1      41.694  32.020  37.191  1.00  0.00     0.049 A 
ATOM     58  C   UNL A   1      41.217  29.267  32.359  1.00  0.00     0.074 A 
ATOM     59  C   UNL A   1      42.780  31.705  37.991  1.00  0.00     0.029 A 
ATOM     60  N   UNL A   1      41.797  31.242  36.050  1.00  0.00    -0.354 N 
ATOM     61  N   UNL A   1      41.458  29.808  33.529  1.00  0.00    -0.248 NA
ATOM     62  C   UNL A   1      42.282  28.364  31.893  1.00  0.00     0.031 C 
ATOM     63  C   UNL A   1      43.570  30.775  37.307  1.00  0.00     0.029 A 
ATOM     64  C   UNL A   1      42.949  30.472  36.107  1.00  0.00     0.049 A 
ATOM     65  H   UNL A   1      41.151  31.238  35.308  1.00  0.00     0.167 HD
ATOM     66  C   UNL A   1      42.679  29.293  33.947  1.00  0.00     0.074 A 
ATOM     67  C   UNL A   1      43.124  28.379  32.917  1.00  0.00     0.031 C 
ATOM     68  C   UNL A   1      43.373  29.555  35.082  1.00  0.00     0.037 A 
BRANCH  55  69
ATOM     69  C   UNL A   1      40.732  33.786  38.699  1.00  0.00     0.064 A 
ATOM     70  C   UNL A   1      41.468  34.978  38.747  1.00  0.00     0.173 A 
ATOM     71  C   UNL A   1      40.013  33.408  39.842  1.00  0.00     0.173 A 
ATOM     72  F   UNL A   1      42.182  35.375  37.683  1.00  0.00    -0.203 F 
ATOM     73  C   UNL A   1      41.486  35.759  39.900  1.00  0.00     0.198 A 
ATOM     74  C   UNL A   1      40.012  34.203  40.983  1.00  0.00     0.198 A 
ATOM     75  F   UNL A   1      39.289  32.278  39.843  1.00  0.00    -0.203 F 
ATOM     76  F   UNL A   1      42.215  36.883  39.936  1.00  0.00    -0.200 F 
ATOM     77  C   UNL A   1      40.750  35.376  41.013  1.00  0.00     0.200 A 
ATOM     78  F   UNL A   1      39.289  33.839  42.052  1.00  0.00    -0.200 F 
ATOM     79  F   UNL A   1      40.753  36.139  42.115  1.00  0.00    -0.200 F 
ENDBRANCH  55  69
BRANCH  56  80
ATOM     80  C   UNL A   1      39.963  28.711  30.155  1.00  0.00     0.064 A 
ATOM     81  C   UNL A   1      39.384  27.437  30.059  1.00  0.00     0.173 A 
ATOM     82  C   UNL A   1      40.550  29.247  28.999  1.00  0.00     0.173 A 
ATOM     83  F   UNL A   1      38.843  26.864  31.144  1.00  0.00    -0.203 F 
ATOM     84  C   UNL A   1      39.423  26.717  28.865  1.00  0.00     0.198 A 
ATOM     85  C   UNL A   1      40.559  28.540  27.798  1.00  0.00     0.198 A 
ATOM     86  F   UNL A   1      41.130  30.456  29.038  1.00  0.00    -0.203 F 
ATOM     87  F   UNL A   1      38.927  25.473  28.822  1.00  0.00    -0.200 F 
ATOM     88  C   UNL A   1      40.007  27.270  27.736  1.00  0.00     0.200 A 
ATOM     89  F   UNL A   1      41.121  29.080  26.708  1.00  0.00    -0.200 F 
ATOM     90  F   UNL A   1      40.056  26.571  26.594  1.00  0.00    -0.200 F 
ENDBRANCH  56  80
BRANCH  68  91
ATOM     91  C   UNL A   1      44.664  28.819  35.291  1.00  0.00     0.064 A 
ATOM     92  C   UNL A   1      44.705  27.565  35.919  1.00  0.00     0.173 A 
ATOM     93  C   UNL A   1      45.874  29.358  34.825  1.00  0.00     0.173 A 
ATOM     94  F   UNL A   1      43.579  27.012  36.395  1.00  0.00    -0.203 F 
ATOM     95  C   UNL A   1      45.911  26.893  36.100  1.00  0.00     0.198 A 
ATOM     96  C   UNL A   1      47.073  28.669  34.979  1.00  0.00     0.198 A 
ATOM     97  F   UNL A   1      45.890  30.550  34.208  1.00  0.00    -0.203 F 
ATOM     98  F   UNL A   1      45.932  25.720  36.748  1.00  0.00    -0.200 F 
ATOM     99  C   UNL A   1      47.093  27.442  35.623  1.00  0.00     0.200 A 
ATOM    100  F   UNL A   1      48.212  29.194  34.505  1.00  0.00    -0.200 F 
ATOM    101  F   UNL A   1      48.252  26.791  35.793  1.00  0.00    -0.200 F 
ENDBRANCH  68  91
ENDBRANCH  42  43
ENDBRANCH  35  37
ENDBRANCH  34  35
ENDBRANCH  33  34
ENDBRANCH  32  33
ENDBRANCH  31  32
ENDBRANCH  30  31
ENDBRANCH   1  30
TORSDOF 20
ENDMDL
MODEL 3
REMARK VINA RESULT:     -11.3      4.778      8.786
REMARK SMILES Cc1cc(N2N=C(C(=O)OCCOCCOCCOC(=O)c3ccc(-c4c5nc(c(-c6c(F)c(F)c(F)c(F)c6F)c6ccc([nH]6)c(-c6c(F)c(F)c(F)c(F)c6F)c6nc(c(-c7c(F)c(F)c(F)c(F)c7F)c7ccc4[nH]7)C=C6)C=C5)cc3)C[C@H]2c2ccccc2)c([N+](=O)[O-])cc1C
REMARK SMILES IDX 14 1 13 2 12 3 11 4 10 5 8 6 9 7 7 8 5 9 6 10 86 11 85 12
REMARK SMILES IDX 4 13 1 14 2 15 3 16 98 17 97 18 99 19 93 20 94 21 95 22
REMARK SMILES IDX 96 23 87 24 88 25 92 26 89 27 91 28 90 29 15 30 16 31 17 32
REMARK SMILES IDX 18 33 19 34 20 35 21 36 22 37 23 38 84 39 24 40 83 41 25 42
REMARK SMILES IDX 26 43 27 44 77 45 28 46 82 47 76 48 78 49 29 50 81 51 75 52
REMARK SMILES IDX 74 53 30 55 62 56 42 57 61 58 43 59 46 60 60 61 79 62 44 63
REMARK SMILES IDX 45 64 59 66 80 67 47 68 31 69 32 70 40 71 33 72 34 73 38 74
REMARK SMILES IDX 41 75 35 76 36 77 39 78 37 79 63 80 64 81 72 82 65 83 66 84
REMARK SMILES IDX 70 85 73 86 67 87 68 88 71 89 69 90 48 91 49 92 57 93 50 94
REMARK SMILES IDX 51 95 55 96 58 97 52 98 53 99 56 100 54 101
REMARK H PARENT 78 54 46 65
REMARK Flexibility Score: inf
ROOT
ATOM      1  C   UNL A   1      34.629  33.367  29.031  1.00  0.00     0.188 C 
ENDROOT
BRANCH   1   2
ATOM      2  O   UNL A   1      35.612  32.736  28.214  1.00  0.00    -0.376 OA
BRANCH   2   3
ATOM      3  C   UNL A   1      35.413  31.394  27.782  1.00  0.00     0.202 C 
BRANCH   3   4
ATOM      4  C   UNL A   1      33.975  30.951  27.484  1.00  0.00     0.261 C 
BRANCH   4   5
ATOM      5  O   UNL A   1      33.734  29.576  27.824  1.00  0.00    -0.459 OA
BRANCH   5   6
ATOM      6  C   UNL A   1      34.271  28.672  26.977  1.00  0.00     0.354 C 
ATOM      7  O   UNL A   1      35.398  28.630  26.549  1.00  0.00    -0.245 OA
BRANCH   6   8
ATOM      8  C   UNL A   1      33.253  27.600  26.658  1.00  0.00     0.148 C 
ATOM      9  N   UNL A   1      32.360  25.897  25.788  1.00  0.00    -0.250 N 
ATOM     10  N   UNL A   1      33.545  26.547  25.951  1.00  0.00    -0.169 NA
ATOM     11  C   UNL A   1      31.195  26.717  26.164  1.00  0.00     0.144 C 
ATOM     12  C   UNL A   1      31.845  27.679  27.168  1.00  0.00     0.098 C 
BRANCH   9  13
ATOM     13  C   UNL A   1      32.312  24.683  25.120  1.00  0.00     0.138 A 
ATOM     14  C   UNL A   1      33.135  23.547  21.563  1.00  0.00     0.045 C 
ATOM     15  C   UNL A   1      32.728  23.460  23.008  1.00  0.00    -0.046 A 
ATOM     16  C   UNL A   1      32.794  24.623  23.799  1.00  0.00     0.039 A 
ATOM     17  C   UNL A   1      32.262  22.269  23.581  1.00  0.00    -0.041 A 
ATOM     18  C   UNL A   1      31.816  22.293  24.912  1.00  0.00     0.091 A 
ATOM     19  C   UNL A   1      32.252  20.951  22.854  1.00  0.00     0.045 C 
ATOM     20  C   UNL A   1      31.807  23.491  25.661  1.00  0.00     0.294 A 
BRANCH  20  21
ATOM     21  N   UNL A   1      31.239  23.429  27.015  1.00  0.00     0.065 N 
ATOM     22  O   UNL A   1      31.992  23.062  27.930  1.00  0.00    -0.258 OA
ATOM     23  O   UNL A   1      30.041  23.695  27.194  1.00  0.00    -0.258 OA
ENDBRANCH  20  21
ENDBRANCH   9  13
BRANCH  11  24
ATOM     24  C   UNL A   1      30.555  27.397  24.954  1.00  0.00    -0.023 A 
ATOM     25  C   UNL A   1      29.505  26.828  24.211  1.00  0.00     0.006 A 
ATOM     26  C   UNL A   1      31.016  28.668  24.564  1.00  0.00     0.006 A 
ATOM     27  C   UNL A   1      28.943  27.498  23.123  1.00  0.00     0.000 A 
ATOM     28  C   UNL A   1      30.427  29.354  23.499  1.00  0.00     0.000 A 
ATOM     29  C   UNL A   1      29.396  28.766  22.775  1.00  0.00     0.000 A 
ENDBRANCH  11  24
ENDBRANCH   6   8
ENDBRANCH   5   6
ENDBRANCH   4   5
ENDBRANCH   3   4
ENDBRANCH   2   3
ENDBRANCH   1   2
BRANCH   1  30
ATOM     30  C   UNL A   1      33.735  34.474  28.438  1.00  0.00     0.188 C 
BRANCH  30  31
ATOM     31  O   UNL A   1      34.311  35.767  28.447  1.00  0.00    -0.376 OA
BRANCH  31  32
ATOM     32  C   UNL A   1      33.485  36.806  28.957  1.00  0.00     0.202 C 
BRANCH  32  33
ATOM     33  C   UNL A   1      32.473  36.385  30.033  1.00  0.00     0.261 C 
BRANCH  33  34
ATOM     34  O   UNL A   1      32.919  36.545  31.393  1.00  0.00    -0.460 OA
BRANCH  34  35
ATOM     35  C   UNL A   1      32.698  35.512  32.238  1.00  0.00     0.338 C 
ATOM     36  O   UNL A   1      31.627  35.132  32.671  1.00  0.00    -0.246 OA
BRANCH  35  37
ATOM     37  C   UNL A   1      33.984  34.804  32.427  1.00  0.00     0.060 A 
ATOM     38  C   UNL A   1      33.977  33.532  33.007  1.00  0.00     0.016 A 
ATOM     39  C   UNL A   1      35.191  35.392  32.041  1.00  0.00     0.016 A 
ATOM     40  C   UNL A   1      35.179  32.850  33.206  1.00  0.00     0.010 A 
ATOM     41  C   UNL A   1      36.397  34.714  32.268  1.00  0.00     0.010 A 
ATOM     42  C   UNL A   1      36.400  33.445  32.871  1.00  0.00    -0.014 A 
BRANCH  42  43
ATOM     43  C   UNL A   1      37.665  32.796  33.305  1.00  0.00     0.031 A 
ATOM     44  C   UNL A   1      38.300  31.771  32.403  1.00  0.00     0.074 A 
ATOM     45  C   UNL A   1      38.278  33.149  34.450  1.00  0.00     0.049 A 
ATOM     46  N   UNL A   1      39.371  31.044  32.593  1.00  0.00    -0.248 NA
ATOM     47  C   UNL A   1      37.638  31.539  31.109  1.00  0.00     0.031 C 
ATOM     48  C   UNL A   1      37.811  34.175  35.379  1.00  0.00     0.029 A 
ATOM     49  N   UNL A   1      39.433  32.674  35.026  1.00  0.00    -0.354 N 
ATOM     50  C   UNL A   1      39.498  30.254  31.458  1.00  0.00     0.074 A 
ATOM     51  C   UNL A   1      38.392  30.583  30.586  1.00  0.00     0.031 C 
ATOM     52  C   UNL A   1      38.661  34.242  36.418  1.00  0.00     0.029 A 
ATOM     53  C   UNL A   1      39.711  33.239  36.247  1.00  0.00     0.049 A 
ATOM     54  H   UNL A   1      40.005  31.994  34.604  1.00  0.00     0.167 HD
ATOM     55  C   UNL A   1      40.452  29.339  31.169  1.00  0.00     0.037 A 
ATOM     56  C   UNL A   1      40.686  32.958  37.135  1.00  0.00     0.037 A 
ATOM     57  C   UNL A   1      41.572  29.032  32.018  1.00  0.00     0.049 A 
ATOM     58  C   UNL A   1      41.698  31.886  36.813  1.00  0.00     0.074 A 
ATOM     59  C   UNL A   1      42.612  28.148  31.785  1.00  0.00     0.029 A 
ATOM     60  N   UNL A   1      41.799  29.598  33.262  1.00  0.00    -0.354 N 
ATOM     61  N   UNL A   1      41.823  31.160  35.729  1.00  0.00    -0.248 NA
ATOM     62  C   UNL A   1      42.708  31.594  37.843  1.00  0.00     0.031 C 
ATOM     63  C   UNL A   1      43.439  28.139  32.913  1.00  0.00     0.029 A 
ATOM     64  C   UNL A   1      42.945  29.056  33.824  1.00  0.00     0.049 A 
ATOM     65  H   UNL A   1      41.231  30.281  33.684  1.00  0.00     0.167 HD
ATOM     66  C   UNL A   1      42.934  30.351  35.934  1.00  0.00     0.074 A 
ATOM     67  C   UNL A   1      43.462  30.687  37.239  1.00  0.00     0.031 C 
ATOM     68  C   UNL A   1      43.468  29.410  35.118  1.00  0.00     0.037 A 
BRANCH  55  69
ATOM     69  C   UNL A   1      40.317  28.565  29.892  1.00  0.00     0.064 A 
ATOM     70  C   UNL A   1      40.952  28.969  28.709  1.00  0.00     0.173 A 
ATOM     71  C   UNL A   1      39.598  27.360  29.875  1.00  0.00     0.173 A 
ATOM     72  F   UNL A   1      41.640  30.120  28.671  1.00  0.00    -0.203 F 
ATOM     73  C   UNL A   1      40.865  28.198  27.553  1.00  0.00     0.198 A 
ATOM     74  C   UNL A   1      39.535  26.579  28.726  1.00  0.00     0.198 A 
ATOM     75  F   UNL A   1      38.977  26.928  30.983  1.00  0.00    -0.203 F 
ATOM     76  F   UNL A   1      41.459  28.613  26.426  1.00  0.00    -0.200 F 
ATOM     77  C   UNL A   1      40.166  26.999  27.565  1.00  0.00     0.200 A 
ATOM     78  F   UNL A   1      38.871  25.414  28.744  1.00  0.00    -0.200 F 
ATOM     79  F   UNL A   1      40.101  26.248  26.457  1.00  0.00    -0.200 F 
ENDBRANCH  55  69
BRANCH  56  80
ATOM     80  C   UNL A   1      40.739  33.662  38.446  1.00  0.00     0.064 A 
ATOM     81  C   UNL A   1      39.886  33.306  39.500  1.00  0.00     0.173 A 
ATOM     82  C   UNL A   1      41.595  34.756  38.644  1.00  0.00     0.173 A 
ATOM     83  F   UNL A   1      39.022  32.291  39.349  1.00  0.00    -0.203 F 
ATOM     84  C   UNL A   1      39.866  34.035  40.689  1.00  0.00     0.198 A 
ATOM     85  C   UNL A   1      41.597  35.464  39.844  1.00  0.00     0.198 A 
ATOM     86  F   UNL A   1      42.422  35.149  37.663  1.00  0.00    -0.203 F 
ATOM     87  F   UNL A   1      38.990  33.717  41.651  1.00  0.00    -0.200 F 
ATOM     88  C   UNL A   1      40.724  35.111  40.861  1.00  0.00     0.200 A 
ATOM     89  F   UNL A   1      42.431  36.501  40.007  1.00  0.00    -0.200 F 
ATOM     90  F   UNL A   1      40.694  35.820  41.998  1.00  0.00    -0.200 F 
ENDBRANCH  56  80
BRANCH  68  91
ATOM     91  C   UNL A   1      44.706  28.704  35.589  1.00  0.00     0.064 A 
ATOM     92  C   UNL A   1      45.989  29.213  35.332  1.00  0.00     0.173 A 
ATOM     93  C   UNL A   1      44.609  27.521  36.339  1.00  0.00     0.173 A 
ATOM     94  F   UNL A   1      46.137  30.332  34.608  1.00  0.00    -0.203 F 
ATOM     95  C   UNL A   1      47.126  28.549  35.782  1.00  0.00     0.198 A 
ATOM     96  C   UNL A   1      45.748  26.877  36.814  1.00  0.00     0.198 A 
ATOM     97  F   UNL A   1      43.407  26.996  36.622  1.00  0.00    -0.203 F 
ATOM     98  F   UNL A   1      48.342  29.026  35.480  1.00  0.00    -0.200 F 
ATOM     99  C   UNL A   1      47.005  27.386  36.529  1.00  0.00     0.200 A 
ATOM    100  F   UNL A   1      45.628  25.761  37.548  1.00  0.00    -0.200 F 
ATOM    101  F   UNL A   1      48.102  26.750  36.965  1.00  0.00    -0.200 F 
ENDBRANCH  68  91
ENDBRANCH  42  43
ENDBRANCH  35  37
ENDBRANCH  34  35
ENDBRANCH  33  34
ENDBRANCH  32  33
ENDBRANCH  31  32
ENDBRANCH  30  31
ENDBRANCH   1  30
TORSDOF 20
ENDMDL
