MODEL 1
REMARK VINA RESULT:     -11.3      0.000      0.000
REMARK SMILES Cc1cc(C)c2c(O[C@@H](C)C(=O)OCCOCCOCCOC(=O)c3ccc(-c4c5nc(c(-c6c(F)c(F)c(F)c(F)c6F)c6ccc([nH]6)c(-c6c(F)c(F)c(F)c(F)c6F)c6nc(c(-c7c(F)c(F)c(F)c(F)c7F)c7ccc4[nH]7)C=C6)C=C5)cc3)nsc2n1
REMARK SMILES IDX 17 1 16 2 15 3 14 4 13 5 11 6 12 7 9 8 10 9 8 10 7 11 1 12
REMARK SMILES IDX 2 13 3 14 91 15 4 16 90 17 5 18 6 19 89 20 88 21 18 22 19 23
REMARK SMILES IDX 20 24 21 25 22 26 23 27 24 28 25 29 26 30 87 31 27 32 86 33
REMARK SMILES IDX 28 34 29 35 30 36 80 37 31 38 85 39 79 40 81 41 32 42 84 43
REMARK SMILES IDX 78 44 77 45 33 47 65 48 45 49 64 50 46 51 49 52 63 53 82 54
REMARK SMILES IDX 47 55 48 56 62 58 83 59 50 60 34 61 35 62 43 63 36 64 37 65
REMARK SMILES IDX 41 66 44 67 38 68 39 69 42 70 40 71 66 72 67 73 75 74 68 75
REMARK SMILES IDX 69 76 73 77 76 78 70 79 71 80 74 81 72 82 51 83 52 84 60 85
REMARK SMILES IDX 53 86 54 87 58 88 61 89 55 90 56 91 59 92 57 93
REMARK H PARENT 81 46 49 57
REMARK Flexibility Score: inf
ROOT
ATOM      1  C   UNL A   1      39.903  21.396  26.321  1.00  0.00     0.188 C 
ENDROOT
BRANCH   1   2
ATOM      2  O   UNL A   1      38.709  21.775  25.660  1.00  0.00    -0.376 OA
BRANCH   2   3
ATOM      3  C   UNL A   1      38.186  23.081  25.870  1.00  0.00     0.202 C 
BRANCH   3   4
ATOM      4  C   UNL A   1      36.673  23.350  25.954  1.00  0.00     0.261 C 
BRANCH   4   5
ATOM      5  O   UNL A   1      36.106  24.033  24.823  1.00  0.00    -0.461 OA
BRANCH   5   6
ATOM      6  C   UNL A   1      35.694  23.301  23.756  1.00  0.00     0.347 C 
ATOM      7  O   UNL A   1      36.408  23.016  22.802  1.00  0.00    -0.248 OA
BRANCH   6   8
ATOM      8  C   UNL A   1      34.230  22.813  23.898  1.00  0.00     0.281 C 
ATOM      9  C   UNL A   1      34.083  21.417  24.502  1.00  0.00     0.066 C 
BRANCH   8  10
ATOM     10  O   UNL A   1      33.185  22.968  22.988  1.00  0.00    -0.462 OA
BRANCH  10  11
ATOM     11  C   UNL A   1      32.714  24.164  22.573  1.00  0.00     0.236 A 
ATOM     12  C   UNL A   1      29.130  28.550  23.075  1.00  0.00     0.067 C 
ATOM     13  C   UNL A   1      30.076  27.388  23.089  1.00  0.00     0.039 A 
ATOM     14  C   UNL A   1      30.132  26.570  24.201  1.00  0.00     0.027 A 
ATOM     15  N   UNL A   1      30.825  27.194  22.001  1.00  0.00    -0.240 NA
ATOM     16  C   UNL A   1      31.027  25.478  24.270  1.00  0.00    -0.034 A 
ATOM     17  C   UNL A   1      31.628  26.114  22.054  1.00  0.00     0.147 A 
ATOM     18  C   UNL A   1      31.011  24.800  25.614  1.00  0.00     0.045 C 
ATOM     19  C   UNL A   1      31.791  25.179  23.091  1.00  0.00     0.078 A 
ATOM     20  S   UNL A   1      32.647  25.766  20.742  1.00  0.00    -0.012 S 
ATOM     21  N   UNL A   1      33.286  24.410  21.393  1.00  0.00    -0.153 NA
ENDBRANCH  10  11
ENDBRANCH   8  10
ENDBRANCH   6   8
ENDBRANCH   5   6
ENDBRANCH   4   5
ENDBRANCH   3   4
ENDBRANCH   2   3
ENDBRANCH   1   2
BRANCH   1  22
ATOM     22  C   UNL A   1      40.373  19.927  26.258  1.00  0.00     0.188 C 
BRANCH  22  23
ATOM     23  O   UNL A   1      41.682  19.650  26.703  1.00  0.00    -0.376 OA
BRANCH  23  24
ATOM     24  C   UNL A   1      42.508  18.611  26.210  1.00  0.00     0.202 C 
BRANCH  24  25
ATOM     25  C   UNL A   1      43.867  18.793  25.541  1.00  0.00     0.261 C 
BRANCH  25  26
ATOM     26  O   UNL A   1      44.399  20.093  25.596  1.00  0.00    -0.460 OA
BRANCH  26  27
ATOM     27  C   UNL A   1      44.675  20.618  24.394  1.00  0.00     0.338 C 
ATOM     28  O   UNL A   1      44.700  20.047  23.306  1.00  0.00    -0.246 OA
BRANCH  27  29
ATOM     29  C   UNL A   1      44.964  22.030  24.587  1.00  0.00     0.060 A 
ATOM     30  C   UNL A   1      45.982  22.366  25.478  1.00  0.00     0.016 A 
ATOM     31  C   UNL A   1      44.014  22.952  24.127  1.00  0.00     0.016 A 
ATOM     32  C   UNL A   1      45.874  23.565  26.134  1.00  0.00     0.010 A 
ATOM     33  C   UNL A   1      43.892  24.133  24.797  1.00  0.00     0.010 A 
ATOM     34  C   UNL A   1      44.754  24.359  25.865  1.00  0.00    -0.014 A 
BRANCH  34  35
ATOM     35  C   UNL A   1      44.503  25.494  26.716  1.00  0.00     0.031 A 
ATOM     36  C   UNL A   1      45.506  26.552  26.515  1.00  0.00     0.074 A 
ATOM     37  C   UNL A   1      43.410  25.548  27.501  1.00  0.00     0.049 A 
ATOM     38  N   UNL A   1      46.437  26.902  27.337  1.00  0.00    -0.248 NA
ATOM     39  C   UNL A   1      45.632  27.135  25.169  1.00  0.00     0.031 C 
ATOM     40  C   UNL A   1      42.271  24.625  27.534  1.00  0.00     0.029 A 
ATOM     41  N   UNL A   1      43.042  26.511  28.388  1.00  0.00    -0.354 N 
ATOM     42  C   UNL A   1      47.108  27.931  26.695  1.00  0.00     0.074 A 
ATOM     43  C   UNL A   1      46.736  27.871  25.306  1.00  0.00     0.031 C 
ATOM     44  C   UNL A   1      41.251  25.193  28.218  1.00  0.00     0.029 A 
ATOM     45  C   UNL A   1      41.708  26.450  28.782  1.00  0.00     0.049 A 
ATOM     46  H   UNL A   1      43.667  27.194  28.724  1.00  0.00     0.167 HD
ATOM     47  C   UNL A   1      47.618  28.957  27.422  1.00  0.00     0.037 A 
ATOM     48  C   UNL A   1      41.041  27.421  29.456  1.00  0.00     0.037 A 
ATOM     49  C   UNL A   1      47.780  28.583  28.805  1.00  0.00     0.049 A 
ATOM     50  C   UNL A   1      42.071  28.273  30.104  1.00  0.00     0.074 A 
ATOM     51  C   UNL A   1      48.509  27.623  29.477  1.00  0.00     0.029 A 
ATOM     52  N   UNL A   1      46.798  28.997  29.667  1.00  0.00    -0.354 N 
ATOM     53  N   UNL A   1      42.844  27.869  31.073  1.00  0.00    -0.248 NA
ATOM     54  C   UNL A   1      42.540  29.440  29.375  1.00  0.00     0.031 C 
ATOM     55  C   UNL A   1      47.683  27.218  30.568  1.00  0.00     0.029 A 
ATOM     56  C   UNL A   1      46.520  27.989  30.550  1.00  0.00     0.049 A 
ATOM     57  H   UNL A   1      46.361  29.880  29.652  1.00  0.00     0.167 HD
ATOM     58  C   UNL A   1      44.077  28.441  30.798  1.00  0.00     0.074 A 
ATOM     59  C   UNL A   1      43.800  29.482  29.811  1.00  0.00     0.031 C 
ATOM     60  C   UNL A   1      45.228  27.811  31.174  1.00  0.00     0.037 A 
BRANCH  47  61
ATOM     61  C   UNL A   1      47.504  30.394  26.981  1.00  0.00     0.064 A 
ATOM     62  C   UNL A   1      48.636  31.224  27.065  1.00  0.00     0.173 A 
ATOM     63  C   UNL A   1      46.274  31.059  26.768  1.00  0.00     0.173 A 
ATOM     64  F   UNL A   1      49.844  30.701  27.326  1.00  0.00    -0.203 F 
ATOM     65  C   UNL A   1      48.534  32.615  26.983  1.00  0.00     0.198 A 
ATOM     66  C   UNL A   1      46.185  32.440  26.622  1.00  0.00     0.198 A 
ATOM     67  F   UNL A   1      45.097  30.426  26.817  1.00  0.00    -0.203 F 
ATOM     68  F   UNL A   1      49.619  33.372  27.191  1.00  0.00    -0.200 F 
ATOM     69  C   UNL A   1      47.311  33.221  26.756  1.00  0.00     0.200 A 
ATOM     70  F   UNL A   1      44.984  33.006  26.438  1.00  0.00    -0.200 F 
ATOM     71  F   UNL A   1      47.205  34.555  26.724  1.00  0.00    -0.200 F 
ENDBRANCH  47  61
BRANCH  48  72
ATOM     72  C   UNL A   1      39.645  27.897  29.268  1.00  0.00     0.064 A 
ATOM     73  C   UNL A   1      38.781  28.020  30.371  1.00  0.00     0.173 A 
ATOM     74  C   UNL A   1      39.231  28.534  28.081  1.00  0.00     0.173 A 
ATOM     75  F   UNL A   1      39.113  27.478  31.552  1.00  0.00    -0.203 F 
ATOM     76  C   UNL A   1      37.604  28.775  30.307  1.00  0.00     0.198 A 
ATOM     77  C   UNL A   1      38.053  29.281  28.016  1.00  0.00     0.198 A 
ATOM     78  F   UNL A   1      40.010  28.532  26.991  1.00  0.00    -0.203 F 
ATOM     79  F   UNL A   1      36.850  28.936  31.404  1.00  0.00    -0.200 F 
ATOM     80  C   UNL A   1      37.249  29.418  29.134  1.00  0.00     0.200 A 
ATOM     81  F   UNL A   1      37.739  29.928  26.885  1.00  0.00    -0.200 F 
ATOM     82  F   UNL A   1      36.163  30.203  29.090  1.00  0.00    -0.200 F 
ENDBRANCH  48  72
BRANCH  60  83
ATOM     83  C   UNL A   1      45.120  26.698  32.181  1.00  0.00     0.064 A 
ATOM     84  C   UNL A   1      45.067  26.884  33.573  1.00  0.00     0.173 A 
ATOM     85  C   UNL A   1      44.905  25.402  31.693  1.00  0.00     0.173 A 
ATOM     86  F   UNL A   1      45.185  28.106  34.112  1.00  0.00    -0.203 F 
ATOM     87  C   UNL A   1      44.827  25.813  34.433  1.00  0.00     0.198 A 
ATOM     88  C   UNL A   1      44.627  24.343  32.550  1.00  0.00     0.198 A 
ATOM     89  F   UNL A   1      44.904  25.176  30.370  1.00  0.00    -0.203 F 
ATOM     90  F   UNL A   1      44.781  26.010  35.760  1.00  0.00    -0.200 F 
ATOM     91  C   UNL A   1      44.594  24.546  33.921  1.00  0.00     0.200 A 
ATOM     92  F   UNL A   1      44.358  23.131  32.045  1.00  0.00    -0.200 F 
ATOM     93  F   UNL A   1      44.311  23.527  34.743  1.00  0.00    -0.200 F 
ENDBRANCH  60  83
ENDBRANCH  34  35
ENDBRANCH  27  29
ENDBRANCH  26  27
ENDBRANCH  25  26
ENDBRANCH  24  25
ENDBRANCH  23  24
ENDBRANCH  22  23
ENDBRANCH   1  22
TORSDOF 19
ENDMDL
MODEL 2
REMARK VINA RESULT:     -10.9      5.027     10.312
REMARK SMILES Cc1cc(C)c2c(O[C@@H](C)C(=O)OCCOCCOCCOC(=O)c3ccc(-c4c5nc(c(-c6c(F)c(F)c(F)c(F)c6F)c6ccc([nH]6)c(-c6c(F)c(F)c(F)c(F)c6F)c6nc(c(-c7c(F)c(F)c(F)c(F)c7F)c7ccc4[nH]7)C=C6)C=C5)cc3)nsc2n1
REMARK SMILES IDX 17 1 16 2 15 3 14 4 13 5 11 6 12 7 9 8 10 9 8 10 7 11 1 12
REMARK SMILES IDX 2 13 3 14 91 15 4 16 90 17 5 18 6 19 89 20 88 21 18 22 19 23
REMARK SMILES IDX 20 24 21 25 22 26 23 27 24 28 25 29 26 30 87 31 27 32 86 33
REMARK SMILES IDX 28 34 29 35 30 36 80 37 31 38 85 39 79 40 81 41 32 42 84 43
REMARK SMILES IDX 78 44 77 45 33 47 65 48 45 49 64 50 46 51 49 52 63 53 82 54
REMARK SMILES IDX 47 55 48 56 62 58 83 59 50 60 34 61 35 62 43 63 36 64 37 65
REMARK SMILES IDX 41 66 44 67 38 68 39 69 42 70 40 71 66 72 67 73 75 74 68 75
REMARK SMILES IDX 69 76 73 77 76 78 70 79 71 80 74 81 72 82 51 83 52 84 60 85
REMARK SMILES IDX 53 86 54 87 58 88 61 89 55 90 56 91 59 92 57 93
REMARK H PARENT 81 46 49 57
REMARK Flexibility Score: inf
ROOT
ATOM      1  C   UNL A   1      34.066  31.413  28.109  1.00  0.00     0.188 C 
ENDROOT
BRANCH   1   2
ATOM      2  O   UNL A   1      34.820  30.553  27.273  1.00  0.00    -0.376 OA
BRANCH   2   3
ATOM      3  C   UNL A   1      34.364  29.223  27.060  1.00  0.00     0.202 C 
BRANCH   3   4
ATOM      4  C   UNL A   1      33.537  28.833  25.822  1.00  0.00     0.261 C 
BRANCH   4   5
ATOM      5  O   UNL A   1      32.580  27.780  26.028  1.00  0.00    -0.461 OA
BRANCH   5   6
ATOM      6  C   UNL A   1      31.445  27.772  25.284  1.00  0.00     0.347 C 
ATOM      7  O   UNL A   1      30.936  28.777  24.799  1.00  0.00    -0.248 OA
BRANCH   6   8
ATOM      8  C   UNL A   1      30.886  26.344  25.063  1.00  0.00     0.281 C 
ATOM      9  C   UNL A   1      29.551  26.294  24.321  1.00  0.00     0.066 C 
BRANCH   8  10
ATOM     10  O   UNL A   1      30.885  25.278  25.961  1.00  0.00    -0.462 OA
BRANCH  10  11
ATOM     11  C   UNL A   1      31.932  24.443  26.146  1.00  0.00     0.236 A 
ATOM     12  C   UNL A   1      36.661  21.899  24.277  1.00  0.00     0.067 C 
ATOM     13  C   UNL A   1      35.457  22.687  24.694  1.00  0.00     0.039 A 
ATOM     14  C   UNL A   1      35.045  23.757  23.923  1.00  0.00     0.027 A 
ATOM     15  N   UNL A   1      34.825  22.302  25.804  1.00  0.00    -0.240 NA
ATOM     16  C   UNL A   1      33.930  24.545  24.289  1.00  0.00    -0.034 A 
ATOM     17  C   UNL A   1      33.728  23.021  26.110  1.00  0.00     0.147 A 
ATOM     18  C   UNL A   1      33.734  25.729  23.380  1.00  0.00     0.045 C 
ATOM     19  C   UNL A   1      33.169  24.117  25.429  1.00  0.00     0.078 A 
ATOM     20  S   UNL A   1      32.846  22.647  27.510  1.00  0.00    -0.012 S 
ATOM     21  N   UNL A   1      31.705  23.797  27.291  1.00  0.00    -0.153 NA
ENDBRANCH  10  11
ENDBRANCH   8  10
ENDBRANCH   6   8
ENDBRANCH   5   6
ENDBRANCH   4   5
ENDBRANCH   3   4
ENDBRANCH   2   3
ENDBRANCH   1   2
BRANCH   1  22
ATOM     22  C   UNL A   1      34.409  32.918  28.157  1.00  0.00     0.188 C 
BRANCH  22  23
ATOM     23  O   UNL A   1      33.331  33.826  28.137  1.00  0.00    -0.376 OA
BRANCH  23  24
ATOM     24  C   UNL A   1      33.379  35.160  28.607  1.00  0.00     0.202 C 
BRANCH  24  25
ATOM     25  C   UNL A   1      33.661  35.591  30.043  1.00  0.00     0.261 C 
BRANCH  25  26
ATOM     26  O   UNL A   1      33.338  34.646  31.032  1.00  0.00    -0.460 OA
BRANCH  26  27
ATOM     27  C   UNL A   1      33.505  35.093  32.285  1.00  0.00     0.338 C 
ATOM     28  O   UNL A   1      32.852  35.950  32.877  1.00  0.00    -0.246 OA
BRANCH  27  29
ATOM     29  C   UNL A   1      34.634  34.379  32.860  1.00  0.00     0.060 A 
ATOM     30  C   UNL A   1      35.798  35.106  33.109  1.00  0.00     0.016 A 
ATOM     31  C   UNL A   1      34.596  32.979  32.829  1.00  0.00     0.016 A 
ATOM     32  C   UNL A   1      36.988  34.428  33.041  1.00  0.00     0.010 A 
ATOM     33  C   UNL A   1      35.781  32.310  32.736  1.00  0.00     0.010 A 
ATOM     34  C   UNL A   1      36.949  33.065  32.727  1.00  0.00    -0.014 A 
BRANCH  34  35
ATOM     35  C   UNL A   1      38.188  32.402  32.414  1.00  0.00     0.031 A 
ATOM     36  C   UNL A   1      39.028  32.237  33.611  1.00  0.00     0.074 A 
ATOM     37  C   UNL A   1      38.436  31.932  31.176  1.00  0.00     0.049 A 
ATOM     38  N   UNL A   1      40.126  32.860  33.878  1.00  0.00    -0.248 NA
ATOM     39  C   UNL A   1      38.481  31.460  34.736  1.00  0.00     0.031 C 
ATOM     40  C   UNL A   1      37.518  31.861  30.035  1.00  0.00     0.029 A 
ATOM     41  N   UNL A   1      39.556  31.326  30.700  1.00  0.00    -0.354 N 
ATOM     42  C   UNL A   1      40.530  32.356  35.105  1.00  0.00     0.074 A 
ATOM     43  C   UNL A   1      39.390  31.697  35.683  1.00  0.00     0.031 C 
ATOM     44  C   UNL A   1      38.040  31.047  29.088  1.00  0.00     0.029 A 
ATOM     45  C   UNL A   1      39.376  30.652  29.495  1.00  0.00     0.049 A 
ATOM     46  H   UNL A   1      40.421  31.361  31.168  1.00  0.00     0.167 HD
ATOM     47  C   UNL A   1      41.854  32.211  35.368  1.00  0.00     0.037 A 
ATOM     48  C   UNL A   1      40.256  29.778  28.944  1.00  0.00     0.037 A 
ATOM     49  C   UNL A   1      42.651  33.037  34.496  1.00  0.00     0.049 A 
ATOM     50  C   UNL A   1      41.577  30.058  29.561  1.00  0.00     0.074 A 
ATOM     51  C   UNL A   1      42.753  34.393  34.261  1.00  0.00     0.029 A 
ATOM     52  N   UNL A   1      43.214  32.414  33.412  1.00  0.00    -0.354 N 
ATOM     53  N   UNL A   1      42.254  31.155  29.365  1.00  0.00    -0.248 NA
ATOM     54  C   UNL A   1      41.943  29.300  30.747  1.00  0.00     0.031 C 
ATOM     55  C   UNL A   1      43.011  34.515  32.863  1.00  0.00     0.029 A 
ATOM     56  C   UNL A   1      43.117  33.233  32.321  1.00  0.00     0.049 A 
ATOM     57  H   UNL A   1      43.621  31.517  33.419  1.00  0.00     0.167 HD
ATOM     58  C   UNL A   1      42.808  31.449  30.602  1.00  0.00     0.074 A 
ATOM     59  C   UNL A   1      42.676  30.219  31.379  1.00  0.00     0.031 C 
ATOM     60  C   UNL A   1      43.040  32.745  30.962  1.00  0.00     0.037 A 
BRANCH  47  61
ATOM     61  C   UNL A   1      42.411  30.991  36.058  1.00  0.00     0.064 A 
ATOM     62  C   UNL A   1      43.325  31.163  37.111  1.00  0.00     0.173 A 
ATOM     63  C   UNL A   1      42.317  29.679  35.538  1.00  0.00     0.173 A 
ATOM     64  F   UNL A   1      43.536  32.380  37.637  1.00  0.00    -0.203 F 
ATOM     65  C   UNL A   1      44.114  30.109  37.578  1.00  0.00     0.198 A 
ATOM     66  C   UNL A   1      43.058  28.618  36.048  1.00  0.00     0.198 A 
ATOM     67  F   UNL A   1      41.610  29.389  34.441  1.00  0.00    -0.203 F 
ATOM     68  F   UNL A   1      45.058  30.344  38.498  1.00  0.00    -0.200 F 
ATOM     69  C   UNL A   1      43.975  28.837  37.051  1.00  0.00     0.200 A 
ATOM     70  F   UNL A   1      42.933  27.403  35.497  1.00  0.00    -0.200 F 
ATOM     71  F   UNL A   1      44.764  27.836  37.464  1.00  0.00    -0.200 F 
ENDBRANCH  47  61
BRANCH  48  72
ATOM     72  C   UNL A   1      39.982  28.497  28.240  1.00  0.00     0.064 A 
ATOM     73  C   UNL A   1      40.598  28.216  27.007  1.00  0.00     0.173 A 
ATOM     74  C   UNL A   1      39.378  27.405  28.895  1.00  0.00     0.173 A 
ATOM     75  F   UNL A   1      41.231  29.187  26.333  1.00  0.00    -0.203 F 
ATOM     76  C   UNL A   1      40.652  26.917  26.488  1.00  0.00     0.198 A 
ATOM     77  C   UNL A   1      39.427  26.111  28.372  1.00  0.00     0.198 A 
ATOM     78  F   UNL A   1      38.819  27.551  30.104  1.00  0.00    -0.203 F 
ATOM     79  F   UNL A   1      41.321  26.678  25.350  1.00  0.00    -0.200 F 
ATOM     80  C   UNL A   1      40.080  25.863  27.179  1.00  0.00     0.200 A 
ATOM     81  F   UNL A   1      38.900  25.094  29.069  1.00  0.00    -0.200 F 
ATOM     82  F   UNL A   1      40.195  24.608  26.722  1.00  0.00    -0.200 F 
ENDBRANCH  48  72
BRANCH  60  83
ATOM     83  C   UNL A   1      43.020  33.787  29.878  1.00  0.00     0.064 A 
ATOM     84  C   UNL A   1      41.878  34.510  29.487  1.00  0.00     0.173 A 
ATOM     85  C   UNL A   1      44.249  34.172  29.326  1.00  0.00     0.173 A 
ATOM     86  F   UNL A   1      40.680  34.254  30.029  1.00  0.00    -0.203 F 
ATOM     87  C   UNL A   1      41.969  35.557  28.571  1.00  0.00     0.198 A 
ATOM     88  C   UNL A   1      44.342  35.242  28.443  1.00  0.00     0.198 A 
ATOM     89  F   UNL A   1      45.375  33.543  29.696  1.00  0.00    -0.203 F 
ATOM     90  F   UNL A   1      40.869  36.234  28.209  1.00  0.00    -0.200 F 
ATOM     91  C   UNL A   1      43.203  35.931  28.059  1.00  0.00     0.200 A 
ATOM     92  F   UNL A   1      45.543  35.626  27.988  1.00  0.00    -0.200 F 
ATOM     93  F   UNL A   1      43.298  36.971  27.220  1.00  0.00    -0.200 F 
ENDBRANCH  60  83
ENDBRANCH  34  35
ENDBRANCH  27  29
ENDBRANCH  26  27
ENDBRANCH  25  26
ENDBRANCH  24  25
ENDBRANCH  23  24
ENDBRANCH  22  23
ENDBRANCH   1  22
TORSDOF 19
ENDMDL
MODEL 3
REMARK VINA RESULT:     -10.7      3.709      8.796
REMARK SMILES Cc1cc(C)c2c(O[C@@H](C)C(=O)OCCOCCOCCOC(=O)c3ccc(-c4c5nc(c(-c6c(F)c(F)c(F)c(F)c6F)c6ccc([nH]6)c(-c6c(F)c(F)c(F)c(F)c6F)c6nc(c(-c7c(F)c(F)c(F)c(F)c7F)c7ccc4[nH]7)C=C6)C=C5)cc3)nsc2n1
REMARK SMILES IDX 17 1 16 2 15 3 14 4 13 5 11 6 12 7 9 8 10 9 8 10 7 11 1 12
REMARK SMILES IDX 2 13 3 14 91 15 4 16 90 17 5 18 6 19 89 20 88 21 18 22 19 23
REMARK SMILES IDX 20 24 21 25 22 26 23 27 24 28 25 29 26 30 87 31 27 32 86 33
REMARK SMILES IDX 28 34 29 35 30 36 80 37 31 38 85 39 79 40 81 41 32 42 84 43
REMARK SMILES IDX 78 44 77 45 33 47 65 48 45 49 64 50 46 51 49 52 63 53 82 54
REMARK SMILES IDX 47 55 48 56 62 58 83 59 50 60 34 61 35 62 43 63 36 64 37 65
REMARK SMILES IDX 41 66 44 67 38 68 39 69 42 70 40 71 66 72 67 73 75 74 68 75
REMARK SMILES IDX 69 76 73 77 76 78 70 79 71 80 74 81 72 82 51 83 52 84 60 85
REMARK SMILES IDX 53 86 54 87 58 88 61 89 55 90 56 91 59 92 57 93
REMARK H PARENT 81 46 49 57
REMARK Flexibility Score: inf
ROOT
ATOM      1  C   UNL A   1      33.152  29.330  24.466  1.00  0.00     0.188 C 
ENDROOT
BRANCH   1   2
ATOM      2  O   UNL A   1      32.316  28.857  23.425  1.00  0.00    -0.376 OA
BRANCH   2   3
ATOM      3  C   UNL A   1      30.914  28.772  23.649  1.00  0.00     0.202 C 
BRANCH   3   4
ATOM      4  C   UNL A   1      30.245  27.480  24.154  1.00  0.00     0.261 C 
BRANCH   4   5
ATOM      5  O   UNL A   1      31.147  26.407  24.475  1.00  0.00    -0.461 OA
BRANCH   5   6
ATOM      6  C   UNL A   1      30.690  25.371  25.223  1.00  0.00     0.347 C 
ATOM      7  O   UNL A   1      29.981  25.501  26.215  1.00  0.00    -0.248 OA
BRANCH   6   8
ATOM      8  C   UNL A   1      31.115  23.993  24.657  1.00  0.00     0.281 C 
ATOM      9  C   UNL A   1      30.603  23.702  23.247  1.00  0.00     0.066 C 
BRANCH   8  10
ATOM     10  O   UNL A   1      31.161  22.771  25.327  1.00  0.00    -0.462 OA
BRANCH  10  11
ATOM     11  C   UNL A   1      32.236  21.952  25.334  1.00  0.00     0.236 A 
ATOM     12  C   UNL A   1      37.849  21.100  25.011  1.00  0.00     0.067 C 
ATOM     13  C   UNL A   1      36.400  21.449  25.168  1.00  0.00     0.039 A 
ATOM     14  C   UNL A   1      36.036  22.765  25.382  1.00  0.00     0.027 A 
ATOM     15  N   UNL A   1      35.517  20.452  25.081  1.00  0.00    -0.240 NA
ATOM     16  C   UNL A   1      34.684  23.137  25.560  1.00  0.00    -0.034 A 
ATOM     17  C   UNL A   1      34.227  20.828  25.191  1.00  0.00     0.147 A 
ATOM     18  C   UNL A   1      34.526  24.595  25.903  1.00  0.00     0.045 C 
ATOM     19  C   UNL A   1      33.692  22.113  25.391  1.00  0.00     0.078 A 
ATOM     20  S   UNL A   1      33.005  19.653  25.119  1.00  0.00    -0.012 S 
ATOM     21  N   UNL A   1      31.764  20.705  25.278  1.00  0.00    -0.153 NA
ENDBRANCH  10  11
ENDBRANCH   8  10
ENDBRANCH   6   8
ENDBRANCH   5   6
ENDBRANCH   4   5
ENDBRANCH   3   4
ENDBRANCH   2   3
ENDBRANCH   1   2
BRANCH   1  22
ATOM     22  C   UNL A   1      33.445  28.420  25.678  1.00  0.00     0.188 C 
BRANCH  22  23
ATOM     23  O   UNL A   1      34.573  28.734  26.461  1.00  0.00    -0.376 OA
BRANCH  23  24
ATOM     24  C   UNL A   1      34.562  29.546  27.622  1.00  0.00     0.202 C 
BRANCH  24  25
ATOM     25  C   UNL A   1      34.651  31.069  27.646  1.00  0.00     0.261 C 
BRANCH  25  26
ATOM     26  O   UNL A   1      35.761  31.599  28.324  1.00  0.00    -0.460 OA
BRANCH  26  27
ATOM     27  C   UNL A   1      35.545  31.821  29.629  1.00  0.00     0.338 C 
ATOM     28  O   UNL A   1      34.599  32.405  30.151  1.00  0.00    -0.246 OA
BRANCH  27  29
ATOM     29  C   UNL A   1      36.660  31.244  30.364  1.00  0.00     0.060 A 
ATOM     30  C   UNL A   1      37.830  31.995  30.456  1.00  0.00     0.016 A 
ATOM     31  C   UNL A   1      36.605  29.873  30.649  1.00  0.00     0.016 A 
ATOM     32  C   UNL A   1      39.013  31.308  30.558  1.00  0.00     0.010 A 
ATOM     33  C   UNL A   1      37.782  29.189  30.724  1.00  0.00     0.010 A 
ATOM     34  C   UNL A   1      38.959  29.910  30.559  1.00  0.00    -0.014 A 
BRANCH  34  35
ATOM     35  C   UNL A   1      40.193  29.180  30.419  1.00  0.00     0.031 A 
ATOM     36  C   UNL A   1      40.884  29.038  31.710  1.00  0.00     0.074 A 
ATOM     37  C   UNL A   1      40.555  28.641  29.239  1.00  0.00     0.049 A 
ATOM     38  N   UNL A   1      41.973  29.626  32.074  1.00  0.00    -0.248 NA
ATOM     39  C   UNL A   1      40.177  28.341  32.798  1.00  0.00     0.031 C 
ATOM     40  C   UNL A   1      39.770  28.554  28.004  1.00  0.00     0.029 A 
ATOM     41  N   UNL A   1      41.691  27.965  28.921  1.00  0.00    -0.354 N 
ATOM     42  C   UNL A   1      42.213  29.166  33.360  1.00  0.00     0.074 A 
ATOM     43  C   UNL A   1      40.984  28.584  33.831  1.00  0.00     0.031 C 
ATOM     44  C   UNL A   1      40.355  27.673  27.160  1.00  0.00     0.029 A 
ATOM     45  C   UNL A   1      41.616  27.242  27.734  1.00  0.00     0.049 A 
ATOM     46  H   UNL A   1      42.499  27.986  29.483  1.00  0.00     0.167 HD
ATOM     47  C   UNL A   1      43.490  28.977  33.779  1.00  0.00     0.037 A 
ATOM     48  C   UNL A   1      42.510  26.306  27.325  1.00  0.00     0.037 A 
ATOM     49  C   UNL A   1      44.418  29.726  32.969  1.00  0.00     0.049 A 
ATOM     50  C   UNL A   1      43.765  26.560  28.077  1.00  0.00     0.074 A 
ATOM     51  C   UNL A   1      44.610  31.063  32.688  1.00  0.00     0.029 A 
ATOM     52  N   UNL A   1      45.069  29.027  31.984  1.00  0.00    -0.354 N 
ATOM     53  N   UNL A   1      44.512  27.616  27.913  1.00  0.00    -0.248 NA
ATOM     54  C   UNL A   1      43.959  25.845  29.329  1.00  0.00     0.031 C 
ATOM     55  C   UNL A   1      45.029  31.106  31.325  1.00  0.00     0.029 A 
ATOM     56  C   UNL A   1      45.135  29.797  30.855  1.00  0.00     0.049 A 
ATOM     57  H   UNL A   1      45.430  28.116  32.077  1.00  0.00     0.167 HD
ATOM     58  C   UNL A   1      44.936  27.946  29.191  1.00  0.00     0.074 A 
ATOM     59  C   UNL A   1      44.660  26.762  30.000  1.00  0.00     0.031 C 
ATOM     60  C   UNL A   1      45.188  29.246  29.519  1.00  0.00     0.037 A 
BRANCH  47  61
ATOM     61  C   UNL A   1      43.907  27.770  34.580  1.00  0.00     0.064 A 
ATOM     62  C   UNL A   1      44.605  27.961  35.785  1.00  0.00     0.173 A 
ATOM     63  C   UNL A   1      43.915  26.450  34.072  1.00  0.00     0.173 A 
ATOM     64  F   UNL A   1      44.710  29.185  36.323  1.00  0.00    -0.203 F 
ATOM     65  C   UNL A   1      45.292  26.916  36.409  1.00  0.00     0.198 A 
ATOM     66  C   UNL A   1      44.547  25.399  34.729  1.00  0.00     0.198 A 
ATOM     67  F   UNL A   1      43.429  26.141  32.864  1.00  0.00    -0.203 F 
ATOM     68  F   UNL A   1      46.044  27.169  37.488  1.00  0.00    -0.200 F 
ATOM     69  C   UNL A   1      45.257  25.636  35.884  1.00  0.00     0.200 A 
ATOM     70  F   UNL A   1      44.529  24.176  34.182  1.00  0.00    -0.200 F 
ATOM     71  F   UNL A   1      45.954  24.645  36.454  1.00  0.00    -0.200 F 
ENDBRANCH  47  61
BRANCH  48  72
ATOM     72  C   UNL A   1      42.256  25.005  26.651  1.00  0.00     0.064 A 
ATOM     73  C   UNL A   1      42.997  24.636  25.513  1.00  0.00     0.173 A 
ATOM     74  C   UNL A   1      41.527  23.975  27.277  1.00  0.00     0.173 A 
ATOM     75  F   UNL A   1      43.750  25.544  24.876  1.00  0.00    -0.203 F 
ATOM     76  C   UNL A   1      43.046  23.313  25.061  1.00  0.00     0.198 A 
ATOM     77  C   UNL A   1      41.572  22.656  26.821  1.00  0.00     0.198 A 
ATOM     78  F   UNL A   1      40.839  24.205  28.404  1.00  0.00    -0.203 F 
ATOM     79  F   UNL A   1      43.829  22.988  24.022  1.00  0.00    -0.200 F 
ATOM     80  C   UNL A   1      42.346  22.321  25.725  1.00  0.00     0.200 A 
ATOM     81  F   UNL A   1      40.918  21.698  27.494  1.00  0.00    -0.200 F 
ATOM     82  F   UNL A   1      42.451  21.041  25.341  1.00  0.00    -0.200 F 
ENDBRANCH  48  72
BRANCH  60  83
ATOM     83  C   UNL A   1      45.339  30.235  28.395  1.00  0.00     0.064 A 
ATOM     84  C   UNL A   1      44.279  30.957  27.820  1.00  0.00     0.173 A 
ATOM     85  C   UNL A   1      46.640  30.572  27.999  1.00  0.00     0.173 A 
ATOM     86  F   UNL A   1      43.012  30.749  28.204  1.00  0.00    -0.203 F 
ATOM     87  C   UNL A   1      44.518  31.957  26.877  1.00  0.00     0.198 A 
ATOM     88  C   UNL A   1      46.878  31.595  27.088  1.00  0.00     0.198 A 
ATOM     89  F   UNL A   1      47.691  29.942  28.548  1.00  0.00    -0.203 F 
ATOM     90  F   UNL A   1      43.492  32.635  26.338  1.00  0.00    -0.200 F 
ATOM     91  C   UNL A   1      45.817  32.284  26.522  1.00  0.00     0.200 A 
ATOM     92  F   UNL A   1      48.138  31.936  26.785  1.00  0.00    -0.200 F 
ATOM     93  F   UNL A   1      46.050  33.280  25.657  1.00  0.00    -0.200 F 
ENDBRANCH  60  83
ENDBRANCH  34  35
ENDBRANCH  27  29
ENDBRANCH  26  27
ENDBRANCH  25  26
ENDBRANCH  24  25
ENDBRANCH  23  24
ENDBRANCH  22  23
ENDBRANCH   1  22
TORSDOF 19
ENDMDL
