MODEL 1
REMARK VINA RESULT:     -12.1      0.000      0.000
REMARK SMILES Cc1ccc(NC(=O)C[C@@H](C(=O)OCCOCCOCCOC(=O)c2ccc(-c3c4nc(c(-c5c(F)c(F)c(F)c(F)c5F)c5ccc([nH]5)c(-c5c(F)c(F)c(F)c(F)c5F)c5nc(c(-c6c(F)c(F)c(F)c(F)c6F)c6ccc3[nH]6)C=C5)C=C4)cc2)[NH+](C)C)cc1Cl
REMARK SMILES IDX 17 1 16 2 15 3 14 4 13 5 11 6 12 7 10 8 9 9 7 10 6 11 8 13
REMARK SMILES IDX 5 14 1 15 2 16 3 17 92 18 4 19 91 20 93 21 88 22 89 23 90 24
REMARK SMILES IDX 18 26 19 27 20 28 21 29 22 30 23 31 24 32 25 33 26 34 87 35
REMARK SMILES IDX 27 36 86 37 28 38 29 39 30 40 80 41 31 42 85 43 79 44 81 45
REMARK SMILES IDX 32 46 84 47 78 48 77 49 33 51 65 52 45 53 64 54 46 55 49 56
REMARK SMILES IDX 63 57 82 58 47 59 48 60 62 62 83 63 50 64 34 65 35 66 43 67
REMARK SMILES IDX 36 68 37 69 41 70 44 71 38 72 39 73 42 74 40 75 66 76 67 77
REMARK SMILES IDX 75 78 68 79 69 80 73 81 76 82 70 83 71 84 74 85 72 86 51 87
REMARK SMILES IDX 52 88 60 89 53 90 54 91 58 92 61 93 55 94 56 95 59 96 57 97
REMARK H PARENT 6 12 88 25 81 50 49 61
REMARK Flexibility Score: inf
ROOT
ATOM      1  C   UNL A   1      34.911  33.577  28.007  1.00  0.00     0.188 C 
ENDROOT
BRANCH   1   2
ATOM      2  O   UNL A   1      34.934  32.166  27.399  1.00  0.00    -0.376 OA
BRANCH   2   3
ATOM      3  C   UNL A   1      34.868  30.189  27.646  1.00  0.00     0.202 C 
BRANCH   3   4
ATOM      4  C   UNL A   1      34.243  28.922  26.683  1.00  0.00     0.261 C 
BRANCH   4   5
ATOM      5  O   UNL A   1      33.621  29.151  25.396  1.00  0.00    -0.459 OA
BRANCH   5   6
ATOM      6  C   UNL A   1      32.274  29.231  25.294  1.00  0.00     0.365 C 
ATOM      7  O   UNL A   1      31.660  30.213  25.688  1.00  0.00    -0.245 OA
BRANCH   6   8
ATOM      8  C   UNL A   1      31.671  27.955  24.548  1.00  0.00     0.304 C 
BRANCH   8   9
ATOM      9  C   UNL A   1      31.992  26.555  25.153  1.00  0.00     0.177 C 
BRANCH   9  10
ATOM     10  C   UNL A   1      31.421  26.122  26.487  1.00  0.00     0.231 C 
ATOM     11  N   UNL A   1      31.323  24.798  26.815  1.00  0.00    -0.326 N 
ATOM     12  H   UNL A   1      30.712  24.605  27.562  1.00  0.00     0.169 HD
ATOM     13  O   UNL A   1      30.956  26.959  27.264  1.00  0.00    -0.274 OA
BRANCH  11  14
ATOM     14  C   UNL A   1      31.948  23.660  26.263  1.00  0.00     0.042 A 
ATOM     15  C   UNL A   1      34.248  19.405  24.645  1.00  0.00     0.046 C 
ATOM     16  C   UNL A   1      33.716  20.744  25.044  1.00  0.00    -0.032 A 
ATOM     17  C   UNL A   1      34.104  21.428  26.661  1.00  0.00     0.007 A 
ATOM     18  C   UNL A   1      32.459  21.502  24.014  1.00  0.00     0.046 A 
ATOM     19  C   UNL A   1      33.243  22.897  27.265  1.00  0.00     0.026 A 
ATOM     20  C   UNL A   1      31.585  22.971  24.605  1.00  0.00     0.047 A 
ATOM     21  Cl  UNL A   1      32.003  20.816  22.503  1.00  0.00    -0.084 Cl
ENDBRANCH  11  14
ENDBRANCH   9  10
ENDBRANCH   8   9
BRANCH   8  22
ATOM     22  N   UNL A   1      31.876  27.936  23.031  1.00  0.00    -0.328 N 
ATOM     23  C   UNL A   1      31.593  29.187  22.332  1.00  0.00     0.333 C 
ATOM     24  C   UNL A   1      33.083  27.331  22.459  1.00  0.00     0.333 C 
ATOM     25  H   UNL A   1      31.138  27.257  22.849  1.00  0.00     0.348 HD
ENDBRANCH   8  22
ENDBRANCH   6   8
ENDBRANCH   5   6
ENDBRANCH   4   5
ENDBRANCH   3   4
ENDBRANCH   2   3
ENDBRANCH   1   2
BRANCH   1  26
ATOM     26  C   UNL A   1      33.532  34.172  28.394  1.00  0.00     0.188 C 
BRANCH  26  27
ATOM     27  O   UNL A   1      33.208  34.316  29.769  1.00  0.00    -0.376 OA
BRANCH  27  28
ATOM     28  C   UNL A   1      34.233  34.771  30.640  1.00  0.00     0.202 C 
BRANCH  28  29
ATOM     29  C   UNL A   1      34.336  34.112  32.025  1.00  0.00     0.261 C 
BRANCH  29  30
ATOM     30  O   UNL A   1      34.663  32.706  31.996  1.00  0.00    -0.460 OA
BRANCH  30  31
ATOM     31  C   UNL A   1      35.717  32.319  32.748  1.00  0.00     0.338 C 
ATOM     32  O   UNL A   1      35.891  32.537  33.941  1.00  0.00    -0.246 OA
BRANCH  31  33
ATOM     33  C   UNL A   1      36.593  31.410  31.976  1.00  0.00     0.060 A 
ATOM     34  C   UNL A   1      37.330  30.435  32.670  1.00  0.00     0.016 A 
ATOM     35  C   UNL A   1      36.773  31.575  30.602  1.00  0.00     0.016 A 
ATOM     36  C   UNL A   1      38.289  29.667  32.008  1.00  0.00     0.010 A 
ATOM     37  C   UNL A   1      37.758  30.828  29.945  1.00  0.00     0.010 A 
ATOM     38  C   UNL A   1      38.554  29.910  30.656  1.00  0.00    -0.014 A 
BRANCH  38  39
ATOM     39  C   UNL A   1      39.824  29.425  30.058  1.00  0.00     0.031 A 
ATOM     40  C   UNL A   1      40.968  30.399  29.953  1.00  0.00     0.074 A 
ATOM     41  C   UNL A   1      39.973  28.161  29.628  1.00  0.00     0.049 A 
ATOM     42  N   UNL A   1      42.131  30.265  29.369  1.00  0.00    -0.248 NA
ATOM     43  C   UNL A   1      40.764  31.709  30.594  1.00  0.00     0.031 C 
ATOM     44  C   UNL A   1      38.972  27.104  29.740  1.00  0.00     0.029 A 
ATOM     45  N   UNL A   1      41.032  27.560  28.990  1.00  0.00    -0.354 N 
ATOM     46  C   UNL A   1      42.789  31.475  29.560  1.00  0.00     0.074 A 
ATOM     47  C   UNL A   1      41.888  32.338  30.292  1.00  0.00     0.031 C 
ATOM     48  C   UNL A   1      39.454  25.988  29.162  1.00  0.00     0.029 A 
ATOM     49  C   UNL A   1      40.777  26.267  28.605  1.00  0.00     0.049 A 
ATOM     50  H   UNL A   1      41.890  28.014  28.825  1.00  0.00     0.167 HD
ATOM     51  C   UNL A   1      44.032  31.834  29.161  1.00  0.00     0.037 A 
ATOM     52  C   UNL A   1      41.516  25.425  27.854  1.00  0.00     0.037 A 
ATOM     53  C   UNL A   1      44.920  30.976  28.424  1.00  0.00     0.049 A 
ATOM     54  C   UNL A   1      42.859  25.882  27.333  1.00  0.00     0.074 A 
ATOM     55  C   UNL A   1      46.199  31.241  27.970  1.00  0.00     0.029 A 
ATOM     56  N   UNL A   1      44.612  29.684  28.022  1.00  0.00    -0.354 N 
ATOM     57  N   UNL A   1      43.478  27.023  27.516  1.00  0.00    -0.248 NA
ATOM     58  C   UNL A   1      43.605  24.929  26.497  1.00  0.00     0.031 C 
ATOM     59  C   UNL A   1      46.641  30.135  27.239  1.00  0.00     0.029 A 
ATOM     60  C   UNL A   1      45.667  29.151  27.299  1.00  0.00     0.049 A 
ATOM     61  H   UNL A   1      43.769  29.215  28.221  1.00  0.00     0.167 HD
ATOM     62  C   UNL A   1      44.696  26.913  26.853  1.00  0.00     0.074 A 
ATOM     63  C   UNL A   1      44.733  25.588  26.272  1.00  0.00     0.031 C 
ATOM     64  C   UNL A   1      45.694  27.823  26.737  1.00  0.00     0.037 A 
BRANCH  51  65
ATOM     65  C   UNL A   1      44.484  33.232  29.474  1.00  0.00     0.064 A 
ATOM     66  C   UNL A   1      45.224  33.534  30.626  1.00  0.00     0.173 A 
ATOM     67  C   UNL A   1      44.186  34.285  28.594  1.00  0.00     0.173 A 
ATOM     68  F   UNL A   1      45.521  32.569  31.510  1.00  0.00    -0.203 F 
ATOM     69  C   UNL A   1      45.623  34.840  30.902  1.00  0.00     0.198 A 
ATOM     70  C   UNL A   1      44.617  35.583  28.854  1.00  0.00     0.198 A 
ATOM     71  F   UNL A   1      43.483  34.054  27.475  1.00  0.00    -0.203 F 
ATOM     72  F   UNL A   1      46.280  35.113  32.037  1.00  0.00    -0.200 F 
ATOM     73  C   UNL A   1      45.326  35.862  30.012  1.00  0.00     0.200 A 
ATOM     74  F   UNL A   1      44.340  36.566  27.986  1.00  0.00    -0.200 F 
ATOM     75  F   UNL A   1      45.715  37.116  30.275  1.00  0.00    -0.200 F 
ENDBRANCH  51  65
BRANCH  52  76
ATOM     76  C   UNL A   1      40.997  24.071  27.518  1.00  0.00     0.064 A 
ATOM     77  C   UNL A   1      41.558  22.918  28.085  1.00  0.00     0.173 A 
ATOM     78  C   UNL A   1      39.952  23.899  26.596  1.00  0.00     0.173 A 
ATOM     79  F   UNL A   1      42.580  23.026  28.947  1.00  0.00    -0.203 F 
ATOM     80  C   UNL A   1      41.112  21.647  27.725  1.00  0.00     0.198 A 
ATOM     81  C   UNL A   1      39.485  22.629  26.264  1.00  0.00     0.198 A 
ATOM     82  F   UNL A   1      39.384  24.967  26.017  1.00  0.00    -0.203 F 
ATOM     83  F   UNL A   1      41.707  20.561  28.239  1.00  0.00    -0.200 F 
ATOM     84  C   UNL A   1      40.071  21.503  26.821  1.00  0.00     0.200 A 
ATOM     85  F   UNL A   1      38.472  22.497  25.397  1.00  0.00    -0.200 F 
ATOM     86  F   UNL A   1      39.643  20.281  26.477  1.00  0.00    -0.200 F 
ENDBRANCH  52  76
BRANCH  64  87
ATOM     87  C   UNL A   1      46.937  27.406  26.001  1.00  0.00     0.064 A 
ATOM     88  C   UNL A   1      47.104  27.644  24.629  1.00  0.00     0.173 A 
ATOM     89  C   UNL A   1      48.000  26.803  26.695  1.00  0.00     0.173 A 
ATOM     90  F   UNL A   1      46.117  28.207  23.917  1.00  0.00    -0.203 F 
ATOM     91  C   UNL A   1      48.274  27.267  23.974  1.00  0.00     0.198 A 
ATOM     92  C   UNL A   1      49.182  26.462  26.044  1.00  0.00     0.198 A 
ATOM     93  F   UNL A   1      47.899  26.562  28.011  1.00  0.00    -0.203 F 
ATOM     94  F   UNL A   1      48.389  27.456  22.652  1.00  0.00    -0.200 F 
ATOM     95  C   UNL A   1      49.314  26.685  24.682  1.00  0.00     0.200 A 
ATOM     96  F   UNL A   1      50.192  25.918  26.735  1.00  0.00    -0.200 F 
ATOM     97  F   UNL A   1      50.443  26.333  24.051  1.00  0.00    -0.200 F 
ENDBRANCH  64  87
ENDBRANCH  38  39
ENDBRANCH  31  33
ENDBRANCH  30  31
ENDBRANCH  29  30
ENDBRANCH  28  29
ENDBRANCH  27  28
ENDBRANCH  26  27
ENDBRANCH   1  26
TORSDOF 21
ENDMDL
MODEL 2
REMARK VINA RESULT:     -12.0      4.926     10.042
REMARK SMILES Cc1ccc(NC(=O)C[C@@H](C(=O)OCCOCCOCCOC(=O)c2ccc(-c3c4nc(c(-c5c(F)c(F)c(F)c(F)c5F)c5ccc([nH]5)c(-c5c(F)c(F)c(F)c(F)c5F)c5nc(c(-c6c(F)c(F)c(F)c(F)c6F)c6ccc3[nH]6)C=C5)C=C4)cc2)[NH+](C)C)cc1Cl
REMARK SMILES IDX 17 1 16 2 15 3 14 4 13 5 11 6 12 7 10 8 9 9 7 10 6 11 8 13
REMARK SMILES IDX 5 14 1 15 2 16 3 17 92 18 4 19 91 20 93 21 88 22 89 23 90 24
REMARK SMILES IDX 18 26 19 27 20 28 21 29 22 30 23 31 24 32 25 33 26 34 87 35
REMARK SMILES IDX 27 36 86 37 28 38 29 39 30 40 80 41 31 42 85 43 79 44 81 45
REMARK SMILES IDX 32 46 84 47 78 48 77 49 33 51 65 52 45 53 64 54 46 55 49 56
REMARK SMILES IDX 63 57 82 58 47 59 48 60 62 62 83 63 50 64 34 65 35 66 43 67
REMARK SMILES IDX 36 68 37 69 41 70 44 71 38 72 39 73 42 74 40 75 66 76 67 77
REMARK SMILES IDX 75 78 68 79 69 80 73 81 76 82 70 83 71 84 74 85 72 86 51 87
REMARK SMILES IDX 52 88 60 89 53 90 54 91 58 92 61 93 55 94 56 95 59 96 57 97
REMARK H PARENT 6 12 88 25 81 50 49 61
REMARK Flexibility Score: inf
ROOT
ATOM      1  C   UNL A   1      38.859  21.899  26.013  1.00  0.00     0.188 C 
ENDROOT
BRANCH   1   2
ATOM      2  O   UNL A   1      37.629  22.520  25.331  1.00  0.00    -0.376 OA
BRANCH   2   3
ATOM      3  C   UNL A   1      36.605  22.916  23.668  1.00  0.00     0.202 C 
BRANCH   3   4
ATOM      4  C   UNL A   1      35.049  23.567  23.394  1.00  0.00     0.261 C 
BRANCH   4   5
ATOM      5  O   UNL A   1      34.593  24.795  24.012  1.00  0.00    -0.459 OA
BRANCH   5   6
ATOM      6  C   UNL A   1      33.876  25.693  23.299  1.00  0.00     0.365 C 
ATOM      7  O   UNL A   1      33.905  25.708  22.076  1.00  0.00    -0.245 OA
BRANCH   6   8
ATOM      8  C   UNL A   1      32.983  26.611  24.251  1.00  0.00     0.304 C 
BRANCH   8   9
ATOM      9  C   UNL A   1      31.599  26.048  24.696  1.00  0.00     0.177 C 
BRANCH   9  10
ATOM     10  C   UNL A   1      31.295  25.760  26.150  1.00  0.00     0.231 C 
ATOM     11  N   UNL A   1      31.433  24.498  26.662  1.00  0.00    -0.326 N 
ATOM     12  H   UNL A   1      30.970  24.352  27.519  1.00  0.00     0.169 HD
ATOM     13  O   UNL A   1      30.835  26.645  26.875  1.00  0.00    -0.274 OA
BRANCH  11  14
ATOM     14  C   UNL A   1      32.124  23.371  26.171  1.00  0.00     0.042 A 
ATOM     15  C   UNL A   1      34.725  19.212  24.776  1.00  0.00     0.046 C 
ATOM     16  C   UNL A   1      34.083  20.527  25.081  1.00  0.00    -0.032 A 
ATOM     17  C   UNL A   1      34.571  21.457  26.541  1.00  0.00     0.007 A 
ATOM     18  C   UNL A   1      32.630  21.003  24.144  1.00  0.00     0.046 A 
ATOM     19  C   UNL A   1      33.612  22.892  27.076  1.00  0.00     0.026 A 
ATOM     20  C   UNL A   1      31.657  22.434  24.668  1.00  0.00     0.047 A 
ATOM     21  Cl  UNL A   1      32.088  20.077  22.798  1.00  0.00    -0.084 Cl
ENDBRANCH  11  14
ENDBRANCH   9  10
ENDBRANCH   8   9
BRANCH   8  22
ATOM     22  N   UNL A   1      32.841  28.067  23.799  1.00  0.00    -0.328 N 
ATOM     23  C   UNL A   1      31.592  28.406  23.120  1.00  0.00     0.333 C 
ATOM     24  C   UNL A   1      33.203  29.160  24.708  1.00  0.00     0.333 C 
ATOM     25  H   UNL A   1      33.607  28.028  23.127  1.00  0.00     0.348 HD
ENDBRANCH   8  22
ENDBRANCH   6   8
ENDBRANCH   5   6
ENDBRANCH   4   5
ENDBRANCH   3   4
ENDBRANCH   2   3
ENDBRANCH   1   2
BRANCH   1  26
ATOM     26  C   UNL A   1      39.152  20.400  25.741  1.00  0.00     0.188 C 
BRANCH  26  27
ATOM     27  O   UNL A   1      40.479  19.921  25.897  1.00  0.00    -0.376 OA
BRANCH  27  28
ATOM     28  C   UNL A   1      41.363  20.688  26.701  1.00  0.00     0.202 C 
BRANCH  28  29
ATOM     29  C   UNL A   1      42.684  21.151  26.065  1.00  0.00     0.261 C 
BRANCH  29  30
ATOM     30  O   UNL A   1      43.150  22.438  26.524  1.00  0.00    -0.460 OA
BRANCH  30  31
ATOM     31  C   UNL A   1      43.042  23.462  25.648  1.00  0.00     0.338 C 
ATOM     32  O   UNL A   1      43.292  23.437  24.449  1.00  0.00    -0.246 OA
BRANCH  31  33
ATOM     33  C   UNL A   1      42.390  24.624  26.294  1.00  0.00     0.060 A 
ATOM     34  C   UNL A   1      43.067  25.855  26.305  1.00  0.00     0.016 A 
ATOM     35  C   UNL A   1      41.178  24.486  26.971  1.00  0.00     0.016 A 
ATOM     36  C   UNL A   1      42.568  26.931  27.041  1.00  0.00     0.010 A 
ATOM     37  C   UNL A   1      40.695  25.555  27.736  1.00  0.00     0.010 A 
ATOM     38  C   UNL A   1      41.415  26.762  27.815  1.00  0.00    -0.014 A 
BRANCH  38  39
ATOM     39  C   UNL A   1      41.117  27.723  28.907  1.00  0.00     0.031 A 
ATOM     40  C   UNL A   1      41.967  27.660  30.148  1.00  0.00     0.074 A 
ATOM     41  C   UNL A   1      40.134  28.633  28.808  1.00  0.00     0.049 A 
ATOM     42  N   UNL A   1      41.841  28.300  31.283  1.00  0.00    -0.248 NA
ATOM     43  C   UNL A   1      43.119  26.743  30.100  1.00  0.00     0.031 C 
ATOM     44  C   UNL A   1      39.290  28.845  27.635  1.00  0.00     0.029 A 
ATOM     45  N   UNL A   1      39.669  29.541  29.730  1.00  0.00    -0.354 N 
ATOM     46  C   UNL A   1      42.884  27.851  32.085  1.00  0.00     0.074 A 
ATOM     47  C   UNL A   1      43.619  26.870  31.318  1.00  0.00     0.031 C 
ATOM     48  C   UNL A   1      38.390  29.804  27.918  1.00  0.00     0.029 A 
ATOM     49  C   UNL A   1      38.568  30.240  29.303  1.00  0.00     0.049 A 
ATOM     50  H   UNL A   1      40.087  29.676  30.611  1.00  0.00     0.167 HD
ATOM     51  C   UNL A   1      43.201  28.223  33.348  1.00  0.00     0.037 A 
ATOM     52  C   UNL A   1      37.775  31.102  29.972  1.00  0.00     0.037 A 
ATOM     53  C   UNL A   1      42.460  29.191  34.111  1.00  0.00     0.049 A 
ATOM     54  C   UNL A   1      38.088  31.428  31.414  1.00  0.00     0.074 A 
ATOM     55  C   UNL A   1      42.694  29.640  35.398  1.00  0.00     0.029 A 
ATOM     56  N   UNL A   1      41.329  29.854  33.656  1.00  0.00    -0.354 N 
ATOM     57  N   UNL A   1      39.074  31.005  32.168  1.00  0.00    -0.248 NA
ATOM     58  C   UNL A   1      37.171  32.352  32.099  1.00  0.00     0.031 C 
ATOM     59  C   UNL A   1      41.669  30.525  35.746  1.00  0.00     0.029 A 
ATOM     60  C   UNL A   1      40.837  30.685  34.650  1.00  0.00     0.049 A 
ATOM     61  H   UNL A   1      40.934  29.748  32.760  1.00  0.00     0.167 HD
ATOM     62  C   UNL A   1      38.919  31.637  33.397  1.00  0.00     0.074 A 
ATOM     63  C   UNL A   1      37.749  32.481  33.284  1.00  0.00     0.031 C 
ATOM     64  C   UNL A   1      39.677  31.531  34.517  1.00  0.00     0.037 A 
BRANCH  51  65
ATOM     65  C   UNL A   1      44.372  27.545  33.998  1.00  0.00     0.064 A 
ATOM     66  C   UNL A   1      45.656  28.110  33.993  1.00  0.00     0.173 A 
ATOM     67  C   UNL A   1      44.202  26.316  34.655  1.00  0.00     0.173 A 
ATOM     68  F   UNL A   1      45.878  29.275  33.365  1.00  0.00    -0.203 F 
ATOM     69  C   UNL A   1      46.730  27.457  34.593  1.00  0.00     0.198 A 
ATOM     70  C   UNL A   1      45.271  25.683  35.284  1.00  0.00     0.198 A 
ATOM     71  F   UNL A   1      42.996  25.730  34.693  1.00  0.00    -0.203 F 
ATOM     72  F   UNL A   1      47.959  27.989  34.525  1.00  0.00    -0.200 F 
ATOM     73  C   UNL A   1      46.536  26.249  35.244  1.00  0.00     0.200 A 
ATOM     74  F   UNL A   1      45.077  24.521  35.924  1.00  0.00    -0.200 F 
ATOM     75  F   UNL A   1      47.569  25.624  35.826  1.00  0.00    -0.200 F 
ENDBRANCH  51  65
BRANCH  52  76
ATOM     76  C   UNL A   1      36.589  31.701  29.303  1.00  0.00     0.064 A 
ATOM     77  C   UNL A   1      35.485  30.915  28.943  1.00  0.00     0.173 A 
ATOM     78  C   UNL A   1      36.549  33.065  28.974  1.00  0.00     0.173 A 
ATOM     79  F   UNL A   1      35.486  29.600  29.206  1.00  0.00    -0.203 F 
ATOM     80  C   UNL A   1      34.399  31.464  28.262  1.00  0.00     0.198 A 
ATOM     81  C   UNL A   1      35.448  33.620  28.324  1.00  0.00     0.198 A 
ATOM     82  F   UNL A   1      37.581  33.862  29.286  1.00  0.00    -0.203 F 
ATOM     83  F   UNL A   1      33.384  30.677  27.879  1.00  0.00    -0.200 F 
ATOM     84  C   UNL A   1      34.378  32.818  27.959  1.00  0.00     0.200 A 
ATOM     85  F   UNL A   1      35.429  34.929  28.042  1.00  0.00    -0.200 F 
ATOM     86  F   UNL A   1      33.334  33.344  27.305  1.00  0.00    -0.200 F 
ENDBRANCH  52  76
BRANCH  64  87
ATOM     87  C   UNL A   1      39.303  32.386  35.696  1.00  0.00     0.064 A 
ATOM     88  C   UNL A   1      38.486  31.909  36.732  1.00  0.00     0.173 A 
ATOM     89  C   UNL A   1      39.813  33.690  35.814  1.00  0.00     0.173 A 
ATOM     90  F   UNL A   1      37.963  30.675  36.666  1.00  0.00    -0.203 F 
ATOM     91  C   UNL A   1      38.171  32.713  37.825  1.00  0.00     0.198 A 
ATOM     92  C   UNL A   1      39.526  34.477  36.925  1.00  0.00     0.198 A 
ATOM     93  F   UNL A   1      40.608  34.193  34.858  1.00  0.00    -0.203 F 
ATOM     94  F   UNL A   1      37.346  32.254  38.776  1.00  0.00    -0.200 F 
ATOM     95  C   UNL A   1      38.698  33.992  37.924  1.00  0.00     0.200 A 
ATOM     96  F   UNL A   1      40.053  35.705  37.027  1.00  0.00    -0.200 F 
ATOM     97  F   UNL A   1      38.402  34.760  38.983  1.00  0.00    -0.200 F 
ENDBRANCH  64  87
ENDBRANCH  38  39
ENDBRANCH  31  33
ENDBRANCH  30  31
ENDBRANCH  29  30
ENDBRANCH  28  29
ENDBRANCH  27  28
ENDBRANCH  26  27
ENDBRANCH   1  26
TORSDOF 21
ENDMDL
MODEL 3
REMARK VINA RESULT:     -11.9      5.171     10.254
REMARK SMILES Cc1ccc(NC(=O)C[C@@H](C(=O)OCCOCCOCCOC(=O)c2ccc(-c3c4nc(c(-c5c(F)c(F)c(F)c(F)c5F)c5ccc([nH]5)c(-c5c(F)c(F)c(F)c(F)c5F)c5nc(c(-c6c(F)c(F)c(F)c(F)c6F)c6ccc3[nH]6)C=C5)C=C4)cc2)[NH+](C)C)cc1Cl
REMARK SMILES IDX 17 1 16 2 15 3 14 4 13 5 11 6 12 7 10 8 9 9 7 10 6 11 8 13
REMARK SMILES IDX 5 14 1 15 2 16 3 17 92 18 4 19 91 20 93 21 88 22 89 23 90 24
REMARK SMILES IDX 18 26 19 27 20 28 21 29 22 30 23 31 24 32 25 33 26 34 87 35
REMARK SMILES IDX 27 36 86 37 28 38 29 39 30 40 80 41 31 42 85 43 79 44 81 45
REMARK SMILES IDX 32 46 84 47 78 48 77 49 33 51 65 52 45 53 64 54 46 55 49 56
REMARK SMILES IDX 63 57 82 58 47 59 48 60 62 62 83 63 50 64 34 65 35 66 43 67
REMARK SMILES IDX 36 68 37 69 41 70 44 71 38 72 39 73 42 74 40 75 66 76 67 77
REMARK SMILES IDX 75 78 68 79 69 80 73 81 76 82 70 83 71 84 74 85 72 86 51 87
REMARK SMILES IDX 52 88 60 89 53 90 54 91 58 92 61 93 55 94 56 95 59 96 57 97
REMARK H PARENT 6 12 88 25 81 50 49 61
REMARK Flexibility Score: inf
ROOT
ATOM      1  C   UNL A   1      38.810  21.568  25.971  1.00  0.00     0.188 C 
ENDROOT
BRANCH   1   2
ATOM      2  O   UNL A   1      37.779  22.351  25.142  1.00  0.00    -0.376 OA
BRANCH   2   3
ATOM      3  C   UNL A   1      36.539  22.438  23.584  1.00  0.00     0.202 C 
BRANCH   3   4
ATOM      4  C   UNL A   1      35.059  23.254  23.326  1.00  0.00     0.261 C 
BRANCH   4   5
ATOM      5  O   UNL A   1      34.028  23.344  24.338  1.00  0.00    -0.459 OA
BRANCH   5   6
ATOM      6  C   UNL A   1      32.721  23.297  23.988  1.00  0.00     0.365 C 
ATOM      7  O   UNL A   1      32.299  23.901  23.012  1.00  0.00    -0.245 OA
BRANCH   6   8
ATOM      8  C   UNL A   1      31.898  22.320  24.945  1.00  0.00     0.304 C 
BRANCH   8   9
ATOM      9  C   UNL A   1      31.703  22.767  26.426  1.00  0.00     0.177 C 
BRANCH   9  10
ATOM     10  C   UNL A   1      30.424  23.432  26.886  1.00  0.00     0.231 C 
ATOM     11  N   UNL A   1      30.243  24.781  26.746  1.00  0.00    -0.326 N 
ATOM     12  H   UNL A   1      29.520  25.156  27.299  1.00  0.00     0.169 HD
ATOM     13  O   UNL A   1      29.561  22.778  27.475  1.00  0.00    -0.274 OA
BRANCH  11  14
ATOM     14  C   UNL A   1      30.914  25.726  25.943  1.00  0.00     0.042 A 
ATOM     15  C   UNL A   1      33.684  28.942  23.114  1.00  0.00     0.046 C 
ATOM     16  C   UNL A   1      32.833  28.146  24.051  1.00  0.00    -0.032 A 
ATOM     17  C   UNL A   1      33.576  27.295  25.450  1.00  0.00     0.007 A 
ATOM     18  C   UNL A   1      31.134  27.815  23.584  1.00  0.00     0.046 A 
ATOM     19  C   UNL A   1      32.616  26.105  26.414  1.00  0.00     0.026 A 
ATOM     20  C   UNL A   1      30.161  26.624  24.536  1.00  0.00     0.047 A 
ATOM     21  Cl  UNL A   1      30.426  28.544  22.195  1.00  0.00    -0.084 Cl
ENDBRANCH  11  14
ENDBRANCH   9  10
ENDBRANCH   8   9
BRANCH   8  22
ATOM     22  N   UNL A   1      32.322  20.849  24.887  1.00  0.00    -0.328 N 
ATOM     23  C   UNL A   1      32.547  20.302  23.552  1.00  0.00     0.333 C 
ATOM     24  C   UNL A   1      33.360  20.346  25.792  1.00  0.00     0.333 C 
ATOM     25  H   UNL A   1      31.449  20.490  25.272  1.00  0.00     0.348 HD
ENDBRANCH   8  22
ENDBRANCH   6   8
ENDBRANCH   5   6
ENDBRANCH   4   5
ENDBRANCH   3   4
ENDBRANCH   2   3
ENDBRANCH   1   2
BRANCH   1  26
ATOM     26  C   UNL A   1      39.103  20.102  25.557  1.00  0.00     0.188 C 
BRANCH  26  27
ATOM     27  O   UNL A   1      40.449  19.653  25.531  1.00  0.00    -0.376 OA
BRANCH  27  28
ATOM     28  C   UNL A   1      41.348  20.218  26.474  1.00  0.00     0.202 C 
BRANCH  28  29
ATOM     29  C   UNL A   1      42.680  20.775  25.944  1.00  0.00     0.261 C 
BRANCH  29  30
ATOM     30  O   UNL A   1      43.045  22.064  26.482  1.00  0.00    -0.460 OA
BRANCH  30  31
ATOM     31  C   UNL A   1      43.032  23.101  25.615  1.00  0.00     0.338 C 
ATOM     32  O   UNL A   1      43.361  23.079  24.434  1.00  0.00    -0.246 OA
BRANCH  31  33
ATOM     33  C   UNL A   1      42.381  24.279  26.231  1.00  0.00     0.060 A 
ATOM     34  C   UNL A   1      43.005  25.532  26.112  1.00  0.00     0.016 A 
ATOM     35  C   UNL A   1      41.228  24.142  27.005  1.00  0.00     0.016 A 
ATOM     36  C   UNL A   1      42.516  26.636  26.812  1.00  0.00     0.010 A 
ATOM     37  C   UNL A   1      40.757  25.242  27.733  1.00  0.00     0.010 A 
ATOM     38  C   UNL A   1      41.430  26.478  27.679  1.00  0.00    -0.014 A 
BRANCH  38  39
ATOM     39  C   UNL A   1      41.172  27.498  28.727  1.00  0.00     0.031 A 
ATOM     40  C   UNL A   1      42.058  27.494  29.944  1.00  0.00     0.074 A 
ATOM     41  C   UNL A   1      40.193  28.411  28.608  1.00  0.00     0.049 A 
ATOM     42  N   UNL A   1      41.971  28.194  31.046  1.00  0.00    -0.248 NA
ATOM     43  C   UNL A   1      43.200  26.565  29.912  1.00  0.00     0.031 C 
ATOM     44  C   UNL A   1      39.317  28.568  27.450  1.00  0.00     0.029 A 
ATOM     45  N   UNL A   1      39.763  29.371  29.492  1.00  0.00    -0.354 N 
ATOM     46  C   UNL A   1      43.033  27.780  31.840  1.00  0.00     0.074 A 
ATOM     47  C   UNL A   1      43.738  26.752  31.106  1.00  0.00     0.031 C 
ATOM     48  C   UNL A   1      38.433  29.549  27.707  1.00  0.00     0.029 A 
ATOM     49  C   UNL A   1      38.655  30.057  29.061  1.00  0.00     0.049 A 
ATOM     50  H   UNL A   1      40.208  29.549  30.353  1.00  0.00     0.167 HD
ATOM     51  C   UNL A   1      43.390  28.216  33.072  1.00  0.00     0.037 A 
ATOM     52  C   UNL A   1      37.890  30.961  29.706  1.00  0.00     0.037 A 
ATOM     53  C   UNL A   1      42.680  29.230  33.803  1.00  0.00     0.049 A 
ATOM     54  C   UNL A   1      38.247  31.360  31.119  1.00  0.00     0.074 A 
ATOM     55  C   UNL A   1      42.956  29.745  35.056  1.00  0.00     0.029 A 
ATOM     56  N   UNL A   1      41.541  29.878  33.346  1.00  0.00    -0.354 N 
ATOM     57  N   UNL A   1      39.252  30.969  31.865  1.00  0.00    -0.248 NA
ATOM     58  C   UNL A   1      37.358  32.329  31.779  1.00  0.00     0.031 C 
ATOM     59  C   UNL A   1      41.948  30.657  35.386  1.00  0.00     0.029 A 
ATOM     60  C   UNL A   1      41.085  30.766  34.307  1.00  0.00     0.049 A 
ATOM     61  H   UNL A   1      41.118  29.728  32.469  1.00  0.00     0.167 HD
ATOM     62  C   UNL A   1      39.138  31.667  33.062  1.00  0.00     0.074 A 
ATOM     63  C   UNL A   1      37.972  32.515  32.938  1.00  0.00     0.031 C 
ATOM     64  C   UNL A   1      39.928  31.614  34.164  1.00  0.00     0.037 A 
BRANCH  51  65
ATOM     65  C   UNL A   1      44.575  27.562  33.723  1.00  0.00     0.064 A 
ATOM     66  C   UNL A   1      44.451  26.391  34.486  1.00  0.00     0.173 A 
ATOM     67  C   UNL A   1      45.859  28.107  33.565  1.00  0.00     0.173 A 
ATOM     68  F   UNL A   1      43.245  25.838  34.684  1.00  0.00    -0.203 F 
ATOM     69  C   UNL A   1      45.563  25.808  35.091  1.00  0.00     0.198 A 
ATOM     70  C   UNL A   1      46.973  27.502  34.141  1.00  0.00     0.198 A 
ATOM     71  F   UNL A   1      46.036  29.224  32.844  1.00  0.00    -0.203 F 
ATOM     72  F   UNL A   1      45.412  24.723  35.862  1.00  0.00    -0.200 F 
ATOM     73  C   UNL A   1      46.823  26.359  34.912  1.00  0.00     0.200 A 
ATOM     74  F   UNL A   1      48.191  28.029  33.956  1.00  0.00    -0.200 F 
ATOM     75  F   UNL A   1      47.892  25.794  35.489  1.00  0.00    -0.200 F 
ENDBRANCH  51  65
BRANCH  52  76
ATOM     76  C   UNL A   1      36.688  31.534  29.040  1.00  0.00     0.064 A 
ATOM     77  C   UNL A   1      36.630  32.891  28.690  1.00  0.00     0.173 A 
ATOM     78  C   UNL A   1      35.558  30.746  28.772  1.00  0.00     0.173 A 
ATOM     79  F   UNL A   1      37.672  33.694  28.954  1.00  0.00    -0.203 F 
ATOM     80  C   UNL A   1      35.483  33.441  28.122  1.00  0.00     0.198 A 
ATOM     81  C   UNL A   1      34.424  31.290  28.171  1.00  0.00     0.198 A 
ATOM     82  F   UNL A   1      35.555  29.444  29.093  1.00  0.00    -0.203 F 
ATOM     83  F   UNL A   1      35.435  34.753  27.852  1.00  0.00    -0.200 F 
ATOM     84  C   UNL A   1      34.383  32.639  27.856  1.00  0.00     0.200 A 
ATOM     85  F   UNL A   1      33.368  30.508  27.909  1.00  0.00    -0.200 F 
ATOM     86  F   UNL A   1      33.281  33.169  27.309  1.00  0.00    -0.200 F 
ENDBRANCH  52  76
BRANCH  64  87
ATOM     87  C   UNL A   1      39.596  32.534  35.306  1.00  0.00     0.064 A 
ATOM     88  C   UNL A   1      38.750  32.144  36.354  1.00  0.00     0.173 A 
ATOM     89  C   UNL A   1      40.176  33.812  35.375  1.00  0.00     0.173 A 
ATOM     90  F   UNL A   1      38.161  30.939  36.333  1.00  0.00    -0.203 F 
ATOM     91  C   UNL A   1      38.474  33.007  37.412  1.00  0.00     0.198 A 
ATOM     92  C   UNL A   1      39.928  34.658  36.452  1.00  0.00     0.198 A 
ATOM     93  F   UNL A   1      41.002  34.233  34.405  1.00  0.00    -0.203 F 
ATOM     94  F   UNL A   1      37.621  32.632  38.375  1.00  0.00    -0.200 F 
ATOM     95  C   UNL A   1      39.069  34.259  37.464  1.00  0.00     0.200 A 
ATOM     96  F   UNL A   1      40.520  35.858  36.509  1.00  0.00    -0.200 F 
ATOM     97  F   UNL A   1      38.811  35.083  38.489  1.00  0.00    -0.200 F 
ENDBRANCH  64  87
ENDBRANCH  38  39
ENDBRANCH  31  33
ENDBRANCH  30  31
ENDBRANCH  29  30
ENDBRANCH  28  29
ENDBRANCH  27  28
ENDBRANCH  26  27
ENDBRANCH   1  26
TORSDOF 21
ENDMDL
