MODEL 1
REMARK VINA RESULT:      -9.6      0.000      0.000
REMARK SMILES CC[N@@H+]1C/C(=C\c2ccccc2C)c2nc3ccccc3c(C(=O)OCCOCCOCCOC(=O)c3ccc(-c4c5nc(c(-c6c(F)c(F)c(F)c(F)c6F)c6ccc([nH]6)c(-c6c(F)c(F)c(F)c(F)c6F)c6nc(c(-c7c(F)c(F)c(F)c(F)c7F)c7ccc4[nH]7)C=C6)C=C5)cc3)c2C1
REMARK SMILES IDX 30 1 29 2 28 3 27 4 26 5 25 6 23 7 24 8 22 9 3 10 4 11
REMARK SMILES IDX 101 12 5 14 100 15 6 16 14 17 15 18 21 19 16 20 20 21 17 22
REMARK SMILES IDX 19 23 18 24 2 25 1 26 7 27 8 28 12 29 9 30 11 31 13 32 10 33
REMARK SMILES IDX 31 34 32 35 33 36 34 37 35 38 36 39 37 40 38 41 99 42 39 43
REMARK SMILES IDX 98 44 40 45 41 46 42 47 92 48 43 49 97 50 91 51 93 52 44 53
REMARK SMILES IDX 96 54 90 55 89 56 45 58 77 59 57 60 76 61 58 62 61 63 75 64
REMARK SMILES IDX 94 65 59 66 60 67 74 69 95 70 62 71 46 72 47 73 55 74 48 75
REMARK SMILES IDX 49 76 53 77 56 78 50 79 51 80 54 81 52 82 78 83 79 84 87 85
REMARK SMILES IDX 80 86 81 87 85 88 88 89 82 90 83 91 86 92 84 93 63 94 64 95
REMARK SMILES IDX 72 96 65 97 66 98 70 99 73 100 67 101 68 102 71 103 69 104
REMARK H PARENT 3 13 93 57 61 68
REMARK Flexibility Score: inf
ROOT
ATOM      1  C   UNL A   1      51.369  26.890  34.614  1.00  0.00     0.188 C 
ENDROOT
BRANCH   1   2
ATOM      2  C   UNL A   1      50.489  26.940  33.347  1.00  0.00     0.188 C 
BRANCH   2   3
ATOM      3  O   UNL A   1      49.914  25.718  32.950  1.00  0.00    -0.376 OA
BRANCH   3   4
ATOM      4  C   UNL A   1      48.611  25.698  32.393  1.00  0.00     0.202 C 
BRANCH   4   5
ATOM      5  C   UNL A   1      48.096  26.667  31.305  1.00  0.00     0.261 C 
BRANCH   5   6
ATOM      6  O   UNL A   1      47.973  26.156  29.971  1.00  0.00    -0.460 OA
BRANCH   6   7
ATOM      7  C   UNL A   1      47.094  26.802  29.162  1.00  0.00     0.339 C 
ATOM      8  O   UNL A   1      46.624  27.913  29.351  1.00  0.00    -0.246 OA
BRANCH   7   9
ATOM      9  C   UNL A   1      46.897  26.075  27.878  1.00  0.00     0.080 A 
ATOM     10  N   UNL A   1      44.093  23.820  28.866  1.00  0.00    -0.328 N 
ATOM     11  C   UNL A   1      44.477  22.624  28.098  1.00  0.00     0.301 C 
ATOM     12  C   UNL A   1      45.302  24.589  29.129  1.00  0.00     0.302 C 
ATOM     13  H   UNL A   1      43.425  24.373  28.330  1.00  0.00     0.348 HD
ATOM     14  C   UNL A   1      44.986  23.012  26.722  1.00  0.00     0.033 C 
ATOM     15  C   UNL A   1      46.035  24.963  27.884  1.00  0.00     0.048 A 
ATOM     16  C   UNL A   1      44.652  22.340  25.595  1.00  0.00     0.020 C 
ATOM     17  C   UNL A   1      45.894  24.201  26.729  1.00  0.00     0.082 A 
ATOM     18  N   UNL A   1      46.589  24.498  25.607  1.00  0.00    -0.247 NA
ATOM     19  C   UNL A   1      47.586  26.429  26.709  1.00  0.00     0.015 A 
ATOM     20  C   UNL A   1      47.411  25.572  25.601  1.00  0.00     0.072 A 
ATOM     21  C   UNL A   1      48.433  27.558  26.601  1.00  0.00     0.011 A 
ATOM     22  C   UNL A   1      48.140  25.846  24.451  1.00  0.00     0.029 A 
ATOM     23  C   UNL A   1      49.123  27.821  25.424  1.00  0.00     0.001 A 
ATOM     24  C   UNL A   1      48.993  26.951  24.352  1.00  0.00     0.002 A 
BRANCH  10  25
ATOM     25  C   UNL A   1      43.448  23.448  30.128  1.00  0.00     0.259 C 
ATOM     26  C   UNL A   1      44.387  23.593  31.331  1.00  0.00     0.071 C 
ENDBRANCH  10  25
BRANCH  16  27
ATOM     27  C   UNL A   1      43.803  21.127  25.588  1.00  0.00    -0.022 A 
ATOM     28  C   UNL A   1      42.458  21.234  25.990  1.00  0.00     0.008 A 
ATOM     29  C   UNL A   1      44.317  19.853  25.273  1.00  0.00    -0.044 A 
ATOM     30  C   UNL A   1      41.660  20.098  26.155  1.00  0.00     0.001 A 
ATOM     31  C   UNL A   1      43.500  18.718  25.443  1.00  0.00     0.004 A 
ATOM     32  C   UNL A   1      45.718  19.627  24.773  1.00  0.00     0.045 C 
ATOM     33  C   UNL A   1      42.188  18.838  25.896  1.00  0.00     0.000 A 
ENDBRANCH  16  27
ENDBRANCH   7   9
ENDBRANCH   6   7
ENDBRANCH   5   6
ENDBRANCH   4   5
ENDBRANCH   3   4
ENDBRANCH   2   3
ENDBRANCH   1   2
BRANCH   1  34
ATOM     34  O   UNL A   1      51.225  25.831  35.547  1.00  0.00    -0.376 OA
BRANCH  34  35
ATOM     35  C   UNL A   1      50.903  26.138  36.895  1.00  0.00     0.202 C 
BRANCH  35  36
ATOM     36  C   UNL A   1      50.000  27.340  37.224  1.00  0.00     0.261 C 
BRANCH  36  37
ATOM     37  O   UNL A   1      48.824  27.491  36.409  1.00  0.00    -0.460 OA
BRANCH  37  38
ATOM     38  C   UNL A   1      47.640  27.278  37.037  1.00  0.00     0.338 C 
ATOM     39  O   UNL A   1      47.466  27.054  38.227  1.00  0.00    -0.246 OA
BRANCH  38  40
ATOM     40  C   UNL A   1      46.521  27.503  36.096  1.00  0.00     0.060 A 
ATOM     41  C   UNL A   1      45.330  26.792  36.230  1.00  0.00     0.016 A 
ATOM     42  C   UNL A   1      46.644  28.490  35.105  1.00  0.00     0.016 A 
ATOM     43  C   UNL A   1      44.244  27.107  35.404  1.00  0.00     0.010 A 
ATOM     44  C   UNL A   1      45.562  28.788  34.266  1.00  0.00     0.010 A 
ATOM     45  C   UNL A   1      44.339  28.124  34.434  1.00  0.00    -0.014 A 
BRANCH  45  46
ATOM     46  C   UNL A   1      43.114  28.561  33.707  1.00  0.00     0.031 A 
ATOM     47  C   UNL A   1      42.127  29.520  34.291  1.00  0.00     0.074 A 
ATOM     48  C   UNL A   1      42.925  28.124  32.453  1.00  0.00     0.049 A 
ATOM     49  N   UNL A   1      40.967  29.943  33.850  1.00  0.00    -0.248 NA
ATOM     50  C   UNL A   1      42.503  30.073  35.583  1.00  0.00     0.031 C 
ATOM     51  C   UNL A   1      43.817  27.217  31.737  1.00  0.00     0.029 A 
ATOM     52  N   UNL A   1      41.947  28.436  31.547  1.00  0.00    -0.354 N 
ATOM     53  C   UNL A   1      40.440  30.737  34.867  1.00  0.00     0.074 A 
ATOM     54  C   UNL A   1      41.407  30.731  35.933  1.00  0.00     0.031 C 
ATOM     55  C   UNL A   1      43.388  27.106  30.470  1.00  0.00     0.029 A 
ATOM     56  C   UNL A   1      42.170  27.899  30.308  1.00  0.00     0.049 A 
ATOM     57  H   UNL A   1      41.163  28.990  31.764  1.00  0.00     0.167 HD
ATOM     58  C   UNL A   1      39.277  31.436  34.898  1.00  0.00     0.037 A 
ATOM     59  C   UNL A   1      41.477  28.055  29.164  1.00  0.00     0.037 A 
ATOM     60  C   UNL A   1      38.441  31.608  33.741  1.00  0.00     0.049 A 
ATOM     61  C   UNL A   1      40.266  28.948  29.151  1.00  0.00     0.074 A 
ATOM     62  C   UNL A   1      37.301  32.381  33.601  1.00  0.00     0.029 A 
ATOM     63  N   UNL A   1      38.703  31.050  32.500  1.00  0.00    -0.354 N 
ATOM     64  N   UNL A   1      39.738  29.645  30.128  1.00  0.00    -0.248 NA
ATOM     65  C   UNL A   1      39.557  29.082  27.871  1.00  0.00     0.031 C 
ATOM     66  C   UNL A   1      36.872  32.285  32.275  1.00  0.00     0.029 A 
ATOM     67  C   UNL A   1      37.763  31.480  31.583  1.00  0.00     0.049 A 
ATOM     68  H   UNL A   1      39.449  30.439  32.300  1.00  0.00     0.167 HD
ATOM     69  C   UNL A   1      38.648  30.310  29.581  1.00  0.00     0.074 A 
ATOM     70  C   UNL A   1      38.604  29.951  28.179  1.00  0.00     0.031 C 
ATOM     71  C   UNL A   1      37.757  31.132  30.186  1.00  0.00     0.037 A 
BRANCH  58  72
ATOM     72  C   UNL A   1      38.844  32.103  36.181  1.00  0.00     0.064 A 
ATOM     73  C   UNL A   1      39.141  33.443  36.474  1.00  0.00     0.173 A 
ATOM     74  C   UNL A   1      38.038  31.409  37.101  1.00  0.00     0.173 A 
ATOM     75  F   UNL A   1      39.897  34.167  35.635  1.00  0.00    -0.203 F 
ATOM     76  C   UNL A   1      38.693  34.044  37.649  1.00  0.00     0.198 A 
ATOM     77  C   UNL A   1      37.548  32.027  38.252  1.00  0.00     0.198 A 
ATOM     78  F   UNL A   1      37.693  30.132  36.872  1.00  0.00    -0.203 F 
ATOM     79  F   UNL A   1      39.048  35.306  37.930  1.00  0.00    -0.200 F 
ATOM     80  C   UNL A   1      37.887  33.341  38.531  1.00  0.00     0.200 A 
ATOM     81  F   UNL A   1      36.743  31.355  39.085  1.00  0.00    -0.200 F 
ATOM     82  F   UNL A   1      37.437  33.930  39.647  1.00  0.00    -0.200 F 
ENDBRANCH  58  72
BRANCH  59  83
ATOM     83  C   UNL A   1      41.983  27.400  27.935  1.00  0.00     0.064 A 
ATOM     84  C   UNL A   1      43.054  27.953  27.221  1.00  0.00     0.173 A 
ATOM     85  C   UNL A   1      41.468  26.169  27.499  1.00  0.00     0.173 A 
ATOM     86  F   UNL A   1      43.574  29.130  27.597  1.00  0.00    -0.203 F 
ATOM     87  C   UNL A   1      43.589  27.300  26.113  1.00  0.00     0.198 A 
ATOM     88  C   UNL A   1      42.026  25.504  26.411  1.00  0.00     0.198 A 
ATOM     89  F   UNL A   1      40.455  25.593  28.162  1.00  0.00    -0.203 F 
ATOM     90  F   UNL A   1      44.600  27.860  25.433  1.00  0.00    -0.200 F 
ATOM     91  C   UNL A   1      43.083  26.072  25.717  1.00  0.00     0.200 A 
ATOM     92  F   UNL A   1      41.552  24.304  26.048  1.00  0.00    -0.200 F 
ATOM     93  F   UNL A   1      43.617  25.432  24.667  1.00  0.00    -0.200 F 
ENDBRANCH  59  83
BRANCH  71  94
ATOM     94  C   UNL A   1      36.658  31.722  29.355  1.00  0.00     0.064 A 
ATOM     95  C   UNL A   1      35.564  30.948  28.951  1.00  0.00     0.173 A 
ATOM     96  C   UNL A   1      36.632  33.100  29.085  1.00  0.00     0.173 A 
ATOM     97  F   UNL A   1      35.548  29.627  29.186  1.00  0.00    -0.203 F 
ATOM     98  C   UNL A   1      34.476  31.532  28.308  1.00  0.00     0.198 A 
ATOM     99  C   UNL A   1      35.531  33.684  28.465  1.00  0.00     0.198 A 
ATOM    100  F   UNL A   1      37.651  33.884  29.467  1.00  0.00    -0.203 F 
ATOM    101  F   UNL A   1      33.443  30.771  27.922  1.00  0.00    -0.200 F 
ATOM    102  C   UNL A   1      34.455  32.900  28.078  1.00  0.00     0.200 A 
ATOM    103  F   UNL A   1      35.502  35.008  28.263  1.00  0.00    -0.200 F 
ATOM    104  F   UNL A   1      33.391  33.464  27.489  1.00  0.00    -0.200 F 
ENDBRANCH  71  94
ENDBRANCH  45  46
ENDBRANCH  38  40
ENDBRANCH  37  38
ENDBRANCH  36  37
ENDBRANCH  35  36
ENDBRANCH  34  35
ENDBRANCH   1  34
TORSDOF 19
ENDMDL
MODEL 2
REMARK VINA RESULT:      -9.5      6.301     12.097
REMARK SMILES CC[N@@H+]1C/C(=C\c2ccccc2C)c2nc3ccccc3c(C(=O)OCCOCCOCCOC(=O)c3ccc(-c4c5nc(c(-c6c(F)c(F)c(F)c(F)c6F)c6ccc([nH]6)c(-c6c(F)c(F)c(F)c(F)c6F)c6nc(c(-c7c(F)c(F)c(F)c(F)c7F)c7ccc4[nH]7)C=C6)C=C5)cc3)c2C1
REMARK SMILES IDX 30 1 29 2 28 3 27 4 26 5 25 6 23 7 24 8 22 9 3 10 4 11
REMARK SMILES IDX 101 12 5 14 100 15 6 16 14 17 15 18 21 19 16 20 20 21 17 22
REMARK SMILES IDX 19 23 18 24 2 25 1 26 7 27 8 28 12 29 9 30 11 31 13 32 10 33
REMARK SMILES IDX 31 34 32 35 33 36 34 37 35 38 36 39 37 40 38 41 99 42 39 43
REMARK SMILES IDX 98 44 40 45 41 46 42 47 92 48 43 49 97 50 91 51 93 52 44 53
REMARK SMILES IDX 96 54 90 55 89 56 45 58 77 59 57 60 76 61 58 62 61 63 75 64
REMARK SMILES IDX 94 65 59 66 60 67 74 69 95 70 62 71 46 72 47 73 55 74 48 75
REMARK SMILES IDX 49 76 53 77 56 78 50 79 51 80 54 81 52 82 78 83 79 84 87 85
REMARK SMILES IDX 80 86 81 87 85 88 88 89 82 90 83 91 86 92 84 93 63 94 64 95
REMARK SMILES IDX 72 96 65 97 66 98 70 99 73 100 67 101 68 102 71 103 69 104
REMARK H PARENT 3 13 93 57 61 68
REMARK Flexibility Score: inf
ROOT
ATOM      1  C   UNL A   1      34.246  33.076  29.329  1.00  0.00     0.188 C 
ENDROOT
BRANCH   1   2
ATOM      2  C   UNL A   1      34.781  32.452  28.022  1.00  0.00     0.188 C 
BRANCH   2   3
ATOM      3  O   UNL A   1      34.967  31.057  28.039  1.00  0.00    -0.376 OA
BRANCH   3   4
ATOM      4  C   UNL A   1      34.106  30.220  27.285  1.00  0.00     0.202 C 
BRANCH   4   5
ATOM      5  C   UNL A   1      34.548  29.323  26.108  1.00  0.00     0.261 C 
BRANCH   5   6
ATOM      6  O   UNL A   1      33.755  28.161  25.831  1.00  0.00    -0.460 OA
BRANCH   6   7
ATOM      7  C   UNL A   1      33.542  27.882  24.518  1.00  0.00     0.339 C 
ATOM      8  O   UNL A   1      34.190  28.310  23.576  1.00  0.00    -0.246 OA
BRANCH   7   9
ATOM      9  C   UNL A   1      32.519  26.814  24.346  1.00  0.00     0.080 A 
ATOM     10  N   UNL A   1      34.607  23.823  25.133  1.00  0.00    -0.328 N 
ATOM     11  C   UNL A   1      34.020  22.872  24.174  1.00  0.00     0.301 C 
ATOM     12  C   UNL A   1      34.400  25.168  24.614  1.00  0.00     0.302 C 
ATOM     13  H   UNL A   1      34.158  23.716  26.042  1.00  0.00     0.348 HD
ATOM     14  C   UNL A   1      32.512  23.030  24.120  1.00  0.00     0.033 C 
ATOM     15  C   UNL A   1      32.962  25.479  24.361  1.00  0.00     0.048 A 
ATOM     16  C   UNL A   1      31.662  21.977  24.077  1.00  0.00     0.020 C 
ATOM     17  C   UNL A   1      32.054  24.454  24.114  1.00  0.00     0.082 A 
ATOM     18  N   UNL A   1      30.757  24.722  23.836  1.00  0.00    -0.247 NA
ATOM     19  C   UNL A   1      31.168  27.108  24.112  1.00  0.00     0.015 A 
ATOM     20  C   UNL A   1      30.332  26.005  23.829  1.00  0.00     0.072 A 
ATOM     21  C   UNL A   1      30.629  28.417  24.128  1.00  0.00     0.011 A 
ATOM     22  C   UNL A   1      29.005  26.265  23.513  1.00  0.00     0.029 A 
ATOM     23  C   UNL A   1      29.288  28.638  23.838  1.00  0.00     0.001 A 
ATOM     24  C   UNL A   1      28.478  27.562  23.509  1.00  0.00     0.002 A 
BRANCH  10  25
ATOM     25  C   UNL A   1      36.039  23.568  25.315  1.00  0.00     0.259 C 
ATOM     26  C   UNL A   1      36.643  22.765  24.157  1.00  0.00     0.071 C 
ENDBRANCH  10  25
BRANCH  16  27
ATOM     27  C   UNL A   1      32.108  20.566  24.022  1.00  0.00    -0.022 A 
ATOM     28  C   UNL A   1      32.502  19.930  25.214  1.00  0.00     0.008 A 
ATOM     29  C   UNL A   1      32.233  19.866  22.806  1.00  0.00    -0.044 A 
ATOM     30  C   UNL A   1      33.083  18.658  25.197  1.00  0.00     0.001 A 
ATOM     31  C   UNL A   1      32.818  18.584  22.805  1.00  0.00     0.004 A 
ATOM     32  C   UNL A   1      31.786  20.422  21.482  1.00  0.00     0.045 C 
ATOM     33  C   UNL A   1      33.254  17.992  23.989  1.00  0.00     0.000 A 
ENDBRANCH  16  27
ENDBRANCH   7   9
ENDBRANCH   6   7
ENDBRANCH   5   6
ENDBRANCH   4   5
ENDBRANCH   3   4
ENDBRANCH   2   3
ENDBRANCH   1   2
BRANCH   1  34
ATOM     34  O   UNL A   1      34.867  34.225  29.882  1.00  0.00    -0.376 OA
BRANCH  34  35
ATOM     35  C   UNL A   1      35.047  34.301  31.289  1.00  0.00     0.202 C 
BRANCH  35  36
ATOM     36  C   UNL A   1      36.448  34.524  31.883  1.00  0.00     0.261 C 
BRANCH  36  37
ATOM     37  O   UNL A   1      36.876  33.572  32.874  1.00  0.00    -0.460 OA
BRANCH  37  38
ATOM     38  C   UNL A   1      36.500  32.287  32.657  1.00  0.00     0.338 C 
ATOM     39  O   UNL A   1      35.430  31.773  32.950  1.00  0.00    -0.246 OA
BRANCH  38  40
ATOM     40  C   UNL A   1      37.530  31.587  31.858  1.00  0.00     0.060 A 
ATOM     41  C   UNL A   1      37.466  31.587  30.466  1.00  0.00     0.016 A 
ATOM     42  C   UNL A   1      38.612  30.978  32.513  1.00  0.00     0.016 A 
ATOM     43  C   UNL A   1      38.514  31.021  29.729  1.00  0.00     0.010 A 
ATOM     44  C   UNL A   1      39.649  30.394  31.773  1.00  0.00     0.010 A 
ATOM     45  C   UNL A   1      39.626  30.445  30.372  1.00  0.00    -0.014 A 
BRANCH  45  46
ATOM     46  C   UNL A   1      40.806  30.027  29.564  1.00  0.00     0.031 A 
ATOM     47  C   UNL A   1      41.994  30.910  29.351  1.00  0.00     0.074 A 
ATOM     48  C   UNL A   1      40.827  28.784  29.060  1.00  0.00     0.049 A 
ATOM     49  N   UNL A   1      43.064  30.756  28.610  1.00  0.00    -0.248 NA
ATOM     50  C   UNL A   1      41.956  32.170  30.076  1.00  0.00     0.031 C 
ATOM     51  C   UNL A   1      39.762  27.797  29.214  1.00  0.00     0.029 A 
ATOM     52  N   UNL A   1      41.809  28.128  28.367  1.00  0.00    -0.354 N 
ATOM     53  C   UNL A   1      43.773  31.951  28.714  1.00  0.00     0.074 A 
ATOM     54  C   UNL A   1      43.010  32.805  29.585  1.00  0.00     0.031 C 
ATOM     55  C   UNL A   1      40.181  26.631  28.700  1.00  0.00     0.029 A 
ATOM     56  C   UNL A   1      41.523  26.808  28.144  1.00  0.00     0.049 A 
ATOM     57  H   UNL A   1      42.638  28.562  28.060  1.00  0.00     0.167 HD
ATOM     58  C   UNL A   1      44.966  32.293  28.165  1.00  0.00     0.037 A 
ATOM     59  C   UNL A   1      42.275  25.848  27.576  1.00  0.00     0.037 A 
ATOM     60  C   UNL A   1      45.813  31.348  27.488  1.00  0.00     0.049 A 
ATOM     61  C   UNL A   1      43.660  26.182  27.096  1.00  0.00     0.074 A 
ATOM     62  C   UNL A   1      47.091  31.531  26.988  1.00  0.00     0.029 A 
ATOM     63  N   UNL A   1      45.487  30.016  27.285  1.00  0.00    -0.354 N 
ATOM     64  N   UNL A   1      44.300  27.326  27.141  1.00  0.00    -0.248 NA
ATOM     65  C   UNL A   1      44.433  25.088  26.492  1.00  0.00     0.031 C 
ATOM     66  C   UNL A   1      47.535  30.308  26.477  1.00  0.00     0.029 A 
ATOM     67  C   UNL A   1      46.547  29.360  26.690  1.00  0.00     0.049 A 
ATOM     68  H   UNL A   1      44.629  29.600  27.530  1.00  0.00     0.167 HD
ATOM     69  C   UNL A   1      45.552  27.088  26.586  1.00  0.00     0.074 A 
ATOM     70  C   UNL A   1      45.590  25.684  26.234  1.00  0.00     0.031 C 
ATOM     71  C   UNL A   1      46.572  27.955  26.376  1.00  0.00     0.037 A 
BRANCH  58  72
ATOM     72  C   UNL A   1      45.464  33.713  28.294  1.00  0.00     0.064 A 
ATOM     73  C   UNL A   1      46.428  34.093  29.241  1.00  0.00     0.173 A 
ATOM     74  C   UNL A   1      45.029  34.699  27.390  1.00  0.00     0.173 A 
ATOM     75  F   UNL A   1      46.895  33.200  30.126  1.00  0.00    -0.203 F 
ATOM     76  C   UNL A   1      46.898  35.403  29.310  1.00  0.00     0.198 A 
ATOM     77  C   UNL A   1      45.538  35.997  27.429  1.00  0.00     0.198 A 
ATOM     78  F   UNL A   1      44.127  34.399  26.442  1.00  0.00    -0.203 F 
ATOM     79  F   UNL A   1      47.771  35.749  30.267  1.00  0.00    -0.200 F 
ATOM     80  C   UNL A   1      46.463  36.351  28.396  1.00  0.00     0.200 A 
ATOM     81  F   UNL A   1      45.140  36.902  26.524  1.00  0.00    -0.200 F 
ATOM     82  F   UNL A   1      46.938  37.604  28.450  1.00  0.00    -0.200 F 
ENDBRANCH  58  72
BRANCH  59  83
ATOM     83  C   UNL A   1      41.735  24.468  27.518  1.00  0.00     0.064 A 
ATOM     84  C   UNL A   1      40.665  24.155  26.670  1.00  0.00     0.173 A 
ATOM     85  C   UNL A   1      42.329  23.422  28.240  1.00  0.00     0.173 A 
ATOM     86  F   UNL A   1      40.063  25.124  25.965  1.00  0.00    -0.203 F 
ATOM     87  C   UNL A   1      40.207  22.845  26.547  1.00  0.00     0.198 A 
ATOM     88  C   UNL A   1      41.891  22.109  28.091  1.00  0.00     0.198 A 
ATOM     89  F   UNL A   1      43.367  23.671  29.051  1.00  0.00    -0.203 F 
ATOM     90  F   UNL A   1      39.169  22.575  25.745  1.00  0.00    -0.200 F 
ATOM     91  C   UNL A   1      40.828  21.823  27.249  1.00  0.00     0.200 A 
ATOM     92  F   UNL A   1      42.510  21.120  28.750  1.00  0.00    -0.200 F 
ATOM     93  F   UNL A   1      40.403  20.560  27.109  1.00  0.00    -0.200 F 
ENDBRANCH  59  83
BRANCH  71  94
ATOM     94  C   UNL A   1      47.829  27.432  25.749  1.00  0.00     0.064 A 
ATOM     95  C   UNL A   1      48.006  27.453  24.360  1.00  0.00     0.173 A 
ATOM     96  C   UNL A   1      48.915  27.043  26.550  1.00  0.00     0.173 A 
ATOM     97  F   UNL A   1      46.994  27.816  23.556  1.00  0.00    -0.203 F 
ATOM     98  C   UNL A   1      49.228  27.106  23.792  1.00  0.00     0.198 A 
ATOM     99  C   UNL A   1      50.143  26.722  25.979  1.00  0.00     0.198 A 
ATOM    100  F   UNL A   1      48.797  27.023  27.886  1.00  0.00    -0.203 F 
ATOM    101  F   UNL A   1      49.374  27.125  22.460  1.00  0.00    -0.200 F 
ATOM    102  C   UNL A   1      50.298  26.755  24.602  1.00  0.00     0.200 A 
ATOM    103  F   UNL A   1      51.181  26.404  26.763  1.00  0.00    -0.200 F 
ATOM    104  F   UNL A   1      51.484  26.454  24.053  1.00  0.00    -0.200 F 
ENDBRANCH  71  94
ENDBRANCH  45  46
ENDBRANCH  38  40
ENDBRANCH  37  38
ENDBRANCH  36  37
ENDBRANCH  35  36
ENDBRANCH  34  35
ENDBRANCH   1  34
TORSDOF 19
ENDMDL
MODEL 3
REMARK VINA RESULT:      -9.3      4.674     10.483
REMARK SMILES CC[N@@H+]1C/C(=C\c2ccccc2C)c2nc3ccccc3c(C(=O)OCCOCCOCCOC(=O)c3ccc(-c4c5nc(c(-c6c(F)c(F)c(F)c(F)c6F)c6ccc([nH]6)c(-c6c(F)c(F)c(F)c(F)c6F)c6nc(c(-c7c(F)c(F)c(F)c(F)c7F)c7ccc4[nH]7)C=C6)C=C5)cc3)c2C1
REMARK SMILES IDX 30 1 29 2 28 3 27 4 26 5 25 6 23 7 24 8 22 9 3 10 4 11
REMARK SMILES IDX 101 12 5 14 100 15 6 16 14 17 15 18 21 19 16 20 20 21 17 22
REMARK SMILES IDX 19 23 18 24 2 25 1 26 7 27 8 28 12 29 9 30 11 31 13 32 10 33
REMARK SMILES IDX 31 34 32 35 33 36 34 37 35 38 36 39 37 40 38 41 99 42 39 43
REMARK SMILES IDX 98 44 40 45 41 46 42 47 92 48 43 49 97 50 91 51 93 52 44 53
REMARK SMILES IDX 96 54 90 55 89 56 45 58 77 59 57 60 76 61 58 62 61 63 75 64
REMARK SMILES IDX 94 65 59 66 60 67 74 69 95 70 62 71 46 72 47 73 55 74 48 75
REMARK SMILES IDX 49 76 53 77 56 78 50 79 51 80 54 81 52 82 78 83 79 84 87 85
REMARK SMILES IDX 80 86 81 87 85 88 88 89 82 90 83 91 86 92 84 93 63 94 64 95
REMARK SMILES IDX 72 96 65 97 66 98 70 99 73 100 67 101 68 102 71 103 69 104
REMARK H PARENT 3 13 93 57 61 68
REMARK Flexibility Score: inf
ROOT
ATOM      1  C   UNL A   1      35.830  32.344  27.966  1.00  0.00     0.188 C 
ENDROOT
BRANCH   1   2
ATOM      2  C   UNL A   1      36.002  30.840  27.660  1.00  0.00     0.188 C 
BRANCH   2   3
ATOM      3  O   UNL A   1      36.709  30.094  28.622  1.00  0.00    -0.376 OA
BRANCH   3   4
ATOM      4  C   UNL A   1      36.042  29.622  29.780  1.00  0.00     0.202 C 
BRANCH   4   5
ATOM      5  C   UNL A   1      36.428  29.979  31.233  1.00  0.00     0.261 C 
BRANCH   5   6
ATOM      6  O   UNL A   1      37.694  29.506  31.713  1.00  0.00    -0.460 OA
BRANCH   6   7
ATOM      7  C   UNL A   1      38.778  30.251  31.374  1.00  0.00     0.339 C 
ATOM      8  O   UNL A   1      38.760  31.382  30.914  1.00  0.00    -0.246 OA
BRANCH   7   9
ATOM      9  C   UNL A   1      40.045  29.601  31.809  1.00  0.00     0.080 A 
ATOM     10  N   UNL A   1      41.351  28.505  28.490  1.00  0.00    -0.328 N 
ATOM     11  C   UNL A   1      41.963  27.228  28.892  1.00  0.00     0.301 C 
ATOM     12  C   UNL A   1      40.286  28.808  29.435  1.00  0.00     0.302 C 
ATOM     13  H   UNL A   1      42.056  29.241  28.495  1.00  0.00     0.348 HD
ATOM     14  C   UNL A   1      42.671  27.371  30.227  1.00  0.00     0.033 C 
ATOM     15  C   UNL A   1      40.762  28.863  30.849  1.00  0.00     0.048 A 
ATOM     16  C   UNL A   1      43.884  26.825  30.481  1.00  0.00     0.020 C 
ATOM     17  C   UNL A   1      41.902  28.166  31.235  1.00  0.00     0.082 A 
ATOM     18  N   UNL A   1      42.318  28.166  32.523  1.00  0.00    -0.247 NA
ATOM     19  C   UNL A   1      40.491  29.656  33.137  1.00  0.00     0.015 A 
ATOM     20  C   UNL A   1      41.632  28.881  33.441  1.00  0.00     0.072 A 
ATOM     21  C   UNL A   1      39.860  30.412  34.153  1.00  0.00     0.011 A 
ATOM     22  C   UNL A   1      42.056  28.847  34.763  1.00  0.00     0.029 A 
ATOM     23  C   UNL A   1      40.329  30.380  35.461  1.00  0.00     0.001 A 
ATOM     24  C   UNL A   1      41.418  29.580  35.771  1.00  0.00     0.002 A 
BRANCH  10  25
ATOM     25  C   UNL A   1      40.809  28.422  27.131  1.00  0.00     0.259 C 
ATOM     26  C   UNL A   1      41.857  28.753  26.061  1.00  0.00     0.071 C 
ENDBRANCH  10  25
BRANCH  16  27
ATOM     27  C   UNL A   1      44.624  25.988  29.509  1.00  0.00    -0.022 A 
ATOM     28  C   UNL A   1      44.319  24.617  29.420  1.00  0.00     0.008 A 
ATOM     29  C   UNL A   1      45.682  26.499  28.732  1.00  0.00    -0.044 A 
ATOM     30  C   UNL A   1      45.093  23.753  28.640  1.00  0.00     0.001 A 
ATOM     31  C   UNL A   1      46.452  25.616  27.950  1.00  0.00     0.004 A 
ATOM     32  C   UNL A   1      46.056  27.957  28.699  1.00  0.00     0.045 C 
ATOM     33  C   UNL A   1      46.170  24.252  27.917  1.00  0.00     0.000 A 
ENDBRANCH  16  27
ENDBRANCH   7   9
ENDBRANCH   6   7
ENDBRANCH   5   6
ENDBRANCH   4   5
ENDBRANCH   3   4
ENDBRANCH   2   3
ENDBRANCH   1   2
BRANCH   1  34
ATOM     34  O   UNL A   1      34.549  32.948  27.899  1.00  0.00    -0.376 OA
BRANCH  34  35
ATOM     35  C   UNL A   1      34.457  34.358  27.761  1.00  0.00     0.202 C 
BRANCH  35  36
ATOM     36  C   UNL A   1      33.290  35.128  28.402  1.00  0.00     0.261 C 
BRANCH  36  37
ATOM     37  O   UNL A   1      32.795  34.606  29.648  1.00  0.00    -0.460 OA
BRANCH  37  38
ATOM     38  C   UNL A   1      32.862  35.449  30.709  1.00  0.00     0.338 C 
ATOM     39  O   UNL A   1      32.066  36.328  31.005  1.00  0.00    -0.246 OA
BRANCH  38  40
ATOM     40  C   UNL A   1      33.989  35.065  31.589  1.00  0.00     0.060 A 
ATOM     41  C   UNL A   1      34.667  33.864  31.386  1.00  0.00     0.016 A 
ATOM     42  C   UNL A   1      34.415  35.953  32.589  1.00  0.00     0.016 A 
ATOM     43  C   UNL A   1      35.803  33.578  32.152  1.00  0.00     0.010 A 
ATOM     44  C   UNL A   1      35.540  35.654  33.368  1.00  0.00     0.010 A 
ATOM     45  C   UNL A   1      36.267  34.479  33.130  1.00  0.00    -0.014 A 
BRANCH  45  46
ATOM     46  C   UNL A   1      37.580  34.234  33.790  1.00  0.00     0.031 A 
ATOM     47  C   UNL A   1      37.703  33.890  35.240  1.00  0.00     0.074 A 
ATOM     48  C   UNL A   1      38.690  34.263  33.037  1.00  0.00     0.049 A 
ATOM     49  N   UNL A   1      38.756  33.734  36.006  1.00  0.00    -0.248 NA
ATOM     50  C   UNL A   1      36.438  33.713  35.935  1.00  0.00     0.031 C 
ATOM     51  C   UNL A   1      38.726  34.547  31.606  1.00  0.00     0.029 A 
ATOM     52  N   UNL A   1      39.990  33.992  33.370  1.00  0.00    -0.354 N 
ATOM     53  C   UNL A   1      38.263  33.536  37.294  1.00  0.00     0.074 A 
ATOM     54  C   UNL A   1      36.828  33.592  37.196  1.00  0.00     0.031 C 
ATOM     55  C   UNL A   1      39.978  34.357  31.163  1.00  0.00     0.029 A 
ATOM     56  C   UNL A   1      40.832  33.984  32.290  1.00  0.00     0.049 A 
ATOM     57  H   UNL A   1      40.290  33.821  34.291  1.00  0.00     0.167 HD
ATOM     58  C   UNL A   1      38.939  33.293  38.445  1.00  0.00     0.037 A 
ATOM     59  C   UNL A   1      42.142  33.682  32.222  1.00  0.00     0.037 A 
ATOM     60  C   UNL A   1      40.350  33.017  38.478  1.00  0.00     0.049 A 
ATOM     61  C   UNL A   1      42.870  33.267  33.471  1.00  0.00     0.074 A 
ATOM     62  C   UNL A   1      41.137  32.644  39.554  1.00  0.00     0.029 A 
ATOM     63  N   UNL A   1      41.169  33.015  37.359  1.00  0.00    -0.354 N 
ATOM     64  N   UNL A   1      42.414  33.142  34.694  1.00  0.00    -0.248 NA
ATOM     65  C   UNL A   1      44.296  32.944  33.329  1.00  0.00     0.031 C 
ATOM     66  C   UNL A   1      42.434  32.422  39.085  1.00  0.00     0.029 A 
ATOM     67  C   UNL A   1      42.446  32.624  37.714  1.00  0.00     0.049 A 
ATOM     68  H   UNL A   1      40.884  33.255  36.448  1.00  0.00     0.167 HD
ATOM     69  C   UNL A   1      43.489  32.713  35.463  1.00  0.00     0.074 A 
ATOM     70  C   UNL A   1      44.615  32.577  34.563  1.00  0.00     0.031 C 
ATOM     71  C   UNL A   1      43.543  32.467  36.795  1.00  0.00     0.037 A 
BRANCH  58  72
ATOM     72  C   UNL A   1      38.190  33.266  39.756  1.00  0.00     0.064 A 
ATOM     73  C   UNL A   1      37.432  32.161  40.171  1.00  0.00     0.173 A 
ATOM     74  C   UNL A   1      38.304  34.341  40.657  1.00  0.00     0.173 A 
ATOM     75  F   UNL A   1      37.290  31.098  39.366  1.00  0.00    -0.203 F 
ATOM     76  C   UNL A   1      36.784  32.150  41.405  1.00  0.00     0.198 A 
ATOM     77  C   UNL A   1      37.697  34.306  41.912  1.00  0.00     0.198 A 
ATOM     78  F   UNL A   1      39.035  35.420  40.336  1.00  0.00    -0.203 F 
ATOM     79  F   UNL A   1      36.016  31.105  41.745  1.00  0.00    -0.200 F 
ATOM     80  C   UNL A   1      36.927  33.215  42.280  1.00  0.00     0.200 A 
ATOM     81  F   UNL A   1      37.864  35.324  42.768  1.00  0.00    -0.200 F 
ATOM     82  F   UNL A   1      36.323  33.189  43.476  1.00  0.00    -0.200 F 
ENDBRANCH  58  72
BRANCH  59  83
ATOM     83  C   UNL A   1      42.802  33.692  30.894  1.00  0.00     0.064 A 
ATOM     84  C   UNL A   1      43.345  34.876  30.377  1.00  0.00     0.173 A 
ATOM     85  C   UNL A   1      42.981  32.510  30.160  1.00  0.00     0.173 A 
ATOM     86  F   UNL A   1      43.193  36.030  31.042  1.00  0.00    -0.203 F 
ATOM     87  C   UNL A   1      44.040  34.876  29.169  1.00  0.00     0.198 A 
ATOM     88  C   UNL A   1      43.703  32.509  28.970  1.00  0.00     0.198 A 
ATOM     89  F   UNL A   1      42.494  31.351  30.625  1.00  0.00    -0.203 F 
ATOM     90  F   UNL A   1      44.531  36.025  28.684  1.00  0.00    -0.200 F 
ATOM     91  C   UNL A   1      44.228  33.691  28.474  1.00  0.00     0.200 A 
ATOM     92  F   UNL A   1      43.906  31.357  28.314  1.00  0.00    -0.200 F 
ATOM     93  F   UNL A   1      44.920  33.690  27.327  1.00  0.00    -0.200 F 
ENDBRANCH  59  83
BRANCH  71  94
ATOM     94  C   UNL A   1      44.846  32.012  37.380  1.00  0.00     0.064 A 
ATOM     95  C   UNL A   1      45.782  32.936  37.862  1.00  0.00     0.173 A 
ATOM     96  C   UNL A   1      45.093  30.646  37.589  1.00  0.00     0.173 A 
ATOM     97  F   UNL A   1      45.586  34.251  37.682  1.00  0.00    -0.203 F 
ATOM     98  C   UNL A   1      46.921  32.509  38.537  1.00  0.00     0.198 A 
ATOM     99  C   UNL A   1      46.221  30.225  38.287  1.00  0.00     0.198 A 
ATOM    100  F   UNL A   1      44.217  29.726  37.159  1.00  0.00    -0.203 F 
ATOM    101  F   UNL A   1      47.809  33.408  38.983  1.00  0.00    -0.200 F 
ATOM    102  C   UNL A   1      47.133  31.156  38.761  1.00  0.00     0.200 A 
ATOM    103  F   UNL A   1      46.413  28.920  38.521  1.00  0.00    -0.200 F 
ATOM    104  F   UNL A   1      48.214  30.751  39.442  1.00  0.00    -0.200 F 
ENDBRANCH  71  94
ENDBRANCH  45  46
ENDBRANCH  38  40
ENDBRANCH  37  38
ENDBRANCH  36  37
ENDBRANCH  35  36
ENDBRANCH  34  35
ENDBRANCH   1  34
TORSDOF 19
ENDMDL
