MODEL 1
REMARK VINA RESULT:     -11.6      0.000      0.000
REMARK SMILES COc1ccc(C[N@@H+]2CCO[C@H](CC(=O)OCCOCCOCCOC(=O)c3ccc(-c4c5nc(c(-c6c(F)c(F)c(F)c(F)c6F)c6ccc([nH]6)c(-c6c(F)c(F)c(F)c(F)c6F)c6nc(c(-c7c(F)c(F)c(F)c(F)c7F)c7ccc4[nH]7)C=C6)C=C5)cc3)C2)cc1OC
REMARK SMILES IDX 20 1 19 2 18 3 17 4 16 5 14 6 15 7 13 8 12 9 8 10 9 11 91 12
REMARK SMILES IDX 10 14 11 15 7 16 6 17 3 18 4 19 93 20 5 21 92 22 2 23 1 24
REMARK SMILES IDX 94 25 95 26 21 27 22 28 23 29 24 30 25 31 26 32 27 33 28 34
REMARK SMILES IDX 29 35 90 36 30 37 89 38 31 39 32 40 33 41 83 42 34 43 88 44
REMARK SMILES IDX 82 45 84 46 35 47 87 48 81 49 80 50 36 52 68 53 48 54 67 55
REMARK SMILES IDX 49 56 52 57 66 58 85 59 50 60 51 61 65 63 86 64 53 65 37 66
REMARK SMILES IDX 38 67 46 68 39 69 40 70 44 71 47 72 41 73 42 74 45 75 43 76
REMARK SMILES IDX 69 77 70 78 78 79 71 80 72 81 76 82 79 83 73 84 74 85 77 86
REMARK SMILES IDX 75 87 54 88 55 89 63 90 56 91 57 92 61 93 64 94 58 95 59 96
REMARK SMILES IDX 62 97 60 98
REMARK H PARENT 8 13 84 51 52 62
REMARK Flexibility Score: inf
ROOT
ATOM      1  C   UNL A   1      41.904  19.617  26.731  1.00  0.00     0.188 C 
ENDROOT
BRANCH   1   2
ATOM      2  O   UNL A   1      41.474  20.945  26.477  1.00  0.00    -0.376 OA
BRANCH   2   3
ATOM      3  C   UNL A   1      40.107  21.193  26.839  1.00  0.00     0.202 C 
BRANCH   3   4
ATOM      4  C   UNL A   1      39.194  21.632  25.667  1.00  0.00     0.261 C 
BRANCH   4   5
ATOM      5  O   UNL A   1      37.942  22.090  26.235  1.00  0.00    -0.463 OA
BRANCH   5   6
ATOM      6  C   UNL A   1      36.832  22.796  25.559  1.00  0.00     0.308 C 
ATOM      7  O   UNL A   1      37.021  24.014  25.785  1.00  0.00    -0.252 OA
BRANCH   6   8
ATOM      8  C   UNL A   1      35.300  21.714  24.430  1.00  0.00     0.160 C 
BRANCH   8   9
ATOM      9  C   UNL A   1      33.668  21.049  24.803  1.00  0.00     0.184 C 
ATOM     10  N   UNL A   1      31.903  22.336  23.518  1.00  0.00    -0.327 N 
ATOM     11  C   UNL A   1      31.461  22.875  24.821  1.00  0.00     0.291 C 
ATOM     12  C   UNL A   1      32.551  21.027  23.720  1.00  0.00     0.295 C 
ATOM     13  H   UNL A   1      31.075  22.239  22.931  1.00  0.00     0.348 HD
ATOM     14  C   UNL A   1      31.901  22.121  26.108  1.00  0.00     0.222 C 
ATOM     15  O   UNL A   1      33.165  21.429  26.102  1.00  0.00    -0.366 OA
BRANCH  10  16
ATOM     16  C   UNL A   1      32.837  23.233  22.833  1.00  0.00     0.299 C 
BRANCH  16  17
ATOM     17  C   UNL A   1      32.623  24.634  23.302  1.00  0.00     0.010 A 
ATOM     18  C   UNL A   1      32.497  28.142  24.125  1.00  0.00     0.160 A 
ATOM     19  C   UNL A   1      33.659  27.093  24.976  1.00  0.00     0.051 A 
ATOM     20  C   UNL A   1      31.376  27.465  22.909  1.00  0.00     0.161 A 
ATOM     21  C   UNL A   1      33.759  25.349  24.570  1.00  0.00     0.013 A 
ATOM     22  C   UNL A   1      31.395  25.702  22.529  1.00  0.00     0.060 A 
BRANCH  18  23
ATOM     23  O   UNL A   1      32.593  29.486  24.361  1.00  0.00    -0.493 OA
ATOM     24  C   UNL A   1      31.675  29.888  25.375  1.00  0.00     0.278 C 
ENDBRANCH  18  23
BRANCH  20  25
ATOM     25  O   UNL A   1      30.540  28.204  22.112  1.00  0.00    -0.493 OA
ATOM     26  C   UNL A   1      29.266  28.482  22.675  1.00  0.00     0.278 C 
ENDBRANCH  20  25
ENDBRANCH  16  17
ENDBRANCH  10  16
ENDBRANCH   8   9
ENDBRANCH   6   8
ENDBRANCH   5   6
ENDBRANCH   4   5
ENDBRANCH   3   4
ENDBRANCH   2   3
ENDBRANCH   1   2
BRANCH   1  27
ATOM     27  C   UNL A   1      43.166  19.189  25.985  1.00  0.00     0.188 C 
BRANCH  27  28
ATOM     28  O   UNL A   1      43.394  19.814  24.719  1.00  0.00    -0.376 OA
BRANCH  28  29
ATOM     29  C   UNL A   1      44.616  20.554  24.682  1.00  0.00     0.202 C 
BRANCH  29  30
ATOM     30  C   UNL A   1      44.662  21.798  25.595  1.00  0.00     0.261 C 
BRANCH  30  31
ATOM     31  O   UNL A   1      43.771  22.842  25.167  1.00  0.00    -0.460 OA
BRANCH  31  32
ATOM     32  C   UNL A   1      44.311  24.090  25.136  1.00  0.00     0.338 C 
ATOM     33  O   UNL A   1      45.243  24.457  24.442  1.00  0.00    -0.246 OA
BRANCH  32  34
ATOM     34  C   UNL A   1      43.512  25.010  25.996  1.00  0.00     0.060 A 
ATOM     35  C   UNL A   1      43.816  26.379  25.975  1.00  0.00     0.016 A 
ATOM     36  C   UNL A   1      42.453  24.553  26.790  1.00  0.00     0.016 A 
ATOM     37  C   UNL A   1      43.125  27.274  26.804  1.00  0.00     0.010 A 
ATOM     38  C   UNL A   1      41.755  25.449  27.607  1.00  0.00     0.010 A 
ATOM     39  C   UNL A   1      42.126  26.805  27.667  1.00  0.00    -0.014 A 
BRANCH  39  40
ATOM     40  C   UNL A   1      41.654  27.638  28.811  1.00  0.00     0.031 A 
ATOM     41  C   UNL A   1      42.429  27.561  30.102  1.00  0.00     0.074 A 
ATOM     42  C   UNL A   1      40.577  28.439  28.743  1.00  0.00     0.049 A 
ATOM     43  N   UNL A   1      42.195  28.129  31.257  1.00  0.00    -0.248 NA
ATOM     44  C   UNL A   1      43.625  26.706  30.082  1.00  0.00     0.031 C 
ATOM     45  C   UNL A   1      39.756  28.647  27.558  1.00  0.00     0.029 A 
ATOM     46  N   UNL A   1      39.982  29.222  29.705  1.00  0.00    -0.354 N 
ATOM     47  C   UNL A   1      43.209  27.693  32.101  1.00  0.00     0.074 A 
ATOM     48  C   UNL A   1      44.018  26.763  31.343  1.00  0.00     0.031 C 
ATOM     49  C   UNL A   1      38.763  29.502  27.858  1.00  0.00     0.029 A 
ATOM     50  C   UNL A   1      38.859  29.880  29.268  1.00  0.00     0.049 A 
ATOM     51  H   UNL A   1      40.331  29.304  30.623  1.00  0.00     0.167 HD
ATOM     52  C   UNL A   1      43.462  28.045  33.385  1.00  0.00     0.037 A 
ATOM     53  C   UNL A   1      38.005  30.687  29.931  1.00  0.00     0.037 A 
ATOM     54  C   UNL A   1      42.652  28.957  34.149  1.00  0.00     0.049 A 
ATOM     55  C   UNL A   1      38.245  30.994  31.391  1.00  0.00     0.074 A 
ATOM     56  C   UNL A   1      42.830  29.384  35.452  1.00  0.00     0.029 A 
ATOM     57  N   UNL A   1      41.496  29.569  33.682  1.00  0.00    -0.354 N 
ATOM     58  N   UNL A   1      39.221  30.602  32.173  1.00  0.00    -0.248 NA
ATOM     59  C   UNL A   1      37.265  31.868  32.054  1.00  0.00     0.031 C 
ATOM     60  C   UNL A   1      41.742  30.192  35.799  1.00  0.00     0.029 A 
ATOM     61  C   UNL A   1      40.933  30.343  34.684  1.00  0.00     0.049 A 
ATOM     62  H   UNL A   1      41.130  29.467  32.773  1.00  0.00     0.167 HD
ATOM     63  C   UNL A   1      39.001  31.218  33.401  1.00  0.00     0.074 A 
ATOM     64  C   UNL A   1      37.799  32.010  33.259  1.00  0.00     0.031 C 
ATOM     65  C   UNL A   1      39.739  31.141  34.538  1.00  0.00     0.037 A 
BRANCH  52  66
ATOM     66  C   UNL A   1      44.647  27.395  34.046  1.00  0.00     0.064 A 
ATOM     67  C   UNL A   1      44.518  26.233  34.825  1.00  0.00     0.173 A 
ATOM     68  C   UNL A   1      45.924  27.961  33.926  1.00  0.00     0.173 A 
ATOM     69  F   UNL A   1      43.318  25.655  34.985  1.00  0.00    -0.203 F 
ATOM     70  C   UNL A   1      45.610  25.705  35.512  1.00  0.00     0.198 A 
ATOM     71  C   UNL A   1      47.022  27.402  34.575  1.00  0.00     0.198 A 
ATOM     72  F   UNL A   1      46.110  29.066  33.188  1.00  0.00    -0.203 F 
ATOM     73  F   UNL A   1      45.441  24.653  36.326  1.00  0.00    -0.200 F 
ATOM     74  C   UNL A   1      46.859  26.288  35.383  1.00  0.00     0.200 A 
ATOM     75  F   UNL A   1      48.234  27.957  34.435  1.00  0.00    -0.200 F 
ATOM     76  F   UNL A   1      47.907  25.784  36.052  1.00  0.00    -0.200 F 
ENDBRANCH  52  66
BRANCH  53  77
ATOM     77  C   UNL A   1      36.847  31.294  29.217  1.00  0.00     0.064 A 
ATOM     78  C   UNL A   1      36.849  32.653  28.868  1.00  0.00     0.173 A 
ATOM     79  C   UNL A   1      35.713  30.540  28.882  1.00  0.00     0.173 A 
ATOM     80  F   UNL A   1      37.894  33.426  29.195  1.00  0.00    -0.203 F 
ATOM     81  C   UNL A   1      35.759  33.235  28.224  1.00  0.00     0.198 A 
ATOM     82  C   UNL A   1      34.636  31.116  28.210  1.00  0.00     0.198 A 
ATOM     83  F   UNL A   1      35.655  29.238  29.199  1.00  0.00    -0.203 F 
ATOM     84  F   UNL A   1      35.770  34.545  27.944  1.00  0.00    -0.200 F 
ATOM     85  C   UNL A   1      34.657  32.463  27.888  1.00  0.00     0.200 A 
ATOM     86  F   UNL A   1      33.578  30.364  27.877  1.00  0.00    -0.200 F 
ATOM     87  F   UNL A   1      33.613  33.021  27.258  1.00  0.00    -0.200 F 
ENDBRANCH  53  77
BRANCH  65  88
ATOM     88  C   UNL A   1      39.314  31.988  35.709  1.00  0.00     0.064 A 
ATOM     89  C   UNL A   1      38.384  31.545  36.660  1.00  0.00     0.173 A 
ATOM     90  C   UNL A   1      39.883  33.259  35.899  1.00  0.00     0.173 A 
ATOM     91  F   UNL A   1      37.802  30.343  36.528  1.00  0.00    -0.203 F 
ATOM     92  C   UNL A   1      38.010  32.354  37.732  1.00  0.00     0.198 A 
ATOM     93  C   UNL A   1      39.538  34.049  36.994  1.00  0.00     0.198 A 
ATOM     94  F   UNL A   1      40.788  33.734  35.029  1.00  0.00    -0.203 F 
ATOM     95  F   UNL A   1      37.071  31.934  38.592  1.00  0.00    -0.200 F 
ATOM     96  C   UNL A   1      38.592  33.602  37.902  1.00  0.00     0.200 A 
ATOM     97  F   UNL A   1      40.121  35.243  37.167  1.00  0.00    -0.200 F 
ATOM     98  F   UNL A   1      38.237  34.374  38.937  1.00  0.00    -0.200 F 
ENDBRANCH  65  88
ENDBRANCH  39  40
ENDBRANCH  32  34
ENDBRANCH  31  32
ENDBRANCH  30  31
ENDBRANCH  29  30
ENDBRANCH  28  29
ENDBRANCH  27  28
ENDBRANCH   1  27
TORSDOF 22
ENDMDL
MODEL 2
REMARK VINA RESULT:     -10.9      4.931      7.230
REMARK SMILES COc1ccc(C[N@@H+]2CCO[C@H](CC(=O)OCCOCCOCCOC(=O)c3ccc(-c4c5nc(c(-c6c(F)c(F)c(F)c(F)c6F)c6ccc([nH]6)c(-c6c(F)c(F)c(F)c(F)c6F)c6nc(c(-c7c(F)c(F)c(F)c(F)c7F)c7ccc4[nH]7)C=C6)C=C5)cc3)C2)cc1OC
REMARK SMILES IDX 20 1 19 2 18 3 17 4 16 5 14 6 15 7 13 8 12 9 8 10 9 11 91 12
REMARK SMILES IDX 10 14 11 15 7 16 6 17 3 18 4 19 93 20 5 21 92 22 2 23 1 24
REMARK SMILES IDX 94 25 95 26 21 27 22 28 23 29 24 30 25 31 26 32 27 33 28 34
REMARK SMILES IDX 29 35 90 36 30 37 89 38 31 39 32 40 33 41 83 42 34 43 88 44
REMARK SMILES IDX 82 45 84 46 35 47 87 48 81 49 80 50 36 52 68 53 48 54 67 55
REMARK SMILES IDX 49 56 52 57 66 58 85 59 50 60 51 61 65 63 86 64 53 65 37 66
REMARK SMILES IDX 38 67 46 68 39 69 40 70 44 71 47 72 41 73 42 74 45 75 43 76
REMARK SMILES IDX 69 77 70 78 78 79 71 80 72 81 76 82 79 83 73 84 74 85 77 86
REMARK SMILES IDX 75 87 54 88 55 89 63 90 56 91 57 92 61 93 64 94 58 95 59 96
REMARK SMILES IDX 62 97 60 98
REMARK H PARENT 8 13 84 51 52 62
REMARK Flexibility Score: inf
ROOT
ATOM      1  C   UNL A   1      40.982  22.231  26.700  1.00  0.00     0.188 C 
ENDROOT
BRANCH   1   2
ATOM      2  O   UNL A   1      39.682  22.491  27.202  1.00  0.00    -0.376 OA
BRANCH   2   3
ATOM      3  C   UNL A   1      39.162  23.777  26.834  1.00  0.00     0.202 C 
BRANCH   3   4
ATOM      4  C   UNL A   1      37.813  23.741  26.072  1.00  0.00     0.261 C 
BRANCH   4   5
ATOM      5  O   UNL A   1      37.905  22.699  25.069  1.00  0.00    -0.463 OA
BRANCH   5   6
ATOM      6  C   UNL A   1      37.091  21.471  24.944  1.00  0.00     0.308 C 
ATOM      7  O   UNL A   1      37.907  20.522  24.974  1.00  0.00    -0.252 OA
BRANCH   6   8
ATOM      8  C   UNL A   1      34.909  21.550  24.779  1.00  0.00     0.160 C 
BRANCH   8   9
ATOM      9  C   UNL A   1      33.529  21.106  25.847  1.00  0.00     0.184 C 
ATOM     10  N   UNL A   1      31.514  22.534  25.283  1.00  0.00    -0.327 N 
ATOM     11  C   UNL A   1      31.706  23.185  26.595  1.00  0.00     0.291 C 
ATOM     12  C   UNL A   1      32.065  21.168  25.323  1.00  0.00     0.295 C 
ATOM     13  H   UNL A   1      30.511  22.510  25.097  1.00  0.00     0.348 HD
ATOM     14  C   UNL A   1      32.572  22.445  27.654  1.00  0.00     0.222 C 
ATOM     15  O   UNL A   1      33.651  21.605  27.196  1.00  0.00    -0.366 OA
BRANCH  10  16
ATOM     16  C   UNL A   1      32.153  23.278  24.194  1.00  0.00     0.299 C 
BRANCH  16  17
ATOM     17  C   UNL A   1      32.161  24.735  24.518  1.00  0.00     0.010 A 
ATOM     18  C   UNL A   1      32.434  28.314  24.859  1.00  0.00     0.160 A 
ATOM     19  C   UNL A   1      33.797  27.288  25.372  1.00  0.00     0.051 A 
ATOM     20  C   UNL A   1      30.932  27.585  24.222  1.00  0.00     0.161 A 
ATOM     21  C   UNL A   1      33.697  25.506  25.192  1.00  0.00     0.013 A 
ATOM     22  C   UNL A   1      30.765  25.794  24.098  1.00  0.00     0.060 A 
BRANCH  18  23
ATOM     23  O   UNL A   1      32.645  29.666  24.864  1.00  0.00    -0.493 OA
ATOM     24  C   UNL A   1      32.008  30.272  25.987  1.00  0.00     0.278 C 
ENDBRANCH  18  23
BRANCH  20  25
ATOM     25  O   UNL A   1      29.884  28.287  23.684  1.00  0.00    -0.493 OA
ATOM     26  C   UNL A   1      30.177  28.968  22.473  1.00  0.00     0.278 C 
ENDBRANCH  20  25
ENDBRANCH  16  17
ENDBRANCH  10  16
ENDBRANCH   8   9
ENDBRANCH   6   8
ENDBRANCH   5   6
ENDBRANCH   4   5
ENDBRANCH   3   4
ENDBRANCH   2   3
ENDBRANCH   1   2
BRANCH   1  27
ATOM     27  C   UNL A   1      41.870  21.380  27.606  1.00  0.00     0.188 C 
BRANCH  27  28
ATOM     28  O   UNL A   1      41.793  19.965  27.418  1.00  0.00    -0.376 OA
BRANCH  28  29
ATOM     29  C   UNL A   1      41.942  19.582  26.049  1.00  0.00     0.202 C 
BRANCH  29  30
ATOM     30  C   UNL A   1      42.998  18.489  25.780  1.00  0.00     0.261 C 
BRANCH  30  31
ATOM     31  O   UNL A   1      44.315  19.023  25.565  1.00  0.00    -0.460 OA
BRANCH  31  32
ATOM     32  C   UNL A   1      44.465  19.758  24.431  1.00  0.00     0.338 C 
ATOM     33  O   UNL A   1      44.195  19.402  23.298  1.00  0.00    -0.246 OA
BRANCH  32  34
ATOM     34  C   UNL A   1      44.900  21.142  24.778  1.00  0.00     0.060 A 
ATOM     35  C   UNL A   1      45.427  21.378  26.056  1.00  0.00     0.016 A 
ATOM     36  C   UNL A   1      44.830  22.196  23.858  1.00  0.00     0.016 A 
ATOM     37  C   UNL A   1      45.802  22.672  26.443  1.00  0.00     0.010 A 
ATOM     38  C   UNL A   1      45.218  23.485  24.241  1.00  0.00     0.010 A 
ATOM     39  C   UNL A   1      45.648  23.745  25.555  1.00  0.00    -0.014 A 
BRANCH  39  40
ATOM     40  C   UNL A   1      45.666  25.152  26.048  1.00  0.00     0.031 A 
ATOM     41  C   UNL A   1      46.977  25.895  26.001  1.00  0.00     0.074 A 
ATOM     42  C   UNL A   1      44.580  25.777  26.534  1.00  0.00     0.049 A 
ATOM     43  N   UNL A   1      47.278  27.097  26.423  1.00  0.00    -0.248 NA
ATOM     44  C   UNL A   1      48.107  25.165  25.407  1.00  0.00     0.031 C 
ATOM     45  C   UNL A   1      43.243  25.204  26.606  1.00  0.00     0.029 A 
ATOM     46  N   UNL A   1      44.436  27.035  27.071  1.00  0.00    -0.354 N 
ATOM     47  C   UNL A   1      48.631  27.261  26.153  1.00  0.00     0.074 A 
ATOM     48  C   UNL A   1      49.104  26.013  25.594  1.00  0.00     0.031 C 
ATOM     49  C   UNL A   1      42.409  26.106  27.154  1.00  0.00     0.029 A 
ATOM     50  C   UNL A   1      43.162  27.312  27.501  1.00  0.00     0.049 A 
ATOM     51  H   UNL A   1      45.179  27.679  27.139  1.00  0.00     0.167 HD
ATOM     52  C   UNL A   1      49.411  28.354  26.334  1.00  0.00     0.037 A 
ATOM     53  C   UNL A   1      42.663  28.408  28.110  1.00  0.00     0.037 A 
ATOM     54  C   UNL A   1      48.950  29.592  26.905  1.00  0.00     0.049 A 
ATOM     55  C   UNL A   1      43.568  29.583  28.394  1.00  0.00     0.074 A 
ATOM     56  C   UNL A   1      49.660  30.759  27.121  1.00  0.00     0.029 A 
ATOM     57  N   UNL A   1      47.661  29.817  27.369  1.00  0.00    -0.354 N 
ATOM     58  N   UNL A   1      44.838  29.743  28.110  1.00  0.00    -0.248 NA
ATOM     59  C   UNL A   1      42.961  30.738  29.075  1.00  0.00     0.031 C 
ATOM     60  C   UNL A   1      48.823  31.663  27.785  1.00  0.00     0.029 A 
ATOM     61  C   UNL A   1      47.565  31.093  27.901  1.00  0.00     0.049 A 
ATOM     62  H   UNL A   1      46.923  29.166  27.326  1.00  0.00     0.167 HD
ATOM     63  C   UNL A   1      45.169  31.027  28.531  1.00  0.00     0.074 A 
ATOM     64  C   UNL A   1      43.965  31.604  29.089  1.00  0.00     0.031 C 
ATOM     65  C   UNL A   1      46.361  31.671  28.449  1.00  0.00     0.037 A 
BRANCH  52  66
ATOM     66  C   UNL A   1      50.858  28.226  25.945  1.00  0.00     0.064 A 
ATOM     67  C   UNL A   1      51.279  28.315  24.607  1.00  0.00     0.173 A 
ATOM     68  C   UNL A   1      51.835  27.978  26.920  1.00  0.00     0.173 A 
ATOM     69  F   UNL A   1      50.387  28.539  23.630  1.00  0.00    -0.203 F 
ATOM     70  C   UNL A   1      52.610  28.092  24.257  1.00  0.00     0.198 A 
ATOM     71  C   UNL A   1      53.171  27.804  26.571  1.00  0.00     0.198 A 
ATOM     72  F   UNL A   1      51.494  27.892  28.215  1.00  0.00    -0.203 F 
ATOM     73  F   UNL A   1      52.968  28.086  22.965  1.00  0.00    -0.200 F 
ATOM     74  C   UNL A   1      53.554  27.841  25.239  1.00  0.00     0.200 A 
ATOM     75  F   UNL A   1      54.087  27.579  27.524  1.00  0.00    -0.200 F 
ATOM     76  F   UNL A   1      54.832  27.618  24.901  1.00  0.00    -0.200 F 
ENDBRANCH  52  66
BRANCH  53  77
ATOM     77  C   UNL A   1      41.220  28.466  28.475  1.00  0.00     0.064 A 
ATOM     78  C   UNL A   1      40.273  28.990  27.582  1.00  0.00     0.173 A 
ATOM     79  C   UNL A   1      40.758  28.018  29.721  1.00  0.00     0.173 A 
ATOM     80  F   UNL A   1      40.667  29.464  26.391  1.00  0.00    -0.203 F 
ATOM     81  C   UNL A   1      38.925  29.073  27.925  1.00  0.00     0.198 A 
ATOM     82  C   UNL A   1      39.405  28.073  30.051  1.00  0.00     0.198 A 
ATOM     83  F   UNL A   1      41.621  27.515  30.615  1.00  0.00    -0.203 F 
ATOM     84  F   UNL A   1      38.050  29.620  27.070  1.00  0.00    -0.200 F 
ATOM     85  C   UNL A   1      38.491  28.606  29.157  1.00  0.00     0.200 A 
ATOM     86  F   UNL A   1      38.989  27.610  31.237  1.00  0.00    -0.200 F 
ATOM     87  F   UNL A   1      37.192  28.677  29.483  1.00  0.00    -0.200 F 
ENDBRANCH  53  77
BRANCH  65  88
ATOM     88  C   UNL A   1      46.418  33.104  28.909  1.00  0.00     0.064 A 
ATOM     89  C   UNL A   1      46.136  34.181  28.056  1.00  0.00     0.173 A 
ATOM     90  C   UNL A   1      46.726  33.400  30.248  1.00  0.00     0.173 A 
ATOM     91  F   UNL A   1      45.842  33.961  26.765  1.00  0.00    -0.203 F 
ATOM     92  C   UNL A   1      46.199  35.496  28.512  1.00  0.00     0.198 A 
ATOM     93  C   UNL A   1      46.747  34.713  30.712  1.00  0.00     0.198 A 
ATOM     94  F   UNL A   1      46.994  32.412  31.116  1.00  0.00    -0.203 F 
ATOM     95  F   UNL A   1      45.988  36.510  27.661  1.00  0.00    -0.200 F 
ATOM     96  C   UNL A   1      46.497  35.761  29.841  1.00  0.00     0.200 A 
ATOM     97  F   UNL A   1      47.014  34.963  32.001  1.00  0.00    -0.200 F 
ATOM     98  F   UNL A   1      46.549  37.026  30.279  1.00  0.00    -0.200 F 
ENDBRANCH  65  88
ENDBRANCH  39  40
ENDBRANCH  32  34
ENDBRANCH  31  32
ENDBRANCH  30  31
ENDBRANCH  29  30
ENDBRANCH  28  29
ENDBRANCH  27  28
ENDBRANCH   1  27
TORSDOF 22
ENDMDL
MODEL 3
REMARK VINA RESULT:     -10.8      4.994      7.336
REMARK SMILES COc1ccc(C[N@@H+]2CCO[C@H](CC(=O)OCCOCCOCCOC(=O)c3ccc(-c4c5nc(c(-c6c(F)c(F)c(F)c(F)c6F)c6ccc([nH]6)c(-c6c(F)c(F)c(F)c(F)c6F)c6nc(c(-c7c(F)c(F)c(F)c(F)c7F)c7ccc4[nH]7)C=C6)C=C5)cc3)C2)cc1OC
REMARK SMILES IDX 20 1 19 2 18 3 17 4 16 5 14 6 15 7 13 8 12 9 8 10 9 11 91 12
REMARK SMILES IDX 10 14 11 15 7 16 6 17 3 18 4 19 93 20 5 21 92 22 2 23 1 24
REMARK SMILES IDX 94 25 95 26 21 27 22 28 23 29 24 30 25 31 26 32 27 33 28 34
REMARK SMILES IDX 29 35 90 36 30 37 89 38 31 39 32 40 33 41 83 42 34 43 88 44
REMARK SMILES IDX 82 45 84 46 35 47 87 48 81 49 80 50 36 52 68 53 48 54 67 55
REMARK SMILES IDX 49 56 52 57 66 58 85 59 50 60 51 61 65 63 86 64 53 65 37 66
REMARK SMILES IDX 38 67 46 68 39 69 40 70 44 71 47 72 41 73 42 74 45 75 43 76
REMARK SMILES IDX 69 77 70 78 78 79 71 80 72 81 76 82 79 83 73 84 74 85 77 86
REMARK SMILES IDX 75 87 54 88 55 89 63 90 56 91 57 92 61 93 64 94 58 95 59 96
REMARK SMILES IDX 62 97 60 98
REMARK H PARENT 8 13 84 51 52 62
REMARK Flexibility Score: inf
ROOT
ATOM      1  C   UNL A   1      40.975  22.158  26.405  1.00  0.00     0.188 C 
ENDROOT
BRANCH   1   2
ATOM      2  O   UNL A   1      39.661  22.351  26.903  1.00  0.00    -0.376 OA
BRANCH   2   3
ATOM      3  C   UNL A   1      39.219  23.716  26.866  1.00  0.00     0.202 C 
BRANCH   3   4
ATOM      4  C   UNL A   1      37.847  23.936  26.181  1.00  0.00     0.261 C 
BRANCH   4   5
ATOM      5  O   UNL A   1      37.847  23.179  24.946  1.00  0.00    -0.463 OA
BRANCH   5   6
ATOM      6  C   UNL A   1      36.910  22.116  24.522  1.00  0.00     0.308 C 
ATOM      7  O   UNL A   1      37.520  21.037  24.709  1.00  0.00    -0.252 OA
BRANCH   6   8
ATOM      8  C   UNL A   1      34.906  22.579  23.775  1.00  0.00     0.160 C 
BRANCH   8   9
ATOM      9  C   UNL A   1      33.275  21.836  23.944  1.00  0.00     0.184 C 
ATOM     10  N   UNL A   1      31.534  23.331  22.871  1.00  0.00    -0.327 N 
ATOM     11  C   UNL A   1      31.034  23.597  24.236  1.00  0.00     0.291 C 
ATOM     12  C   UNL A   1      32.198  22.016  22.835  1.00  0.00     0.295 C 
ATOM     13  H   UNL A   1      30.729  23.344  22.244  1.00  0.00     0.348 HD
ATOM     14  C   UNL A   1      31.442  22.607  25.365  1.00  0.00     0.222 C 
ATOM     15  O   UNL A   1      32.718  21.944  25.272  1.00  0.00    -0.366 OA
BRANCH  10  16
ATOM     16  C   UNL A   1      32.475  24.357  22.413  1.00  0.00     0.299 C 
BRANCH  16  17
ATOM     17  C   UNL A   1      32.303  25.595  23.229  1.00  0.00     0.010 A 
ATOM     18  C   UNL A   1      32.192  28.814  24.852  1.00  0.00     0.160 A 
ATOM     19  C   UNL A   1      33.568  27.728  25.173  1.00  0.00     0.051 A 
ATOM     20  C   UNL A   1      30.860  28.305  23.775  1.00  0.00     0.161 A 
ATOM     21  C   UNL A   1      33.660  26.131  24.361  1.00  0.00     0.013 A 
ATOM     22  C   UNL A   1      30.880  26.677  23.000  1.00  0.00     0.060 A 
BRANCH  18  23
ATOM     23  O   UNL A   1      32.272  30.078  25.368  1.00  0.00    -0.493 OA
ATOM     24  C   UNL A   1      31.804  30.104  26.715  1.00  0.00     0.278 C 
ENDBRANCH  18  23
BRANCH  20  25
ATOM     25  O   UNL A   1      29.829  29.111  23.364  1.00  0.00    -0.493 OA
ATOM     26  C   UNL A   1      30.064  29.816  22.154  1.00  0.00     0.278 C 
ENDBRANCH  20  25
ENDBRANCH  16  17
ENDBRANCH  10  16
ENDBRANCH   8   9
ENDBRANCH   6   8
ENDBRANCH   5   6
ENDBRANCH   4   5
ENDBRANCH   3   4
ENDBRANCH   2   3
ENDBRANCH   1   2
BRANCH   1  27
ATOM     27  C   UNL A   1      41.967  21.565  27.404  1.00  0.00     0.188 C 
BRANCH  27  28
ATOM     28  O   UNL A   1      42.046  20.138  27.444  1.00  0.00    -0.376 OA
BRANCH  28  29
ATOM     29  C   UNL A   1      41.803  19.536  26.171  1.00  0.00     0.202 C 
BRANCH  29  30
ATOM     30  C   UNL A   1      42.812  18.446  25.751  1.00  0.00     0.261 C 
BRANCH  30  31
ATOM     31  O   UNL A   1      44.154  18.944  25.624  1.00  0.00    -0.460 OA
BRANCH  31  32
ATOM     32  C   UNL A   1      44.411  19.636  24.482  1.00  0.00     0.338 C 
ATOM     33  O   UNL A   1      44.212  19.250  23.343  1.00  0.00    -0.246 OA
BRANCH  32  34
ATOM     34  C   UNL A   1      44.865  21.016  24.816  1.00  0.00     0.060 A 
ATOM     35  C   UNL A   1      45.289  21.283  26.127  1.00  0.00     0.016 A 
ATOM     36  C   UNL A   1      44.913  22.036  23.858  1.00  0.00     0.016 A 
ATOM     37  C   UNL A   1      45.677  22.577  26.499  1.00  0.00     0.010 A 
ATOM     38  C   UNL A   1      45.314  23.325  24.227  1.00  0.00     0.010 A 
ATOM     39  C   UNL A   1      45.639  23.620  25.564  1.00  0.00    -0.014 A 
BRANCH  39  40
ATOM     40  C   UNL A   1      45.668  25.044  26.007  1.00  0.00     0.031 A 
ATOM     41  C   UNL A   1      46.983  25.776  25.932  1.00  0.00     0.074 A 
ATOM     42  C   UNL A   1      44.586  25.692  26.472  1.00  0.00     0.049 A 
ATOM     43  N   UNL A   1      47.292  26.990  26.312  1.00  0.00    -0.248 NA
ATOM     44  C   UNL A   1      48.107  25.018  25.363  1.00  0.00     0.031 C 
ATOM     45  C   UNL A   1      43.245  25.131  26.565  1.00  0.00     0.029 A 
ATOM     46  N   UNL A   1      44.450  26.969  26.964  1.00  0.00    -0.354 N 
ATOM     47  C   UNL A   1      48.645  27.135  26.034  1.00  0.00     0.074 A 
ATOM     48  C   UNL A   1      49.110  25.866  25.519  1.00  0.00     0.031 C 
ATOM     49  C   UNL A   1      42.418  26.057  27.082  1.00  0.00     0.029 A 
ATOM     50  C   UNL A   1      43.179  27.269  27.386  1.00  0.00     0.049 A 
ATOM     51  H   UNL A   1      45.197  27.610  27.009  1.00  0.00     0.167 HD
ATOM     52  C   UNL A   1      49.433  28.230  26.175  1.00  0.00     0.037 A 
ATOM     53  C   UNL A   1      42.688  28.389  27.957  1.00  0.00     0.037 A 
ATOM     54  C   UNL A   1      48.980  29.489  26.703  1.00  0.00     0.049 A 
ATOM     55  C   UNL A   1      43.601  29.568  28.198  1.00  0.00     0.074 A 
ATOM     56  C   UNL A   1      49.698  30.659  26.877  1.00  0.00     0.029 A 
ATOM     57  N   UNL A   1      47.694  29.739  27.160  1.00  0.00    -0.354 N 
ATOM     58  N   UNL A   1      44.872  29.710  27.907  1.00  0.00    -0.248 NA
ATOM     59  C   UNL A   1      43.002  30.750  28.838  1.00  0.00     0.031 C 
ATOM     60  C   UNL A   1      48.868  31.591  27.510  1.00  0.00     0.029 A 
ATOM     61  C   UNL A   1      47.607  31.034  27.647  1.00  0.00     0.049 A 
ATOM     62  H   UNL A   1      46.951  29.092  27.141  1.00  0.00     0.167 HD
ATOM     63  C   UNL A   1      45.211  31.005  28.282  1.00  0.00     0.074 A 
ATOM     64  C   UNL A   1      44.012  31.609  28.821  1.00  0.00     0.031 C 
ATOM     65  C   UNL A   1      46.408  31.638  28.175  1.00  0.00     0.037 A 
BRANCH  52  66
ATOM     66  C   UNL A   1      50.879  28.079  25.789  1.00  0.00     0.064 A 
ATOM     67  C   UNL A   1      51.886  27.868  26.746  1.00  0.00     0.173 A 
ATOM     68  C   UNL A   1      51.267  28.181  24.446  1.00  0.00     0.173 A 
ATOM     69  F   UNL A   1      51.574  27.776  28.048  1.00  0.00    -0.203 F 
ATOM     70  C   UNL A   1      53.229  27.834  26.378  1.00  0.00     0.198 A 
ATOM     71  C   UNL A   1      52.608  28.097  24.077  1.00  0.00     0.198 A 
ATOM     72  F   UNL A   1      50.350  28.373  23.486  1.00  0.00    -0.203 F 
ATOM     73  F   UNL A   1      54.177  27.729  27.321  1.00  0.00    -0.200 F 
ATOM     74  C   UNL A   1      53.588  27.944  25.045  1.00  0.00     0.200 A 
ATOM     75  F   UNL A   1      52.951  28.186  22.784  1.00  0.00    -0.200 F 
ATOM     76  F   UNL A   1      54.881  27.920  24.693  1.00  0.00    -0.200 F 
ENDBRANCH  52  66
BRANCH  53  77
ATOM     77  C   UNL A   1      41.246  28.470  28.321  1.00  0.00     0.064 A 
ATOM     78  C   UNL A   1      40.799  28.063  29.587  1.00  0.00     0.173 A 
ATOM     79  C   UNL A   1      40.285  28.937  27.413  1.00  0.00     0.173 A 
ATOM     80  F   UNL A   1      41.673  27.576  30.480  1.00  0.00    -0.203 F 
ATOM     81  C   UNL A   1      39.448  28.110  29.926  1.00  0.00     0.198 A 
ATOM     82  C   UNL A   1      38.937  29.013  27.763  1.00  0.00     0.198 A 
ATOM     83  F   UNL A   1      40.655  29.331  26.186  1.00  0.00    -0.203 F 
ATOM     84  F   UNL A   1      39.045  27.672  31.127  1.00  0.00    -0.200 F 
ATOM     85  C   UNL A   1      38.519  28.593  29.017  1.00  0.00     0.200 A 
ATOM     86  F   UNL A   1      38.045  29.491  26.886  1.00  0.00    -0.200 F 
ATOM     87  F   UNL A   1      37.221  28.648  29.347  1.00  0.00    -0.200 F 
ENDBRANCH  53  77
BRANCH  65  88
ATOM     88  C   UNL A   1      46.474  33.087  28.585  1.00  0.00     0.064 A 
ATOM     89  C   UNL A   1      46.733  33.484  29.905  1.00  0.00     0.173 A 
ATOM     90  C   UNL A   1      46.309  34.097  27.623  1.00  0.00     0.173 A 
ATOM     91  F   UNL A   1      46.892  32.565  30.869  1.00  0.00    -0.203 F 
ATOM     92  C   UNL A   1      46.786  34.833  30.252  1.00  0.00     0.198 A 
ATOM     93  C   UNL A   1      46.404  35.444  27.965  1.00  0.00     0.198 A 
ATOM     94  F   UNL A   1      46.070  33.780  26.341  1.00  0.00    -0.203 F 
ATOM     95  F   UNL A   1      46.972  35.187  31.532  1.00  0.00    -0.200 F 
ATOM     96  C   UNL A   1      46.629  35.811  29.281  1.00  0.00     0.200 A 
ATOM     97  F   UNL A   1      46.274  36.385  27.020  1.00  0.00    -0.200 F 
ATOM     98  F   UNL A   1      46.688  37.107  29.617  1.00  0.00    -0.200 F 
ENDBRANCH  65  88
ENDBRANCH  39  40
ENDBRANCH  32  34
ENDBRANCH  31  32
ENDBRANCH  30  31
ENDBRANCH  29  30
ENDBRANCH  28  29
ENDBRANCH  27  28
ENDBRANCH   1  27
TORSDOF 22
ENDMDL
