MODEL 1
REMARK VINA RESULT:     -11.4      0.000      0.000
REMARK SMILES O=C(Cc1ccccc1C(=O)OCCOCCOCCOC(=O)c1ccc(-c2c3nc(c(-c4c(F)c(F)c(F)c(F)c4F)c4ccc([nH]4)c(-c4c(F)c(F)c(F)c(F)c4F)c4nc(c(-c5c(F)c(F)c(F)c(F)c5F)c5ccc2[nH]5)C=C4)C=C3)cc1)Nc1cccc(OC[C@@H]2CCCO2)c1
REMARK SMILES IDX 14 1 13 2 12 3 10 4 11 5 9 6 4 7 5 8 6 9 8 10 7 11 3 12 2 13
REMARK SMILES IDX 1 14 87 15 88 17 89 18 100 19 90 20 92 21 91 22 93 23 94 24
REMARK SMILES IDX 95 25 96 26 99 27 97 28 98 29 15 30 16 31 17 32 18 33 19 34
REMARK SMILES IDX 20 35 21 36 22 37 23 38 24 39 25 40 86 41 26 42 85 43 27 44
REMARK SMILES IDX 28 45 29 46 79 47 30 48 84 49 78 50 80 51 31 52 83 53 77 54
REMARK SMILES IDX 76 55 32 57 64 58 44 59 63 60 45 61 48 62 62 63 81 64 46 65
REMARK SMILES IDX 47 66 61 68 82 69 49 70 33 71 34 72 42 73 35 74 36 75 40 76
REMARK SMILES IDX 43 77 37 78 38 79 41 80 39 81 65 82 66 83 74 84 67 85 68 86
REMARK SMILES IDX 72 87 75 88 69 89 70 90 73 91 71 92 50 93 51 94 59 95 52 96
REMARK SMILES IDX 53 97 57 98 60 99 54 100 55 101 58 102 56 103
REMARK H PARENT 87 16 80 56 48 67
REMARK Flexibility Score: inf
ROOT
ATOM      1  C   UNL A   1      35.309  23.400  26.299  1.00  0.00     0.202 C 
ENDROOT
BRANCH   1   2
ATOM      2  C   UNL A   1      33.873  22.951  26.020  1.00  0.00     0.261 C 
BRANCH   2   3
ATOM      3  O   UNL A   1      33.836  21.573  25.616  1.00  0.00    -0.460 OA
BRANCH   3   4
ATOM      4  C   UNL A   1      32.621  21.043  25.371  1.00  0.00     0.338 C 
ATOM      5  O   UNL A   1      31.543  21.516  25.693  1.00  0.00    -0.246 OA
BRANCH   4   6
ATOM      6  C   UNL A   1      32.745  19.858  24.479  1.00  0.00     0.063 A 
ATOM      7  C   UNL A   1      32.367  19.814  23.121  1.00  0.00    -0.024 A 
ATOM      8  C   UNL A   1      32.579  18.619  22.401  1.00  0.00     0.005 A 
ATOM      9  C   UNL A   1      33.116  17.489  23.017  1.00  0.00     0.000 A 
ATOM     10  C   UNL A   1      33.277  18.708  25.089  1.00  0.00     0.016 A 
ATOM     11  C   UNL A   1      33.452  17.528  24.366  1.00  0.00     0.001 A 
BRANCH   7  12
ATOM     12  C   UNL A   1      31.727  20.962  22.378  1.00  0.00     0.136 C 
BRANCH  12  13
ATOM     13  C   UNL A   1      32.358  22.317  22.584  1.00  0.00     0.228 C 
ATOM     14  O   UNL A   1      33.547  22.473  22.299  1.00  0.00    -0.274 OA
ATOM     15  N   UNL A   1      31.504  23.310  23.039  1.00  0.00    -0.326 N 
ATOM     16  H   UNL A   1      30.597  23.047  23.317  1.00  0.00     0.169 HD
BRANCH  15  17
ATOM     17  C   UNL A   1      31.852  24.672  23.126  1.00  0.00     0.044 A 
ATOM     18  C   UNL A   1      33.123  25.016  23.587  1.00  0.00     0.026 A 
ATOM     19  C   UNL A   1      30.976  25.675  22.710  1.00  0.00     0.072 A 
ATOM     20  C   UNL A   1      33.542  26.347  23.529  1.00  0.00     0.006 A 
ATOM     21  C   UNL A   1      31.415  26.985  22.565  1.00  0.00     0.121 A 
ATOM     22  C   UNL A   1      32.696  27.324  22.997  1.00  0.00     0.046 A 
BRANCH  21  23
ATOM     23  O   UNL A   1      30.719  27.978  21.934  1.00  0.00    -0.491 OA
BRANCH  23  24
ATOM     24  C   UNL A   1      29.618  28.586  22.624  1.00  0.00     0.261 C 
BRANCH  24  25
ATOM     25  C   UNL A   1      29.433  30.109  22.443  1.00  0.00     0.156 C 
ATOM     26  C   UNL A   1      28.508  30.848  23.398  1.00  0.00     0.038 C 
ATOM     27  O   UNL A   1      28.922  30.396  21.116  1.00  0.00    -0.375 OA
ATOM     28  C   UNL A   1      28.189  32.089  22.606  1.00  0.00     0.031 C 
ATOM     29  C   UNL A   1      28.043  31.528  21.210  1.00  0.00     0.161 C 
ENDBRANCH  24  25
ENDBRANCH  23  24
ENDBRANCH  21  23
ENDBRANCH  15  17
ENDBRANCH  12  13
ENDBRANCH   7  12
ENDBRANCH   4   6
ENDBRANCH   3   4
ENDBRANCH   2   3
ENDBRANCH   1   2
BRANCH   1  30
ATOM     30  O   UNL A   1      35.985  24.067  25.234  1.00  0.00    -0.376 OA
BRANCH  30  31
ATOM     31  C   UNL A   1      36.667  23.286  24.256  1.00  0.00     0.188 C 
BRANCH  31  32
ATOM     32  C   UNL A   1      37.246  21.914  24.653  1.00  0.00     0.188 C 
BRANCH  32  33
ATOM     33  O   UNL A   1      38.531  21.966  25.247  1.00  0.00    -0.376 OA
BRANCH  33  34
ATOM     34  C   UNL A   1      38.848  20.890  26.121  1.00  0.00     0.202 C 
BRANCH  34  35
ATOM     35  C   UNL A   1      39.721  19.802  25.482  1.00  0.00     0.261 C 
BRANCH  35  36
ATOM     36  O   UNL A   1      40.581  19.097  26.397  1.00  0.00    -0.460 OA
BRANCH  36  37
ATOM     37  C   UNL A   1      41.908  19.127  26.144  1.00  0.00     0.338 C 
ATOM     38  O   UNL A   1      42.576  18.255  25.620  1.00  0.00    -0.246 OA
BRANCH  37  39
ATOM     39  C   UNL A   1      42.394  20.493  26.435  1.00  0.00     0.060 A 
ATOM     40  C   UNL A   1      42.236  21.006  27.729  1.00  0.00     0.016 A 
ATOM     41  C   UNL A   1      43.020  21.257  25.446  1.00  0.00     0.016 A 
ATOM     42  C   UNL A   1      42.686  22.294  28.029  1.00  0.00     0.010 A 
ATOM     43  C   UNL A   1      43.456  22.552  25.744  1.00  0.00     0.010 A 
ATOM     44  C   UNL A   1      43.271  23.087  27.031  1.00  0.00    -0.014 A 
BRANCH  44  45
ATOM     45  C   UNL A   1      43.552  24.521  27.290  1.00  0.00     0.031 A 
ATOM     46  C   UNL A   1      44.942  25.042  27.045  1.00  0.00     0.074 A 
ATOM     47  C   UNL A   1      42.594  25.355  27.732  1.00  0.00     0.049 A 
ATOM     48  N   UNL A   1      45.420  26.250  27.207  1.00  0.00    -0.248 NA
ATOM     49  C   UNL A   1      45.924  24.066  26.549  1.00  0.00     0.031 C 
ATOM     50  C   UNL A   1      41.206  24.984  27.995  1.00  0.00     0.029 A 
ATOM     51  N   UNL A   1      42.652  26.691  28.045  1.00  0.00    -0.354 N 
ATOM     52  C   UNL A   1      46.754  26.180  26.830  1.00  0.00     0.074 A 
ATOM     53  C   UNL A   1      47.020  24.806  26.462  1.00  0.00     0.031 C 
ATOM     54  C   UNL A   1      40.544  26.066  28.443  1.00  0.00     0.029 A 
ATOM     55  C   UNL A   1      41.467  27.199  28.517  1.00  0.00     0.049 A 
ATOM     56  H   UNL A   1      43.467  27.234  27.941  1.00  0.00     0.167 HD
ATOM     57  C   UNL A   1      47.674  27.173  26.784  1.00  0.00     0.037 A 
ATOM     58  C   UNL A   1      41.168  28.432  28.972  1.00  0.00     0.037 A 
ATOM     59  C   UNL A   1      47.421  28.539  27.163  1.00  0.00     0.049 A 
ATOM     60  C   UNL A   1      42.229  29.504  28.977  1.00  0.00     0.074 A 
ATOM     61  C   UNL A   1      48.283  29.620  27.123  1.00  0.00     0.029 A 
ATOM     62  N   UNL A   1      46.216  29.007  27.665  1.00  0.00    -0.354 N 
ATOM     63  N   UNL A   1      43.473  29.443  28.569  1.00  0.00    -0.248 NA
ATOM     64  C   UNL A   1      41.838  30.821  29.503  1.00  0.00     0.031 C 
ATOM     65  C   UNL A   1      47.617  30.732  27.647  1.00  0.00     0.029 A 
ATOM     66  C   UNL A   1      46.322  30.356  27.967  1.00  0.00     0.049 A 
ATOM     67  H   UNL A   1      45.406  28.462  27.789  1.00  0.00     0.167 HD
ATOM     68  C   UNL A   1      44.005  30.711  28.767  1.00  0.00     0.074 A 
ATOM     69  C   UNL A   1      42.945  31.528  29.318  1.00  0.00     0.031 C 
ATOM     70  C   UNL A   1      45.259  31.159  28.514  1.00  0.00     0.037 A 
BRANCH  57  71
ATOM     71  C   UNL A   1      49.053  26.810  26.324  1.00  0.00     0.064 A 
ATOM     72  C   UNL A   1      50.000  26.266  27.203  1.00  0.00     0.173 A 
ATOM     73  C   UNL A   1      49.424  26.982  24.982  1.00  0.00     0.173 A 
ATOM     74  F   UNL A   1      49.698  26.095  28.500  1.00  0.00    -0.203 F 
ATOM     75  C   UNL A   1      51.277  25.930  26.761  1.00  0.00     0.198 A 
ATOM     76  C   UNL A   1      50.693  26.622  24.538  1.00  0.00     0.198 A 
ATOM     77  F   UNL A   1      48.553  27.497  24.101  1.00  0.00    -0.203 F 
ATOM     78  F   UNL A   1      52.182  25.453  27.629  1.00  0.00    -0.200 F 
ATOM     79  C   UNL A   1      51.621  26.103  25.429  1.00  0.00     0.200 A 
ATOM     80  F   UNL A   1      51.020  26.781  23.248  1.00  0.00    -0.200 F 
ATOM     81  F   UNL A   1      52.849  25.777  25.004  1.00  0.00    -0.200 F 
ENDBRANCH  57  71
BRANCH  58  82
ATOM     82  C   UNL A   1      39.799  28.729  29.469  1.00  0.00     0.064 A 
ATOM     83  C   UNL A   1      39.434  28.450  30.793  1.00  0.00     0.173 A 
ATOM     84  C   UNL A   1      38.822  29.271  28.621  1.00  0.00     0.173 A 
ATOM     85  F   UNL A   1      40.327  27.903  31.632  1.00  0.00    -0.203 F 
ATOM     86  C   UNL A   1      38.138  28.689  31.247  1.00  0.00     0.198 A 
ATOM     87  C   UNL A   1      37.534  29.533  29.084  1.00  0.00     0.198 A 
ATOM     88  F   UNL A   1      39.120  29.547  27.343  1.00  0.00    -0.203 F 
ATOM     89  F   UNL A   1      37.803  28.371  32.506  1.00  0.00    -0.200 F 
ATOM     90  C   UNL A   1      37.191  29.235  30.394  1.00  0.00     0.200 A 
ATOM     91  F   UNL A   1      36.623  30.065  28.258  1.00  0.00    -0.200 F 
ATOM     92  F   UNL A   1      35.946  29.463  30.832  1.00  0.00    -0.200 F 
ENDBRANCH  58  82
BRANCH  70  93
ATOM     93  C   UNL A   1      45.551  32.604  28.804  1.00  0.00     0.064 A 
ATOM     94  C   UNL A   1      46.101  33.011  30.028  1.00  0.00     0.173 A 
ATOM     95  C   UNL A   1      45.315  33.586  27.831  1.00  0.00     0.173 A 
ATOM     96  F   UNL A   1      46.332  32.113  30.996  1.00  0.00    -0.203 F 
ATOM     97  C   UNL A   1      46.380  34.353  30.276  1.00  0.00     0.198 A 
ATOM     98  C   UNL A   1      45.621  34.923  28.071  1.00  0.00     0.198 A 
ATOM     99  F   UNL A   1      44.796  33.247  26.640  1.00  0.00    -0.203 F 
ATOM    100  F   UNL A   1      46.864  34.726  31.469  1.00  0.00    -0.200 F 
ATOM    101  C   UNL A   1      46.147  35.306  29.295  1.00  0.00     0.200 A 
ATOM    102  F   UNL A   1      45.407  35.840  27.118  1.00  0.00    -0.200 F 
ATOM    103  F   UNL A   1      46.423  36.597  29.533  1.00  0.00    -0.200 F 
ENDBRANCH  70  93
ENDBRANCH  44  45
ENDBRANCH  37  39
ENDBRANCH  36  37
ENDBRANCH  35  36
ENDBRANCH  34  35
ENDBRANCH  33  34
ENDBRANCH  32  33
ENDBRANCH  31  32
ENDBRANCH  30  31
ENDBRANCH   1  30
TORSDOF 23
ENDMDL
MODEL 2
REMARK VINA RESULT:     -11.3      0.730      6.920
REMARK SMILES O=C(Cc1ccccc1C(=O)OCCOCCOCCOC(=O)c1ccc(-c2c3nc(c(-c4c(F)c(F)c(F)c(F)c4F)c4ccc([nH]4)c(-c4c(F)c(F)c(F)c(F)c4F)c4nc(c(-c5c(F)c(F)c(F)c(F)c5F)c5ccc2[nH]5)C=C4)C=C3)cc1)Nc1cccc(OC[C@@H]2CCCO2)c1
REMARK SMILES IDX 14 1 13 2 12 3 10 4 11 5 9 6 4 7 5 8 6 9 8 10 7 11 3 12 2 13
REMARK SMILES IDX 1 14 87 15 88 17 89 18 100 19 90 20 92 21 91 22 93 23 94 24
REMARK SMILES IDX 95 25 96 26 99 27 97 28 98 29 15 30 16 31 17 32 18 33 19 34
REMARK SMILES IDX 20 35 21 36 22 37 23 38 24 39 25 40 86 41 26 42 85 43 27 44
REMARK SMILES IDX 28 45 29 46 79 47 30 48 84 49 78 50 80 51 31 52 83 53 77 54
REMARK SMILES IDX 76 55 32 57 64 58 44 59 63 60 45 61 48 62 62 63 81 64 46 65
REMARK SMILES IDX 47 66 61 68 82 69 49 70 33 71 34 72 42 73 35 74 36 75 40 76
REMARK SMILES IDX 43 77 37 78 38 79 41 80 39 81 65 82 66 83 74 84 67 85 68 86
REMARK SMILES IDX 72 87 75 88 69 89 70 90 73 91 71 92 50 93 51 94 59 95 52 96
REMARK SMILES IDX 53 97 57 98 60 99 54 100 55 101 58 102 56 103
REMARK H PARENT 87 16 80 56 48 67
REMARK Flexibility Score: inf
ROOT
ATOM      1  C   UNL A   1      35.052  22.706  27.039  1.00  0.00     0.202 C 
ENDROOT
BRANCH   1   2
ATOM      2  C   UNL A   1      33.608  22.260  26.803  1.00  0.00     0.261 C 
BRANCH   2   3
ATOM      3  O   UNL A   1      33.467  21.643  25.514  1.00  0.00    -0.460 OA
BRANCH   3   4
ATOM      4  C   UNL A   1      32.289  21.039  25.254  1.00  0.00     0.338 C 
ATOM      5  O   UNL A   1      31.179  21.449  25.555  1.00  0.00    -0.246 OA
BRANCH   4   6
ATOM      6  C   UNL A   1      32.498  19.858  24.372  1.00  0.00     0.063 A 
ATOM      7  C   UNL A   1      32.248  19.819  22.985  1.00  0.00    -0.024 A 
ATOM      8  C   UNL A   1      32.528  18.628  22.283  1.00  0.00     0.005 A 
ATOM      9  C   UNL A   1      33.009  17.496  22.942  1.00  0.00     0.000 A 
ATOM     10  C   UNL A   1      32.974  18.706  25.024  1.00  0.00     0.016 A 
ATOM     11  C   UNL A   1      33.218  17.530  24.316  1.00  0.00     0.001 A 
BRANCH   7  12
ATOM     12  C   UNL A   1      31.676  20.970  22.191  1.00  0.00     0.136 C 
BRANCH  12  13
ATOM     13  C   UNL A   1      32.296  22.322  22.446  1.00  0.00     0.228 C 
ATOM     14  O   UNL A   1      33.394  22.579  21.951  1.00  0.00    -0.274 OA
ATOM     15  N   UNL A   1      31.525  23.199  23.193  1.00  0.00    -0.326 N 
ATOM     16  H   UNL A   1      30.704  22.852  23.610  1.00  0.00     0.169 HD
BRANCH  15  17
ATOM     17  C   UNL A   1      31.843  24.557  23.391  1.00  0.00     0.044 A 
ATOM     18  C   UNL A   1      32.988  24.884  24.116  1.00  0.00     0.026 A 
ATOM     19  C   UNL A   1      31.069  25.574  22.830  1.00  0.00     0.072 A 
ATOM     20  C   UNL A   1      33.407  26.215  24.186  1.00  0.00     0.006 A 
ATOM     21  C   UNL A   1      31.525  26.887  22.819  1.00  0.00     0.121 A 
ATOM     22  C   UNL A   1      32.687  27.209  23.519  1.00  0.00     0.046 A 
BRANCH  21  23
ATOM     23  O   UNL A   1      30.973  27.900  22.087  1.00  0.00    -0.491 OA
BRANCH  23  24
ATOM     24  C   UNL A   1      30.858  29.196  22.689  1.00  0.00     0.261 C 
BRANCH  24  25
ATOM     25  C   UNL A   1      29.520  29.943  22.496  1.00  0.00     0.156 C 
ATOM     26  C   UNL A   1      29.135  31.019  23.501  1.00  0.00     0.038 C 
ATOM     27  O   UNL A   1      28.416  29.001  22.502  1.00  0.00    -0.375 OA
ATOM     28  C   UNL A   1      27.644  31.097  23.300  1.00  0.00     0.031 C 
ATOM     29  C   UNL A   1      27.286  29.640  23.118  1.00  0.00     0.161 C 
ENDBRANCH  24  25
ENDBRANCH  23  24
ENDBRANCH  21  23
ENDBRANCH  15  17
ENDBRANCH  12  13
ENDBRANCH   7  12
ENDBRANCH   4   6
ENDBRANCH   3   4
ENDBRANCH   2   3
ENDBRANCH   1   2
BRANCH   1  30
ATOM     30  O   UNL A   1      35.590  23.642  26.106  1.00  0.00    -0.376 OA
BRANCH  30  31
ATOM     31  C   UNL A   1      36.226  23.153  24.929  1.00  0.00     0.188 C 
BRANCH  31  32
ATOM     32  C   UNL A   1      37.254  22.010  25.044  1.00  0.00     0.188 C 
BRANCH  32  33
ATOM     33  O   UNL A   1      38.566  22.430  25.377  1.00  0.00    -0.376 OA
BRANCH  33  34
ATOM     34  C   UNL A   1      39.256  21.608  26.310  1.00  0.00     0.202 C 
BRANCH  34  35
ATOM     35  C   UNL A   1      39.679  20.244  25.750  1.00  0.00     0.261 C 
BRANCH  35  36
ATOM     36  O   UNL A   1      40.541  19.475  26.609  1.00  0.00    -0.460 OA
BRANCH  36  37
ATOM     37  C   UNL A   1      41.838  19.367  26.247  1.00  0.00     0.338 C 
ATOM     38  O   UNL A   1      42.373  18.423  25.696  1.00  0.00    -0.246 OA
BRANCH  37  39
ATOM     39  C   UNL A   1      42.477  20.685  26.458  1.00  0.00     0.060 A 
ATOM     40  C   UNL A   1      42.562  21.195  27.759  1.00  0.00     0.016 A 
ATOM     41  C   UNL A   1      43.008  21.404  25.383  1.00  0.00     0.016 A 
ATOM     42  C   UNL A   1      43.161  22.438  27.984  1.00  0.00     0.010 A 
ATOM     43  C   UNL A   1      43.592  22.655  25.608  1.00  0.00     0.010 A 
ATOM     44  C   UNL A   1      43.651  23.189  26.907  1.00  0.00    -0.014 A 
BRANCH  44  45
ATOM     45  C   UNL A   1      44.089  24.592  27.117  1.00  0.00     0.031 A 
ATOM     46  C   UNL A   1      43.076  25.606  27.575  1.00  0.00     0.074 A 
ATOM     47  C   UNL A   1      45.364  24.967  26.910  1.00  0.00     0.049 A 
ATOM     48  N   UNL A   1      43.227  26.884  27.814  1.00  0.00    -0.248 NA
ATOM     49  C   UNL A   1      41.709  25.109  27.790  1.00  0.00     0.031 C 
ATOM     50  C   UNL A   1      46.445  24.084  26.481  1.00  0.00     0.029 A 
ATOM     51  N   UNL A   1      45.959  26.199  27.027  1.00  0.00    -0.354 N 
ATOM     52  C   UNL A   1      41.978  27.342  28.213  1.00  0.00     0.074 A 
ATOM     53  C   UNL A   1      41.074  26.213  28.152  1.00  0.00     0.031 C 
ATOM     54  C   UNL A   1      47.574  24.806  26.359  1.00  0.00     0.029 A 
ATOM     55  C   UNL A   1      47.288  26.204  26.681  1.00  0.00     0.049 A 
ATOM     56  H   UNL A   1      45.479  27.003  27.331  1.00  0.00     0.167 HD
ATOM     57  C   UNL A   1      41.618  28.587  28.605  1.00  0.00     0.037 A 
ATOM     58  C   UNL A   1      48.166  27.225  26.615  1.00  0.00     0.037 A 
ATOM     59  C   UNL A   1      42.508  29.717  28.655  1.00  0.00     0.049 A 
ATOM     60  C   UNL A   1      47.724  28.617  26.989  1.00  0.00     0.074 A 
ATOM     61  C   UNL A   1      42.240  31.010  29.066  1.00  0.00     0.029 A 
ATOM     62  N   UNL A   1      43.839  29.689  28.267  1.00  0.00    -0.354 N 
ATOM     63  N   UNL A   1      46.554  29.030  27.416  1.00  0.00    -0.248 NA
ATOM     64  C   UNL A   1      48.729  29.685  26.878  1.00  0.00     0.031 C 
ATOM     65  C   UNL A   1      43.394  31.777  28.881  1.00  0.00     0.029 A 
ATOM     66  C   UNL A   1      44.397  30.950  28.401  1.00  0.00     0.049 A 
ATOM     67  H   UNL A   1      44.317  28.891  27.943  1.00  0.00     0.167 HD
ATOM     68  C   UNL A   1      46.689  30.394  27.643  1.00  0.00     0.074 A 
ATOM     69  C   UNL A   1      48.058  30.738  27.323  1.00  0.00     0.031 C 
ATOM     70  C   UNL A   1      45.762  31.282  28.080  1.00  0.00     0.037 A 
BRANCH  57  71
ATOM     71  C   UNL A   1      40.186  28.796  28.995  1.00  0.00     0.064 A 
ATOM     72  C   UNL A   1      39.212  29.145  28.048  1.00  0.00     0.173 A 
ATOM     73  C   UNL A   1      39.777  28.620  30.325  1.00  0.00     0.173 A 
ATOM     74  F   UNL A   1      39.556  29.339  26.765  1.00  0.00    -0.203 F 
ATOM     75  C   UNL A   1      37.884  29.333  28.423  1.00  0.00     0.198 A 
ATOM     76  C   UNL A   1      38.444  28.784  30.692  1.00  0.00     0.198 A 
ATOM     77  F   UNL A   1      40.670  28.285  31.268  1.00  0.00    -0.203 F 
ATOM     78  F   UNL A   1      36.978  29.710  27.509  1.00  0.00    -0.200 F 
ATOM     79  C   UNL A   1      37.500  29.148  29.742  1.00  0.00     0.200 A 
ATOM     80  F   UNL A   1      38.074  28.596  31.966  1.00  0.00    -0.200 F 
ATOM     81  F   UNL A   1      36.222  29.327  30.101  1.00  0.00    -0.200 F 
ENDBRANCH  57  71
BRANCH  58  82
ATOM     82  C   UNL A   1      49.562  26.976  26.171  1.00  0.00     0.064 A 
ATOM     83  C   UNL A   1      50.576  26.692  27.096  1.00  0.00     0.173 A 
ATOM     84  C   UNL A   1      49.915  27.045  24.815  1.00  0.00     0.173 A 
ATOM     85  F   UNL A   1      50.292  26.645  28.406  1.00  0.00    -0.203 F 
ATOM     86  C   UNL A   1      51.893  26.500  26.683  1.00  0.00     0.198 A 
ATOM     87  C   UNL A   1      51.228  26.828  24.401  1.00  0.00     0.198 A 
ATOM     88  F   UNL A   1      48.983  27.322  23.892  1.00  0.00    -0.203 F 
ATOM     89  F   UNL A   1      52.851  26.274  27.593  1.00  0.00    -0.200 F 
ATOM     90  C   UNL A   1      52.217  26.563  25.336  1.00  0.00     0.200 A 
ATOM     91  F   UNL A   1      51.536  26.884  23.099  1.00  0.00    -0.200 F 
ATOM     92  F   UNL A   1      53.484  26.379  24.941  1.00  0.00    -0.200 F 
ENDBRANCH  58  82
BRANCH  70  93
ATOM     93  C   UNL A   1      46.199  32.707  28.263  1.00  0.00     0.064 A 
ATOM     94  C   UNL A   1      46.715  33.166  29.483  1.00  0.00     0.173 A 
ATOM     95  C   UNL A   1      46.138  33.612  27.193  1.00  0.00     0.173 A 
ATOM     96  F   UNL A   1      46.782  32.344  30.541  1.00  0.00    -0.203 F 
ATOM     97  C   UNL A   1      47.132  34.487  29.633  1.00  0.00     0.198 A 
ATOM     98  C   UNL A   1      46.580  34.924  27.337  1.00  0.00     0.198 A 
ATOM     99  F   UNL A   1      45.658  33.221  26.003  1.00  0.00    -0.203 F 
ATOM    100  F   UNL A   1      47.580  34.917  30.820  1.00  0.00    -0.200 F 
ATOM    101  C   UNL A   1      47.071  35.363  28.558  1.00  0.00     0.200 A 
ATOM    102  F   UNL A   1      46.532  35.765  26.295  1.00  0.00    -0.200 F 
ATOM    103  F   UNL A   1      47.478  36.632  28.702  1.00  0.00    -0.200 F 
ENDBRANCH  70  93
ENDBRANCH  44  45
ENDBRANCH  37  39
ENDBRANCH  36  37
ENDBRANCH  35  36
ENDBRANCH  34  35
ENDBRANCH  33  34
ENDBRANCH  32  33
ENDBRANCH  31  32
ENDBRANCH  30  31
ENDBRANCH   1  30
TORSDOF 23
ENDMDL
MODEL 3
REMARK VINA RESULT:     -10.4      1.849      2.687
REMARK SMILES O=C(Cc1ccccc1C(=O)OCCOCCOCCOC(=O)c1ccc(-c2c3nc(c(-c4c(F)c(F)c(F)c(F)c4F)c4ccc([nH]4)c(-c4c(F)c(F)c(F)c(F)c4F)c4nc(c(-c5c(F)c(F)c(F)c(F)c5F)c5ccc2[nH]5)C=C4)C=C3)cc1)Nc1cccc(OC[C@@H]2CCCO2)c1
REMARK SMILES IDX 14 1 13 2 12 3 10 4 11 5 9 6 4 7 5 8 6 9 8 10 7 11 3 12 2 13
REMARK SMILES IDX 1 14 87 15 88 17 89 18 100 19 90 20 92 21 91 22 93 23 94 24
REMARK SMILES IDX 95 25 96 26 99 27 97 28 98 29 15 30 16 31 17 32 18 33 19 34
REMARK SMILES IDX 20 35 21 36 22 37 23 38 24 39 25 40 86 41 26 42 85 43 27 44
REMARK SMILES IDX 28 45 29 46 79 47 30 48 84 49 78 50 80 51 31 52 83 53 77 54
REMARK SMILES IDX 76 55 32 57 64 58 44 59 63 60 45 61 48 62 62 63 81 64 46 65
REMARK SMILES IDX 47 66 61 68 82 69 49 70 33 71 34 72 42 73 35 74 36 75 40 76
REMARK SMILES IDX 43 77 37 78 38 79 41 80 39 81 65 82 66 83 74 84 67 85 68 86
REMARK SMILES IDX 72 87 75 88 69 89 70 90 73 91 71 92 50 93 51 94 59 95 52 96
REMARK SMILES IDX 53 97 57 98 60 99 54 100 55 101 58 102 56 103
REMARK H PARENT 87 16 80 56 48 67
REMARK Flexibility Score: inf
ROOT
ATOM      1  C   UNL A   1      34.637  21.822  27.255  1.00  0.00     0.202 C 
ENDROOT
BRANCH   1   2
ATOM      2  C   UNL A   1      33.265  22.480  27.099  1.00  0.00     0.261 C 
BRANCH   2   3
ATOM      3  O   UNL A   1      32.793  22.369  25.747  1.00  0.00    -0.460 OA
BRANCH   3   4
ATOM      4  C   UNL A   1      31.755  21.536  25.531  1.00  0.00     0.338 C 
ATOM      5  O   UNL A   1      30.575  21.777  25.734  1.00  0.00    -0.246 OA
BRANCH   4   6
ATOM      6  C   UNL A   1      32.215  20.307  24.828  1.00  0.00     0.063 A 
ATOM      7  C   UNL A   1      32.298  20.150  23.429  1.00  0.00    -0.024 A 
ATOM      8  C   UNL A   1      32.787  18.929  22.917  1.00  0.00     0.005 A 
ATOM      9  C   UNL A   1      33.148  17.882  23.764  1.00  0.00     0.000 A 
ATOM     10  C   UNL A   1      32.575  19.240  25.669  1.00  0.00     0.016 A 
ATOM     11  C   UNL A   1      33.029  18.032  25.141  1.00  0.00     0.001 A 
BRANCH   7  12
ATOM     12  C   UNL A   1      31.879  21.199  22.427  1.00  0.00     0.136 C 
BRANCH  12  13
ATOM     13  C   UNL A   1      32.495  22.565  22.604  1.00  0.00     0.228 C 
ATOM     14  O   UNL A   1      33.700  22.710  22.393  1.00  0.00    -0.274 OA
ATOM     15  N   UNL A   1      31.611  23.577  22.947  1.00  0.00    -0.326 N 
ATOM     16  H   UNL A   1      30.688  23.326  23.176  1.00  0.00     0.169 HD
BRANCH  15  17
ATOM     17  C   UNL A   1      31.952  24.943  22.986  1.00  0.00     0.044 A 
ATOM     18  C   UNL A   1      31.296  25.828  22.131  1.00  0.00     0.026 A 
ATOM     19  C   UNL A   1      32.888  25.434  23.898  1.00  0.00     0.072 A 
ATOM     20  C   UNL A   1      31.503  27.203  22.266  1.00  0.00     0.006 A 
ATOM     21  C   UNL A   1      33.032  26.801  24.099  1.00  0.00     0.121 A 
ATOM     22  C   UNL A   1      32.353  27.686  23.264  1.00  0.00     0.046 A 
BRANCH  21  23
ATOM     23  O   UNL A   1      33.727  27.370  25.129  1.00  0.00    -0.491 OA
BRANCH  23  24
ATOM     24  C   UNL A   1      33.772  28.801  25.216  1.00  0.00     0.261 C 
BRANCH  24  25
ATOM     25  C   UNL A   1      33.941  29.413  26.624  1.00  0.00     0.156 C 
ATOM     26  C   UNL A   1      33.287  30.755  26.918  1.00  0.00     0.038 C 
ATOM     27  O   UNL A   1      35.349  29.600  26.923  1.00  0.00    -0.375 OA
ATOM     28  C   UNL A   1      34.089  31.226  28.103  1.00  0.00     0.031 C 
ATOM     29  C   UNL A   1      35.483  30.789  27.718  1.00  0.00     0.161 C 
ENDBRANCH  24  25
ENDBRANCH  23  24
ENDBRANCH  21  23
ENDBRANCH  15  17
ENDBRANCH  12  13
ENDBRANCH   7  12
ENDBRANCH   4   6
ENDBRANCH   3   4
ENDBRANCH   2   3
ENDBRANCH   1   2
BRANCH   1  30
ATOM     30  O   UNL A   1      35.542  21.972  26.162  1.00  0.00    -0.376 OA
BRANCH  30  31
ATOM     31  C   UNL A   1      35.803  20.849  25.325  1.00  0.00     0.188 C 
BRANCH  31  32
ATOM     32  C   UNL A   1      37.226  20.631  24.774  1.00  0.00     0.188 C 
BRANCH  32  33
ATOM     33  O   UNL A   1      38.142  21.666  25.084  1.00  0.00    -0.376 OA
BRANCH  33  34
ATOM     34  C   UNL A   1      39.012  21.409  26.180  1.00  0.00     0.202 C 
BRANCH  34  35
ATOM     35  C   UNL A   1      39.735  20.058  26.102  1.00  0.00     0.261 C 
BRANCH  35  36
ATOM     36  O   UNL A   1      40.797  19.881  27.057  1.00  0.00    -0.460 OA
BRANCH  36  37
ATOM     37  C   UNL A   1      42.041  20.240  26.672  1.00  0.00     0.338 C 
ATOM     38  O   UNL A   1      42.843  19.566  26.052  1.00  0.00    -0.246 OA
BRANCH  37  39
ATOM     39  C   UNL A   1      42.206  21.681  26.961  1.00  0.00     0.060 A 
ATOM     40  C   UNL A   1      42.151  22.595  25.900  1.00  0.00     0.016 A 
ATOM     41  C   UNL A   1      42.392  22.133  28.270  1.00  0.00     0.016 A 
ATOM     42  C   UNL A   1      42.305  23.962  26.147  1.00  0.00     0.010 A 
ATOM     43  C   UNL A   1      42.561  23.500  28.514  1.00  0.00     0.010 A 
ATOM     44  C   UNL A   1      42.542  24.420  27.451  1.00  0.00    -0.014 A 
BRANCH  44  45
ATOM     45  C   UNL A   1      42.916  25.837  27.685  1.00  0.00     0.031 A 
ATOM     46  C   UNL A   1      44.242  26.330  27.174  1.00  0.00     0.074 A 
ATOM     47  C   UNL A   1      42.096  26.681  28.336  1.00  0.00     0.049 A 
ATOM     48  N   UNL A   1      44.782  27.518  27.267  1.00  0.00    -0.248 NA
ATOM     49  C   UNL A   1      45.071  25.345  26.460  1.00  0.00     0.031 C 
ATOM     50  C   UNL A   1      40.779  26.337  28.868  1.00  0.00     0.029 A 
ATOM     51  N   UNL A   1      42.260  28.004  28.667  1.00  0.00    -0.354 N 
ATOM     52  C   UNL A   1      46.008  27.427  26.623  1.00  0.00     0.074 A 
ATOM     53  C   UNL A   1      46.149  26.059  26.171  1.00  0.00     0.031 C 
ATOM     54  C   UNL A   1      40.258  27.421  29.471  1.00  0.00     0.029 A 
ATOM     55  C   UNL A   1      41.213  28.526  29.385  1.00  0.00     0.049 A 
ATOM     56  H   UNL A   1      43.053  28.528  28.412  1.00  0.00     0.167 HD
ATOM     57  C   UNL A   1      46.931  28.397  26.416  1.00  0.00     0.037 A 
ATOM     58  C   UNL A   1      41.054  29.751  29.924  1.00  0.00     0.037 A 
ATOM     59  C   UNL A   1      46.805  29.755  26.875  1.00  0.00     0.049 A 
ATOM     60  C   UNL A   1      42.126  30.795  29.741  1.00  0.00     0.074 A 
ATOM     61  C   UNL A   1      47.675  30.814  26.688  1.00  0.00     0.029 A 
ATOM     62  N   UNL A   1      45.743  30.237  27.626  1.00  0.00    -0.354 N 
ATOM     63  N   UNL A   1      43.259  30.715  29.084  1.00  0.00    -0.248 NA
ATOM     64  C   UNL A   1      41.894  32.104  30.371  1.00  0.00     0.031 C 
ATOM     65  C   UNL A   1      47.166  31.925  27.367  1.00  0.00     0.029 A 
ATOM     66  C   UNL A   1      45.952  31.572  27.935  1.00  0.00     0.049 A 
ATOM     67  H   UNL A   1      44.958  29.710  27.899  1.00  0.00     0.167 HD
ATOM     68  C   UNL A   1      43.860  31.961  29.203  1.00  0.00     0.074 A 
ATOM     69  C   UNL A   1      42.962  32.786  29.982  1.00  0.00     0.031 C 
ATOM     70  C   UNL A   1      45.050  32.385  28.710  1.00  0.00     0.037 A 
BRANCH  57  71
ATOM     71  C   UNL A   1      48.175  28.013  25.672  1.00  0.00     0.064 A 
ATOM     72  C   UNL A   1      49.400  27.842  26.332  1.00  0.00     0.173 A 
ATOM     73  C   UNL A   1      48.135  27.787  24.288  1.00  0.00     0.173 A 
ATOM     74  F   UNL A   1      49.492  28.060  27.653  1.00  0.00    -0.203 F 
ATOM     75  C   UNL A   1      50.547  27.482  25.629  1.00  0.00     0.198 A 
ATOM     76  C   UNL A   1      49.278  27.403  23.593  1.00  0.00     0.198 A 
ATOM     77  F   UNL A   1      46.987  27.936  23.612  1.00  0.00    -0.203 F 
ATOM     78  F   UNL A   1      51.718  27.368  26.274  1.00  0.00    -0.200 F 
ATOM     79  C   UNL A   1      50.485  27.258  24.262  1.00  0.00     0.200 A 
ATOM     80  F   UNL A   1      49.214  27.178  22.274  1.00  0.00    -0.200 F 
ATOM     81  F   UNL A   1      51.589  26.909  23.588  1.00  0.00    -0.200 F 
ENDBRANCH  57  71
BRANCH  58  82
ATOM     82  C   UNL A   1      39.825  30.067  30.700  1.00  0.00     0.064 A 
ATOM     83  C   UNL A   1      39.696  29.680  32.040  1.00  0.00     0.173 A 
ATOM     84  C   UNL A   1      38.745  30.737  30.106  1.00  0.00     0.173 A 
ATOM     85  F   UNL A   1      40.691  29.010  32.642  1.00  0.00    -0.203 F 
ATOM     86  C   UNL A   1      38.527  29.938  32.755  1.00  0.00     0.198 A 
ATOM     87  C   UNL A   1      37.587  31.017  30.829  1.00  0.00     0.198 A 
ATOM     88  F   UNL A   1      38.816  31.121  28.823  1.00  0.00    -0.203 F 
ATOM     89  F   UNL A   1      38.414  29.517  34.022  1.00  0.00    -0.200 F 
ATOM     90  C   UNL A   1      37.477  30.611  32.150  1.00  0.00     0.200 A 
ATOM     91  F   UNL A   1      36.576  31.672  30.243  1.00  0.00    -0.200 F 
ATOM     92  F   UNL A   1      36.354  30.859  32.837  1.00  0.00    -0.200 F 
ENDBRANCH  58  82
BRANCH  70  93
ATOM     93  C   UNL A   1      45.441  33.811  28.973  1.00  0.00     0.064 A 
ATOM     94  C   UNL A   1      45.053  34.849  28.115  1.00  0.00     0.173 A 
ATOM     95  C   UNL A   1      46.179  34.146  30.119  1.00  0.00     0.173 A 
ATOM     96  F   UNL A   1      44.359  34.580  26.999  1.00  0.00    -0.203 F 
ATOM     97  C   UNL A   1      45.410  36.170  28.381  1.00  0.00     0.198 A 
ATOM     98  C   UNL A   1      46.510  35.469  30.397  1.00  0.00     0.198 A 
ATOM     99  F   UNL A   1      46.569  33.190  30.976  1.00  0.00    -0.203 F 
ATOM    100  F   UNL A   1      45.066  37.141  27.525  1.00  0.00    -0.200 F 
ATOM    101  C   UNL A   1      46.131  36.479  29.526  1.00  0.00     0.200 A 
ATOM    102  F   UNL A   1      47.196  35.768  31.509  1.00  0.00    -0.200 F 
ATOM    103  F   UNL A   1      46.469  37.751  29.783  1.00  0.00    -0.200 F 
ENDBRANCH  70  93
ENDBRANCH  44  45
ENDBRANCH  37  39
ENDBRANCH  36  37
ENDBRANCH  35  36
ENDBRANCH  34  35
ENDBRANCH  33  34
ENDBRANCH  32  33
ENDBRANCH  31  32
ENDBRANCH  30  31
ENDBRANCH   1  30
TORSDOF 23
ENDMDL
