MODEL 1
REMARK VINA RESULT:     -11.2      0.000      0.000
REMARK SMILES O=C(OCCOCCOCCOC(=O)[C@@H]1CC=CC[C@@H]1C(=O)Nc1ccc(Br)cc1Cl)c1ccc(-c2c3nc(c(-c4c(F)c(F)c(F)c(F)c4F)c4ccc([nH]4)c(-c4c(F)c(F)c(F)c(F)c4F)c4nc(c(-c5c(F)c(F)c(F)c(F)c5F)c5ccc2[nH]5)C=C4)C=C3)cc1
REMARK SMILES IDX 7 1 6 2 5 3 4 4 3 5 2 6 1 7 32 8 33 9 94 10 34 11 93 12
REMARK SMILES IDX 35 13 36 14 37 15 87 16 38 17 92 18 86 19 88 20 39 21 91 22
REMARK SMILES IDX 85 23 84 24 40 26 72 27 52 28 71 29 53 30 56 31 70 32 89 33
REMARK SMILES IDX 54 34 55 35 69 37 90 38 57 39 41 40 42 41 50 42 43 43 44 44
REMARK SMILES IDX 48 45 51 46 45 47 46 48 49 49 47 50 73 51 74 52 82 53 75 54
REMARK SMILES IDX 76 55 80 56 83 57 77 58 78 59 81 60 79 61 58 62 59 63 67 64
REMARK SMILES IDX 60 65 61 66 65 67 68 68 62 69 63 70 66 71 64 72 8 73 9 74
REMARK SMILES IDX 10 75 11 76 12 77 13 78 14 79 15 80 16 81 20 82 17 83 19 84
REMARK SMILES IDX 18 85 21 86 22 87 23 88 24 90 25 91 30 92 26 93 29 94 31 95
REMARK SMILES IDX 27 96 28 97
REMARK H PARENT 88 25 56 36 23 89
REMARK Flexibility Score: inf
ROOT
ATOM      1  C   UNL A   1      40.793  20.427  26.965  1.00  0.00     0.188 C 
ENDROOT
BRANCH   1   2
ATOM      2  O   UNL A   1      41.996  19.663  26.981  1.00  0.00    -0.376 OA
BRANCH   2   3
ATOM      3  C   UNL A   1      42.203  18.740  25.917  1.00  0.00     0.202 C 
BRANCH   3   4
ATOM      4  C   UNL A   1      43.589  18.088  25.783  1.00  0.00     0.261 C 
BRANCH   4   5
ATOM      5  O   UNL A   1      44.448  18.484  24.698  1.00  0.00    -0.460 OA
BRANCH   5   6
ATOM      6  C   UNL A   1      45.213  19.565  24.438  1.00  0.00     0.338 C 
ATOM      7  O   UNL A   1      46.309  19.373  23.910  1.00  0.00    -0.246 OA
BRANCH   6   8
ATOM      8  C   UNL A   1      44.871  20.975  24.801  1.00  0.00     0.060 A 
ATOM      9  C   UNL A   1      44.624  22.010  23.899  1.00  0.00     0.016 A 
ATOM     10  C   UNL A   1      44.798  21.273  26.178  1.00  0.00     0.016 A 
ATOM     11  C   UNL A   1      44.285  23.287  24.330  1.00  0.00     0.010 A 
ATOM     12  C   UNL A   1      44.538  22.568  26.625  1.00  0.00     0.010 A 
ATOM     13  C   UNL A   1      44.318  23.582  25.689  1.00  0.00    -0.014 A 
BRANCH  13  14
ATOM     14  C   UNL A   1      44.491  24.992  26.074  1.00  0.00     0.031 A 
ATOM     15  C   UNL A   1      45.862  25.570  25.901  1.00  0.00     0.074 A 
ATOM     16  C   UNL A   1      43.453  25.752  26.447  1.00  0.00     0.049 A 
ATOM     17  N   UNL A   1      46.330  26.731  26.268  1.00  0.00    -0.248 NA
ATOM     18  C   UNL A   1      46.838  24.719  25.198  1.00  0.00     0.031 C 
ATOM     19  C   UNL A   1      42.062  25.313  26.471  1.00  0.00     0.029 A 
ATOM     20  N   UNL A   1      43.411  27.050  26.879  1.00  0.00    -0.354 N 
ATOM     21  C   UNL A   1      47.659  26.733  25.869  1.00  0.00     0.074 A 
ATOM     22  C   UNL A   1      47.926  25.467  25.232  1.00  0.00     0.031 C 
ATOM     23  C   UNL A   1      41.303  26.320  26.931  1.00  0.00     0.029 A 
ATOM     24  C   UNL A   1      42.166  27.432  27.304  1.00  0.00     0.049 A 
ATOM     25  H   UNL A   1      44.194  27.647  26.882  1.00  0.00     0.167 HD
ATOM     26  C   UNL A   1      48.573  27.712  26.045  1.00  0.00     0.037 A 
ATOM     27  C   UNL A   1      41.784  28.527  27.986  1.00  0.00     0.037 A 
ATOM     28  C   UNL A   1      48.265  28.947  26.708  1.00  0.00     0.049 A 
ATOM     29  C   UNL A   1      42.836  29.550  28.306  1.00  0.00     0.074 A 
ATOM     30  C   UNL A   1      49.100  30.004  27.009  1.00  0.00     0.029 A 
ATOM     31  N   UNL A   1      47.002  29.277  27.191  1.00  0.00    -0.354 N 
ATOM     32  N   UNL A   1      44.112  29.533  28.001  1.00  0.00    -0.248 NA
ATOM     33  C   UNL A   1      42.410  30.734  29.057  1.00  0.00     0.031 C 
ATOM     34  C   UNL A   1      48.356  30.944  27.731  1.00  0.00     0.029 A 
ATOM     35  C   UNL A   1      47.039  30.511  27.813  1.00  0.00     0.049 A 
ATOM     36  H   UNL A   1      46.200  28.714  27.102  1.00  0.00     0.167 HD
ATOM     37  C   UNL A   1      44.640  30.717  28.489  1.00  0.00     0.074 A 
ATOM     38  C   UNL A   1      43.541  31.426  29.121  1.00  0.00     0.031 C 
ATOM     39  C   UNL A   1      45.911  31.183  28.412  1.00  0.00     0.037 A 
BRANCH  26  40
ATOM     40  C   UNL A   1      49.979  27.409  25.614  1.00  0.00     0.064 A 
ATOM     41  C   UNL A   1      50.385  27.477  24.272  1.00  0.00     0.173 A 
ATOM     42  C   UNL A   1      50.913  26.951  26.556  1.00  0.00     0.173 A 
ATOM     43  F   UNL A   1      49.523  27.875  23.323  1.00  0.00    -0.203 F 
ATOM     44  C   UNL A   1      51.654  27.047  23.883  1.00  0.00     0.198 A 
ATOM     45  C   UNL A   1      52.191  26.557  26.169  1.00  0.00     0.198 A 
ATOM     46  F   UNL A   1      50.577  26.856  27.851  1.00  0.00    -0.203 F 
ATOM     47  F   UNL A   1      51.985  27.033  22.584  1.00  0.00    -0.200 F 
ATOM     48  C   UNL A   1      52.554  26.589  24.831  1.00  0.00     0.200 A 
ATOM     49  F   UNL A   1      53.061  26.118  27.088  1.00  0.00    -0.200 F 
ATOM     50  F   UNL A   1      53.766  26.155  24.454  1.00  0.00    -0.200 F 
ENDBRANCH  26  40
BRANCH  27  51
ATOM     51  C   UNL A   1      40.377  28.648  28.452  1.00  0.00     0.064 A 
ATOM     52  C   UNL A   1      40.004  28.312  29.758  1.00  0.00     0.173 A 
ATOM     53  C   UNL A   1      39.381  29.165  27.606  1.00  0.00     0.173 A 
ATOM     54  F   UNL A   1      40.912  27.804  30.605  1.00  0.00    -0.203 F 
ATOM     55  C   UNL A   1      38.693  28.490  30.203  1.00  0.00     0.198 A 
ATOM     56  C   UNL A   1      38.079  29.370  28.058  1.00  0.00     0.198 A 
ATOM     57  F   UNL A   1      39.684  29.513  26.347  1.00  0.00    -0.203 F 
ATOM     58  F   UNL A   1      38.360  28.146  31.455  1.00  0.00    -0.200 F 
ATOM     59  C   UNL A   1      37.735  29.028  29.356  1.00  0.00     0.200 A 
ATOM     60  F   UNL A   1      37.165  29.914  27.242  1.00  0.00    -0.200 F 
ATOM     61  F   UNL A   1      36.483  29.221  29.793  1.00  0.00    -0.200 F 
ENDBRANCH  27  51
BRANCH  39  62
ATOM     62  C   UNL A   1      46.169  32.552  28.961  1.00  0.00     0.064 A 
ATOM     63  C   UNL A   1      45.981  33.707  28.191  1.00  0.00     0.173 A 
ATOM     64  C   UNL A   1      46.515  32.702  30.313  1.00  0.00     0.173 A 
ATOM     65  F   UNL A   1      45.666  33.608  26.891  1.00  0.00    -0.203 F 
ATOM     66  C   UNL A   1      46.135  34.968  28.756  1.00  0.00     0.198 A 
ATOM     67  C   UNL A   1      46.637  33.964  30.881  1.00  0.00     0.198 A 
ATOM     68  F   UNL A   1      46.700  31.622  31.087  1.00  0.00    -0.203 F 
ATOM     69  F   UNL A   1      45.981  36.063  27.999  1.00  0.00    -0.200 F 
ATOM     70  C   UNL A   1      46.449  35.095  30.103  1.00  0.00     0.200 A 
ATOM     71  F   UNL A   1      46.920  34.083  32.185  1.00  0.00    -0.200 F 
ATOM     72  F   UNL A   1      46.571  36.312  30.651  1.00  0.00    -0.200 F 
ENDBRANCH  39  62
ENDBRANCH  13  14
ENDBRANCH   6   8
ENDBRANCH   5   6
ENDBRANCH   4   5
ENDBRANCH   3   4
ENDBRANCH   2   3
ENDBRANCH   1   2
BRANCH   1  73
ATOM     73  C   UNL A   1      40.826  21.769  26.251  1.00  0.00     0.188 C 
BRANCH  73  74
ATOM     74  O   UNL A   1      39.835  22.646  26.751  1.00  0.00    -0.376 OA
BRANCH  74  75
ATOM     75  C   UNL A   1      38.575  22.450  26.121  1.00  0.00     0.202 C 
BRANCH  75  76
ATOM     76  C   UNL A   1      37.645  23.666  26.102  1.00  0.00     0.261 C 
BRANCH  76  77
ATOM     77  O   UNL A   1      36.219  23.496  25.893  1.00  0.00    -0.463 OA
BRANCH  77  78
ATOM     78  C   UNL A   1      35.714  22.826  24.823  1.00  0.00     0.310 C 
ATOM     79  O   UNL A   1      36.094  22.983  23.670  1.00  0.00    -0.252 OA
BRANCH  78  80
ATOM     80  C   UNL A   1      34.650  21.826  25.272  1.00  0.00     0.116 C 
ATOM     81  C   UNL A   1      35.011  20.435  24.722  1.00  0.00     0.043 C 
ATOM     82  C   UNL A   1      33.195  22.288  25.039  1.00  0.00     0.097 C 
ATOM     83  C   UNL A   1      33.902  19.433  24.744  1.00  0.00    -0.030 C 
ATOM     84  C   UNL A   1      32.171  21.146  25.287  1.00  0.00     0.041 C 
ATOM     85  C   UNL A   1      32.629  19.750  24.998  1.00  0.00    -0.030 C 
BRANCH  82  86
ATOM     86  C   UNL A   1      32.833  22.920  23.680  1.00  0.00     0.228 C 
ATOM     87  O   UNL A   1      32.952  22.293  22.628  1.00  0.00    -0.274 OA
ATOM     88  N   UNL A   1      32.108  24.108  23.683  1.00  0.00    -0.324 N 
ATOM     89  H   UNL A   1      31.423  24.206  22.982  1.00  0.00     0.169 HD
BRANCH  88  90
ATOM     90  C   UNL A   1      32.249  25.187  24.582  1.00  0.00     0.060 A 
ATOM     91  C   UNL A   1      33.482  25.742  24.900  1.00  0.00     0.029 A 
ATOM     92  C   UNL A   1      31.179  25.576  25.379  1.00  0.00     0.065 A 
ATOM     93  C   UNL A   1      33.536  26.868  25.743  1.00  0.00     0.018 A 
ATOM     94  C   UNL A   1      31.149  26.818  26.008  1.00  0.00     0.038 A 
ATOM     95  Cl  UNL A   1      30.562  24.230  26.341  1.00  0.00    -0.082 Cl
ATOM     96  C   UNL A   1      32.358  27.460  26.202  1.00  0.00     0.019 A 
ATOM     97  Br  UNL A   1      32.406  29.047  27.226  1.00  0.00    -0.051 Br
ENDBRANCH  88  90
ENDBRANCH  82  86
ENDBRANCH  78  80
ENDBRANCH  77  78
ENDBRANCH  76  77
ENDBRANCH  75  76
ENDBRANCH  74  75
ENDBRANCH  73  74
ENDBRANCH   1  73
TORSDOF 19
ENDMDL
MODEL 2
REMARK VINA RESULT:     -10.8      4.920      7.434
REMARK SMILES O=C(OCCOCCOCCOC(=O)[C@@H]1CC=CC[C@@H]1C(=O)Nc1ccc(Br)cc1Cl)c1ccc(-c2c3nc(c(-c4c(F)c(F)c(F)c(F)c4F)c4ccc([nH]4)c(-c4c(F)c(F)c(F)c(F)c4F)c4nc(c(-c5c(F)c(F)c(F)c(F)c5F)c5ccc2[nH]5)C=C4)C=C3)cc1
REMARK SMILES IDX 7 1 6 2 5 3 4 4 3 5 2 6 1 7 32 8 33 9 94 10 34 11 93 12
REMARK SMILES IDX 35 13 36 14 37 15 87 16 38 17 92 18 86 19 88 20 39 21 91 22
REMARK SMILES IDX 85 23 84 24 40 26 72 27 52 28 71 29 53 30 56 31 70 32 89 33
REMARK SMILES IDX 54 34 55 35 69 37 90 38 57 39 41 40 42 41 50 42 43 43 44 44
REMARK SMILES IDX 48 45 51 46 45 47 46 48 49 49 47 50 73 51 74 52 82 53 75 54
REMARK SMILES IDX 76 55 80 56 83 57 77 58 78 59 81 60 79 61 58 62 59 63 67 64
REMARK SMILES IDX 60 65 61 66 65 67 68 68 62 69 63 70 66 71 64 72 8 73 9 74
REMARK SMILES IDX 10 75 11 76 12 77 13 78 14 79 15 80 16 81 20 82 17 83 19 84
REMARK SMILES IDX 18 85 21 86 22 87 23 88 24 90 25 91 30 92 26 93 29 94 31 95
REMARK SMILES IDX 27 96 28 97
REMARK H PARENT 88 25 56 36 23 89
REMARK Flexibility Score: inf
ROOT
ATOM      1  C   UNL A   1      40.045  21.389  26.983  1.00  0.00     0.188 C 
ENDROOT
BRANCH   1   2
ATOM      2  O   UNL A   1      41.431  21.718  27.024  1.00  0.00    -0.376 OA
BRANCH   2   3
ATOM      3  C   UNL A   1      42.226  21.358  25.900  1.00  0.00     0.202 C 
BRANCH   3   4
ATOM      4  C   UNL A   1      43.423  22.253  25.542  1.00  0.00     0.261 C 
BRANCH   4   5
ATOM      5  O   UNL A   1      43.184  23.514  24.889  1.00  0.00    -0.460 OA
BRANCH   5   6
ATOM      6  C   UNL A   1      43.516  24.796  25.149  1.00  0.00     0.338 C 
ATOM      7  O   UNL A   1      44.574  25.216  24.681  1.00  0.00    -0.246 OA
BRANCH   6   8
ATOM      8  C   UNL A   1      42.737  25.732  26.018  1.00  0.00     0.060 A 
ATOM      9  C   UNL A   1      42.723  27.123  25.907  1.00  0.00     0.016 A 
ATOM     10  C   UNL A   1      41.955  25.146  27.035  1.00  0.00     0.016 A 
ATOM     11  C   UNL A   1      41.945  27.913  26.744  1.00  0.00     0.010 A 
ATOM     12  C   UNL A   1      41.233  25.931  27.934  1.00  0.00     0.010 A 
ATOM     13  C   UNL A   1      41.262  27.322  27.803  1.00  0.00    -0.014 A 
BRANCH  13  14
ATOM     14  C   UNL A   1      40.912  28.179  28.947  1.00  0.00     0.031 A 
ATOM     15  C   UNL A   1      41.773  28.054  30.166  1.00  0.00     0.074 A 
ATOM     16  C   UNL A   1      39.948  29.106  28.863  1.00  0.00     0.049 A 
ATOM     17  N   UNL A   1      41.627  28.585  31.348  1.00  0.00    -0.248 NA
ATOM     18  C   UNL A   1      42.981  27.222  30.021  1.00  0.00     0.031 C 
ATOM     19  C   UNL A   1      39.185  29.410  27.658  1.00  0.00     0.029 A 
ATOM     20  N   UNL A   1      39.449  29.957  29.810  1.00  0.00    -0.354 N 
ATOM     21  C   UNL A   1      42.705  28.125  32.092  1.00  0.00     0.074 A 
ATOM     22  C   UNL A   1      43.497  27.277  31.235  1.00  0.00     0.031 C 
ATOM     23  C   UNL A   1      38.284  30.361  27.950  1.00  0.00     0.029 A 
ATOM     24  C   UNL A   1      38.361  30.666  29.372  1.00  0.00     0.049 A 
ATOM     25  H   UNL A   1      39.832  30.051  30.713  1.00  0.00     0.167 HD
ATOM     26  C   UNL A   1      42.985  28.384  33.388  1.00  0.00     0.037 A 
ATOM     27  C   UNL A   1      37.483  31.416  30.062  1.00  0.00     0.037 A 
ATOM     28  C   UNL A   1      42.150  29.216  34.208  1.00  0.00     0.049 A 
ATOM     29  C   UNL A   1      37.718  31.585  31.536  1.00  0.00     0.074 A 
ATOM     30  C   UNL A   1      42.276  29.520  35.548  1.00  0.00     0.029 A 
ATOM     31  N   UNL A   1      41.011  29.868  33.748  1.00  0.00    -0.354 N 
ATOM     32  N   UNL A   1      38.691  31.095  32.269  1.00  0.00    -0.248 NA
ATOM     33  C   UNL A   1      36.751  32.396  32.279  1.00  0.00     0.031 C 
ATOM     34  C   UNL A   1      41.176  30.304  35.913  1.00  0.00     0.029 A 
ATOM     35  C   UNL A   1      40.406  30.554  34.785  1.00  0.00     0.049 A 
ATOM     36  H   UNL A   1      40.683  29.845  32.820  1.00  0.00     0.167 HD
ATOM     37  C   UNL A   1      38.477  31.566  33.555  1.00  0.00     0.074 A 
ATOM     38  C   UNL A   1      37.272  32.375  33.499  1.00  0.00     0.031 C 
ATOM     39  C   UNL A   1      39.214  31.361  34.674  1.00  0.00     0.037 A 
BRANCH  26  40
ATOM     40  C   UNL A   1      44.160  27.663  33.983  1.00  0.00     0.064 A 
ATOM     41  C   UNL A   1      44.050  26.382  34.546  1.00  0.00     0.173 A 
ATOM     42  C   UNL A   1      45.402  28.311  34.073  1.00  0.00     0.173 A 
ATOM     43  F   UNL A   1      42.877  25.730  34.520  1.00  0.00    -0.203 F 
ATOM     44  C   UNL A   1      45.122  25.801  35.224  1.00  0.00     0.198 A 
ATOM     45  C   UNL A   1      46.481  27.712  34.717  1.00  0.00     0.198 A 
ATOM     46  F   UNL A   1      45.562  29.540  33.561  1.00  0.00    -0.203 F 
ATOM     47  F   UNL A   1      44.964  24.618  35.833  1.00  0.00    -0.200 F 
ATOM     48  C   UNL A   1      46.335  26.466  35.307  1.00  0.00     0.200 A 
ATOM     49  F   UNL A   1      47.653  28.356  34.794  1.00  0.00    -0.200 F 
ATOM     50  F   UNL A   1      47.359  25.916  35.976  1.00  0.00    -0.200 F 
ENDBRANCH  26  40
BRANCH  27  51
ATOM     51  C   UNL A   1      36.295  31.981  29.368  1.00  0.00     0.064 A 
ATOM     52  C   UNL A   1      36.182  33.351  29.103  1.00  0.00     0.173 A 
ATOM     53  C   UNL A   1      35.270  31.142  28.898  1.00  0.00     0.173 A 
ATOM     54  F   UNL A   1      37.126  34.198  29.539  1.00  0.00    -0.203 F 
ATOM     55  C   UNL A   1      35.093  33.860  28.395  1.00  0.00     0.198 A 
ATOM     56  C   UNL A   1      34.198  31.647  28.165  1.00  0.00     0.198 A 
ATOM     57  F   UNL A   1      35.332  29.820  29.114  1.00  0.00    -0.203 F 
ATOM     58  F   UNL A   1      35.002  35.178  28.168  1.00  0.00    -0.200 F 
ATOM     59  C   UNL A   1      34.108  33.008  27.917  1.00  0.00     0.200 A 
ATOM     60  F   UNL A   1      33.264  30.814  27.687  1.00  0.00    -0.200 F 
ATOM     61  F   UNL A   1      33.077  33.496  27.216  1.00  0.00    -0.200 F 
ENDBRANCH  27  51
BRANCH  39  62
ATOM     62  C   UNL A   1      38.781  32.079  35.915  1.00  0.00     0.064 A 
ATOM     63  C   UNL A   1      38.091  31.428  36.946  1.00  0.00     0.173 A 
ATOM     64  C   UNL A   1      39.156  33.417  36.107  1.00  0.00     0.173 A 
ATOM     65  F   UNL A   1      37.699  30.154  36.796  1.00  0.00    -0.203 F 
ATOM     66  C   UNL A   1      37.786  32.095  38.127  1.00  0.00     0.198 A 
ATOM     67  C   UNL A   1      38.878  34.070  37.302  1.00  0.00     0.198 A 
ATOM     68  F   UNL A   1      39.823  34.077  35.148  1.00  0.00    -0.203 F 
ATOM     69  F   UNL A   1      37.100  31.468  39.091  1.00  0.00    -0.200 F 
ATOM     70  C   UNL A   1      38.192  33.411  38.309  1.00  0.00     0.200 A 
ATOM     71  F   UNL A   1      39.289  35.333  37.482  1.00  0.00    -0.200 F 
ATOM     72  F   UNL A   1      37.921  34.043  39.459  1.00  0.00    -0.200 F 
ENDBRANCH  39  62
ENDBRANCH  13  14
ENDBRANCH   6   8
ENDBRANCH   5   6
ENDBRANCH   4   5
ENDBRANCH   3   4
ENDBRANCH   2   3
ENDBRANCH   1   2
BRANCH   1  73
ATOM     73  C   UNL A   1      39.194  22.078  25.928  1.00  0.00     0.188 C 
BRANCH  73  74
ATOM     74  O   UNL A   1      38.058  21.304  25.593  1.00  0.00    -0.376 OA
BRANCH  74  75
ATOM     75  C   UNL A   1      36.941  22.111  25.239  1.00  0.00     0.202 C 
BRANCH  75  76
ATOM     76  C   UNL A   1      35.921  22.360  26.353  1.00  0.00     0.261 C 
BRANCH  76  77
ATOM     77  O   UNL A   1      34.658  21.646  26.363  1.00  0.00    -0.463 OA
BRANCH  77  78
ATOM     78  C   UNL A   1      33.461  22.280  26.242  1.00  0.00     0.310 C 
ATOM     79  O   UNL A   1      33.112  23.231  26.930  1.00  0.00    -0.252 OA
BRANCH  78  80
ATOM     80  C   UNL A   1      32.647  21.671  25.103  1.00  0.00     0.116 C 
ATOM     81  C   UNL A   1      33.178  20.256  24.811  1.00  0.00     0.043 C 
ATOM     82  C   UNL A   1      32.471  22.593  23.876  1.00  0.00     0.097 C 
ATOM     83  C   UNL A   1      32.757  19.675  23.500  1.00  0.00    -0.030 C 
ATOM     84  C   UNL A   1      31.850  21.843  22.664  1.00  0.00     0.041 C 
ATOM     85  C   UNL A   1      32.161  20.384  22.538  1.00  0.00    -0.030 C 
BRANCH  82  86
ATOM     86  C   UNL A   1      33.703  23.351  23.342  1.00  0.00     0.228 C 
ATOM     87  O   UNL A   1      34.607  22.767  22.744  1.00  0.00    -0.274 OA
ATOM     88  N   UNL A   1      33.649  24.741  23.302  1.00  0.00    -0.324 N 
ATOM     89  H   UNL A   1      34.070  25.173  22.524  1.00  0.00     0.169 HD
BRANCH  88  90
ATOM     90  C   UNL A   1      33.055  25.596  24.254  1.00  0.00     0.060 A 
ATOM     91  C   UNL A   1      31.732  25.468  24.655  1.00  0.00     0.029 A 
ATOM     92  C   UNL A   1      33.704  26.762  24.646  1.00  0.00     0.065 A 
ATOM     93  C   UNL A   1      31.233  26.307  25.669  1.00  0.00     0.018 A 
ATOM     94  C   UNL A   1      33.345  27.443  25.807  1.00  0.00     0.038 A 
ATOM     95  Cl  UNL A   1      34.093  27.786  23.262  1.00  0.00    -0.082 Cl
ATOM     96  C   UNL A   1      32.077  27.215  26.310  1.00  0.00     0.019 A 
ATOM     97  Br  UNL A   1      31.459  28.256  27.760  1.00  0.00    -0.051 Br
ENDBRANCH  88  90
ENDBRANCH  82  86
ENDBRANCH  78  80
ENDBRANCH  77  78
ENDBRANCH  76  77
ENDBRANCH  75  76
ENDBRANCH  74  75
ENDBRANCH  73  74
ENDBRANCH   1  73
TORSDOF 19
ENDMDL
MODEL 3
REMARK VINA RESULT:     -10.8      3.773      9.006
REMARK SMILES O=C(OCCOCCOCCOC(=O)[C@@H]1CC=CC[C@@H]1C(=O)Nc1ccc(Br)cc1Cl)c1ccc(-c2c3nc(c(-c4c(F)c(F)c(F)c(F)c4F)c4ccc([nH]4)c(-c4c(F)c(F)c(F)c(F)c4F)c4nc(c(-c5c(F)c(F)c(F)c(F)c5F)c5ccc2[nH]5)C=C4)C=C3)cc1
REMARK SMILES IDX 7 1 6 2 5 3 4 4 3 5 2 6 1 7 32 8 33 9 94 10 34 11 93 12
REMARK SMILES IDX 35 13 36 14 37 15 87 16 38 17 92 18 86 19 88 20 39 21 91 22
REMARK SMILES IDX 85 23 84 24 40 26 72 27 52 28 71 29 53 30 56 31 70 32 89 33
REMARK SMILES IDX 54 34 55 35 69 37 90 38 57 39 41 40 42 41 50 42 43 43 44 44
REMARK SMILES IDX 48 45 51 46 45 47 46 48 49 49 47 50 73 51 74 52 82 53 75 54
REMARK SMILES IDX 76 55 80 56 83 57 77 58 78 59 81 60 79 61 58 62 59 63 67 64
REMARK SMILES IDX 60 65 61 66 65 67 68 68 62 69 63 70 66 71 64 72 8 73 9 74
REMARK SMILES IDX 10 75 11 76 12 77 13 78 14 79 15 80 16 81 20 82 17 83 19 84
REMARK SMILES IDX 18 85 21 86 22 87 23 88 24 90 25 91 30 92 26 93 29 94 31 95
REMARK SMILES IDX 27 96 28 97
REMARK H PARENT 88 25 56 36 23 89
REMARK Flexibility Score: inf
ROOT
ATOM      1  C   UNL A   1      34.056  33.793  28.749  1.00  0.00     0.188 C 
ENDROOT
BRANCH   1   2
ATOM      2  O   UNL A   1      33.443  34.362  29.903  1.00  0.00    -0.376 OA
BRANCH   2   3
ATOM      3  C   UNL A   1      34.250  34.520  31.065  1.00  0.00     0.202 C 
BRANCH   3   4
ATOM      4  C   UNL A   1      34.164  33.443  32.159  1.00  0.00     0.261 C 
BRANCH   4   5
ATOM      5  O   UNL A   1      35.181  32.426  32.221  1.00  0.00    -0.460 OA
BRANCH   5   6
ATOM      6  C   UNL A   1      36.520  32.431  32.394  1.00  0.00     0.338 C 
ATOM      7  O   UNL A   1      36.997  33.308  33.115  1.00  0.00    -0.246 OA
BRANCH   6   8
ATOM      8  C   UNL A   1      37.482  31.500  31.729  1.00  0.00     0.060 A 
ATOM      9  C   UNL A   1      38.342  30.616  32.381  1.00  0.00     0.016 A 
ATOM     10  C   UNL A   1      37.515  31.528  30.319  1.00  0.00     0.016 A 
ATOM     11  C   UNL A   1      39.185  29.765  31.676  1.00  0.00     0.010 A 
ATOM     12  C   UNL A   1      38.413  30.739  29.600  1.00  0.00     0.010 A 
ATOM     13  C   UNL A   1      39.274  29.882  30.292  1.00  0.00    -0.014 A 
BRANCH  13  14
ATOM     14  C   UNL A   1      40.503  29.391  29.647  1.00  0.00     0.031 A 
ATOM     15  C   UNL A   1      41.632  30.367  29.530  1.00  0.00     0.074 A 
ATOM     16  C   UNL A   1      40.645  28.108  29.290  1.00  0.00     0.049 A 
ATOM     17  N   UNL A   1      42.772  30.251  28.906  1.00  0.00    -0.248 NA
ATOM     18  C   UNL A   1      41.455  31.650  30.232  1.00  0.00     0.031 C 
ATOM     19  C   UNL A   1      39.660  27.059  29.531  1.00  0.00     0.029 A 
ATOM     20  N   UNL A   1      41.673  27.473  28.648  1.00  0.00    -0.354 N 
ATOM     21  C   UNL A   1      43.428  31.456  29.116  1.00  0.00     0.074 A 
ATOM     22  C   UNL A   1      42.569  32.288  29.922  1.00  0.00     0.031 C 
ATOM     23  C   UNL A   1      40.121  25.912  29.009  1.00  0.00     0.029 A 
ATOM     24  C   UNL A   1      41.385  26.171  28.335  1.00  0.00     0.049 A 
ATOM     25  H   UNL A   1      42.531  27.907  28.435  1.00  0.00     0.167 HD
ATOM     26  C   UNL A   1      44.640  31.829  28.650  1.00  0.00     0.037 A 
ATOM     27  C   UNL A   1      42.035  25.311  27.529  1.00  0.00     0.037 A 
ATOM     28  C   UNL A   1      45.449  30.974  27.828  1.00  0.00     0.049 A 
ATOM     29  C   UNL A   1      43.314  25.781  26.897  1.00  0.00     0.074 A 
ATOM     30  C   UNL A   1      46.669  31.236  27.238  1.00  0.00     0.029 A 
ATOM     31  N   UNL A   1      45.095  29.677  27.470  1.00  0.00    -0.354 N 
ATOM     32  N   UNL A   1      43.910  26.944  27.025  1.00  0.00    -0.248 NA
ATOM     33  C   UNL A   1      44.009  24.840  26.015  1.00  0.00     0.031 C 
ATOM     34  C   UNL A   1      47.020  30.121  26.469  1.00  0.00     0.029 A 
ATOM     35  C   UNL A   1      46.059  29.133  26.643  1.00  0.00     0.049 A 
ATOM     36  H   UNL A   1      44.277  29.215  27.763  1.00  0.00     0.167 HD
ATOM     37  C   UNL A   1      45.069  26.866  26.271  1.00  0.00     0.074 A 
ATOM     38  C   UNL A   1      45.085  25.540  25.679  1.00  0.00     0.031 C 
ATOM     39  C   UNL A   1      46.038  27.798  26.093  1.00  0.00     0.037 A 
BRANCH  26  40
ATOM     40  C   UNL A   1      45.069  33.240  28.933  1.00  0.00     0.064 A 
ATOM     41  C   UNL A   1      45.776  33.593  30.093  1.00  0.00     0.173 A 
ATOM     42  C   UNL A   1      44.678  34.274  28.068  1.00  0.00     0.173 A 
ATOM     43  F   UNL A   1      46.145  32.649  30.974  1.00  0.00    -0.203 F 
ATOM     44  C   UNL A   1      46.029  34.929  30.402  1.00  0.00     0.198 A 
ATOM     45  C   UNL A   1      44.965  35.605  28.361  1.00  0.00     0.198 A 
ATOM     46  F   UNL A   1      43.991  33.997  26.950  1.00  0.00    -0.203 F 
ATOM     47  F   UNL A   1      46.624  35.246  31.561  1.00  0.00    -0.200 F 
ATOM     48  C   UNL A   1      45.624  35.932  29.536  1.00  0.00     0.200 A 
ATOM     49  F   UNL A   1      44.575  36.572  27.520  1.00  0.00    -0.200 F 
ATOM     50  F   UNL A   1      45.848  37.217  29.844  1.00  0.00    -0.200 F 
ENDBRANCH  26  40
BRANCH  27  51
ATOM     51  C   UNL A   1      41.439  23.979  27.244  1.00  0.00     0.064 A 
ATOM     52  C   UNL A   1      41.979  22.803  27.778  1.00  0.00     0.173 A 
ATOM     53  C   UNL A   1      40.270  23.864  26.473  1.00  0.00     0.173 A 
ATOM     54  F   UNL A   1      43.100  22.854  28.513  1.00  0.00    -0.203 F 
ATOM     55  C   UNL A   1      41.374  21.566  27.556  1.00  0.00     0.198 A 
ATOM     56  C   UNL A   1      39.649  22.632  26.275  1.00  0.00     0.198 A 
ATOM     57  F   UNL A   1      39.704  24.959  25.945  1.00  0.00    -0.203 F 
ATOM     58  F   UNL A   1      41.919  20.454  28.067  1.00  0.00    -0.200 F 
ATOM     59  C   UNL A   1      40.204  21.482  26.814  1.00  0.00     0.200 A 
ATOM     60  F   UNL A   1      38.507  22.564  25.578  1.00  0.00    -0.200 F 
ATOM     61  F   UNL A   1      39.611  20.297  26.622  1.00  0.00    -0.200 F 
ENDBRANCH  27  51
BRANCH  39  62
ATOM     62  C   UNL A   1      47.231  27.394  25.284  1.00  0.00     0.064 A 
ATOM     63  C   UNL A   1      47.350  27.717  23.926  1.00  0.00     0.173 A 
ATOM     64  C   UNL A   1      48.312  26.759  25.915  1.00  0.00     0.173 A 
ATOM     65  F   UNL A   1      46.334  28.309  23.281  1.00  0.00    -0.203 F 
ATOM     66  C   UNL A   1      48.512  27.412  23.225  1.00  0.00     0.198 A 
ATOM     67  C   UNL A   1      49.483  26.487  25.218  1.00  0.00     0.198 A 
ATOM     68  F   UNL A   1      48.242  26.438  27.216  1.00  0.00    -0.203 F 
ATOM     69  F   UNL A   1      48.599  27.700  21.919  1.00  0.00    -0.200 F 
ATOM     70  C   UNL A   1      49.582  26.810  23.875  1.00  0.00     0.200 A 
ATOM     71  F   UNL A   1      50.520  25.924  25.853  1.00  0.00    -0.200 F 
ATOM     72  F   UNL A   1      50.709  26.543  23.203  1.00  0.00    -0.200 F 
ENDBRANCH  39  62
ENDBRANCH  13  14
ENDBRANCH   6   8
ENDBRANCH   5   6
ENDBRANCH   4   5
ENDBRANCH   3   4
ENDBRANCH   2   3
ENDBRANCH   1   2
BRANCH   1  73
ATOM     73  C   UNL A   1      34.332  32.297  28.770  1.00  0.00     0.188 C 
BRANCH  73  74
ATOM     74  O   UNL A   1      33.539  31.612  27.819  1.00  0.00    -0.376 OA
BRANCH  74  75
ATOM     75  C   UNL A   1      34.238  30.532  27.212  1.00  0.00     0.202 C 
BRANCH  75  76
ATOM     76  C   UNL A   1      33.527  29.177  27.243  1.00  0.00     0.261 C 
BRANCH  76  77
ATOM     77  O   UNL A   1      32.815  28.696  26.073  1.00  0.00    -0.463 OA
BRANCH  77  78
ATOM     78  C   UNL A   1      33.355  27.795  25.211  1.00  0.00     0.310 C 
ATOM     79  O   UNL A   1      34.162  28.079  24.334  1.00  0.00    -0.252 OA
BRANCH  78  80
ATOM     80  C   UNL A   1      32.853  26.388  25.523  1.00  0.00     0.116 C 
ATOM     81  C   UNL A   1      34.063  25.469  25.767  1.00  0.00     0.043 C 
ATOM     82  C   UNL A   1      31.786  25.854  24.542  1.00  0.00     0.097 C 
ATOM     83  C   UNL A   1      33.774  24.004  25.711  1.00  0.00    -0.030 C 
ATOM     84  C   UNL A   1      31.492  24.343  24.762  1.00  0.00     0.041 C 
ATOM     85  C   UNL A   1      32.622  23.498  25.262  1.00  0.00    -0.030 C 
BRANCH  82  86
ATOM     86  C   UNL A   1      32.018  26.044  23.029  1.00  0.00     0.228 C 
ATOM     87  O   UNL A   1      32.894  25.420  22.431  1.00  0.00    -0.274 OA
ATOM     88  N   UNL A   1      31.045  26.718  22.298  1.00  0.00    -0.324 N 
ATOM     89  H   UNL A   1      30.861  26.376  21.393  1.00  0.00     0.169 HD
BRANCH  88  90
ATOM     90  C   UNL A   1      30.293  27.837  22.715  1.00  0.00     0.060 A 
ATOM     91  C   UNL A   1      30.879  28.988  23.224  1.00  0.00     0.029 A 
ATOM     92  C   UNL A   1      28.914  27.735  22.864  1.00  0.00     0.065 A 
ATOM     93  C   UNL A   1      30.069  30.094  23.543  1.00  0.00     0.018 A 
ATOM     94  C   UNL A   1      28.100  28.863  22.927  1.00  0.00     0.038 A 
ATOM     95  Cl  UNL A   1      28.475  26.427  23.966  1.00  0.00    -0.082 Cl
ATOM     96  C   UNL A   1      28.696  30.057  23.289  1.00  0.00     0.019 A 
ATOM     97  Br  UNL A   1      27.615  31.576  23.589  1.00  0.00    -0.051 Br
ENDBRANCH  88  90
ENDBRANCH  82  86
ENDBRANCH  78  80
ENDBRANCH  77  78
ENDBRANCH  76  77
ENDBRANCH  75  76
ENDBRANCH  74  75
ENDBRANCH  73  74
ENDBRANCH   1  73
TORSDOF 19
ENDMDL
