MODEL 1
REMARK VINA RESULT:     -11.6      0.000      0.000
REMARK SMILES CCCCc1cc(S(F)(F)(F)(F)F)cc2c1O[C@@H](C(F)(F)F)C(C(=O)OCCOCCOCCOC(=O)c1ccc(-c3c4nc(c(-c5c(F)c(F)c(F)c(F)c5F)c5ccc([nH]5)c(-c5c(F)c(F)c(F)c(F)c5F)c5nc(c(-c6c(F)c(F)c(F)c(F)c6F)c6ccc3[nH]6)C=C5)C=C4)cc1)=C2
REMARK SMILES IDX 30 1 29 2 28 3 27 4 26 5 24 6 25 7 23 8 5 9 6 10 16 11 7 12
REMARK SMILES IDX 15 13 17 14 14 15 101 16 18 17 4 18 3 19 2 20 1 21 8 22 9 23
REMARK SMILES IDX 10 24 11 25 12 26 13 27 19 28 20 29 21 30 22 31 31 32 32 33
REMARK SMILES IDX 33 34 34 35 35 36 36 37 37 38 38 39 39 40 100 41 40 42 99 43
REMARK SMILES IDX 41 44 42 45 43 46 93 47 44 48 98 49 92 50 94 51 45 52 97 53
REMARK SMILES IDX 91 54 90 55 46 57 78 58 58 59 77 60 59 61 62 62 76 63 95 64
REMARK SMILES IDX 60 65 61 66 75 68 96 69 63 70 47 71 48 72 56 73 49 74 50 75
REMARK SMILES IDX 54 76 57 77 51 78 52 79 55 80 53 81 79 82 80 83 88 84 81 85
REMARK SMILES IDX 82 86 86 87 89 88 83 89 84 90 87 91 85 92 64 93 65 94 73 95
REMARK SMILES IDX 66 96 67 97 71 98 74 99 68 100 69 101 72 102 70 103
REMARK H PARENT 94 56 62 67
REMARK Flexibility Score: inf
ROOT
ATOM      1  C   UNL A   1      34.418  32.580  28.069  1.00  0.00     0.188 C 
ENDROOT
BRANCH   1   2
ATOM      2  O   UNL A   1      33.947  31.253  28.253  1.00  0.00    -0.376 OA
BRANCH   2   3
ATOM      3  C   UNL A   1      33.609  30.691  26.994  1.00  0.00     0.202 C 
BRANCH   3   4
ATOM      4  C   UNL A   1      32.104  30.498  26.912  1.00  0.00     0.261 C 
BRANCH   4   5
ATOM      5  O   UNL A   1      31.812  29.438  26.013  1.00  0.00    -0.460 OA
BRANCH   5   6
ATOM      6  C   UNL A   1      31.825  28.094  26.471  1.00  0.00     0.338 C 
ATOM      7  O   UNL A   1      31.315  27.803  27.598  1.00  0.00    -0.246 OA
BRANCH   6   8
ATOM      8  C   UNL A   1      32.450  27.006  25.615  1.00  0.00     0.087 C 
ATOM      9  C   UNL A   1      33.808  23.702  23.449  1.00  0.00    -0.004 A 
ATOM     10  C   UNL A   1      35.037  23.141  23.744  1.00  0.00     0.032 A 
ATOM     11  C   UNL A   1      33.362  24.753  24.212  1.00  0.00     0.131 A 
ATOM     12  C   UNL A   1      35.800  23.618  24.778  1.00  0.00     0.108 A 
ATOM     13  C   UNL A   1      34.113  25.273  25.252  1.00  0.00     0.019 A 
ATOM     14  O   UNL A   1      32.093  25.225  23.982  1.00  0.00    -0.475 OA
ATOM     15  C   UNL A   1      35.342  24.684  25.524  1.00  0.00     0.036 A 
ATOM     16  C   UNL A   1      33.536  26.361  26.024  1.00  0.00     0.027 C 
ATOM     17  C   UNL A   1      31.844  26.629  24.270  1.00  0.00     0.316 C 
BRANCH   9  18
ATOM     18  C   UNL A   1      32.965  23.164  22.304  1.00  0.00     0.039 C 
BRANCH  18  19
ATOM     19  C   UNL A   1      31.869  22.269  22.858  1.00  0.00     0.005 C 
BRANCH  19  20
ATOM     20  C   UNL A   1      32.226  20.814  22.602  1.00  0.00    -0.003 C 
ATOM     21  C   UNL A   1      32.549  20.131  23.921  1.00  0.00     0.004 C 
ENDBRANCH  19  20
ENDBRANCH  18  19
ENDBRANCH   9  18
BRANCH  12  22
ATOM     22  S   UNL A   1      37.395  22.855  25.162  1.00  0.00     0.310 S 
ATOM     23  F   UNL A   1      36.716  21.742  26.064  1.00  0.00    -0.094 F 
ATOM     24  F   UNL A   1      37.482  23.753  26.454  1.00  0.00    -0.094 F 
ATOM     25  F   UNL A   1      38.766  22.199  25.492  1.00  0.00    -0.094 F 
ATOM     26  F   UNL A   1      37.226  21.867  23.942  1.00  0.00    -0.094 F 
ATOM     27  F   UNL A   1      35.951  23.431  24.877  1.00  0.00    -0.094 F 
ENDBRANCH  12  22
BRANCH  17  28
ATOM     28  C   UNL A   1      30.344  26.868  24.317  1.00  0.00     0.430 C 
ATOM     29  F   UNL A   1      29.849  26.355  25.440  1.00  0.00    -0.167 F 
ATOM     30  F   UNL A   1      30.102  28.175  24.281  1.00  0.00    -0.167 F 
ATOM     31  F   UNL A   1      29.769  26.281  23.271  1.00  0.00    -0.167 F 
ENDBRANCH  17  28
ENDBRANCH   6   8
ENDBRANCH   5   6
ENDBRANCH   4   5
ENDBRANCH   3   4
ENDBRANCH   2   3
ENDBRANCH   1   2
BRANCH   1  32
ATOM     32  C   UNL A   1      34.320  33.339  29.382  1.00  0.00     0.188 C 
BRANCH  32  33
ATOM     33  O   UNL A   1      33.176  34.180  29.359  1.00  0.00    -0.376 OA
BRANCH  33  34
ATOM     34  C   UNL A   1      33.567  35.501  29.015  1.00  0.00     0.202 C 
BRANCH  34  35
ATOM     35  C   UNL A   1      32.919  36.487  29.974  1.00  0.00     0.261 C 
BRANCH  35  36
ATOM     36  O   UNL A   1      32.285  35.775  31.027  1.00  0.00    -0.460 OA
BRANCH  36  37
ATOM     37  C   UNL A   1      32.823  35.821  32.340  1.00  0.00     0.338 C 
ATOM     38  O   UNL A   1      32.245  36.508  33.240  1.00  0.00    -0.246 OA
BRANCH  37  39
ATOM     39  C   UNL A   1      34.091  35.050  32.670  1.00  0.00     0.060 A 
ATOM     40  C   UNL A   1      35.322  35.650  32.469  1.00  0.00     0.016 A 
ATOM     41  C   UNL A   1      33.997  33.814  33.148  1.00  0.00     0.016 A 
ATOM     42  C   UNL A   1      36.414  34.754  32.530  1.00  0.00     0.010 A 
ATOM     43  C   UNL A   1      35.120  33.040  33.311  1.00  0.00     0.010 A 
ATOM     44  C   UNL A   1      36.367  33.550  33.073  1.00  0.00    -0.014 A 
BRANCH  44  45
ATOM     45  C   UNL A   1      37.627  32.775  33.416  1.00  0.00     0.031 A 
ATOM     46  C   UNL A   1      38.294  33.095  34.601  1.00  0.00     0.074 A 
ATOM     47  C   UNL A   1      38.045  31.794  32.533  1.00  0.00     0.049 A 
ATOM     48  N   UNL A   1      39.388  32.518  35.099  1.00  0.00    -0.248 NA
ATOM     49  C   UNL A   1      37.870  34.158  35.523  1.00  0.00     0.031 C 
ATOM     50  C   UNL A   1      37.375  31.460  31.341  1.00  0.00     0.029 A 
ATOM     51  N   UNL A   1      39.154  30.982  32.635  1.00  0.00    -0.354 N 
ATOM     52  C   UNL A   1      39.718  33.085  36.263  1.00  0.00     0.074 A 
ATOM     53  C   UNL A   1      38.750  34.151  36.549  1.00  0.00     0.031 C 
ATOM     54  C   UNL A   1      38.074  30.469  30.727  1.00  0.00     0.029 A 
ATOM     55  C   UNL A   1      39.193  30.167  31.525  1.00  0.00     0.049 A 
ATOM     56  H   UNL A   1      39.805  30.984  33.373  1.00  0.00     0.167 HD
ATOM     57  C   UNL A   1      40.788  32.751  37.095  1.00  0.00     0.037 A 
ATOM     58  C   UNL A   1      40.144  29.211  31.208  1.00  0.00     0.037 A 
ATOM     59  C   UNL A   1      41.714  31.764  36.800  1.00  0.00     0.049 A 
ATOM     60  C   UNL A   1      41.247  28.917  32.014  1.00  0.00     0.074 A 
ATOM     61  C   UNL A   1      42.793  31.410  37.632  1.00  0.00     0.029 A 
ATOM     62  N   UNL A   1      41.767  30.967  35.677  1.00  0.00    -0.354 N 
ATOM     63  N   UNL A   1      41.554  29.456  33.195  1.00  0.00    -0.248 NA
ATOM     64  C   UNL A   1      42.278  27.929  31.673  1.00  0.00     0.031 C 
ATOM     65  C   UNL A   1      43.492  30.420  37.018  1.00  0.00     0.029 A 
ATOM     66  C   UNL A   1      42.863  30.139  35.791  1.00  0.00     0.049 A 
ATOM     67  H   UNL A   1      41.132  30.984  34.927  1.00  0.00     0.167 HD
ATOM     68  C   UNL A   1      42.674  28.908  33.673  1.00  0.00     0.074 A 
ATOM     69  C   UNL A   1      43.159  27.922  32.697  1.00  0.00     0.031 C 
ATOM     70  C   UNL A   1      43.307  29.187  34.885  1.00  0.00     0.037 A 
BRANCH  57  71
ATOM     71  C   UNL A   1      40.944  33.513  38.401  1.00  0.00     0.064 A 
ATOM     72  C   UNL A   1      41.771  34.623  38.420  1.00  0.00     0.173 A 
ATOM     73  C   UNL A   1      40.243  33.158  39.472  1.00  0.00     0.173 A 
ATOM     74  F   UNL A   1      42.289  35.160  37.319  1.00  0.00    -0.203 F 
ATOM     75  C   UNL A   1      42.015  35.136  39.716  1.00  0.00     0.198 A 
ATOM     76  C   UNL A   1      40.435  33.793  40.676  1.00  0.00     0.198 A 
ATOM     77  F   UNL A   1      39.346  32.180  39.378  1.00  0.00    -0.203 F 
ATOM     78  F   UNL A   1      43.054  35.950  39.874  1.00  0.00    -0.200 F 
ATOM     79  C   UNL A   1      41.282  34.861  40.780  1.00  0.00     0.200 A 
ATOM     80  F   UNL A   1      39.787  33.362  41.754  1.00  0.00    -0.200 F 
ATOM     81  F   UNL A   1      41.364  35.585  41.893  1.00  0.00    -0.200 F 
ENDBRANCH  57  71
BRANCH  58  82
ATOM     82  C   UNL A   1      39.978  28.436  29.910  1.00  0.00     0.064 A 
ATOM     83  C   UNL A   1      39.356  27.199  29.932  1.00  0.00     0.173 A 
ATOM     84  C   UNL A   1      40.498  28.929  28.791  1.00  0.00     0.173 A 
ATOM     85  F   UNL A   1      38.608  26.780  30.948  1.00  0.00    -0.203 F 
ATOM     86  C   UNL A   1      39.589  26.421  28.772  1.00  0.00     0.198 A 
ATOM     87  C   UNL A   1      40.569  28.158  27.656  1.00  0.00     0.198 A 
ATOM     88  F   UNL A   1      40.952  30.177  28.770  1.00  0.00    -0.203 F 
ATOM     89  F   UNL A   1      39.348  25.115  28.845  1.00  0.00    -0.200 F 
ATOM     90  C   UNL A   1      40.028  26.902  27.623  1.00  0.00     0.200 A 
ATOM     91  F   UNL A   1      41.175  28.639  26.575  1.00  0.00    -0.200 F 
ATOM     92  F   UNL A   1      39.949  26.203  26.495  1.00  0.00    -0.200 F 
ENDBRANCH  58  82
BRANCH  70  93
ATOM     93  C   UNL A   1      44.559  28.400  35.234  1.00  0.00     0.064 A 
ATOM     94  C   UNL A   1      44.441  27.227  35.962  1.00  0.00     0.173 A 
ATOM     95  C   UNL A   1      45.744  28.846  34.835  1.00  0.00     0.173 A 
ATOM     96  F   UNL A   1      43.279  26.612  36.165  1.00  0.00    -0.203 F 
ATOM     97  C   UNL A   1      45.670  26.744  36.472  1.00  0.00     0.198 A 
ATOM     98  C   UNL A   1      46.900  28.242  35.264  1.00  0.00     0.198 A 
ATOM     99  F   UNL A   1      45.812  29.888  34.012  1.00  0.00    -0.203 F 
ATOM    100  F   UNL A   1      45.622  25.855  37.460  1.00  0.00    -0.200 F 
ATOM    101  C   UNL A   1      46.859  27.113  36.036  1.00  0.00     0.200 A 
ATOM    102  F   UNL A   1      48.077  28.760  34.923  1.00  0.00    -0.200 F 
ATOM    103  F   UNL A   1      47.959  26.426  36.330  1.00  0.00    -0.200 F 
ENDBRANCH  70  93
ENDBRANCH  44  45
ENDBRANCH  37  39
ENDBRANCH  36  37
ENDBRANCH  35  36
ENDBRANCH  34  35
ENDBRANCH  33  34
ENDBRANCH  32  33
ENDBRANCH   1  32
TORSDOF 22
ENDMDL
MODEL 2
REMARK VINA RESULT:     -11.3      0.602      6.729
REMARK SMILES CCCCc1cc(S(F)(F)(F)(F)F)cc2c1O[C@@H](C(F)(F)F)C(C(=O)OCCOCCOCCOC(=O)c1ccc(-c3c4nc(c(-c5c(F)c(F)c(F)c(F)c5F)c5ccc([nH]5)c(-c5c(F)c(F)c(F)c(F)c5F)c5nc(c(-c6c(F)c(F)c(F)c(F)c6F)c6ccc3[nH]6)C=C5)C=C4)cc1)=C2
REMARK SMILES IDX 30 1 29 2 28 3 27 4 26 5 24 6 25 7 23 8 5 9 6 10 16 11 7 12
REMARK SMILES IDX 15 13 17 14 14 15 101 16 18 17 4 18 3 19 2 20 1 21 8 22 9 23
REMARK SMILES IDX 10 24 11 25 12 26 13 27 19 28 20 29 21 30 22 31 31 32 32 33
REMARK SMILES IDX 33 34 34 35 35 36 36 37 37 38 38 39 39 40 100 41 40 42 99 43
REMARK SMILES IDX 41 44 42 45 43 46 93 47 44 48 98 49 92 50 94 51 45 52 97 53
REMARK SMILES IDX 91 54 90 55 46 57 78 58 58 59 77 60 59 61 62 62 76 63 95 64
REMARK SMILES IDX 60 65 61 66 75 68 96 69 63 70 47 71 48 72 56 73 49 74 50 75
REMARK SMILES IDX 54 76 57 77 51 78 52 79 55 80 53 81 79 82 80 83 88 84 81 85
REMARK SMILES IDX 82 86 86 87 89 88 83 89 84 90 87 91 85 92 64 93 65 94 73 95
REMARK SMILES IDX 66 96 67 97 71 98 74 99 68 100 69 101 72 102 70 103
REMARK H PARENT 94 56 62 67
REMARK Flexibility Score: inf
ROOT
ATOM      1  C   UNL A   1      34.496  32.221  27.830  1.00  0.00     0.188 C 
ENDROOT
BRANCH   1   2
ATOM      2  O   UNL A   1      33.650  31.113  28.100  1.00  0.00    -0.376 OA
BRANCH   2   3
ATOM      3  C   UNL A   1      33.509  30.329  26.925  1.00  0.00     0.202 C 
BRANCH   3   4
ATOM      4  C   UNL A   1      32.061  30.364  26.464  1.00  0.00     0.261 C 
BRANCH   4   5
ATOM      5  O   UNL A   1      31.776  29.195  25.709  1.00  0.00    -0.460 OA
BRANCH   5   6
ATOM      6  C   UNL A   1      31.731  27.930  26.350  1.00  0.00     0.338 C 
ATOM      7  O   UNL A   1      31.190  27.817  27.495  1.00  0.00    -0.246 OA
BRANCH   6   8
ATOM      8  C   UNL A   1      32.329  26.711  25.669  1.00  0.00     0.087 C 
ATOM      9  C   UNL A   1      33.634  23.083  24.061  1.00  0.00    -0.004 A 
ATOM     10  C   UNL A   1      34.894  22.605  24.369  1.00  0.00     0.032 A 
ATOM     11  C   UNL A   1      33.210  24.250  24.646  1.00  0.00     0.131 A 
ATOM     12  C   UNL A   1      35.709  23.276  25.242  1.00  0.00     0.108 A 
ATOM     13  C   UNL A   1      34.011  24.965  25.518  1.00  0.00     0.019 A 
ATOM     14  O   UNL A   1      31.916  24.652  24.420  1.00  0.00    -0.475 OA
ATOM     15  C   UNL A   1      35.271  24.456  25.809  1.00  0.00     0.036 A 
ATOM     16  C   UNL A   1      33.456  26.170  26.114  1.00  0.00     0.027 C 
ATOM     17  C   UNL A   1      31.648  26.082  24.460  1.00  0.00     0.316 C 
BRANCH   9  18
ATOM     18  C   UNL A   1      32.734  22.329  23.094  1.00  0.00     0.039 C 
BRANCH  18  19
ATOM     19  C   UNL A   1      31.995  21.231  23.841  1.00  0.00     0.005 C 
BRANCH  19  20
ATOM     20  C   UNL A   1      32.903  20.021  23.991  1.00  0.00    -0.003 C 
ATOM     21  C   UNL A   1      32.436  18.919  23.054  1.00  0.00     0.004 C 
ENDBRANCH  19  20
ENDBRANCH  18  19
ENDBRANCH   9  18
BRANCH  12  22
ATOM     22  S   UNL A   1      37.346  22.623  25.651  1.00  0.00     0.310 S 
ATOM     23  F   UNL A   1      37.506  21.959  24.219  1.00  0.00    -0.094 F 
ATOM     24  F   UNL A   1      36.663  21.283  26.121  1.00  0.00    -0.094 F 
ATOM     25  F   UNL A   1      38.753  22.061  26.000  1.00  0.00    -0.094 F 
ATOM     26  F   UNL A   1      38.022  23.916  25.047  1.00  0.00    -0.094 F 
ATOM     27  F   UNL A   1      35.935  23.161  25.185  1.00  0.00    -0.094 F 
ENDBRANCH  12  22
BRANCH  17  28
ATOM     28  C   UNL A   1      30.148  26.303  24.566  1.00  0.00     0.430 C 
ATOM     29  F   UNL A   1      29.733  25.959  25.782  1.00  0.00    -0.167 F 
ATOM     30  F   UNL A   1      29.872  27.586  24.349  1.00  0.00    -0.167 F 
ATOM     31  F   UNL A   1      29.525  25.556  23.658  1.00  0.00    -0.167 F 
ENDBRANCH  17  28
ENDBRANCH   6   8
ENDBRANCH   5   6
ENDBRANCH   4   5
ENDBRANCH   3   4
ENDBRANCH   2   3
ENDBRANCH   1   2
BRANCH   1  32
ATOM     32  C   UNL A   1      34.408  33.216  28.976  1.00  0.00     0.188 C 
BRANCH  32  33
ATOM     33  O   UNL A   1      33.388  34.165  28.702  1.00  0.00    -0.376 OA
BRANCH  33  34
ATOM     34  C   UNL A   1      33.862  35.470  29.005  1.00  0.00     0.202 C 
BRANCH  34  35
ATOM     35  C   UNL A   1      32.717  36.311  29.545  1.00  0.00     0.261 C 
BRANCH  35  36
ATOM     36  O   UNL A   1      32.130  35.654  30.658  1.00  0.00    -0.460 OA
BRANCH  36  37
ATOM     37  C   UNL A   1      32.686  35.819  31.954  1.00  0.00     0.338 C 
ATOM     38  O   UNL A   1      32.130  36.601  32.789  1.00  0.00    -0.246 OA
BRANCH  37  39
ATOM     39  C   UNL A   1      33.945  35.062  32.344  1.00  0.00     0.060 A 
ATOM     40  C   UNL A   1      35.147  35.744  32.429  1.00  0.00     0.016 A 
ATOM     41  C   UNL A   1      33.873  33.761  32.599  1.00  0.00     0.016 A 
ATOM     42  C   UNL A   1      36.281  34.902  32.510  1.00  0.00     0.010 A 
ATOM     43  C   UNL A   1      35.013  33.023  32.803  1.00  0.00     0.010 A 
ATOM     44  C   UNL A   1      36.242  33.623  32.841  1.00  0.00    -0.014 A 
BRANCH  44  45
ATOM     45  C   UNL A   1      37.493  32.860  33.241  1.00  0.00     0.031 A 
ATOM     46  C   UNL A   1      37.964  31.870  32.376  1.00  0.00     0.074 A 
ATOM     47  C   UNL A   1      38.096  33.189  34.444  1.00  0.00     0.049 A 
ATOM     48  N   UNL A   1      39.053  31.114  32.522  1.00  0.00    -0.248 NA
ATOM     49  C   UNL A   1      37.307  31.497  31.116  1.00  0.00     0.031 C 
ATOM     50  C   UNL A   1      37.632  34.191  35.318  1.00  0.00     0.029 A 
ATOM     51  N   UNL A   1      39.221  32.626  35.006  1.00  0.00    -0.354 N 
ATOM     52  C   UNL A   1      39.187  30.293  31.478  1.00  0.00     0.074 A 
ATOM     53  C   UNL A   1      38.063  30.523  30.561  1.00  0.00     0.031 C 
ATOM     54  C   UNL A   1      38.457  34.225  36.396  1.00  0.00     0.029 A 
ATOM     55  C   UNL A   1      39.452  33.246  36.215  1.00  0.00     0.049 A 
ATOM     56  H   UNL A   1      39.765  31.907  34.613  1.00  0.00     0.167 HD
ATOM     57  C   UNL A   1      40.204  29.363  31.255  1.00  0.00     0.037 A 
ATOM     58  C   UNL A   1      40.466  32.983  37.122  1.00  0.00     0.037 A 
ATOM     59  C   UNL A   1      41.242  29.131  32.142  1.00  0.00     0.049 A 
ATOM     60  C   UNL A   1      41.450  32.012  36.926  1.00  0.00     0.074 A 
ATOM     61  C   UNL A   1      42.279  28.203  31.929  1.00  0.00     0.029 A 
ATOM     62  N   UNL A   1      41.459  29.733  33.362  1.00  0.00    -0.354 N 
ATOM     63  N   UNL A   1      41.606  31.219  35.864  1.00  0.00    -0.248 NA
ATOM     64  C   UNL A   1      42.510  31.703  37.894  1.00  0.00     0.031 C 
ATOM     65  C   UNL A   1      43.105  28.237  33.007  1.00  0.00     0.029 A 
ATOM     66  C   UNL A   1      42.597  29.187  33.914  1.00  0.00     0.049 A 
ATOM     67  H   UNL A   1      40.899  30.432  33.768  1.00  0.00     0.167 HD
ATOM     68  C   UNL A   1      42.672  30.433  36.030  1.00  0.00     0.074 A 
ATOM     69  C   UNL A   1      43.265  30.728  37.342  1.00  0.00     0.031 C 
ATOM     70  C   UNL A   1      43.176  29.485  35.139  1.00  0.00     0.037 A 
BRANCH  57  71
ATOM     71  C   UNL A   1      40.169  28.560  29.964  1.00  0.00     0.064 A 
ATOM     72  C   UNL A   1      40.864  29.045  28.869  1.00  0.00     0.173 A 
ATOM     73  C   UNL A   1      39.547  27.387  29.921  1.00  0.00     0.173 A 
ATOM     74  F   UNL A   1      41.702  30.076  28.940  1.00  0.00    -0.203 F 
ATOM     75  C   UNL A   1      40.603  28.345  27.668  1.00  0.00     0.198 A 
ATOM     76  C   UNL A   1      39.447  26.692  28.740  1.00  0.00     0.198 A 
ATOM     77  F   UNL A   1      39.018  26.881  31.031  1.00  0.00    -0.203 F 
ATOM     78  F   UNL A   1      40.926  28.940  26.523  1.00  0.00    -0.200 F 
ATOM     79  C   UNL A   1      40.059  27.143  27.604  1.00  0.00     0.200 A 
ATOM     80  F   UNL A   1      38.743  25.564  28.702  1.00  0.00    -0.200 F 
ATOM     81  F   UNL A   1      40.106  26.411  26.495  1.00  0.00    -0.200 F 
ENDBRANCH  57  71
BRANCH  58  82
ATOM     82  C   UNL A   1      40.510  33.799  38.405  1.00  0.00     0.064 A 
ATOM     83  C   UNL A   1      39.648  33.481  39.442  1.00  0.00     0.173 A 
ATOM     84  C   UNL A   1      41.323  34.846  38.479  1.00  0.00     0.173 A 
ATOM     85  F   UNL A   1      39.009  32.318  39.524  1.00  0.00    -0.203 F 
ATOM     86  C   UNL A   1      39.511  34.508  40.406  1.00  0.00     0.198 A 
ATOM     87  C   UNL A   1      41.224  35.735  39.522  1.00  0.00     0.198 A 
ATOM     88  F   UNL A   1      42.240  35.037  37.536  1.00  0.00    -0.203 F 
ATOM     89  F   UNL A   1      38.463  34.453  41.224  1.00  0.00    -0.200 F 
ATOM     90  C   UNL A   1      40.352  35.516  40.553  1.00  0.00     0.200 A 
ATOM     91  F   UNL A   1      41.986  36.824  39.529  1.00  0.00    -0.200 F 
ATOM     92  F   UNL A   1      40.351  36.277  41.643  1.00  0.00    -0.200 F 
ENDBRANCH  58  82
BRANCH  70  93
ATOM     93  C   UNL A   1      44.436  28.733  35.533  1.00  0.00     0.064 A 
ATOM     94  C   UNL A   1      44.325  27.549  36.244  1.00  0.00     0.173 A 
ATOM     95  C   UNL A   1      45.623  29.221  35.189  1.00  0.00     0.173 A 
ATOM     96  F   UNL A   1      43.176  26.896  36.390  1.00  0.00    -0.203 F 
ATOM     97  C   UNL A   1      45.546  27.098  36.801  1.00  0.00     0.198 A 
ATOM     98  C   UNL A   1      46.778  28.648  35.661  1.00  0.00     0.198 A 
ATOM     99  F   UNL A   1      45.692  30.274  34.381  1.00  0.00    -0.203 F 
ATOM    100  F   UNL A   1      45.484  26.198  37.777  1.00  0.00    -0.200 F 
ATOM    101  C   UNL A   1      46.740  27.510  36.419  1.00  0.00     0.200 A 
ATOM    102  F   UNL A   1      47.951  29.207  35.377  1.00  0.00    -0.200 F 
ATOM    103  F   UNL A   1      47.848  26.854  36.754  1.00  0.00    -0.200 F 
ENDBRANCH  70  93
ENDBRANCH  44  45
ENDBRANCH  37  39
ENDBRANCH  36  37
ENDBRANCH  35  36
ENDBRANCH  34  35
ENDBRANCH  33  34
ENDBRANCH  32  33
ENDBRANCH   1  32
TORSDOF 22
ENDMDL
MODEL 3
REMARK VINA RESULT:     -10.9      4.963      7.240
REMARK SMILES CCCCc1cc(S(F)(F)(F)(F)F)cc2c1O[C@@H](C(F)(F)F)C(C(=O)OCCOCCOCCOC(=O)c1ccc(-c3c4nc(c(-c5c(F)c(F)c(F)c(F)c5F)c5ccc([nH]5)c(-c5c(F)c(F)c(F)c(F)c5F)c5nc(c(-c6c(F)c(F)c(F)c(F)c6F)c6ccc3[nH]6)C=C5)C=C4)cc1)=C2
REMARK SMILES IDX 30 1 29 2 28 3 27 4 26 5 24 6 25 7 23 8 5 9 6 10 16 11 7 12
REMARK SMILES IDX 15 13 17 14 14 15 101 16 18 17 4 18 3 19 2 20 1 21 8 22 9 23
REMARK SMILES IDX 10 24 11 25 12 26 13 27 19 28 20 29 21 30 22 31 31 32 32 33
REMARK SMILES IDX 33 34 34 35 35 36 36 37 37 38 38 39 39 40 100 41 40 42 99 43
REMARK SMILES IDX 41 44 42 45 43 46 93 47 44 48 98 49 92 50 94 51 45 52 97 53
REMARK SMILES IDX 91 54 90 55 46 57 78 58 58 59 77 60 59 61 62 62 76 63 95 64
REMARK SMILES IDX 60 65 61 66 75 68 96 69 63 70 47 71 48 72 56 73 49 74 50 75
REMARK SMILES IDX 54 76 57 77 51 78 52 79 55 80 53 81 79 82 80 83 88 84 81 85
REMARK SMILES IDX 82 86 86 87 89 88 83 89 84 90 87 91 85 92 64 93 65 94 73 95
REMARK SMILES IDX 66 96 67 97 71 98 74 99 68 100 69 101 72 102 70 103
REMARK H PARENT 94 56 62 67
REMARK Flexibility Score: inf
ROOT
ATOM      1  C   UNL A   1      33.257  33.240  27.777  1.00  0.00     0.188 C 
ENDROOT
BRANCH   1   2
ATOM      2  O   UNL A   1      31.939  33.091  27.269  1.00  0.00    -0.376 OA
BRANCH   2   3
ATOM      3  C   UNL A   1      31.785  31.787  26.729  1.00  0.00     0.202 C 
BRANCH   3   4
ATOM      4  C   UNL A   1      32.938  30.909  27.188  1.00  0.00     0.261 C 
BRANCH   4   5
ATOM      5  O   UNL A   1      33.082  29.813  26.295  1.00  0.00    -0.460 OA
BRANCH   5   6
ATOM      6  C   UNL A   1      32.682  28.512  26.699  1.00  0.00     0.338 C 
ATOM      7  O   UNL A   1      32.051  28.351  27.790  1.00  0.00    -0.246 OA
BRANCH   6   8
ATOM      8  C   UNL A   1      33.010  27.312  25.826  1.00  0.00     0.087 C 
ATOM      9  C   UNL A   1      33.485  23.800  23.615  1.00  0.00    -0.004 A 
ATOM     10  C   UNL A   1      34.537  22.946  23.893  1.00  0.00     0.032 A 
ATOM     11  C   UNL A   1      33.321  24.920  24.393  1.00  0.00     0.131 A 
ATOM     12  C   UNL A   1      35.401  23.205  24.925  1.00  0.00     0.108 A 
ATOM     13  C   UNL A   1      34.184  25.223  25.430  1.00  0.00     0.019 A 
ATOM     14  O   UNL A   1      32.209  25.696  24.178  1.00  0.00    -0.475 OA
ATOM     15  C   UNL A   1      35.229  24.343  25.686  1.00  0.00     0.036 A 
ATOM     16  C   UNL A   1      33.903  26.412  26.219  1.00  0.00     0.027 C 
ATOM     17  C   UNL A   1      32.321  27.115  24.483  1.00  0.00     0.316 C 
BRANCH   9  18
ATOM     18  C   UNL A   1      32.528  23.503  22.472  1.00  0.00     0.039 C 
BRANCH  18  19
ATOM     19  C   UNL A   1      31.512  22.464  22.918  1.00  0.00     0.005 C 
BRANCH  19  20
ATOM     20  C   UNL A   1      31.855  21.121  22.293  1.00  0.00    -0.003 C 
ATOM     21  C   UNL A   1      32.456  20.208  23.349  1.00  0.00     0.004 C 
ENDBRANCH  19  20
ENDBRANCH  18  19
ENDBRANCH   9  18
BRANCH  12  22
ATOM     22  S   UNL A   1      36.758  22.063  25.287  1.00  0.00     0.310 S 
ATOM     23  F   UNL A   1      36.214  20.991  24.253  1.00  0.00    -0.094 F 
ATOM     24  F   UNL A   1      35.850  21.374  26.375  1.00  0.00    -0.094 F 
ATOM     25  F   UNL A   1      37.924  21.083  25.597  1.00  0.00    -0.094 F 
ATOM     26  F   UNL A   1      37.600  22.675  24.099  1.00  0.00    -0.094 F 
ATOM     27  F   UNL A   1      35.543  22.991  24.884  1.00  0.00    -0.094 F 
ENDBRANCH  12  22
BRANCH  17  28
ATOM     28  C   UNL A   1      30.928  27.720  24.546  1.00  0.00     0.430 C 
ATOM     29  F   UNL A   1      31.003  29.029  24.318  1.00  0.00    -0.167 F 
ATOM     30  F   UNL A   1      30.155  27.152  23.624  1.00  0.00    -0.167 F 
ATOM     31  F   UNL A   1      30.408  27.510  25.752  1.00  0.00    -0.167 F 
ENDBRANCH  17  28
ENDBRANCH   6   8
ENDBRANCH   5   6
ENDBRANCH   4   5
ENDBRANCH   3   4
ENDBRANCH   2   3
ENDBRANCH   1   2
BRANCH   1  32
ATOM     32  C   UNL A   1      33.300  34.422  28.732  1.00  0.00     0.188 C 
BRANCH  32  33
ATOM     33  O   UNL A   1      34.458  34.328  29.549  1.00  0.00    -0.376 OA
BRANCH  33  34
ATOM     34  C   UNL A   1      34.583  33.002  30.042  1.00  0.00     0.202 C 
BRANCH  34  35
ATOM     35  C   UNL A   1      34.444  33.009  31.555  1.00  0.00     0.261 C 
BRANCH  35  36
ATOM     36  O   UNL A   1      35.643  33.497  32.139  1.00  0.00    -0.460 OA
BRANCH  36  37
ATOM     37  C   UNL A   1      36.542  32.598  32.772  1.00  0.00     0.338 C 
ATOM     38  O   UNL A   1      36.324  32.217  33.965  1.00  0.00    -0.246 OA
BRANCH  37  39
ATOM     39  C   UNL A   1      37.764  32.092  32.024  1.00  0.00     0.060 A 
ATOM     40  C   UNL A   1      38.747  31.405  32.717  1.00  0.00     0.016 A 
ATOM     41  C   UNL A   1      37.869  32.314  30.719  1.00  0.00     0.016 A 
ATOM     42  C   UNL A   1      39.952  31.242  31.993  1.00  0.00     0.010 A 
ATOM     43  C   UNL A   1      39.027  32.006  30.047  1.00  0.00     0.010 A 
ATOM     44  C   UNL A   1      40.063  31.379  30.684  1.00  0.00    -0.014 A 
BRANCH  44  45
ATOM     45  C   UNL A   1      41.277  30.868  29.925  1.00  0.00     0.031 A 
ATOM     46  C   UNL A   1      42.284  31.781  29.605  1.00  0.00     0.074 A 
ATOM     47  C   UNL A   1      41.315  29.524  29.592  1.00  0.00     0.049 A 
ATOM     48  N   UNL A   1      43.435  31.534  28.978  1.00  0.00    -0.248 NA
ATOM     49  C   UNL A   1      42.230  33.213  29.928  1.00  0.00     0.031 C 
ATOM     50  C   UNL A   1      40.307  28.596  29.918  1.00  0.00     0.029 A 
ATOM     51  N   UNL A   1      42.300  28.852  28.903  1.00  0.00    -0.354 N 
ATOM     52  C   UNL A   1      44.150  32.657  28.870  1.00  0.00     0.074 A 
ATOM     53  C   UNL A   1      43.383  33.754  29.474  1.00  0.00     0.031 C 
ATOM     54  C   UNL A   1      40.674  27.385  29.424  1.00  0.00     0.029 A 
ATOM     55  C   UNL A   1      41.917  27.535  28.781  1.00  0.00     0.049 A 
ATOM     56  H   UNL A   1      43.134  29.245  28.559  1.00  0.00     0.167 HD
ATOM     57  C   UNL A   1      45.412  32.806  28.293  1.00  0.00     0.037 A 
ATOM     58  C   UNL A   1      42.599  26.508  28.147  1.00  0.00     0.037 A 
ATOM     59  C   UNL A   1      46.113  31.771  27.697  1.00  0.00     0.049 A 
ATOM     60  C   UNL A   1      43.836  26.671  27.518  1.00  0.00     0.074 A 
ATOM     61  C   UNL A   1      47.389  31.903  27.117  1.00  0.00     0.029 A 
ATOM     62  N   UNL A   1      45.718  30.459  27.553  1.00  0.00    -0.354 N 
ATOM     63  N   UNL A   1      44.567  27.784  27.445  1.00  0.00    -0.248 NA
ATOM     64  C   UNL A   1      44.551  25.599  26.815  1.00  0.00     0.031 C 
ATOM     65  C   UNL A   1      47.757  30.692  26.624  1.00  0.00     0.029 A 
ATOM     66  C   UNL A   1      46.715  29.781  26.884  1.00  0.00     0.049 A 
ATOM     67  H   UNL A   1      44.872  30.072  27.873  1.00  0.00     0.167 HD
ATOM     68  C   UNL A   1      45.700  27.546  26.781  1.00  0.00     0.074 A 
ATOM     69  C   UNL A   1      45.703  26.138  26.359  1.00  0.00     0.031 C 
ATOM     70  C   UNL A   1      46.733  28.445  26.512  1.00  0.00     0.037 A 
BRANCH  57  71
ATOM     71  C   UNL A   1      46.054  34.184  28.321  1.00  0.00     0.064 A 
ATOM     72  C   UNL A   1      45.781  35.058  27.283  1.00  0.00     0.173 A 
ATOM     73  C   UNL A   1      46.798  34.556  29.357  1.00  0.00     0.173 A 
ATOM     74  F   UNL A   1      44.849  34.823  26.363  1.00  0.00    -0.203 F 
ATOM     75  C   UNL A   1      46.581  36.225  27.289  1.00  0.00     0.198 A 
ATOM     76  C   UNL A   1      47.443  35.769  29.355  1.00  0.00     0.198 A 
ATOM     77  F   UNL A   1      46.917  33.747  30.406  1.00  0.00    -0.203 F 
ATOM     78  F   UNL A   1      46.651  36.934  26.165  1.00  0.00    -0.200 F 
ATOM     79  C   UNL A   1      47.265  36.659  28.332  1.00  0.00     0.200 A 
ATOM     80  F   UNL A   1      48.252  36.082  30.363  1.00  0.00    -0.200 F 
ATOM     81  F   UNL A   1      47.753  37.895  28.385  1.00  0.00    -0.200 F 
ENDBRANCH  57  71
BRANCH  58  82
ATOM     82  C   UNL A   1      41.964  25.127  28.134  1.00  0.00     0.064 A 
ATOM     83  C   UNL A   1      42.500  24.125  28.926  1.00  0.00     0.173 A 
ATOM     84  C   UNL A   1      40.952  24.886  27.308  1.00  0.00     0.173 A 
ATOM     85  F   UNL A   1      43.329  24.366  29.938  1.00  0.00    -0.203 F 
ATOM     86  C   UNL A   1      42.085  22.823  28.561  1.00  0.00     0.198 A 
ATOM     87  C   UNL A   1      40.508  23.602  27.102  1.00  0.00     0.198 A 
ATOM     88  F   UNL A   1      40.364  25.896  26.675  1.00  0.00    -0.203 F 
ATOM     89  F   UNL A   1      42.802  21.796  29.009  1.00  0.00    -0.200 F 
ATOM     90  C   UNL A   1      41.033  22.555  27.808  1.00  0.00     0.200 A 
ATOM     91  F   UNL A   1      39.555  23.375  26.204  1.00  0.00    -0.200 F 
ATOM     92  F   UNL A   1      40.514  21.333  27.738  1.00  0.00    -0.200 F 
ENDBRANCH  58  82
BRANCH  70  93
ATOM     93  C   UNL A   1      47.953  27.930  25.767  1.00  0.00     0.064 A 
ATOM     94  C   UNL A   1      47.911  27.828  24.386  1.00  0.00     0.173 A 
ATOM     95  C   UNL A   1      49.039  27.587  26.450  1.00  0.00     0.173 A 
ATOM     96  F   UNL A   1      46.957  28.387  23.646  1.00  0.00    -0.203 F 
ATOM     97  C   UNL A   1      48.974  27.074  23.834  1.00  0.00     0.198 A 
ATOM     98  C   UNL A   1      50.097  26.977  25.821  1.00  0.00     0.198 A 
ATOM     99  F   UNL A   1      49.103  27.838  27.754  1.00  0.00    -0.203 F 
ATOM    100  F   UNL A   1      48.831  26.621  22.593  1.00  0.00    -0.200 F 
ATOM    101  C   UNL A   1      50.097  26.790  24.466  1.00  0.00     0.200 A 
ATOM    102  F   UNL A   1      51.136  26.563  26.540  1.00  0.00    -0.200 F 
ATOM    103  F   UNL A   1      51.172  26.346  23.821  1.00  0.00    -0.200 F 
ENDBRANCH  70  93
ENDBRANCH  44  45
ENDBRANCH  37  39
ENDBRANCH  36  37
ENDBRANCH  35  36
ENDBRANCH  34  35
ENDBRANCH  33  34
ENDBRANCH  32  33
ENDBRANCH   1  32
TORSDOF 22
ENDMDL
