MODEL 1
REMARK VINA RESULT:     -11.3      0.000      0.000
REMARK SMILES O=C(OCCOCCOCCOC(=O)[C@H]1CCC(=O)N(C2CCCCC2)[C@H]1c1ccccc1)c1ccc(-c2c3nc(c(-c4c(F)c(F)c(F)c(F)c4F)c4ccc([nH]4)c(-c4c(F)c(F)c(F)c(F)c4F)c4nc(c(-c5c(F)c(F)c(F)c(F)c5F)c5ccc2[nH]5)C=C4)C=C3)cc1
REMARK SMILES IDX 7 1 6 2 5 3 4 4 3 5 2 6 1 7 34 8 35 9 96 10 36 11 95 12
REMARK SMILES IDX 37 13 38 14 39 15 89 16 40 17 94 18 88 19 90 20 41 21 93 22
REMARK SMILES IDX 87 23 86 24 42 26 74 27 54 28 73 29 55 30 58 31 72 32 91 33
REMARK SMILES IDX 56 34 57 35 71 37 92 38 59 39 43 40 44 41 52 42 45 43 46 44
REMARK SMILES IDX 50 45 53 46 47 47 48 48 51 49 49 50 75 51 76 52 84 53 77 54
REMARK SMILES IDX 78 55 82 56 85 57 79 58 80 59 83 60 81 61 60 62 61 63 69 64
REMARK SMILES IDX 62 65 63 66 67 67 70 68 64 69 65 70 68 71 66 72 8 73 9 74
REMARK SMILES IDX 10 75 11 76 12 77 13 78 14 79 15 80 16 81 27 82 17 83 20 84
REMARK SMILES IDX 18 85 19 86 28 87 29 88 33 89 30 90 32 91 31 92 21 93 22 94
REMARK SMILES IDX 26 95 23 96 25 97 24 98
REMARK H PARENT 90 25 58 36
REMARK Flexibility Score: inf
ROOT
ATOM      1  C   UNL A   1      35.974  17.725  24.992  1.00  0.00     0.188 C 
ENDROOT
BRANCH   1   2
ATOM      2  O   UNL A   1      36.314  19.096  24.765  1.00  0.00    -0.376 OA
BRANCH   2   3
ATOM      3  C   UNL A   1      37.721  19.329  24.686  1.00  0.00     0.202 C 
BRANCH   3   4
ATOM      4  C   UNL A   1      38.242  20.386  25.667  1.00  0.00     0.261 C 
BRANCH   4   5
ATOM      5  O   UNL A   1      39.660  20.304  25.881  1.00  0.00    -0.460 OA
BRANCH   5   6
ATOM      6  C   UNL A   1      40.375  20.765  26.934  1.00  0.00     0.338 C 
ATOM      7  O   UNL A   1      40.856  19.947  27.717  1.00  0.00    -0.246 OA
BRANCH   6   8
ATOM      8  C   UNL A   1      40.638  22.215  27.196  1.00  0.00     0.060 A 
ATOM      9  C   UNL A   1      39.939  23.280  26.626  1.00  0.00     0.016 A 
ATOM     10  C   UNL A   1      41.612  22.520  28.161  1.00  0.00     0.016 A 
ATOM     11  C   UNL A   1      40.260  24.605  26.916  1.00  0.00     0.010 A 
ATOM     12  C   UNL A   1      41.881  23.842  28.525  1.00  0.00     0.010 A 
ATOM     13  C   UNL A   1      41.245  24.894  27.855  1.00  0.00    -0.014 A 
BRANCH  13  14
ATOM     14  C   UNL A   1      41.752  26.277  27.984  1.00  0.00     0.031 A 
ATOM     15  C   UNL A   1      43.116  26.570  27.433  1.00  0.00     0.074 A 
ATOM     16  C   UNL A   1      41.003  27.254  28.523  1.00  0.00     0.049 A 
ATOM     17  N   UNL A   1      43.832  27.657  27.515  1.00  0.00    -0.248 NA
ATOM     18  C   UNL A   1      43.752  25.483  26.670  1.00  0.00     0.031 C 
ATOM     19  C   UNL A   1      39.621  27.106  28.967  1.00  0.00     0.029 A 
ATOM     20  N   UNL A   1      41.307  28.559  28.814  1.00  0.00    -0.354 N 
ATOM     21  C   UNL A   1      45.005  27.379  26.829  1.00  0.00     0.074 A 
ATOM     22  C   UNL A   1      44.928  26.009  26.376  1.00  0.00     0.031 C 
ATOM     23  C   UNL A   1      39.219  28.246  29.551  1.00  0.00     0.029 A 
ATOM     24  C   UNL A   1      40.322  29.198  29.528  1.00  0.00     0.049 A 
ATOM     25  H   UNL A   1      42.146  28.994  28.539  1.00  0.00     0.167 HD
ATOM     26  C   UNL A   1      46.047  28.205  26.583  1.00  0.00     0.037 A 
ATOM     27  C   UNL A   1      40.334  30.403  30.128  1.00  0.00     0.037 A 
ATOM     28  C   UNL A   1      46.098  29.564  27.042  1.00  0.00     0.049 A 
ATOM     29  C   UNL A   1      41.547  31.273  29.948  1.00  0.00     0.074 A 
ATOM     30  C   UNL A   1      47.095  30.504  26.865  1.00  0.00     0.029 A 
ATOM     31  N   UNL A   1      45.095  30.173  27.787  1.00  0.00    -0.354 N 
ATOM     32  N   UNL A   1      42.656  31.012  29.297  1.00  0.00    -0.248 NA
ATOM     33  C   UNL A   1      41.508  32.606  30.559  1.00  0.00     0.031 C 
ATOM     34  C   UNL A   1      46.715  31.667  27.545  1.00  0.00     0.029 A 
ATOM     35  C   UNL A   1      45.460  31.469  28.102  1.00  0.00     0.049 A 
ATOM     36  H   UNL A   1      44.248  29.745  28.051  1.00  0.00     0.167 HD
ATOM     37  C   UNL A   1      43.434  32.156  29.387  1.00  0.00     0.074 A 
ATOM     38  C   UNL A   1      42.668  33.114  30.161  1.00  0.00     0.031 C 
ATOM     39  C   UNL A   1      44.662  32.397  28.867  1.00  0.00     0.037 A 
BRANCH  26  40
ATOM     40  C   UNL A   1      47.208  27.623  25.833  1.00  0.00     0.064 A 
ATOM     41  C   UNL A   1      48.286  27.011  26.494  1.00  0.00     0.173 A 
ATOM     42  C   UNL A   1      47.281  27.746  24.438  1.00  0.00     0.173 A 
ATOM     43  F   UNL A   1      48.281  26.896  27.831  1.00  0.00    -0.203 F 
ATOM     44  C   UNL A   1      49.414  26.593  25.792  1.00  0.00     0.198 A 
ATOM     45  C   UNL A   1      48.397  27.297  23.736  1.00  0.00     0.198 A 
ATOM     46  F   UNL A   1      46.281  28.326  23.758  1.00  0.00    -0.203 F 
ATOM     47  F   UNL A   1      50.465  26.090  26.454  1.00  0.00    -0.200 F 
ATOM     48  C   UNL A   1      49.468  26.736  24.413  1.00  0.00     0.200 A 
ATOM     49  F   UNL A   1      48.446  27.434  22.404  1.00  0.00    -0.200 F 
ATOM     50  F   UNL A   1      50.562  26.353  23.741  1.00  0.00    -0.200 F 
ENDBRANCH  26  40
BRANCH  27  51
ATOM     51  C   UNL A   1      39.173  30.824  30.954  1.00  0.00     0.064 A 
ATOM     52  C   UNL A   1      38.094  31.527  30.402  1.00  0.00     0.173 A 
ATOM     53  C   UNL A   1      39.105  30.496  32.319  1.00  0.00     0.173 A 
ATOM     54  F   UNL A   1      38.117  31.877  29.108  1.00  0.00    -0.203 F 
ATOM     55  C   UNL A   1      36.997  31.892  31.183  1.00  0.00     0.198 A 
ATOM     56  C   UNL A   1      37.999  30.842  33.093  1.00  0.00     0.198 A 
ATOM     57  F   UNL A   1      40.107  29.817  32.896  1.00  0.00    -0.203 F 
ATOM     58  F   UNL A   1      35.990  32.586  30.634  1.00  0.00    -0.200 F 
ATOM     59  C   UNL A   1      36.947  31.544  32.525  1.00  0.00     0.200 A 
ATOM     60  F   UNL A   1      37.949  30.490  34.384  1.00  0.00    -0.200 F 
ATOM     61  F   UNL A   1      35.886  31.886  33.269  1.00  0.00    -0.200 F 
ENDBRANCH  27  51
BRANCH  39  62
ATOM     62  C   UNL A   1      45.238  33.763  29.083  1.00  0.00     0.064 A 
ATOM     63  C   UNL A   1      46.093  34.036  30.159  1.00  0.00     0.173 A 
ATOM     64  C   UNL A   1      44.996  34.782  28.150  1.00  0.00     0.173 A 
ATOM     65  F   UNL A   1      46.339  33.096  31.082  1.00  0.00    -0.203 F 
ATOM     66  C   UNL A   1      46.679  35.290  30.298  1.00  0.00     0.198 A 
ATOM     67  C   UNL A   1      45.606  36.024  28.278  1.00  0.00     0.198 A 
ATOM     68  F   UNL A   1      44.189  34.562  27.102  1.00  0.00    -0.203 F 
ATOM     69  F   UNL A   1      47.472  35.543  31.349  1.00  0.00    -0.200 F 
ATOM     70  C   UNL A   1      46.446  36.278  29.352  1.00  0.00     0.200 A 
ATOM     71  F   UNL A   1      45.391  36.973  27.356  1.00  0.00    -0.200 F 
ATOM     72  F   UNL A   1      47.029  37.478  29.478  1.00  0.00    -0.200 F 
ENDBRANCH  39  62
ENDBRANCH  13  14
ENDBRANCH   6   8
ENDBRANCH   5   6
ENDBRANCH   4   5
ENDBRANCH   3   4
ENDBRANCH   2   3
ENDBRANCH   1   2
BRANCH   1  73
ATOM     73  C   UNL A   1      34.671  17.370  24.282  1.00  0.00     0.188 C 
BRANCH  73  74
ATOM     74  O   UNL A   1      33.545  17.139  25.130  1.00  0.00    -0.376 OA
BRANCH  74  75
ATOM     75  C   UNL A   1      32.486  18.096  25.071  1.00  0.00     0.202 C 
BRANCH  75  76
ATOM     76  C   UNL A   1      32.594  19.130  23.942  1.00  0.00     0.261 C 
BRANCH  76  77
ATOM     77  O   UNL A   1      32.708  20.484  24.429  1.00  0.00    -0.463 OA
BRANCH  77  78
ATOM     78  C   UNL A   1      32.193  21.438  23.603  1.00  0.00     0.311 C 
ATOM     79  O   UNL A   1      32.154  21.340  22.381  1.00  0.00    -0.252 OA
BRANCH  78  80
ATOM     80  C   UNL A   1      31.732  22.665  24.374  1.00  0.00     0.127 C 
ATOM     81  C   UNL A   1      31.677  22.330  25.859  1.00  0.00     0.028 C 
ATOM     82  C   UNL A   1      32.587  23.937  24.179  1.00  0.00     0.130 C 
ATOM     83  C   UNL A   1      31.058  23.465  26.639  1.00  0.00     0.101 C 
ATOM     84  N   UNL A   1      32.056  25.068  25.002  1.00  0.00    -0.332 N 
ATOM     85  C   UNL A   1      31.440  24.869  26.233  1.00  0.00     0.223 C 
ATOM     86  O   UNL A   1      31.109  25.792  26.980  1.00  0.00    -0.275 OA
BRANCH  82  87
ATOM     87  C   UNL A   1      34.092  23.734  24.387  1.00  0.00    -0.025 A 
ATOM     88  C   UNL A   1      34.684  23.748  25.660  1.00  0.00     0.006 A 
ATOM     89  C   UNL A   1      34.942  23.535  23.284  1.00  0.00     0.006 A 
ATOM     90  C   UNL A   1      36.068  23.636  25.819  1.00  0.00     0.000 A 
ATOM     91  C   UNL A   1      36.322  23.394  23.443  1.00  0.00     0.000 A 
ATOM     92  C   UNL A   1      36.887  23.461  24.711  1.00  0.00     0.000 A 
ENDBRANCH  82  87
BRANCH  84  93
ATOM     93  C   UNL A   1      32.319  26.467  24.544  1.00  0.00     0.085 C 
ATOM     94  C   UNL A   1      33.602  27.028  25.184  1.00  0.00     0.025 C 
ATOM     95  C   UNL A   1      32.327  26.619  23.007  1.00  0.00     0.025 C 
ATOM     96  C   UNL A   1      34.003  28.405  24.666  1.00  0.00     0.002 C 
ATOM     97  C   UNL A   1      32.751  28.010  22.540  1.00  0.00     0.002 C 
ATOM     98  C   UNL A   1      34.083  28.425  23.147  1.00  0.00     0.000 C 
ENDBRANCH  84  93
ENDBRANCH  78  80
ENDBRANCH  77  78
ENDBRANCH  76  77
ENDBRANCH  75  76
ENDBRANCH  74  75
ENDBRANCH  73  74
ENDBRANCH   1  73
TORSDOF 19
ENDMDL
MODEL 2
REMARK VINA RESULT:     -11.3      0.455      7.167
REMARK SMILES O=C(OCCOCCOCCOC(=O)[C@H]1CCC(=O)N(C2CCCCC2)[C@H]1c1ccccc1)c1ccc(-c2c3nc(c(-c4c(F)c(F)c(F)c(F)c4F)c4ccc([nH]4)c(-c4c(F)c(F)c(F)c(F)c4F)c4nc(c(-c5c(F)c(F)c(F)c(F)c5F)c5ccc2[nH]5)C=C4)C=C3)cc1
REMARK SMILES IDX 7 1 6 2 5 3 4 4 3 5 2 6 1 7 34 8 35 9 96 10 36 11 95 12
REMARK SMILES IDX 37 13 38 14 39 15 89 16 40 17 94 18 88 19 90 20 41 21 93 22
REMARK SMILES IDX 87 23 86 24 42 26 74 27 54 28 73 29 55 30 58 31 72 32 91 33
REMARK SMILES IDX 56 34 57 35 71 37 92 38 59 39 43 40 44 41 52 42 45 43 46 44
REMARK SMILES IDX 50 45 53 46 47 47 48 48 51 49 49 50 75 51 76 52 84 53 77 54
REMARK SMILES IDX 78 55 82 56 85 57 79 58 80 59 83 60 81 61 60 62 61 63 69 64
REMARK SMILES IDX 62 65 63 66 67 67 70 68 64 69 65 70 68 71 66 72 8 73 9 74
REMARK SMILES IDX 10 75 11 76 12 77 13 78 14 79 15 80 16 81 27 82 17 83 20 84
REMARK SMILES IDX 18 85 19 86 28 87 29 88 33 89 30 90 32 91 31 92 21 93 22 94
REMARK SMILES IDX 26 95 23 96 25 97 24 98
REMARK H PARENT 90 25 58 36
REMARK Flexibility Score: inf
ROOT
ATOM      1  C   UNL A   1      35.914  17.752  25.001  1.00  0.00     0.188 C 
ENDROOT
BRANCH   1   2
ATOM      2  O   UNL A   1      36.201  19.150  24.893  1.00  0.00    -0.376 OA
BRANCH   2   3
ATOM      3  C   UNL A   1      37.576  19.432  24.627  1.00  0.00     0.202 C 
BRANCH   3   4
ATOM      4  C   UNL A   1      38.212  20.438  25.594  1.00  0.00     0.261 C 
BRANCH   4   5
ATOM      5  O   UNL A   1      39.616  20.214  25.793  1.00  0.00    -0.460 OA
BRANCH   5   6
ATOM      6  C   UNL A   1      40.388  20.613  26.832  1.00  0.00     0.338 C 
ATOM      7  O   UNL A   1      40.810  19.756  27.608  1.00  0.00    -0.246 OA
BRANCH   6   8
ATOM      8  C   UNL A   1      40.781  22.035  27.085  1.00  0.00     0.060 A 
ATOM      9  C   UNL A   1      40.328  23.140  26.363  1.00  0.00     0.016 A 
ATOM     10  C   UNL A   1      41.606  22.277  28.196  1.00  0.00     0.016 A 
ATOM     11  C   UNL A   1      40.757  24.433  26.659  1.00  0.00     0.010 A 
ATOM     12  C   UNL A   1      41.972  23.578  28.555  1.00  0.00     0.010 A 
ATOM     13  C   UNL A   1      41.596  24.657  27.746  1.00  0.00    -0.014 A 
BRANCH  13  14
ATOM     14  C   UNL A   1      42.242  25.977  27.914  1.00  0.00     0.031 A 
ATOM     15  C   UNL A   1      41.467  27.042  28.629  1.00  0.00     0.074 A 
ATOM     16  C   UNL A   1      43.498  26.204  27.493  1.00  0.00     0.049 A 
ATOM     17  N   UNL A   1      41.752  28.303  28.809  1.00  0.00    -0.248 NA
ATOM     18  C   UNL A   1      40.195  26.618  29.239  1.00  0.00     0.031 C 
ATOM     19  C   UNL A   1      44.383  25.202  26.907  1.00  0.00     0.029 A 
ATOM     20  N   UNL A   1      44.241  27.356  27.470  1.00  0.00    -0.354 N 
ATOM     21  C   UNL A   1      40.692  28.822  29.536  1.00  0.00     0.074 A 
ATOM     22  C   UNL A   1      39.735  27.756  29.727  1.00  0.00     0.031 C 
ATOM     23  C   UNL A   1      45.518  25.795  26.504  1.00  0.00     0.029 A 
ATOM     24  C   UNL A   1      45.431  27.220  26.797  1.00  0.00     0.049 A 
ATOM     25  H   UNL A   1      43.950  28.196  27.893  1.00  0.00     0.167 HD
ATOM     26  C   UNL A   1      40.542  30.076  30.020  1.00  0.00     0.037 A 
ATOM     27  C   UNL A   1      46.326  28.155  26.427  1.00  0.00     0.037 A 
ATOM     28  C   UNL A   1      41.511  31.116  29.818  1.00  0.00     0.049 A 
ATOM     29  C   UNL A   1      46.093  29.574  26.868  1.00  0.00     0.074 A 
ATOM     30  C   UNL A   1      41.478  32.428  30.251  1.00  0.00     0.029 A 
ATOM     31  N   UNL A   1      42.694  30.952  29.108  1.00  0.00    -0.354 N 
ATOM     32  N   UNL A   1      45.091  30.065  27.560  1.00  0.00    -0.248 NA
ATOM     33  C   UNL A   1      47.115  30.561  26.506  1.00  0.00     0.031 C 
ATOM     34  C   UNL A   1      42.620  33.071  29.760  1.00  0.00     0.029 A 
ATOM     35  C   UNL A   1      43.389  32.147  29.065  1.00  0.00     0.049 A 
ATOM     36  H   UNL A   1      42.994  30.110  28.696  1.00  0.00     0.167 HD
ATOM     37  C   UNL A   1      45.375  31.408  27.747  1.00  0.00     0.074 A 
ATOM     38  C   UNL A   1      46.646  31.655  27.092  1.00  0.00     0.031 C 
ATOM     39  C   UNL A   1      44.659  32.349  28.410  1.00  0.00     0.037 A 
BRANCH  26  40
ATOM     40  C   UNL A   1      39.268  30.369  30.754  1.00  0.00     0.064 A 
ATOM     41  C   UNL A   1      38.139  30.892  30.102  1.00  0.00     0.173 A 
ATOM     42  C   UNL A   1      39.199  30.197  32.144  1.00  0.00     0.173 A 
ATOM     43  F   UNL A   1      38.164  31.105  28.777  1.00  0.00    -0.203 F 
ATOM     44  C   UNL A   1      37.010  31.278  30.820  1.00  0.00     0.198 A 
ATOM     45  C   UNL A   1      38.057  30.556  32.855  1.00  0.00     0.198 A 
ATOM     46  F   UNL A   1      40.250  29.706  32.818  1.00  0.00    -0.203 F 
ATOM     47  F   UNL A   1      35.979  31.854  30.186  1.00  0.00    -0.200 F 
ATOM     48  C   UNL A   1      36.971  31.110  32.196  1.00  0.00     0.200 A 
ATOM     49  F   UNL A   1      38.018  30.389  34.184  1.00  0.00    -0.200 F 
ATOM     50  F   UNL A   1      35.893  31.502  32.889  1.00  0.00    -0.200 F 
ENDBRANCH  26  40
BRANCH  27  51
ATOM     51  C   UNL A   1      47.490  27.768  25.588  1.00  0.00     0.064 A 
ATOM     52  C   UNL A   1      47.426  27.789  24.189  1.00  0.00     0.173 A 
ATOM     53  C   UNL A   1      48.711  27.402  26.178  1.00  0.00     0.173 A 
ATOM     54  F   UNL A   1      46.279  28.118  23.577  1.00  0.00    -0.203 F 
ATOM     55  C   UNL A   1      48.535  27.451  23.412  1.00  0.00     0.198 A 
ATOM     56  C   UNL A   1      49.824  27.085  25.401  1.00  0.00     0.198 A 
ATOM     57  F   UNL A   1      48.830  27.373  27.514  1.00  0.00    -0.203 F 
ATOM     58  F   UNL A   1      48.438  27.456  22.076  1.00  0.00    -0.200 F 
ATOM     59  C   UNL A   1      49.734  27.106  24.018  1.00  0.00     0.200 A 
ATOM     60  F   UNL A   1      50.984  26.768  25.992  1.00  0.00    -0.200 F 
ATOM     61  F   UNL A   1      50.800  26.793  23.269  1.00  0.00    -0.200 F 
ENDBRANCH  27  51
BRANCH  39  62
ATOM     62  C   UNL A   1      45.251  33.722  28.496  1.00  0.00     0.064 A 
ATOM     63  C   UNL A   1      44.938  34.716  27.559  1.00  0.00     0.173 A 
ATOM     64  C   UNL A   1      46.074  34.066  29.580  1.00  0.00     0.173 A 
ATOM     65  F   UNL A   1      44.168  34.427  26.500  1.00  0.00    -0.203 F 
ATOM     66  C   UNL A   1      45.436  36.007  27.700  1.00  0.00     0.198 A 
ATOM     67  C   UNL A   1      46.546  35.364  29.732  1.00  0.00     0.198 A 
ATOM     68  F   UNL A   1      46.394  33.148  30.504  1.00  0.00    -0.203 F 
ATOM     69  F   UNL A   1      45.149  36.938  26.780  1.00  0.00    -0.200 F 
ATOM     70  C   UNL A   1      46.229  36.333  28.791  1.00  0.00     0.200 A 
ATOM     71  F   UNL A   1      47.300  35.682  30.793  1.00  0.00    -0.200 F 
ATOM     72  F   UNL A   1      46.690  37.583  28.935  1.00  0.00    -0.200 F 
ENDBRANCH  39  62
ENDBRANCH  13  14
ENDBRANCH   6   8
ENDBRANCH   5   6
ENDBRANCH   4   5
ENDBRANCH   3   4
ENDBRANCH   2   3
ENDBRANCH   1   2
BRANCH   1  73
ATOM     73  C   UNL A   1      34.683  17.390  24.178  1.00  0.00     0.188 C 
BRANCH  73  74
ATOM     74  O   UNL A   1      33.504  17.085  24.925  1.00  0.00    -0.376 OA
BRANCH  74  75
ATOM     75  C   UNL A   1      32.384  17.954  24.746  1.00  0.00     0.202 C 
BRANCH  75  76
ATOM     76  C   UNL A   1      32.541  19.013  23.646  1.00  0.00     0.261 C 
BRANCH  76  77
ATOM     77  O   UNL A   1      32.663  20.353  24.169  1.00  0.00    -0.463 OA
BRANCH  77  78
ATOM     78  C   UNL A   1      32.159  21.332  23.365  1.00  0.00     0.311 C 
ATOM     79  O   UNL A   1      32.154  21.281  22.141  1.00  0.00    -0.252 OA
BRANCH  78  80
ATOM     80  C   UNL A   1      31.662  22.523  24.170  1.00  0.00     0.127 C 
ATOM     81  C   UNL A   1      31.572  22.130  25.640  1.00  0.00     0.028 C 
ATOM     82  C   UNL A   1      32.504  23.811  24.046  1.00  0.00     0.130 C 
ATOM     83  C   UNL A   1      30.918  23.227  26.446  1.00  0.00     0.101 C 
ATOM     84  N   UNL A   1      31.937  24.904  24.897  1.00  0.00    -0.332 N 
ATOM     85  C   UNL A   1      31.292  24.650  26.103  1.00  0.00     0.223 C 
ATOM     86  O   UNL A   1      30.929  25.540  26.876  1.00  0.00    -0.275 OA
BRANCH  82  87
ATOM     87  C   UNL A   1      34.006  23.619  24.286  1.00  0.00    -0.025 A 
ATOM     88  C   UNL A   1      34.581  23.712  25.563  1.00  0.00     0.006 A 
ATOM     89  C   UNL A   1      34.869  23.351  23.209  1.00  0.00     0.006 A 
ATOM     90  C   UNL A   1      35.963  23.607  25.747  1.00  0.00     0.000 A 
ATOM     91  C   UNL A   1      36.247  23.218  23.394  1.00  0.00     0.000 A 
ATOM     92  C   UNL A   1      36.796  23.363  24.662  1.00  0.00     0.000 A 
ENDBRANCH  82  87
BRANCH  84  93
ATOM     93  C   UNL A   1      32.193  26.322  24.500  1.00  0.00     0.085 C 
ATOM     94  C   UNL A   1      33.366  26.919  25.299  1.00  0.00     0.025 C 
ATOM     95  C   UNL A   1      32.377  26.510  22.978  1.00  0.00     0.025 C 
ATOM     96  C   UNL A   1      33.767  28.322  24.858  1.00  0.00     0.002 C 
ATOM     97  C   UNL A   1      32.794  27.927  22.591  1.00  0.00     0.002 C 
ATOM     98  C   UNL A   1      34.026  28.381  23.360  1.00  0.00     0.000 C 
ENDBRANCH  84  93
ENDBRANCH  78  80
ENDBRANCH  77  78
ENDBRANCH  76  77
ENDBRANCH  75  76
ENDBRANCH  74  75
ENDBRANCH  73  74
ENDBRANCH   1  73
TORSDOF 19
ENDMDL
MODEL 3
REMARK VINA RESULT:     -11.2      2.445      7.758
REMARK SMILES O=C(OCCOCCOCCOC(=O)[C@H]1CCC(=O)N(C2CCCCC2)[C@H]1c1ccccc1)c1ccc(-c2c3nc(c(-c4c(F)c(F)c(F)c(F)c4F)c4ccc([nH]4)c(-c4c(F)c(F)c(F)c(F)c4F)c4nc(c(-c5c(F)c(F)c(F)c(F)c5F)c5ccc2[nH]5)C=C4)C=C3)cc1
REMARK SMILES IDX 7 1 6 2 5 3 4 4 3 5 2 6 1 7 34 8 35 9 96 10 36 11 95 12
REMARK SMILES IDX 37 13 38 14 39 15 89 16 40 17 94 18 88 19 90 20 41 21 93 22
REMARK SMILES IDX 87 23 86 24 42 26 74 27 54 28 73 29 55 30 58 31 72 32 91 33
REMARK SMILES IDX 56 34 57 35 71 37 92 38 59 39 43 40 44 41 52 42 45 43 46 44
REMARK SMILES IDX 50 45 53 46 47 47 48 48 51 49 49 50 75 51 76 52 84 53 77 54
REMARK SMILES IDX 78 55 82 56 85 57 79 58 80 59 83 60 81 61 60 62 61 63 69 64
REMARK SMILES IDX 62 65 63 66 67 67 70 68 64 69 65 70 68 71 66 72 8 73 9 74
REMARK SMILES IDX 10 75 11 76 12 77 13 78 14 79 15 80 16 81 27 82 17 83 20 84
REMARK SMILES IDX 18 85 19 86 28 87 29 88 33 89 30 90 32 91 31 92 21 93 22 94
REMARK SMILES IDX 26 95 23 96 25 97 24 98
REMARK H PARENT 90 25 58 36
REMARK Flexibility Score: inf
ROOT
ATOM      1  C   UNL A   1      35.394  20.535  24.851  1.00  0.00     0.188 C 
ENDROOT
BRANCH   1   2
ATOM      2  O   UNL A   1      36.576  21.005  25.507  1.00  0.00    -0.376 OA
BRANCH   2   3
ATOM      3  C   UNL A   1      37.776  20.395  25.027  1.00  0.00     0.202 C 
BRANCH   3   4
ATOM      4  C   UNL A   1      39.032  20.757  25.830  1.00  0.00     0.261 C 
BRANCH   4   5
ATOM      5  O   UNL A   1      39.961  19.668  25.939  1.00  0.00    -0.460 OA
BRANCH   5   6
ATOM      6  C   UNL A   1      41.303  19.726  26.112  1.00  0.00     0.338 C 
ATOM      7  O   UNL A   1      41.964  18.709  25.908  1.00  0.00    -0.246 OA
BRANCH   6   8
ATOM      8  C   UNL A   1      42.040  20.964  26.519  1.00  0.00     0.060 A 
ATOM      9  C   UNL A   1      42.374  21.314  27.827  1.00  0.00     0.016 A 
ATOM     10  C   UNL A   1      42.506  21.793  25.485  1.00  0.00     0.016 A 
ATOM     11  C   UNL A   1      43.052  22.497  28.118  1.00  0.00     0.010 A 
ATOM     12  C   UNL A   1      43.264  22.935  25.760  1.00  0.00     0.010 A 
ATOM     13  C   UNL A   1      43.486  23.323  27.087  1.00  0.00    -0.014 A 
BRANCH  13  14
ATOM     14  C   UNL A   1      43.983  24.682  27.395  1.00  0.00     0.031 A 
ATOM     15  C   UNL A   1      42.976  25.708  27.821  1.00  0.00     0.074 A 
ATOM     16  C   UNL A   1      45.293  24.979  27.350  1.00  0.00     0.049 A 
ATOM     17  N   UNL A   1      43.128  26.986  28.037  1.00  0.00    -0.248 NA
ATOM     18  C   UNL A   1      41.606  25.216  28.047  1.00  0.00     0.031 C 
ATOM     19  C   UNL A   1      46.362  24.025  27.077  1.00  0.00     0.029 A 
ATOM     20  N   UNL A   1      45.946  26.173  27.509  1.00  0.00    -0.354 N 
ATOM     21  C   UNL A   1      41.875  27.449  28.409  1.00  0.00     0.074 A 
ATOM     22  C   UNL A   1      40.963  26.331  28.346  1.00  0.00     0.031 C 
ATOM     23  C   UNL A   1      47.532  24.680  27.003  1.00  0.00     0.029 A 
ATOM     24  C   UNL A   1      47.286  26.101  27.215  1.00  0.00     0.049 A 
ATOM     25  H   UNL A   1      45.500  27.000  27.803  1.00  0.00     0.167 HD
ATOM     26  C   UNL A   1      41.524  28.698  28.790  1.00  0.00     0.037 A 
ATOM     27  C   UNL A   1      48.198  27.083  27.092  1.00  0.00     0.037 A 
ATOM     28  C   UNL A   1      42.451  29.792  28.847  1.00  0.00     0.049 A 
ATOM     29  C   UNL A   1      47.770  28.491  27.403  1.00  0.00     0.074 A 
ATOM     30  C   UNL A   1      42.223  31.105  29.211  1.00  0.00     0.029 A 
ATOM     31  N   UNL A   1      43.797  29.691  28.516  1.00  0.00    -0.354 N 
ATOM     32  N   UNL A   1      46.586  28.929  27.759  1.00  0.00    -0.248 NA
ATOM     33  C   UNL A   1      48.799  29.533  27.323  1.00  0.00     0.031 C 
ATOM     34  C   UNL A   1      43.422  31.810  29.053  1.00  0.00     0.029 A 
ATOM     35  C   UNL A   1      44.409  30.925  28.641  1.00  0.00     0.049 A 
ATOM     36  H   UNL A   1      44.249  28.863  28.234  1.00  0.00     0.167 HD
ATOM     37  C   UNL A   1      46.730  30.290  27.979  1.00  0.00     0.074 A 
ATOM     38  C   UNL A   1      48.121  30.605  27.714  1.00  0.00     0.031 C 
ATOM     39  C   UNL A   1      45.802  31.195  28.377  1.00  0.00     0.037 A 
BRANCH  26  40
ATOM     40  C   UNL A   1      40.077  28.924  29.113  1.00  0.00     0.064 A 
ATOM     41  C   UNL A   1      39.562  28.705  30.402  1.00  0.00     0.173 A 
ATOM     42  C   UNL A   1      39.176  29.289  28.102  1.00  0.00     0.173 A 
ATOM     43  F   UNL A   1      40.376  28.323  31.399  1.00  0.00    -0.203 F 
ATOM     44  C   UNL A   1      38.195  28.795  30.653  1.00  0.00     0.198 A 
ATOM     45  C   UNL A   1      37.814  29.408  28.364  1.00  0.00     0.198 A 
ATOM     46  F   UNL A   1      39.614  29.505  26.853  1.00  0.00    -0.203 F 
ATOM     47  F   UNL A   1      37.718  28.499  31.870  1.00  0.00    -0.200 F 
ATOM     48  C   UNL A   1      37.322  29.146  29.633  1.00  0.00     0.200 A 
ATOM     49  F   UNL A   1      36.972  29.751  27.379  1.00  0.00    -0.200 F 
ATOM     50  F   UNL A   1      36.005  29.210  29.870  1.00  0.00    -0.200 F 
ENDBRANCH  26  40
BRANCH  27  51
ATOM     51  C   UNL A   1      49.575  26.756  26.640  1.00  0.00     0.064 A 
ATOM     52  C   UNL A   1      49.945  26.840  25.291  1.00  0.00     0.173 A 
ATOM     53  C   UNL A   1      50.567  26.385  27.564  1.00  0.00     0.173 A 
ATOM     54  F   UNL A   1      49.033  27.176  24.368  1.00  0.00    -0.203 F 
ATOM     55  C   UNL A   1      51.249  26.558  24.883  1.00  0.00     0.198 A 
ATOM     56  C   UNL A   1      51.874  26.124  27.157  1.00  0.00     0.198 A 
ATOM     57  F   UNL A   1      50.269  26.297  28.869  1.00  0.00    -0.203 F 
ATOM     58  F   UNL A   1      51.568  26.622  23.583  1.00  0.00    -0.200 F 
ATOM     59  C   UNL A   1      52.214  26.207  25.816  1.00  0.00     0.200 A 
ATOM     60  F   UNL A   1      52.805  25.801  28.065  1.00  0.00    -0.200 F 
ATOM     61  F   UNL A   1      53.468  25.948  25.422  1.00  0.00    -0.200 F 
ENDBRANCH  27  51
BRANCH  39  62
ATOM     62  C   UNL A   1      46.268  32.602  28.589  1.00  0.00     0.064 A 
ATOM     63  C   UNL A   1      46.187  33.562  27.572  1.00  0.00     0.173 A 
ATOM     64  C   UNL A   1      46.720  33.009  29.854  1.00  0.00     0.173 A 
ATOM     65  F   UNL A   1      45.776  33.213  26.344  1.00  0.00    -0.203 F 
ATOM     66  C   UNL A   1      46.553  34.883  27.812  1.00  0.00     0.198 A 
ATOM     67  C   UNL A   1      47.056  34.336  30.097  1.00  0.00     0.198 A 
ATOM     68  F   UNL A   1      46.807  32.125  30.858  1.00  0.00    -0.203 F 
ATOM     69  F   UNL A   1      46.496  35.783  26.820  1.00  0.00    -0.200 F 
ATOM     70  C   UNL A   1      46.974  35.272  29.076  1.00  0.00     0.200 A 
ATOM     71  F   UNL A   1      47.450  34.713  31.321  1.00  0.00    -0.200 F 
ATOM     72  F   UNL A   1      47.306  36.549  29.309  1.00  0.00    -0.200 F 
ENDBRANCH  39  62
ENDBRANCH  13  14
ENDBRANCH   6   8
ENDBRANCH   5   6
ENDBRANCH   4   5
ENDBRANCH   3   4
ENDBRANCH   2   3
ENDBRANCH   1   2
BRANCH   1  73
ATOM     73  C   UNL A   1      34.454  21.696  24.543  1.00  0.00     0.188 C 
BRANCH  73  74
ATOM     74  O   UNL A   1      33.066  21.449  24.775  1.00  0.00    -0.376 OA
BRANCH  74  75
ATOM     75  C   UNL A   1      32.145  22.023  23.845  1.00  0.00     0.202 C 
BRANCH  75  76
ATOM     76  C   UNL A   1      32.609  23.323  23.175  1.00  0.00     0.261 C 
BRANCH  76  77
ATOM     77  O   UNL A   1      32.323  24.496  23.967  1.00  0.00    -0.463 OA
BRANCH  77  78
ATOM     78  C   UNL A   1      32.474  25.682  23.312  1.00  0.00     0.311 C 
ATOM     79  O   UNL A   1      33.557  26.152  22.982  1.00  0.00    -0.252 OA
BRANCH  78  80
ATOM     80  C   UNL A   1      31.141  26.383  23.098  1.00  0.00     0.127 C 
ATOM     81  C   UNL A   1      30.091  25.745  23.999  1.00  0.00     0.028 C 
ATOM     82  C   UNL A   1      31.143  27.909  23.332  1.00  0.00     0.130 C 
ATOM     83  C   UNL A   1      28.719  26.294  23.691  1.00  0.00     0.101 C 
ATOM     84  N   UNL A   1      29.779  28.484  23.118  1.00  0.00    -0.332 N 
ATOM     85  C   UNL A   1      28.618  27.774  23.403  1.00  0.00     0.223 C 
ATOM     86  O   UNL A   1      27.491  28.272  23.352  1.00  0.00    -0.275 OA
BRANCH  82  87
ATOM     87  C   UNL A   1      31.747  28.349  24.671  1.00  0.00    -0.025 A 
ATOM     88  C   UNL A   1      31.161  28.021  25.904  1.00  0.00     0.006 A 
ATOM     89  C   UNL A   1      32.922  29.121  24.701  1.00  0.00     0.006 A 
ATOM     90  C   UNL A   1      31.688  28.496  27.108  1.00  0.00     0.000 A 
ATOM     91  C   UNL A   1      33.466  29.574  25.906  1.00  0.00     0.000 A 
ATOM     92  C   UNL A   1      32.839  29.275  27.109  1.00  0.00     0.000 A 
ENDBRANCH  82  87
BRANCH  84  93
ATOM     93  C   UNL A   1      29.666  29.918  22.709  1.00  0.00     0.085 C 
ATOM     94  C   UNL A   1      28.740  30.075  21.489  1.00  0.00     0.025 C 
ATOM     95  C   UNL A   1      29.259  30.856  23.866  1.00  0.00     0.025 C 
ATOM     96  C   UNL A   1      28.475  31.523  21.093  1.00  0.00     0.002 C 
ATOM     97  C   UNL A   1      28.989  32.290  23.415  1.00  0.00     0.002 C 
ATOM     98  C   UNL A   1      27.981  32.342  22.277  1.00  0.00     0.000 C 
ENDBRANCH  84  93
ENDBRANCH  78  80
ENDBRANCH  77  78
ENDBRANCH  76  77
ENDBRANCH  75  76
ENDBRANCH  74  75
ENDBRANCH  73  74
ENDBRANCH   1  73
TORSDOF 19
ENDMDL
