MODEL 1
REMARK VINA RESULT:     -10.9      0.000      0.000
REMARK SMILES O=C(CCC(=O)OCCOCCOCCOC(=O)c1ccc(-c2c3nc(c(-c4c(F)c(F)c(F)c(F)c4F)c4ccc([nH]4)c(-c4c(F)c(F)c(F)c(F)c4F)c4nc(c(-c5c(F)c(F)c(F)c(F)c5F)c5ccc2[nH]5)C=C4)C=C3)cc1)Nc1ccc(Br)c([N+](=O)[O-])c1
REMARK SMILES IDX 11 1 10 2 9 3 8 4 7 5 5 6 6 7 4 8 3 9 2 10 1 11 82 12 83 14
REMARK SMILES IDX 84 15 92 16 85 17 88 18 86 19 87 20 89 21 90 22 91 23 12 24
REMARK SMILES IDX 13 25 14 26 15 27 16 28 17 29 18 30 19 31 20 32 81 33 21 34
REMARK SMILES IDX 80 35 22 36 23 37 24 38 74 39 25 40 79 41 73 42 75 43 26 44
REMARK SMILES IDX 78 45 72 46 71 47 27 49 59 50 39 51 58 52 40 53 43 54 57 55
REMARK SMILES IDX 76 56 41 57 42 58 56 60 77 61 44 62 28 63 29 64 37 65 30 66
REMARK SMILES IDX 31 67 35 68 38 69 32 70 33 71 36 72 34 73 60 74 61 75 69 76
REMARK SMILES IDX 62 77 63 78 67 79 70 80 64 81 65 82 68 83 66 84 45 85 46 86
REMARK SMILES IDX 54 87 47 88 48 89 52 90 55 91 49 92 50 93 53 94 51 95
REMARK H PARENT 82 13 75 48 43 59
REMARK Flexibility Score: inf
ROOT
ATOM      1  C   UNL A   1      39.877  21.448  26.284  1.00  0.00     0.188 C 
ENDROOT
BRANCH   1   2
ATOM      2  O   UNL A   1      38.562  21.346  25.749  1.00  0.00    -0.376 OA
BRANCH   2   3
ATOM      3  C   UNL A   1      37.899  22.576  25.453  1.00  0.00     0.202 C 
BRANCH   3   4
ATOM      4  C   UNL A   1      37.036  22.563  24.182  1.00  0.00     0.261 C 
BRANCH   4   5
ATOM      5  O   UNL A   1      36.507  23.868  23.830  1.00  0.00    -0.463 OA
BRANCH   5   6
ATOM      6  C   UNL A   1      35.158  23.937  23.659  1.00  0.00     0.306 C 
ATOM      7  O   UNL A   1      34.551  23.371  22.757  1.00  0.00    -0.252 OA
BRANCH   6   8
ATOM      8  C   UNL A   1      34.421  24.727  24.727  1.00  0.00     0.132 C 
BRANCH   8   9
ATOM      9  C   UNL A   1      33.462  24.042  25.694  1.00  0.00     0.112 C 
BRANCH   9  10
ATOM     10  C   UNL A   1      33.698  22.556  25.884  1.00  0.00     0.224 C 
ATOM     11  O   UNL A   1      34.474  22.132  26.733  1.00  0.00    -0.275 OA
ATOM     12  N   UNL A   1      32.965  21.787  25.011  1.00  0.00    -0.326 N 
ATOM     13  H   UNL A   1      32.438  22.272  24.337  1.00  0.00     0.169 HD
BRANCH  12  14
ATOM     14  C   UNL A   1      32.886  20.391  24.974  1.00  0.00     0.048 A 
ATOM     15  C   UNL A   1      32.869  19.733  26.204  1.00  0.00     0.028 A 
ATOM     16  C   UNL A   1      32.880  19.651  23.794  1.00  0.00     0.113 A 
ATOM     17  C   UNL A   1      32.814  18.342  26.263  1.00  0.00     0.025 A 
ATOM     18  C   UNL A   1      32.888  18.241  23.853  1.00  0.00     0.285 A 
ATOM     19  C   UNL A   1      32.840  17.580  25.088  1.00  0.00     0.095 A 
ATOM     20  Br  UNL A   1      32.867  15.698  25.350  1.00  0.00    -0.043 Br
BRANCH  18  21
ATOM     21  N   UNL A   1      33.019  17.527  22.583  1.00  0.00     0.064 N 
ATOM     22  O   UNL A   1      33.987  16.776  22.421  1.00  0.00    -0.258 OA
ATOM     23  O   UNL A   1      32.125  17.708  21.742  1.00  0.00    -0.258 OA
ENDBRANCH  18  21
ENDBRANCH  12  14
ENDBRANCH   9  10
ENDBRANCH   8   9
ENDBRANCH   6   8
ENDBRANCH   5   6
ENDBRANCH   4   5
ENDBRANCH   3   4
ENDBRANCH   2   3
ENDBRANCH   1   2
BRANCH   1  24
ATOM     24  C   UNL A   1      40.621  20.122  26.436  1.00  0.00     0.188 C 
BRANCH  24  25
ATOM     25  O   UNL A   1      41.855  20.010  25.736  1.00  0.00    -0.376 OA
BRANCH  25  26
ATOM     26  C   UNL A   1      42.888  20.910  26.172  1.00  0.00     0.202 C 
BRANCH  26  27
ATOM     27  C   UNL A   1      43.646  21.696  25.073  1.00  0.00     0.261 C 
BRANCH  27  28
ATOM     28  O   UNL A   1      43.088  22.982  24.714  1.00  0.00    -0.460 OA
BRANCH  28  29
ATOM     29  C   UNL A   1      43.848  24.082  24.921  1.00  0.00     0.338 C 
ATOM     30  O   UNL A   1      44.804  24.436  24.252  1.00  0.00    -0.246 OA
BRANCH  29  31
ATOM     31  C   UNL A   1      43.157  24.962  25.907  1.00  0.00     0.060 A 
ATOM     32  C   UNL A   1      43.617  26.281  26.043  1.00  0.00     0.016 A 
ATOM     33  C   UNL A   1      42.032  24.547  26.626  1.00  0.00     0.016 A 
ATOM     34  C   UNL A   1      42.988  27.168  26.921  1.00  0.00     0.010 A 
ATOM     35  C   UNL A   1      41.411  25.432  27.520  1.00  0.00     0.010 A 
ATOM     36  C   UNL A   1      41.907  26.737  27.700  1.00  0.00    -0.014 A 
BRANCH  36  37
ATOM     37  C   UNL A   1      41.452  27.565  28.848  1.00  0.00     0.031 A 
ATOM     38  C   UNL A   1      42.225  27.473  30.139  1.00  0.00     0.074 A 
ATOM     39  C   UNL A   1      40.408  28.410  28.763  1.00  0.00     0.049 A 
ATOM     40  N   UNL A   1      42.025  28.078  31.282  1.00  0.00    -0.248 NA
ATOM     41  C   UNL A   1      43.387  26.570  30.131  1.00  0.00     0.031 C 
ATOM     42  C   UNL A   1      39.600  28.641  27.569  1.00  0.00     0.029 A 
ATOM     43  N   UNL A   1      39.852  29.236  29.711  1.00  0.00    -0.354 N 
ATOM     44  C   UNL A   1      43.028  27.624  32.129  1.00  0.00     0.074 A 
ATOM     45  C   UNL A   1      43.814  26.668  31.380  1.00  0.00     0.031 C 
ATOM     46  C   UNL A   1      38.650  29.550  27.855  1.00  0.00     0.029 A 
ATOM     47  C   UNL A   1      38.761  29.940  29.263  1.00  0.00     0.049 A 
ATOM     48  H   UNL A   1      40.202  29.313  30.628  1.00  0.00     0.167 HD
ATOM     49  C   UNL A   1      43.282  27.976  33.412  1.00  0.00     0.037 A 
ATOM     50  C   UNL A   1      37.942  30.789  29.916  1.00  0.00     0.037 A 
ATOM     51  C   UNL A   1      42.505  28.923  34.165  1.00  0.00     0.049 A 
ATOM     52  C   UNL A   1      38.187  31.093  31.376  1.00  0.00     0.074 A 
ATOM     53  C   UNL A   1      42.698  29.359  35.465  1.00  0.00     0.029 A 
ATOM     54  N   UNL A   1      41.373  29.570  33.692  1.00  0.00    -0.354 N 
ATOM     55  N   UNL A   1      39.156  30.685  32.159  1.00  0.00    -0.248 NA
ATOM     56  C   UNL A   1      37.218  31.978  32.039  1.00  0.00     0.031 C 
ATOM     57  C   UNL A   1      41.648  30.221  35.798  1.00  0.00     0.029 A 
ATOM     58  C   UNL A   1      40.838  30.375  34.685  1.00  0.00     0.049 A 
ATOM     59  H   UNL A   1      41.004  29.473  32.784  1.00  0.00     0.167 HD
ATOM     60  C   UNL A   1      38.936  31.292  33.391  1.00  0.00     0.074 A 
ATOM     61  C   UNL A   1      37.747  32.105  33.249  1.00  0.00     0.031 C 
ATOM     62  C   UNL A   1      39.658  31.190  34.535  1.00  0.00     0.037 A 
BRANCH  49  63
ATOM     63  C   UNL A   1      44.434  27.296  34.094  1.00  0.00     0.064 A 
ATOM     64  C   UNL A   1      45.719  27.863  34.123  1.00  0.00     0.173 A 
ATOM     65  C   UNL A   1      44.250  26.059  34.729  1.00  0.00     0.173 A 
ATOM     66  F   UNL A   1      45.954  29.036  33.516  1.00  0.00    -0.203 F 
ATOM     67  C   UNL A   1      46.782  27.196  34.728  1.00  0.00     0.198 A 
ATOM     68  C   UNL A   1      45.307  25.414  35.364  1.00  0.00     0.198 A 
ATOM     69  F   UNL A   1      43.042  25.474  34.734  1.00  0.00    -0.203 F 
ATOM     70  F   UNL A   1      48.012  27.726  34.687  1.00  0.00    -0.200 F 
ATOM     71  C   UNL A   1      46.574  25.976  35.353  1.00  0.00     0.200 A 
ATOM     72  F   UNL A   1      45.100  24.240  35.978  1.00  0.00    -0.200 F 
ATOM     73  F   UNL A   1      47.597  25.336  35.935  1.00  0.00    -0.200 F 
ENDBRANCH  49  63
BRANCH  50  74
ATOM     74  C   UNL A   1      36.799  31.426  29.205  1.00  0.00     0.064 A 
ATOM     75  C   UNL A   1      36.809  32.797  28.907  1.00  0.00     0.173 A 
ATOM     76  C   UNL A   1      35.658  30.691  28.850  1.00  0.00     0.173 A 
ATOM     77  F   UNL A   1      37.861  33.550  29.258  1.00  0.00    -0.203 F 
ATOM     78  C   UNL A   1      35.716  33.409  28.296  1.00  0.00     0.198 A 
ATOM     79  C   UNL A   1      34.578  31.299  28.212  1.00  0.00     0.198 A 
ATOM     80  F   UNL A   1      35.592  29.380  29.123  1.00  0.00    -0.203 F 
ATOM     81  F   UNL A   1      35.731  34.731  28.071  1.00  0.00    -0.200 F 
ATOM     82  C   UNL A   1      34.605  32.660  27.943  1.00  0.00     0.200 A 
ATOM     83  F   UNL A   1      33.509  30.569  27.867  1.00  0.00    -0.200 F 
ATOM     84  F   UNL A   1      33.554  33.249  27.356  1.00  0.00    -0.200 F 
ENDBRANCH  50  74
BRANCH  62  85
ATOM     85  C   UNL A   1      39.217  32.011  35.716  1.00  0.00     0.064 A 
ATOM     86  C   UNL A   1      39.623  33.343  35.888  1.00  0.00     0.173 A 
ATOM     87  C   UNL A   1      38.342  31.467  36.670  1.00  0.00     0.173 A 
ATOM     88  F   UNL A   1      40.468  33.910  35.014  1.00  0.00    -0.203 F 
ATOM     89  C   UNL A   1      39.196  34.086  36.986  1.00  0.00     0.198 A 
ATOM     90  C   UNL A   1      37.889  32.225  37.747  1.00  0.00     0.198 A 
ATOM     91  F   UNL A   1      37.912  30.201  36.550  1.00  0.00    -0.203 F 
ATOM     92  F   UNL A   1      39.642  35.340  37.159  1.00  0.00    -0.200 F 
ATOM     93  C   UNL A   1      38.324  33.531  37.910  1.00  0.00     0.200 A 
ATOM     94  F   UNL A   1      37.033  31.689  38.629  1.00  0.00    -0.200 F 
ATOM     95  F   UNL A   1      37.910  34.250  38.961  1.00  0.00    -0.200 F 
ENDBRANCH  62  85
ENDBRANCH  36  37
ENDBRANCH  29  31
ENDBRANCH  28  29
ENDBRANCH  27  28
ENDBRANCH  26  27
ENDBRANCH  25  26
ENDBRANCH  24  25
ENDBRANCH   1  24
TORSDOF 21
ENDMDL
MODEL 2
REMARK VINA RESULT:     -10.6      2.374      3.746
REMARK SMILES O=C(CCC(=O)OCCOCCOCCOC(=O)c1ccc(-c2c3nc(c(-c4c(F)c(F)c(F)c(F)c4F)c4ccc([nH]4)c(-c4c(F)c(F)c(F)c(F)c4F)c4nc(c(-c5c(F)c(F)c(F)c(F)c5F)c5ccc2[nH]5)C=C4)C=C3)cc1)Nc1ccc(Br)c([N+](=O)[O-])c1
REMARK SMILES IDX 11 1 10 2 9 3 8 4 7 5 5 6 6 7 4 8 3 9 2 10 1 11 82 12 83 14
REMARK SMILES IDX 84 15 92 16 85 17 88 18 86 19 87 20 89 21 90 22 91 23 12 24
REMARK SMILES IDX 13 25 14 26 15 27 16 28 17 29 18 30 19 31 20 32 81 33 21 34
REMARK SMILES IDX 80 35 22 36 23 37 24 38 74 39 25 40 79 41 73 42 75 43 26 44
REMARK SMILES IDX 78 45 72 46 71 47 27 49 59 50 39 51 58 52 40 53 43 54 57 55
REMARK SMILES IDX 76 56 41 57 42 58 56 60 77 61 44 62 28 63 29 64 37 65 30 66
REMARK SMILES IDX 31 67 35 68 38 69 32 70 33 71 36 72 34 73 60 74 61 75 69 76
REMARK SMILES IDX 62 77 63 78 67 79 70 80 64 81 65 82 68 83 66 84 45 85 46 86
REMARK SMILES IDX 54 87 47 88 48 89 52 90 55 91 49 92 50 93 53 94 51 95
REMARK H PARENT 82 13 75 48 43 59
REMARK Flexibility Score: inf
ROOT
ATOM      1  C   UNL A   1      40.547  21.790  26.805  1.00  0.00     0.188 C 
ENDROOT
BRANCH   1   2
ATOM      2  O   UNL A   1      39.572  21.201  25.952  1.00  0.00    -0.376 OA
BRANCH   2   3
ATOM      3  C   UNL A   1      38.382  21.958  25.729  1.00  0.00     0.202 C 
BRANCH   3   4
ATOM      4  C   UNL A   1      37.370  21.314  24.770  1.00  0.00     0.261 C 
BRANCH   4   5
ATOM      5  O   UNL A   1      36.522  22.278  24.092  1.00  0.00    -0.463 OA
BRANCH   5   6
ATOM      6  C   UNL A   1      35.397  22.656  24.761  1.00  0.00     0.306 C 
ATOM      7  O   UNL A   1      35.382  23.480  25.668  1.00  0.00    -0.252 OA
BRANCH   6   8
ATOM      8  C   UNL A   1      34.113  22.023  24.253  1.00  0.00     0.132 C 
BRANCH   8   9
ATOM      9  C   UNL A   1      33.476  22.474  22.943  1.00  0.00     0.112 C 
BRANCH   9  10
ATOM     10  C   UNL A   1      33.276  23.971  22.810  1.00  0.00     0.224 C 
ATOM     11  O   UNL A   1      33.532  24.564  21.767  1.00  0.00    -0.275 OA
ATOM     12  N   UNL A   1      32.802  24.547  23.965  1.00  0.00    -0.326 N 
ATOM     13  H   UNL A   1      32.713  23.953  24.745  1.00  0.00     0.169 HD
BRANCH  12  14
ATOM     14  C   UNL A   1      32.434  25.883  24.155  1.00  0.00     0.048 A 
ATOM     15  C   UNL A   1      33.021  26.547  25.232  1.00  0.00     0.028 A 
ATOM     16  C   UNL A   1      31.490  26.540  23.369  1.00  0.00     0.113 A 
ATOM     17  C   UNL A   1      32.695  27.873  25.509  1.00  0.00     0.025 A 
ATOM     18  C   UNL A   1      31.113  27.861  23.688  1.00  0.00     0.285 A 
ATOM     19  C   UNL A   1      31.726  28.539  24.751  1.00  0.00     0.095 A 
ATOM     20  Br  UNL A   1      31.324  30.305  25.330  1.00  0.00    -0.043 Br
BRANCH  18  21
ATOM     21  N   UNL A   1      30.022  28.444  22.908  1.00  0.00     0.064 N 
ATOM     22  O   UNL A   1      30.295  29.072  21.879  1.00  0.00    -0.258 OA
ATOM     23  O   UNL A   1      28.869  28.253  23.325  1.00  0.00    -0.258 OA
ENDBRANCH  18  21
ENDBRANCH  12  14
ENDBRANCH   9  10
ENDBRANCH   8   9
ENDBRANCH   6   8
ENDBRANCH   5   6
ENDBRANCH   4   5
ENDBRANCH   3   4
ENDBRANCH   2   3
ENDBRANCH   1   2
BRANCH   1  24
ATOM     24  C   UNL A   1      41.926  21.132  26.769  1.00  0.00     0.188 C 
BRANCH  24  25
ATOM     25  O   UNL A   1      42.479  20.901  25.478  1.00  0.00    -0.376 OA
BRANCH  25  26
ATOM     26  C   UNL A   1      43.889  21.156  25.364  1.00  0.00     0.202 C 
BRANCH  26  27
ATOM     27  C   UNL A   1      44.318  22.348  24.471  1.00  0.00     0.261 C 
BRANCH  27  28
ATOM     28  O   UNL A   1      43.644  23.604  24.723  1.00  0.00    -0.460 OA
BRANCH  28  29
ATOM     29  C   UNL A   1      44.395  24.656  25.125  1.00  0.00     0.338 C 
ATOM     30  O   UNL A   1      45.417  25.058  24.594  1.00  0.00    -0.246 OA
BRANCH  29  31
ATOM     31  C   UNL A   1      43.623  25.438  26.132  1.00  0.00     0.060 A 
ATOM     32  C   UNL A   1      43.825  26.826  26.179  1.00  0.00     0.016 A 
ATOM     33  C   UNL A   1      42.659  24.853  26.960  1.00  0.00     0.016 A 
ATOM     34  C   UNL A   1      43.104  27.621  27.074  1.00  0.00     0.010 A 
ATOM     35  C   UNL A   1      41.947  25.649  27.870  1.00  0.00     0.010 A 
ATOM     36  C   UNL A   1      42.191  27.032  27.958  1.00  0.00    -0.014 A 
BRANCH  36  37
ATOM     37  C   UNL A   1      41.671  27.817  29.109  1.00  0.00     0.031 A 
ATOM     38  C   UNL A   1      42.423  27.743  30.414  1.00  0.00     0.074 A 
ATOM     39  C   UNL A   1      40.588  28.610  29.015  1.00  0.00     0.049 A 
ATOM     40  N   UNL A   1      42.169  28.318  31.562  1.00  0.00    -0.248 NA
ATOM     41  C   UNL A   1      43.629  26.900  30.416  1.00  0.00     0.031 C 
ATOM     42  C   UNL A   1      39.793  28.820  27.808  1.00  0.00     0.029 A 
ATOM     43  N   UNL A   1      39.972  29.391  29.965  1.00  0.00    -0.354 N 
ATOM     44  C   UNL A   1      43.177  27.901  32.422  1.00  0.00     0.074 A 
ATOM     45  C   UNL A   1      44.025  26.998  31.675  1.00  0.00     0.031 C 
ATOM     46  C   UNL A   1      38.793  29.675  28.089  1.00  0.00     0.029 A 
ATOM     47  C   UNL A   1      38.856  30.047  29.505  1.00  0.00     0.049 A 
ATOM     48  H   UNL A   1      40.299  29.471  30.889  1.00  0.00     0.167 HD
ATOM     49  C   UNL A   1      43.387  28.244  33.716  1.00  0.00     0.037 A 
ATOM     50  C   UNL A   1      37.982  30.843  30.154  1.00  0.00     0.037 A 
ATOM     51  C   UNL A   1      42.548  29.138  34.468  1.00  0.00     0.049 A 
ATOM     52  C   UNL A   1      38.182  31.134  31.623  1.00  0.00     0.074 A 
ATOM     53  C   UNL A   1      42.693  29.562  35.777  1.00  0.00     0.029 A 
ATOM     54  N   UNL A   1      41.394  29.736  33.980  1.00  0.00    -0.354 N 
ATOM     55  N   UNL A   1      39.155  30.763  32.420  1.00  0.00    -0.248 NA
ATOM     56  C   UNL A   1      37.156  31.959  32.280  1.00  0.00     0.031 C 
ATOM     57  C   UNL A   1      41.594  30.365  36.102  1.00  0.00     0.029 A 
ATOM     58  C   UNL A   1      40.799  30.496  34.975  1.00  0.00     0.049 A 
ATOM     59  H   UNL A   1      41.049  29.635  33.064  1.00  0.00     0.167 HD
ATOM     60  C   UNL A   1      38.880  31.338  33.656  1.00  0.00     0.074 A 
ATOM     61  C   UNL A   1      37.654  32.092  33.502  1.00  0.00     0.031 C 
ATOM     62  C   UNL A   1      39.583  31.253  34.813  1.00  0.00     0.037 A 
BRANCH  49  63
ATOM     63  C   UNL A   1      44.558  27.612  34.410  1.00  0.00     0.064 A 
ATOM     64  C   UNL A   1      45.824  28.219  34.433  1.00  0.00     0.173 A 
ATOM     65  C   UNL A   1      44.411  26.380  35.065  1.00  0.00     0.173 A 
ATOM     66  F   UNL A   1      46.024  29.388  33.807  1.00  0.00    -0.203 F 
ATOM     67  C   UNL A   1      46.906  27.596  35.051  1.00  0.00     0.198 A 
ATOM     68  C   UNL A   1      45.486  25.779  35.713  1.00  0.00     0.198 A 
ATOM     69  F   UNL A   1      43.223  25.758  35.078  1.00  0.00    -0.203 F 
ATOM     70  F   UNL A   1      48.120  28.163  35.003  1.00  0.00    -0.200 F 
ATOM     71  C   UNL A   1      46.735  26.380  35.695  1.00  0.00     0.200 A 
ATOM     72  F   UNL A   1      45.315  24.609  36.346  1.00  0.00    -0.200 F 
ATOM     73  F   UNL A   1      47.777  25.782  36.289  1.00  0.00    -0.200 F 
ENDBRANCH  49  63
BRANCH  50  74
ATOM     74  C   UNL A   1      36.823  31.433  29.430  1.00  0.00     0.064 A 
ATOM     75  C   UNL A   1      35.748  30.633  29.015  1.00  0.00     0.173 A 
ATOM     76  C   UNL A   1      36.784  32.796  29.100  1.00  0.00     0.173 A 
ATOM     77  F   UNL A   1      35.754  29.317  29.274  1.00  0.00    -0.203 F 
ATOM     78  C   UNL A   1      34.689  31.170  28.284  1.00  0.00     0.198 A 
ATOM     79  C   UNL A   1      35.710  33.337  28.395  1.00  0.00     0.198 A 
ATOM     80  F   UNL A   1      37.791  33.603  29.462  1.00  0.00    -0.203 F 
ATOM     81  F   UNL A   1      33.701  30.371  27.855  1.00  0.00    -0.200 F 
ATOM     82  C   UNL A   1      34.667  32.522  27.981  1.00  0.00     0.200 A 
ATOM     83  F   UNL A   1      35.690  34.646  28.110  1.00  0.00    -0.200 F 
ATOM     84  F   UNL A   1      33.649  33.038  27.278  1.00  0.00    -0.200 F 
ENDBRANCH  50  74
BRANCH  62  85
ATOM     85  C   UNL A   1      39.077  32.032  35.997  1.00  0.00     0.064 A 
ATOM     86  C   UNL A   1      39.426  33.374  36.207  1.00  0.00     0.173 A 
ATOM     87  C   UNL A   1      38.199  31.434  36.915  1.00  0.00     0.173 A 
ATOM     88  F   UNL A   1      40.272  33.992  35.369  1.00  0.00    -0.203 F 
ATOM     89  C   UNL A   1      38.940  34.077  37.307  1.00  0.00     0.198 A 
ATOM     90  C   UNL A   1      37.688  32.150  37.994  1.00  0.00     0.198 A 
ATOM     91  F   UNL A   1      37.823  30.155  36.758  1.00  0.00    -0.203 F 
ATOM     92  F   UNL A   1      39.331  35.343  37.517  1.00  0.00    -0.200 F 
ATOM     93  C   UNL A   1      38.066  33.469  38.195  1.00  0.00     0.200 A 
ATOM     94  F   UNL A   1      36.829  31.563  38.840  1.00  0.00    -0.200 F 
ATOM     95  F   UNL A   1      37.594  34.149  39.248  1.00  0.00    -0.200 F 
ENDBRANCH  62  85
ENDBRANCH  36  37
ENDBRANCH  29  31
ENDBRANCH  28  29
ENDBRANCH  27  28
ENDBRANCH  26  27
ENDBRANCH  25  26
ENDBRANCH  24  25
ENDBRANCH   1  24
TORSDOF 21
ENDMDL
MODEL 3
REMARK VINA RESULT:     -10.6      4.959      7.469
REMARK SMILES O=C(CCC(=O)OCCOCCOCCOC(=O)c1ccc(-c2c3nc(c(-c4c(F)c(F)c(F)c(F)c4F)c4ccc([nH]4)c(-c4c(F)c(F)c(F)c(F)c4F)c4nc(c(-c5c(F)c(F)c(F)c(F)c5F)c5ccc2[nH]5)C=C4)C=C3)cc1)Nc1ccc(Br)c([N+](=O)[O-])c1
REMARK SMILES IDX 11 1 10 2 9 3 8 4 7 5 5 6 6 7 4 8 3 9 2 10 1 11 82 12 83 14
REMARK SMILES IDX 84 15 92 16 85 17 88 18 86 19 87 20 89 21 90 22 91 23 12 24
REMARK SMILES IDX 13 25 14 26 15 27 16 28 17 29 18 30 19 31 20 32 81 33 21 34
REMARK SMILES IDX 80 35 22 36 23 37 24 38 74 39 25 40 79 41 73 42 75 43 26 44
REMARK SMILES IDX 78 45 72 46 71 47 27 49 59 50 39 51 58 52 40 53 43 54 57 55
REMARK SMILES IDX 76 56 41 57 42 58 56 60 77 61 44 62 28 63 29 64 37 65 30 66
REMARK SMILES IDX 31 67 35 68 38 69 32 70 33 71 36 72 34 73 60 74 61 75 69 76
REMARK SMILES IDX 62 77 63 78 67 79 70 80 64 81 65 82 68 83 66 84 45 85 46 86
REMARK SMILES IDX 54 87 47 88 48 89 52 90 55 91 49 92 50 93 53 94 51 95
REMARK H PARENT 82 13 75 48 43 59
REMARK Flexibility Score: inf
ROOT
ATOM      1  C   UNL A   1      37.002  22.928  24.545  1.00  0.00     0.188 C 
ENDROOT
BRANCH   1   2
ATOM      2  O   UNL A   1      36.204  24.037  24.943  1.00  0.00    -0.376 OA
BRANCH   2   3
ATOM      3  C   UNL A   1      34.833  24.010  24.546  1.00  0.00     0.202 C 
BRANCH   3   4
ATOM      4  C   UNL A   1      34.468  22.915  23.534  1.00  0.00     0.261 C 
BRANCH   4   5
ATOM      5  O   UNL A   1      33.110  22.423  23.679  1.00  0.00    -0.463 OA
BRANCH   5   6
ATOM      6  C   UNL A   1      32.949  21.354  24.506  1.00  0.00     0.306 C 
ATOM      7  O   UNL A   1      33.663  20.358  24.488  1.00  0.00    -0.252 OA
BRANCH   6   8
ATOM      8  C   UNL A   1      31.836  21.503  25.530  1.00  0.00     0.132 C 
BRANCH   8   9
ATOM      9  C   UNL A   1      31.900  22.574  26.613  1.00  0.00     0.112 C 
BRANCH   9  10
ATOM     10  C   UNL A   1      31.086  23.822  26.329  1.00  0.00     0.224 C 
ATOM     11  O   UNL A   1      30.032  24.048  26.913  1.00  0.00    -0.275 OA
ATOM     12  N   UNL A   1      31.657  24.620  25.367  1.00  0.00    -0.326 N 
ATOM     13  H   UNL A   1      32.469  24.271  24.935  1.00  0.00     0.169 HD
BRANCH  12  14
ATOM     14  C   UNL A   1      31.212  25.873  24.933  1.00  0.00     0.048 A 
ATOM     15  C   UNL A   1      30.178  25.880  23.997  1.00  0.00     0.028 A 
ATOM     16  C   UNL A   1      31.781  27.077  25.343  1.00  0.00     0.113 A 
ATOM     17  C   UNL A   1      29.686  27.082  23.493  1.00  0.00     0.025 A 
ATOM     18  C   UNL A   1      31.326  28.290  24.786  1.00  0.00     0.285 A 
ATOM     19  C   UNL A   1      30.266  28.299  23.869  1.00  0.00     0.095 A 
ATOM     20  Br  UNL A   1      29.547  29.834  23.007  1.00  0.00    -0.043 Br
BRANCH  18  21
ATOM     21  N   UNL A   1      32.056  29.502  25.157  1.00  0.00     0.064 N 
ATOM     22  O   UNL A   1      33.238  29.613  24.815  1.00  0.00    -0.258 OA
ATOM     23  O   UNL A   1      31.426  30.367  25.786  1.00  0.00    -0.258 OA
ENDBRANCH  18  21
ENDBRANCH  12  14
ENDBRANCH   9  10
ENDBRANCH   8   9
ENDBRANCH   6   8
ENDBRANCH   5   6
ENDBRANCH   4   5
ENDBRANCH   3   4
ENDBRANCH   2   3
ENDBRANCH   1   2
BRANCH   1  24
ATOM     24  C   UNL A   1      37.157  21.829  25.596  1.00  0.00     0.188 C 
BRANCH  24  25
ATOM     25  O   UNL A   1      36.909  20.499  25.156  1.00  0.00    -0.376 OA
BRANCH  25  26
ATOM     26  C   UNL A   1      38.062  19.792  24.668  1.00  0.00     0.202 C 
BRANCH  26  27
ATOM     27  C   UNL A   1      39.163  19.445  25.702  1.00  0.00     0.261 C 
BRANCH  27  28
ATOM     28  O   UNL A   1      40.212  20.428  25.865  1.00  0.00    -0.460 OA
BRANCH  28  29
ATOM     29  C   UNL A   1      40.878  20.456  27.043  1.00  0.00     0.338 C 
ATOM     30  O   UNL A   1      41.406  19.505  27.596  1.00  0.00    -0.246 OA
BRANCH  29  31
ATOM     31  C   UNL A   1      41.134  21.876  27.415  1.00  0.00     0.060 A 
ATOM     32  C   UNL A   1      40.405  22.871  26.745  1.00  0.00     0.016 A 
ATOM     33  C   UNL A   1      42.002  22.238  28.451  1.00  0.00     0.016 A 
ATOM     34  C   UNL A   1      40.569  24.219  27.074  1.00  0.00     0.010 A 
ATOM     35  C   UNL A   1      42.179  23.593  28.770  1.00  0.00     0.010 A 
ATOM     36  C   UNL A   1      41.492  24.594  28.060  1.00  0.00    -0.014 A 
BRANCH  36  37
ATOM     37  C   UNL A   1      41.898  26.019  28.183  1.00  0.00     0.031 A 
ATOM     38  C   UNL A   1      43.215  26.435  27.579  1.00  0.00     0.074 A 
ATOM     39  C   UNL A   1      41.121  26.945  28.775  1.00  0.00     0.049 A 
ATOM     40  N   UNL A   1      43.798  27.607  27.564  1.00  0.00    -0.248 NA
ATOM     41  C   UNL A   1      43.976  25.375  26.899  1.00  0.00     0.031 C 
ATOM     42  C   UNL A   1      39.804  26.700  29.357  1.00  0.00     0.029 A 
ATOM     43  N   UNL A   1      41.336  28.287  28.982  1.00  0.00    -0.354 N 
ATOM     44  C   UNL A   1      44.994  27.423  26.881  1.00  0.00     0.074 A 
ATOM     45  C   UNL A   1      45.070  26.022  26.530  1.00  0.00     0.031 C 
ATOM     46  C   UNL A   1      39.327  27.856  29.856  1.00  0.00     0.029 A 
ATOM     47  C   UNL A   1      40.319  28.915  29.658  1.00  0.00     0.049 A 
ATOM     48  H   UNL A   1      42.146  28.755  28.674  1.00  0.00     0.167 HD
ATOM     49  C   UNL A   1      45.941  28.338  26.564  1.00  0.00     0.037 A 
ATOM     50  C   UNL A   1      40.209  30.191  30.080  1.00  0.00     0.037 A 
ATOM     51  C   UNL A   1      45.876  29.732  26.911  1.00  0.00     0.049 A 
ATOM     52  C   UNL A   1      41.323  31.172  29.799  1.00  0.00     0.074 A 
ATOM     53  C   UNL A   1      46.778  30.739  26.616  1.00  0.00     0.029 A 
ATOM     54  N   UNL A   1      44.855  30.315  27.648  1.00  0.00    -0.354 N 
ATOM     55  N   UNL A   1      42.434  30.998  29.126  1.00  0.00    -0.248 NA
ATOM     56  C   UNL A   1      41.163  32.530  30.343  1.00  0.00     0.031 C 
ATOM     57  C   UNL A   1      46.335  31.918  27.227  1.00  0.00     0.029 A 
ATOM     58  C   UNL A   1      45.123  31.660  27.846  1.00  0.00     0.049 A 
ATOM     59  H   UNL A   1      44.057  29.843  27.981  1.00  0.00     0.167 HD
ATOM     60  C   UNL A   1      43.084  32.228  29.131  1.00  0.00     0.074 A 
ATOM     61  C   UNL A   1      42.237  33.143  29.866  1.00  0.00     0.031 C 
ATOM     62  C   UNL A   1      44.272  32.570  28.572  1.00  0.00     0.037 A 
BRANCH  49  63
ATOM     63  C   UNL A   1      47.155  27.841  25.832  1.00  0.00     0.064 A 
ATOM     64  C   UNL A   1      47.208  27.795  24.430  1.00  0.00     0.173 A 
ATOM     65  C   UNL A   1      48.282  27.407  26.546  1.00  0.00     0.173 A 
ATOM     66  F   UNL A   1      46.151  28.181  23.700  1.00  0.00    -0.203 F 
ATOM     67  C   UNL A   1      48.330  27.295  23.773  1.00  0.00     0.198 A 
ATOM     68  C   UNL A   1      49.415  26.942  25.884  1.00  0.00     0.198 A 
ATOM     69  F   UNL A   1      48.285  27.434  27.887  1.00  0.00    -0.203 F 
ATOM     70  F   UNL A   1      48.334  27.199  22.436  1.00  0.00    -0.200 F 
ATOM     71  C   UNL A   1      49.434  26.875  24.499  1.00  0.00     0.200 A 
ATOM     72  F   UNL A   1      50.485  26.549  26.589  1.00  0.00    -0.200 F 
ATOM     73  F   UNL A   1      50.512  26.394  23.866  1.00  0.00    -0.200 F 
ENDBRANCH  49  63
BRANCH  50  74
ATOM     74  C   UNL A   1      38.996  30.635  30.819  1.00  0.00     0.064 A 
ATOM     75  C   UNL A   1      38.916  30.512  32.215  1.00  0.00     0.173 A 
ATOM     76  C   UNL A   1      37.877  31.150  30.147  1.00  0.00     0.173 A 
ATOM     77  F   UNL A   1      39.945  29.993  32.901  1.00  0.00    -0.203 F 
ATOM     78  C   UNL A   1      37.760  30.871  32.906  1.00  0.00     0.198 A 
ATOM     79  C   UNL A   1      36.733  31.536  30.842  1.00  0.00     0.198 A 
ATOM     80  F   UNL A   1      37.896  31.277  28.813  1.00  0.00    -0.203 F 
ATOM     81  F   UNL A   1      37.692  30.693  34.233  1.00  0.00    -0.200 F 
ATOM     82  C   UNL A   1      36.672  31.389  32.220  1.00  0.00     0.200 A 
ATOM     83  F   UNL A   1      35.686  32.042  30.177  1.00  0.00    -0.200 F 
ATOM     84  F   UNL A   1      35.560  31.734  32.884  1.00  0.00    -0.200 F 
ENDBRANCH  50  74
BRANCH  62  85
ATOM     85  C   UNL A   1      44.711  34.004  28.686  1.00  0.00     0.064 A 
ATOM     86  C   UNL A   1      44.317  34.979  27.758  1.00  0.00     0.173 A 
ATOM     87  C   UNL A   1      45.511  34.416  29.765  1.00  0.00     0.173 A 
ATOM     88  F   UNL A   1      43.563  34.639  26.701  1.00  0.00    -0.203 F 
ATOM     89  C   UNL A   1      44.731  36.302  27.888  1.00  0.00     0.198 A 
ATOM     90  C   UNL A   1      45.894  35.747  29.911  1.00  0.00     0.198 A 
ATOM     91  F   UNL A   1      45.910  33.528  30.689  1.00  0.00    -0.203 F 
ATOM     92  F   UNL A   1      44.386  37.205  26.958  1.00  0.00    -0.200 F 
ATOM     93  C   UNL A   1      45.512  36.687  28.967  1.00  0.00     0.200 A 
ATOM     94  F   UNL A   1      46.635  36.118  30.965  1.00  0.00    -0.200 F 
ATOM     95  F   UNL A   1      45.903  37.962  29.094  1.00  0.00    -0.200 F 
ENDBRANCH  62  85
ENDBRANCH  36  37
ENDBRANCH  29  31
ENDBRANCH  28  29
ENDBRANCH  27  28
ENDBRANCH  26  27
ENDBRANCH  25  26
ENDBRANCH  24  25
ENDBRANCH   1  24
TORSDOF 21
ENDMDL
