MODEL 1
REMARK VINA RESULT:     -12.0      0.000      0.000
REMARK SMILES Cc1cc(F)cc(N[C@@](C)(C(=O)OCCOCCOCCOC(=O)c2ccc(-c3c4nc(c(-c5c(F)c(F)c(F)c(F)c5F)c5ccc([nH]5)c(-c5c(F)c(F)c(F)c(F)c5F)c5nc(c(-c6c(F)c(F)c(F)c(F)c6F)c6ccc3[nH]6)C=C5)C=C4)cc2)c2ccc(O)cc2)c1
REMARK SMILES IDX 17 1 16 2 15 3 14 4 13 5 11 6 12 7 9 8 10 9 8 10 7 12 1 13
REMARK SMILES IDX 2 14 3 15 95 16 4 17 5 18 6 19 88 20 89 21 94 22 90 23 93 24
REMARK SMILES IDX 91 25 92 26 18 28 19 29 20 30 21 31 22 32 23 33 24 34 25 35
REMARK SMILES IDX 26 36 87 37 27 38 86 39 28 40 29 41 30 42 80 43 31 44 85 45
REMARK SMILES IDX 79 46 81 47 32 48 84 49 78 50 77 51 33 53 65 54 45 55 64 56
REMARK SMILES IDX 46 57 49 58 63 59 82 60 47 61 48 62 62 64 83 65 50 66 34 67
REMARK SMILES IDX 35 68 43 69 36 70 37 71 41 72 44 73 38 74 39 75 42 76 40 77
REMARK SMILES IDX 66 78 67 79 75 80 68 81 69 82 73 83 76 84 70 85 71 86 74 87
REMARK SMILES IDX 72 88 51 89 52 90 60 91 53 92 54 93 58 94 61 95 55 96 56 97
REMARK SMILES IDX 59 98 57 99
REMARK H PARENT 8 11 92 27 81 52 49 63
REMARK Flexibility Score: inf
ROOT
ATOM      1  C   UNL A   1      35.697  22.550  25.593  1.00  0.00     0.188 C 
ENDROOT
BRANCH   1   2
ATOM      2  O   UNL A   1      35.445  22.123  24.259  1.00  0.00    -0.376 OA
BRANCH   2   3
ATOM      3  C   UNL A   1      34.121  22.213  23.764  1.00  0.00     0.202 C 
BRANCH   3   4
ATOM      4  C   UNL A   1      33.777  23.449  22.921  1.00  0.00     0.261 C 
BRANCH   4   5
ATOM      5  O   UNL A   1      33.093  24.494  23.645  1.00  0.00    -0.461 OA
BRANCH   5   6
ATOM      6  C   UNL A   1      32.793  25.624  22.937  1.00  0.00     0.336 C 
ATOM      7  O   UNL A   1      33.377  25.942  21.904  1.00  0.00    -0.249 OA
BRANCH   6   8
ATOM      8  C   UNL A   1      31.626  26.485  23.574  1.00  0.00     0.158 C 
ATOM      9  C   UNL A   1      30.617  25.406  24.028  1.00  0.00     0.053 C 
BRANCH   8  10
ATOM     10  N   UNL A   1      30.914  27.319  22.538  1.00  0.00    -0.366 N 
ATOM     11  H   UNL A   1      31.272  27.247  21.623  1.00  0.00     0.162 HD
BRANCH  10  12
ATOM     12  C   UNL A   1      29.830  28.174  22.683  1.00  0.00     0.038 A 
ATOM     13  C   UNL A   1      28.919  31.818  21.843  1.00  0.00     0.044 C 
ATOM     14  C   UNL A   1      28.801  30.376  22.246  1.00  0.00    -0.046 A 
ATOM     15  C   UNL A   1      27.573  29.893  22.691  1.00  0.00     0.042 A 
ATOM     16  C   UNL A   1      29.906  29.499  22.205  1.00  0.00     0.029 A 
ATOM     17  C   UNL A   1      27.505  28.618  23.227  1.00  0.00     0.125 A 
ATOM     18  F   UNL A   1      26.349  28.184  23.749  1.00  0.00    -0.207 F 
ATOM     19  C   UNL A   1      28.627  27.799  23.279  1.00  0.00     0.065 A 
ENDBRANCH  10  12
ENDBRANCH   8  10
BRANCH   8  20
ATOM     20  C   UNL A   1      32.153  27.310  24.768  1.00  0.00    -0.011 A 
ATOM     21  C   UNL A   1      33.357  28.041  24.670  1.00  0.00     0.010 A 
ATOM     22  C   UNL A   1      31.518  27.281  26.028  1.00  0.00     0.010 A 
ATOM     23  C   UNL A   1      33.940  28.634  25.793  1.00  0.00     0.046 A 
ATOM     24  C   UNL A   1      32.084  27.907  27.146  1.00  0.00     0.046 A 
ATOM     25  C   UNL A   1      33.305  28.554  27.023  1.00  0.00     0.115 A 
BRANCH  25  26
ATOM     26  O   UNL A   1      33.929  29.107  28.101  1.00  0.00    -0.508 OA
ATOM     27  H   UNL A   1      34.843  29.309  28.060  1.00  0.00     0.293 HD
ENDBRANCH  25  26
ENDBRANCH   8  20
ENDBRANCH   6   8
ENDBRANCH   5   6
ENDBRANCH   4   5
ENDBRANCH   3   4
ENDBRANCH   2   3
ENDBRANCH   1   2
BRANCH   1  28
ATOM     28  C   UNL A   1      36.979  23.335  25.961  1.00  0.00     0.188 C 
BRANCH  28  29
ATOM     29  O   UNL A   1      38.183  22.857  25.377  1.00  0.00    -0.376 OA
BRANCH  29  30
ATOM     30  C   UNL A   1      38.847  21.839  26.115  1.00  0.00     0.202 C 
BRANCH  30  31
ATOM     31  C   UNL A   1      40.267  22.282  26.480  1.00  0.00     0.261 C 
BRANCH  31  32
ATOM     32  O   UNL A   1      40.363  22.720  27.838  1.00  0.00    -0.460 OA
BRANCH  32  33
ATOM     33  C   UNL A   1      40.951  23.923  27.944  1.00  0.00     0.338 C 
ATOM     34  O   UNL A   1      42.120  24.173  28.174  1.00  0.00    -0.246 OA
BRANCH  33  35
ATOM     35  C   UNL A   1      39.970  24.981  27.731  1.00  0.00     0.060 A 
ATOM     36  C   UNL A   1      40.212  25.848  26.648  1.00  0.00     0.016 A 
ATOM     37  C   UNL A   1      39.307  25.370  28.886  1.00  0.00     0.016 A 
ATOM     38  C   UNL A   1      40.063  27.199  26.839  1.00  0.00     0.010 A 
ATOM     39  C   UNL A   1      39.223  26.719  29.097  1.00  0.00     0.010 A 
ATOM     40  C   UNL A   1      39.732  27.599  28.119  1.00  0.00    -0.014 A 
BRANCH  40  41
ATOM     41  C   UNL A   1      40.092  28.902  28.625  1.00  0.00     0.031 A 
ATOM     42  C   UNL A   1      39.063  29.941  28.667  1.00  0.00     0.074 A 
ATOM     43  C   UNL A   1      41.220  28.946  29.368  1.00  0.00     0.049 A 
ATOM     44  N   UNL A   1      39.272  31.156  29.033  1.00  0.00    -0.248 NA
ATOM     45  C   UNL A   1      37.683  29.674  28.267  1.00  0.00     0.031 C 
ATOM     46  C   UNL A   1      41.461  29.779  30.537  1.00  0.00     0.029 A 
ATOM     47  N   UNL A   1      42.434  28.262  29.173  1.00  0.00    -0.354 N 
ATOM     48  C   UNL A   1      38.035  31.699  29.274  1.00  0.00     0.074 A 
ATOM     49  C   UNL A   1      37.082  30.793  28.674  1.00  0.00     0.031 C 
ATOM     50  C   UNL A   1      42.769  29.751  30.838  1.00  0.00     0.029 A 
ATOM     51  C   UNL A   1      43.444  29.079  29.741  1.00  0.00     0.049 A 
ATOM     52  H   UNL A   1      42.558  27.391  28.731  1.00  0.00     0.167 HD
ATOM     53  C   UNL A   1      37.929  32.741  30.142  1.00  0.00     0.037 A 
ATOM     54  C   UNL A   1      44.392  29.686  28.959  1.00  0.00     0.037 A 
ATOM     55  C   UNL A   1      39.235  33.157  30.641  1.00  0.00     0.049 A 
ATOM     56  C   UNL A   1      44.330  31.197  28.973  1.00  0.00     0.074 A 
ATOM     57  C   UNL A   1      39.935  32.840  31.795  1.00  0.00     0.029 A 
ATOM     58  N   UNL A   1      40.170  33.684  29.753  1.00  0.00    -0.354 N 
ATOM     59  N   UNL A   1      43.278  31.871  29.342  1.00  0.00    -0.248 NA
ATOM     60  C   UNL A   1      45.422  32.063  28.539  1.00  0.00     0.031 C 
ATOM     61  C   UNL A   1      41.305  33.128  31.579  1.00  0.00     0.029 A 
ATOM     62  C   UNL A   1      41.438  33.637  30.302  1.00  0.00     0.049 A 
ATOM     63  H   UNL A   1      39.958  34.039  28.860  1.00  0.00     0.167 HD
ATOM     64  C   UNL A   1      43.526  33.209  29.228  1.00  0.00     0.074 A 
ATOM     65  C   UNL A   1      44.883  33.282  28.721  1.00  0.00     0.031 C 
ATOM     66  C   UNL A   1      42.588  34.140  29.570  1.00  0.00     0.037 A 
BRANCH  53  67
ATOM     67  C   UNL A   1      36.605  33.057  30.780  1.00  0.00     0.064 A 
ATOM     68  C   UNL A   1      35.648  33.858  30.127  1.00  0.00     0.173 A 
ATOM     69  C   UNL A   1      36.274  32.665  32.090  1.00  0.00     0.173 A 
ATOM     70  F   UNL A   1      35.803  34.241  28.855  1.00  0.00    -0.203 F 
ATOM     71  C   UNL A   1      34.502  34.320  30.773  1.00  0.00     0.198 A 
ATOM     72  C   UNL A   1      35.154  33.170  32.754  1.00  0.00     0.198 A 
ATOM     73  F   UNL A   1      37.041  31.788  32.757  1.00  0.00    -0.203 F 
ATOM     74  F   UNL A   1      33.634  35.097  30.109  1.00  0.00    -0.200 F 
ATOM     75  C   UNL A   1      34.272  34.007  32.097  1.00  0.00     0.200 A 
ATOM     76  F   UNL A   1      34.944  32.859  34.041  1.00  0.00    -0.200 F 
ATOM     77  F   UNL A   1      33.201  34.501  32.733  1.00  0.00    -0.200 F 
ENDBRANCH  53  67
BRANCH  54  78
ATOM     78  C   UNL A   1      44.718  28.892  27.747  1.00  0.00     0.064 A 
ATOM     79  C   UNL A   1      45.451  27.702  27.905  1.00  0.00     0.173 A 
ATOM     80  C   UNL A   1      43.875  29.005  26.639  1.00  0.00     0.173 A 
ATOM     81  F   UNL A   1      46.301  27.570  28.935  1.00  0.00    -0.203 F 
ATOM     82  C   UNL A   1      45.204  26.600  27.092  1.00  0.00     0.198 A 
ATOM     83  C   UNL A   1      43.594  27.886  25.868  1.00  0.00     0.198 A 
ATOM     84  F   UNL A   1      43.179  30.130  26.421  1.00  0.00    -0.203 F 
ATOM     85  F   UNL A   1      45.842  25.442  27.313  1.00  0.00    -0.200 F 
ATOM     86  C   UNL A   1      44.224  26.675  26.118  1.00  0.00     0.200 A 
ATOM     87  F   UNL A   1      42.617  27.965  24.961  1.00  0.00    -0.200 F 
ATOM     88  F   UNL A   1      43.856  25.569  25.457  1.00  0.00    -0.200 F 
ENDBRANCH  54  78
BRANCH  66  89
ATOM     89  C   UNL A   1      42.690  35.623  29.355  1.00  0.00     0.064 A 
ATOM     90  C   UNL A   1      43.506  36.467  30.119  1.00  0.00     0.173 A 
ATOM     91  C   UNL A   1      42.060  36.215  28.233  1.00  0.00     0.173 A 
ATOM     92  F   UNL A   1      44.225  35.994  31.147  1.00  0.00    -0.203 F 
ATOM     93  C   UNL A   1      43.648  37.821  29.809  1.00  0.00     0.198 A 
ATOM     94  C   UNL A   1      42.250  37.550  27.894  1.00  0.00     0.198 A 
ATOM     95  F   UNL A   1      41.261  35.508  27.421  1.00  0.00    -0.203 F 
ATOM     96  F   UNL A   1      44.411  38.603  30.587  1.00  0.00    -0.200 F 
ATOM     97  C   UNL A   1      43.034  38.359  28.690  1.00  0.00     0.200 A 
ATOM     98  F   UNL A   1      41.686  38.042  26.782  1.00  0.00    -0.200 F 
ATOM     99  F   UNL A   1      43.212  39.647  28.371  1.00  0.00    -0.200 F 
ENDBRANCH  66  89
ENDBRANCH  40  41
ENDBRANCH  33  35
ENDBRANCH  32  33
ENDBRANCH  31  32
ENDBRANCH  30  31
ENDBRANCH  29  30
ENDBRANCH  28  29
ENDBRANCH   1  28
TORSDOF 21
ENDMDL
MODEL 2
REMARK VINA RESULT:     -11.8      3.924     10.147
REMARK SMILES Cc1cc(F)cc(N[C@@](C)(C(=O)OCCOCCOCCOC(=O)c2ccc(-c3c4nc(c(-c5c(F)c(F)c(F)c(F)c5F)c5ccc([nH]5)c(-c5c(F)c(F)c(F)c(F)c5F)c5nc(c(-c6c(F)c(F)c(F)c(F)c6F)c6ccc3[nH]6)C=C5)C=C4)cc2)c2ccc(O)cc2)c1
REMARK SMILES IDX 17 1 16 2 15 3 14 4 13 5 11 6 12 7 9 8 10 9 8 10 7 12 1 13
REMARK SMILES IDX 2 14 3 15 95 16 4 17 5 18 6 19 88 20 89 21 94 22 90 23 93 24
REMARK SMILES IDX 91 25 92 26 18 28 19 29 20 30 21 31 22 32 23 33 24 34 25 35
REMARK SMILES IDX 26 36 87 37 27 38 86 39 28 40 29 41 30 42 80 43 31 44 85 45
REMARK SMILES IDX 79 46 81 47 32 48 84 49 78 50 77 51 33 53 65 54 45 55 64 56
REMARK SMILES IDX 46 57 49 58 63 59 82 60 47 61 48 62 62 64 83 65 50 66 34 67
REMARK SMILES IDX 35 68 43 69 36 70 37 71 41 72 44 73 38 74 39 75 42 76 40 77
REMARK SMILES IDX 66 78 67 79 75 80 68 81 69 82 73 83 76 84 70 85 71 86 74 87
REMARK SMILES IDX 72 88 51 89 52 90 60 91 53 92 54 93 58 94 61 95 55 96 56 97
REMARK SMILES IDX 59 98 57 99
REMARK H PARENT 8 11 92 27 81 52 49 63
REMARK Flexibility Score: inf
ROOT
ATOM      1  C   UNL A   1      33.111  28.643  25.979  1.00  0.00     0.188 C 
ENDROOT
BRANCH   1   2
ATOM      2  O   UNL A   1      31.704  28.502  26.138  1.00  0.00    -0.376 OA
BRANCH   2   3
ATOM      3  C   UNL A   1      31.145  27.203  26.052  1.00  0.00     0.202 C 
BRANCH   3   4
ATOM      4  C   UNL A   1      30.786  26.692  24.650  1.00  0.00     0.261 C 
BRANCH   4   5
ATOM      5  O   UNL A   1      31.298  25.378  24.344  1.00  0.00    -0.461 OA
BRANCH   5   6
ATOM      6  C   UNL A   1      32.460  25.332  23.627  1.00  0.00     0.336 C 
ATOM      7  O   UNL A   1      33.033  26.338  23.216  1.00  0.00    -0.249 OA
BRANCH   6   8
ATOM      8  C   UNL A   1      32.995  23.864  23.370  1.00  0.00     0.158 C 
ATOM      9  C   UNL A   1      32.927  23.743  21.830  1.00  0.00     0.053 C 
BRANCH   8  10
ATOM     10  N   UNL A   1      32.054  22.820  23.917  1.00  0.00    -0.366 N 
ATOM     11  H   UNL A   1      31.163  23.152  24.175  1.00  0.00     0.162 HD
BRANCH  10  12
ATOM     12  C   UNL A   1      32.257  21.460  24.111  1.00  0.00     0.038 A 
ATOM     13  C   UNL A   1      32.369  18.248  21.995  1.00  0.00     0.044 C 
ATOM     14  C   UNL A   1      32.516  19.203  23.144  1.00  0.00    -0.046 A 
ATOM     15  C   UNL A   1      32.935  18.718  24.381  1.00  0.00     0.042 A 
ATOM     16  C   UNL A   1      32.225  20.577  23.012  1.00  0.00     0.029 A 
ATOM     17  C   UNL A   1      32.901  19.560  25.480  1.00  0.00     0.125 A 
ATOM     18  F   UNL A   1      33.205  19.074  26.692  1.00  0.00    -0.207 F 
ATOM     19  C   UNL A   1      32.509  20.888  25.357  1.00  0.00     0.065 A 
ENDBRANCH  10  12
ENDBRANCH   8  10
BRANCH   8  20
ATOM     20  C   UNL A   1      34.442  23.717  23.889  1.00  0.00    -0.011 A 
ATOM     21  C   UNL A   1      35.422  23.047  23.125  1.00  0.00     0.010 A 
ATOM     22  C   UNL A   1      34.815  24.148  25.181  1.00  0.00     0.010 A 
ATOM     23  C   UNL A   1      36.677  22.743  23.660  1.00  0.00     0.046 A 
ATOM     24  C   UNL A   1      36.085  23.875  25.703  1.00  0.00     0.046 A 
ATOM     25  C   UNL A   1      36.995  23.150  24.946  1.00  0.00     0.115 A 
BRANCH  25  26
ATOM     26  O   UNL A   1      38.212  22.795  25.447  1.00  0.00    -0.508 OA
ATOM     27  H   UNL A   1      38.368  22.836  26.370  1.00  0.00     0.293 HD
ENDBRANCH  25  26
ENDBRANCH   8  20
ENDBRANCH   6   8
ENDBRANCH   5   6
ENDBRANCH   4   5
ENDBRANCH   3   4
ENDBRANCH   2   3
ENDBRANCH   1   2
BRANCH   1  28
ATOM     28  C   UNL A   1      33.976  29.363  27.042  1.00  0.00     0.188 C 
BRANCH  28  29
ATOM     29  O   UNL A   1      34.110  30.768  26.877  1.00  0.00    -0.376 OA
BRANCH  29  30
ATOM     30  C   UNL A   1      33.744  31.544  28.010  1.00  0.00     0.202 C 
BRANCH  30  31
ATOM     31  C   UNL A   1      34.928  32.396  28.480  1.00  0.00     0.261 C 
BRANCH  31  32
ATOM     32  O   UNL A   1      36.118  32.123  27.735  1.00  0.00    -0.460 OA
BRANCH  32  33
ATOM     33  C   UNL A   1      37.095  31.615  28.504  1.00  0.00     0.338 C 
ATOM     34  O   UNL A   1      37.753  32.180  29.358  1.00  0.00    -0.246 OA
BRANCH  33  35
ATOM     35  C   UNL A   1      37.295  30.205  28.192  1.00  0.00     0.060 A 
ATOM     36  C   UNL A   1      36.965  29.287  29.208  1.00  0.00     0.016 A 
ATOM     37  C   UNL A   1      38.287  29.976  27.250  1.00  0.00     0.016 A 
ATOM     38  C   UNL A   1      37.837  28.263  29.480  1.00  0.00     0.010 A 
ATOM     39  C   UNL A   1      39.189  28.996  27.564  1.00  0.00     0.010 A 
ATOM     40  C   UNL A   1      39.011  28.253  28.751  1.00  0.00    -0.014 A 
BRANCH  40  41
ATOM     41  C   UNL A   1      40.221  27.661  29.266  1.00  0.00     0.031 A 
ATOM     42  C   UNL A   1      40.577  26.311  28.828  1.00  0.00     0.074 A 
ATOM     43  C   UNL A   1      41.114  28.528  29.795  1.00  0.00     0.049 A 
ATOM     44  N   UNL A   1      41.591  25.650  29.263  1.00  0.00    -0.248 NA
ATOM     45  C   UNL A   1      39.773  25.584  27.848  1.00  0.00     0.031 C 
ATOM     46  C   UNL A   1      42.564  28.443  29.711  1.00  0.00     0.029 A 
ATOM     47  N   UNL A   1      40.877  29.666  30.587  1.00  0.00    -0.354 N 
ATOM     48  C   UNL A   1      41.780  24.619  28.377  1.00  0.00     0.074 A 
ATOM     49  C   UNL A   1      40.569  24.544  27.592  1.00  0.00     0.031 C 
ATOM     50  C   UNL A   1      43.109  29.316  30.575  1.00  0.00     0.029 A 
ATOM     51  C   UNL A   1      42.028  29.830  31.398  1.00  0.00     0.049 A 
ATOM     52  H   UNL A   1      40.074  30.236  30.579  1.00  0.00     0.167 HD
ATOM     53  C   UNL A   1      43.022  24.077  28.250  1.00  0.00     0.037 A 
ATOM     54  C   UNL A   1      41.971  29.653  32.757  1.00  0.00     0.037 A 
ATOM     55  C   UNL A   1      43.968  24.686  29.179  1.00  0.00     0.049 A 
ATOM     56  C   UNL A   1      42.802  28.497  33.265  1.00  0.00     0.074 A 
ATOM     57  C   UNL A   1      44.885  25.716  29.033  1.00  0.00     0.029 A 
ATOM     58  N   UNL A   1      43.780  24.526  30.550  1.00  0.00    -0.354 N 
ATOM     59  N   UNL A   1      43.211  27.517  32.509  1.00  0.00    -0.248 NA
ATOM     60  C   UNL A   1      43.201  28.328  34.659  1.00  0.00     0.031 C 
ATOM     61  C   UNL A   1      45.206  26.213  30.320  1.00  0.00     0.029 A 
ATOM     62  C   UNL A   1      44.502  25.473  31.251  1.00  0.00     0.049 A 
ATOM     63  H   UNL A   1      43.212  23.835  30.962  1.00  0.00     0.167 HD
ATOM     64  C   UNL A   1      43.920  26.622  33.260  1.00  0.00     0.074 A 
ATOM     65  C   UNL A   1      43.888  27.173  34.602  1.00  0.00     0.031 C 
ATOM     66  C   UNL A   1      44.477  25.508  32.704  1.00  0.00     0.037 A 
BRANCH  53  67
ATOM     67  C   UNL A   1      43.382  23.301  27.015  1.00  0.00     0.064 A 
ATOM     68  C   UNL A   1      43.064  21.935  26.887  1.00  0.00     0.173 A 
ATOM     69  C   UNL A   1      44.133  23.848  25.959  1.00  0.00     0.173 A 
ATOM     70  F   UNL A   1      42.295  21.307  27.783  1.00  0.00    -0.203 F 
ATOM     71  C   UNL A   1      43.553  21.153  25.842  1.00  0.00     0.198 A 
ATOM     72  C   UNL A   1      44.666  23.055  24.940  1.00  0.00     0.198 A 
ATOM     73  F   UNL A   1      44.373  25.168  25.901  1.00  0.00    -0.203 F 
ATOM     74  F   UNL A   1      43.236  19.852  25.781  1.00  0.00    -0.200 F 
ATOM     75  C   UNL A   1      44.384  21.704  24.888  1.00  0.00     0.200 A 
ATOM     76  F   UNL A   1      45.474  23.604  24.021  1.00  0.00    -0.200 F 
ATOM     77  F   UNL A   1      44.902  20.938  23.918  1.00  0.00    -0.200 F 
ENDBRANCH  53  67
BRANCH  54  78
ATOM     78  C   UNL A   1      40.646  30.019  33.320  1.00  0.00     0.064 A 
ATOM     79  C   UNL A   1      40.313  31.382  33.412  1.00  0.00     0.173 A 
ATOM     80  C   UNL A   1      39.608  29.091  33.215  1.00  0.00     0.173 A 
ATOM     81  F   UNL A   1      41.281  32.301  33.553  1.00  0.00    -0.203 F 
ATOM     82  C   UNL A   1      39.003  31.810  33.214  1.00  0.00     0.198 A 
ATOM     83  C   UNL A   1      38.314  29.527  32.964  1.00  0.00     0.198 A 
ATOM     84  F   UNL A   1      39.867  27.776  33.159  1.00  0.00    -0.203 F 
ATOM     85  F   UNL A   1      38.714  33.119  33.210  1.00  0.00    -0.200 F 
ATOM     86  C   UNL A   1      38.018  30.883  32.921  1.00  0.00     0.200 A 
ATOM     87  F   UNL A   1      37.387  28.622  32.643  1.00  0.00    -0.200 F 
ATOM     88  F   UNL A   1      36.800  31.301  32.552  1.00  0.00    -0.200 F 
ENDBRANCH  54  78
BRANCH  66  89
ATOM     89  C   UNL A   1      45.150  24.388  33.443  1.00  0.00     0.064 A 
ATOM     90  C   UNL A   1      44.513  23.188  33.788  1.00  0.00     0.173 A 
ATOM     91  C   UNL A   1      46.543  24.445  33.690  1.00  0.00     0.173 A 
ATOM     92  F   UNL A   1      43.216  22.986  33.514  1.00  0.00    -0.203 F 
ATOM     93  C   UNL A   1      45.213  22.134  34.378  1.00  0.00     0.198 A 
ATOM     94  C   UNL A   1      47.247  23.372  34.225  1.00  0.00     0.198 A 
ATOM     95  F   UNL A   1      47.264  25.537  33.396  1.00  0.00    -0.203 F 
ATOM     96  F   UNL A   1      44.559  21.016  34.726  1.00  0.00    -0.200 F 
ATOM     97  C   UNL A   1      46.580  22.219  34.583  1.00  0.00     0.200 A 
ATOM     98  F   UNL A   1      48.577  23.455  34.372  1.00  0.00    -0.200 F 
ATOM     99  F   UNL A   1      47.254  21.187  35.106  1.00  0.00    -0.200 F 
ENDBRANCH  66  89
ENDBRANCH  40  41
ENDBRANCH  33  35
ENDBRANCH  32  33
ENDBRANCH  31  32
ENDBRANCH  30  31
ENDBRANCH  29  30
ENDBRANCH  28  29
ENDBRANCH   1  28
TORSDOF 21
ENDMDL
MODEL 3
REMARK VINA RESULT:     -11.6      1.863      2.594
REMARK SMILES Cc1cc(F)cc(N[C@@](C)(C(=O)OCCOCCOCCOC(=O)c2ccc(-c3c4nc(c(-c5c(F)c(F)c(F)c(F)c5F)c5ccc([nH]5)c(-c5c(F)c(F)c(F)c(F)c5F)c5nc(c(-c6c(F)c(F)c(F)c(F)c6F)c6ccc3[nH]6)C=C5)C=C4)cc2)c2ccc(O)cc2)c1
REMARK SMILES IDX 17 1 16 2 15 3 14 4 13 5 11 6 12 7 9 8 10 9 8 10 7 12 1 13
REMARK SMILES IDX 2 14 3 15 95 16 4 17 5 18 6 19 88 20 89 21 94 22 90 23 93 24
REMARK SMILES IDX 91 25 92 26 18 28 19 29 20 30 21 31 22 32 23 33 24 34 25 35
REMARK SMILES IDX 26 36 87 37 27 38 86 39 28 40 29 41 30 42 80 43 31 44 85 45
REMARK SMILES IDX 79 46 81 47 32 48 84 49 78 50 77 51 33 53 65 54 45 55 64 56
REMARK SMILES IDX 46 57 49 58 63 59 82 60 47 61 48 62 62 64 83 65 50 66 34 67
REMARK SMILES IDX 35 68 43 69 36 70 37 71 41 72 44 73 38 74 39 75 42 76 40 77
REMARK SMILES IDX 66 78 67 79 75 80 68 81 69 82 73 83 76 84 70 85 71 86 74 87
REMARK SMILES IDX 72 88 51 89 52 90 60 91 53 92 54 93 58 94 61 95 55 96 56 97
REMARK SMILES IDX 59 98 57 99
REMARK H PARENT 8 11 92 27 81 52 49 63
REMARK Flexibility Score: inf
ROOT
ATOM      1  C   UNL A   1      35.340  22.834  25.112  1.00  0.00     0.188 C 
ENDROOT
BRANCH   1   2
ATOM      2  O   UNL A   1      35.094  22.922  23.713  1.00  0.00    -0.376 OA
BRANCH   2   3
ATOM      3  C   UNL A   1      33.813  22.557  23.231  1.00  0.00     0.202 C 
BRANCH   3   4
ATOM      4  C   UNL A   1      33.283  23.327  22.015  1.00  0.00     0.261 C 
BRANCH   4   5
ATOM      5  O   UNL A   1      32.417  24.435  22.341  1.00  0.00    -0.461 OA
BRANCH   5   6
ATOM      6  C   UNL A   1      32.997  25.672  22.361  1.00  0.00     0.336 C 
ATOM      7  O   UNL A   1      33.996  25.954  21.702  1.00  0.00    -0.249 OA
BRANCH   6   8
ATOM      8  C   UNL A   1      32.267  26.705  23.314  1.00  0.00     0.158 C 
ATOM      9  C   UNL A   1      31.197  27.324  22.385  1.00  0.00     0.053 C 
BRANCH   8  10
ATOM     10  N   UNL A   1      33.180  27.837  23.719  1.00  0.00    -0.366 N 
ATOM     11  H   UNL A   1      33.908  28.035  23.087  1.00  0.00     0.162 HD
BRANCH  10  12
ATOM     12  C   UNL A   1      33.144  28.639  24.851  1.00  0.00     0.038 A 
ATOM     13  C   UNL A   1      31.081  31.590  26.209  1.00  0.00     0.044 C 
ATOM     14  C   UNL A   1      32.038  30.436  26.134  1.00  0.00    -0.046 A 
ATOM     15  C   UNL A   1      32.829  30.135  27.241  1.00  0.00     0.042 A 
ATOM     16  C   UNL A   1      32.173  29.655  24.966  1.00  0.00     0.029 A 
ATOM     17  C   UNL A   1      33.831  29.188  27.115  1.00  0.00     0.125 A 
ATOM     18  F   UNL A   1      34.660  28.966  28.144  1.00  0.00    -0.207 F 
ATOM     19  C   UNL A   1      34.024  28.500  25.923  1.00  0.00     0.065 A 
ENDBRANCH  10  12
ENDBRANCH   8  10
BRANCH   8  20
ATOM     20  C   UNL A   1      31.626  25.975  24.514  1.00  0.00    -0.011 A 
ATOM     21  C   UNL A   1      32.402  25.156  25.363  1.00  0.00     0.010 A 
ATOM     22  C   UNL A   1      30.234  26.008  24.745  1.00  0.00     0.010 A 
ATOM     23  C   UNL A   1      31.806  24.345  26.332  1.00  0.00     0.046 A 
ATOM     24  C   UNL A   1      29.641  25.222  25.741  1.00  0.00     0.046 A 
ATOM     25  C   UNL A   1      30.431  24.376  26.507  1.00  0.00     0.115 A 
BRANCH  25  26
ATOM     26  O   UNL A   1      29.884  23.537  27.432  1.00  0.00    -0.508 OA
ATOM     27  H   UNL A   1      29.210  22.938  27.178  1.00  0.00     0.293 HD
ENDBRANCH  25  26
ENDBRANCH   8  20
ENDBRANCH   6   8
ENDBRANCH   5   6
ENDBRANCH   4   5
ENDBRANCH   3   4
ENDBRANCH   2   3
ENDBRANCH   1   2
BRANCH   1  28
ATOM     28  C   UNL A   1      36.749  23.084  25.702  1.00  0.00     0.188 C 
BRANCH  28  29
ATOM     29  O   UNL A   1      37.820  22.431  25.034  1.00  0.00    -0.376 OA
BRANCH  29  30
ATOM     30  C   UNL A   1      38.408  21.353  25.749  1.00  0.00     0.202 C 
BRANCH  30  31
ATOM     31  C   UNL A   1      39.876  21.656  26.063  1.00  0.00     0.261 C 
BRANCH  31  32
ATOM     32  O   UNL A   1      40.044  22.210  27.371  1.00  0.00    -0.460 OA
BRANCH  32  33
ATOM     33  C   UNL A   1      40.798  23.322  27.359  1.00  0.00     0.338 C 
ATOM     34  O   UNL A   1      42.005  23.416  27.489  1.00  0.00    -0.246 OA
BRANCH  33  35
ATOM     35  C   UNL A   1      39.957  24.495  27.151  1.00  0.00     0.060 A 
ATOM     36  C   UNL A   1      40.406  25.423  26.191  1.00  0.00     0.016 A 
ATOM     37  C   UNL A   1      39.206  24.849  28.262  1.00  0.00     0.016 A 
ATOM     38  C   UNL A   1      40.370  26.760  26.500  1.00  0.00     0.010 A 
ATOM     39  C   UNL A   1      39.231  26.175  28.596  1.00  0.00     0.010 A 
ATOM     40  C   UNL A   1      39.933  27.079  27.772  1.00  0.00    -0.014 A 
BRANCH  40  41
ATOM     41  C   UNL A   1      40.358  28.284  28.441  1.00  0.00     0.031 A 
ATOM     42  C   UNL A   1      39.431  29.416  28.493  1.00  0.00     0.074 A 
ATOM     43  C   UNL A   1      41.402  28.143  29.288  1.00  0.00     0.049 A 
ATOM     44  N   UNL A   1      39.714  30.563  29.000  1.00  0.00    -0.248 NA
ATOM     45  C   UNL A   1      38.082  29.330  27.938  1.00  0.00     0.031 C 
ATOM     46  C   UNL A   1      41.596  28.833  30.554  1.00  0.00     0.029 A 
ATOM     47  N   UNL A   1      42.560  27.359  29.139  1.00  0.00    -0.354 N 
ATOM     48  C   UNL A   1      38.515  31.206  29.177  1.00  0.00     0.074 A 
ATOM     49  C   UNL A   1      37.549  30.463  28.400  1.00  0.00     0.031 C 
ATOM     50  C   UNL A   1      42.858  28.643  30.973  1.00  0.00     0.029 A 
ATOM     51  C   UNL A   1      43.577  28.010  29.881  1.00  0.00     0.049 A 
ATOM     52  H   UNL A   1      42.648  26.525  28.623  1.00  0.00     0.167 HD
ATOM     53  C   UNL A   1      38.416  32.168  30.135  1.00  0.00     0.037 A 
ATOM     54  C   UNL A   1      44.655  28.587  29.259  1.00  0.00     0.037 A 
ATOM     55  C   UNL A   1      39.696  32.398  30.795  1.00  0.00     0.049 A 
ATOM     56  C   UNL A   1      44.732  30.088  29.423  1.00  0.00     0.074 A 
ATOM     57  C   UNL A   1      40.239  31.905  31.971  1.00  0.00     0.029 A 
ATOM     58  N   UNL A   1      40.763  32.907  30.058  1.00  0.00    -0.354 N 
ATOM     59  N   UNL A   1      43.715  30.829  29.759  1.00  0.00    -0.248 NA
ATOM     60  C   UNL A   1      45.939  30.874  29.186  1.00  0.00     0.031 C 
ATOM     61  C   UNL A   1      41.645  32.069  31.916  1.00  0.00     0.029 A 
ATOM     62  C   UNL A   1      41.957  32.679  30.717  1.00  0.00     0.049 A 
ATOM     63  H   UNL A   1      40.680  33.363  29.190  1.00  0.00     0.167 HD
ATOM     64  C   UNL A   1      44.097  32.140  29.807  1.00  0.00     0.074 A 
ATOM     65  C   UNL A   1      45.501  32.120  29.440  1.00  0.00     0.031 C 
ATOM     66  C   UNL A   1      43.220  33.126  30.152  1.00  0.00     0.037 A 
BRANCH  53  67
ATOM     67  C   UNL A   1      37.068  32.558  30.674  1.00  0.00     0.064 A 
ATOM     68  C   UNL A   1      36.210  33.413  29.956  1.00  0.00     0.173 A 
ATOM     69  C   UNL A   1      36.618  32.182  31.952  1.00  0.00     0.173 A 
ATOM     70  F   UNL A   1      36.482  33.789  28.702  1.00  0.00    -0.203 F 
ATOM     71  C   UNL A   1      35.046  33.938  30.517  1.00  0.00     0.198 A 
ATOM     72  C   UNL A   1      35.481  32.749  32.533  1.00  0.00     0.198 A 
ATOM     73  F   UNL A   1      37.282  31.261  32.669  1.00  0.00    -0.203 F 
ATOM     74  F   UNL A   1      34.277  34.765  29.795  1.00  0.00    -0.200 F 
ATOM     75  C   UNL A   1      34.701  33.636  31.818  1.00  0.00     0.200 A 
ATOM     76  F   UNL A   1      35.158  32.447  33.799  1.00  0.00    -0.200 F 
ATOM     77  F   UNL A   1      33.615  34.189  32.376  1.00  0.00    -0.200 F 
ENDBRANCH  53  67
BRANCH  54  78
ATOM     78  C   UNL A   1      45.030  27.880  28.008  1.00  0.00     0.064 A 
ATOM     79  C   UNL A   1      45.579  26.590  28.109  1.00  0.00     0.173 A 
ATOM     80  C   UNL A   1      44.356  28.220  26.832  1.00  0.00     0.173 A 
ATOM     81  F   UNL A   1      46.267  26.238  29.207  1.00  0.00    -0.203 F 
ATOM     82  C   UNL A   1      45.300  25.619  27.151  1.00  0.00     0.198 A 
ATOM     83  C   UNL A   1      44.037  27.234  25.909  1.00  0.00     0.198 A 
ATOM     84  F   UNL A   1      43.842  29.448  26.669  1.00  0.00    -0.203 F 
ATOM     85  F   UNL A   1      45.753  24.367  27.307  1.00  0.00    -0.200 F 
ATOM     86  C   UNL A   1      44.471  25.928  26.087  1.00  0.00     0.200 A 
ATOM     87  F   UNL A   1      43.202  27.539  24.913  1.00  0.00    -0.200 F 
ATOM     88  F   UNL A   1      44.054  24.955  25.265  1.00  0.00    -0.200 F 
ENDBRANCH  54  78
BRANCH  66  89
ATOM     89  C   UNL A   1      43.481  34.604  30.102  1.00  0.00     0.064 A 
ATOM     90  C   UNL A   1      43.495  35.354  28.918  1.00  0.00     0.173 A 
ATOM     91  C   UNL A   1      43.570  35.344  31.307  1.00  0.00     0.173 A 
ATOM     92  F   UNL A   1      43.322  34.770  27.724  1.00  0.00    -0.203 F 
ATOM     93  C   UNL A   1      43.634  36.743  28.936  1.00  0.00     0.198 A 
ATOM     94  C   UNL A   1      43.650  36.732  31.322  1.00  0.00     0.198 A 
ATOM     95  F   UNL A   1      43.559  34.739  32.504  1.00  0.00    -0.203 F 
ATOM     96  F   UNL A   1      43.679  37.420  27.780  1.00  0.00    -0.200 F 
ATOM     97  C   UNL A   1      43.696  37.433  30.136  1.00  0.00     0.200 A 
ATOM     98  F   UNL A   1      43.662  37.385  32.493  1.00  0.00    -0.200 F 
ATOM     99  F   UNL A   1      43.782  38.769  30.147  1.00  0.00    -0.200 F 
ENDBRANCH  66  89
ENDBRANCH  40  41
ENDBRANCH  33  35
ENDBRANCH  32  33
ENDBRANCH  31  32
ENDBRANCH  30  31
ENDBRANCH  29  30
ENDBRANCH  28  29
ENDBRANCH   1  28
TORSDOF 21
ENDMDL
