MODEL 1
REMARK VINA RESULT:     -11.2      0.000      0.000
REMARK SMILES Cc1nc([C@@H]2C[N@@H+]3CCC[C@@H]3CO2)sc1CC(=O)OCCOCCOCCOC(=O)c1ccc(-c2c3nc(c(-c4c(F)c(F)c(F)c(F)c4F)c4ccc([nH]4)c(-c4c(F)c(F)c(F)c(F)c4F)c4nc(c(-c5c(F)c(F)c(F)c(F)c5F)c5ccc2[nH]5)C=C4)C=C3)cc1
REMARK SMILES IDX 23 1 22 2 21 3 20 4 19 5 17 6 18 7 16 8 15 9 1 10 2 11 3 12
REMARK SMILES IDX 4 13 14 14 5 15 6 16 13 17 7 18 12 19 8 20 11 21 9 23 10 24
REMARK SMILES IDX 24 25 25 26 26 27 27 28 28 29 29 30 30 31 31 32 32 33 93 34
REMARK SMILES IDX 33 35 92 36 34 37 35 38 36 39 86 40 37 41 91 42 85 43 87 44
REMARK SMILES IDX 38 45 90 46 84 47 83 48 39 50 71 51 51 52 70 53 52 54 55 55
REMARK SMILES IDX 69 56 88 57 53 58 54 59 68 61 89 62 56 63 40 64 41 65 49 66
REMARK SMILES IDX 42 67 43 68 47 69 50 70 44 71 45 72 48 73 46 74 72 75 73 76
REMARK SMILES IDX 81 77 74 78 75 79 79 80 82 81 76 82 77 83 80 84 78 85 57 86
REMARK SMILES IDX 58 87 66 88 59 89 60 90 64 91 67 92 61 93 62 94 65 95 63 96
REMARK H PARENT 7 22 87 49 55 60
REMARK Flexibility Score: inf
ROOT
ATOM      1  C   UNL A   1      33.906  31.307  28.036  1.00  0.00     0.188 C 
ENDROOT
BRANCH   1   2
ATOM      2  O   UNL A   1      33.453  30.774  26.794  1.00  0.00    -0.376 OA
BRANCH   2   3
ATOM      3  C   UNL A   1      32.093  30.378  26.670  1.00  0.00     0.202 C 
BRANCH   3   4
ATOM      4  C   UNL A   1      31.825  29.092  25.872  1.00  0.00     0.261 C 
BRANCH   4   5
ATOM      5  O   UNL A   1      31.915  29.256  24.437  1.00  0.00    -0.463 OA
BRANCH   5   6
ATOM      6  C   UNL A   1      30.778  29.085  23.717  1.00  0.00     0.311 C 
ATOM      7  O   UNL A   1      29.770  29.771  23.876  1.00  0.00    -0.252 OA
BRANCH   6   8
ATOM      8  C   UNL A   1      30.872  28.101  22.559  1.00  0.00     0.171 C 
BRANCH   8   9
ATOM      9  C   UNL A   1      31.930  27.032  22.611  1.00  0.00     0.039 A 
ATOM     10  C   UNL A   1      34.112  28.270  22.001  1.00  0.00     0.068 C 
ATOM     11  C   UNL A   1      33.294  27.088  22.375  1.00  0.00     0.052 A 
ATOM     12  N   UNL A   1      33.961  25.879  22.512  1.00  0.00    -0.243 NA
ATOM     13  C   UNL A   1      33.127  24.905  22.815  1.00  0.00     0.128 A 
ATOM     14  S   UNL A   1      31.572  25.477  23.283  1.00  0.00    -0.120 S 
BRANCH  13  15
ATOM     15  C   UNL A   1      33.420  23.409  22.751  1.00  0.00     0.232 C 
ATOM     16  C   UNL A   1      32.732  22.575  23.866  1.00  0.00     0.302 C 
ATOM     17  O   UNL A   1      34.846  23.213  22.670  1.00  0.00    -0.359 OA
ATOM     18  N   UNL A   1      33.569  21.882  24.851  1.00  0.00    -0.328 N 
ATOM     19  C   UNL A   1      35.483  23.340  23.941  1.00  0.00     0.226 C 
ATOM     20  C   UNL A   1      32.990  21.791  26.192  1.00  0.00     0.262 C 
ATOM     21  C   UNL A   1      34.970  22.311  24.949  1.00  0.00     0.210 C 
ATOM     22  H   UNL A   1      33.585  20.951  24.437  1.00  0.00     0.348 HD
ATOM     23  C   UNL A   1      34.177  21.864  27.140  1.00  0.00     0.068 C 
ATOM     24  C   UNL A   1      35.143  22.763  26.395  1.00  0.00     0.073 C 
ENDBRANCH  13  15
ENDBRANCH   8   9
ENDBRANCH   6   8
ENDBRANCH   5   6
ENDBRANCH   4   5
ENDBRANCH   3   4
ENDBRANCH   2   3
ENDBRANCH   1   2
BRANCH   1  25
ATOM     25  C   UNL A   1      34.315  32.784  28.125  1.00  0.00     0.188 C 
BRANCH  25  26
ATOM     26  O   UNL A   1      33.711  33.463  29.208  1.00  0.00    -0.376 OA
BRANCH  26  27
ATOM     27  C   UNL A   1      34.601  34.187  30.036  1.00  0.00     0.202 C 
BRANCH  27  28
ATOM     28  C   UNL A   1      34.403  33.784  31.500  1.00  0.00     0.261 C 
BRANCH  28  29
ATOM     29  O   UNL A   1      34.678  32.395  31.787  1.00  0.00    -0.460 OA
BRANCH  29  30
ATOM     30  C   UNL A   1      35.717  32.142  32.608  1.00  0.00     0.338 C 
ATOM     31  O   UNL A   1      35.765  32.347  33.817  1.00  0.00    -0.246 OA
BRANCH  30  32
ATOM     32  C   UNL A   1      36.738  31.366  31.875  1.00  0.00     0.060 A 
ATOM     33  C   UNL A   1      37.799  30.806  32.600  1.00  0.00     0.016 A 
ATOM     34  C   UNL A   1      36.685  31.217  30.488  1.00  0.00     0.016 A 
ATOM     35  C   UNL A   1      38.828  30.132  31.942  1.00  0.00     0.010 A 
ATOM     36  C   UNL A   1      37.729  30.558  29.826  1.00  0.00     0.010 A 
ATOM     37  C   UNL A   1      38.824  30.044  30.545  1.00  0.00    -0.014 A 
BRANCH  37  38
ATOM     38  C   UNL A   1      40.049  29.585  29.839  1.00  0.00     0.031 A 
ATOM     39  C   UNL A   1      41.185  30.557  29.656  1.00  0.00     0.074 A 
ATOM     40  C   UNL A   1      40.182  28.316  29.414  1.00  0.00     0.049 A 
ATOM     41  N   UNL A   1      42.338  30.393  29.057  1.00  0.00    -0.248 NA
ATOM     42  C   UNL A   1      40.995  31.897  30.234  1.00  0.00     0.031 C 
ATOM     43  C   UNL A   1      39.183  27.262  29.574  1.00  0.00     0.029 A 
ATOM     44  N   UNL A   1      41.219  27.701  28.756  1.00  0.00    -0.354 N 
ATOM     45  C   UNL A   1      43.001  31.608  29.174  1.00  0.00     0.074 A 
ATOM     46  C   UNL A   1      42.112  32.510  29.874  1.00  0.00     0.031 C 
ATOM     47  C   UNL A   1      39.654  26.129  29.023  1.00  0.00     0.029 A 
ATOM     48  C   UNL A   1      40.971  26.387  28.441  1.00  0.00     0.049 A 
ATOM     49  H   UNL A   1      42.061  28.158  28.530  1.00  0.00     0.167 HD
ATOM     50  C   UNL A   1      44.243  31.940  28.747  1.00  0.00     0.037 A 
ATOM     51  C   UNL A   1      41.712  25.503  27.745  1.00  0.00     0.037 A 
ATOM     52  C   UNL A   1      45.131  31.045  28.051  1.00  0.00     0.049 A 
ATOM     53  C   UNL A   1      43.059  25.921  27.210  1.00  0.00     0.074 A 
ATOM     54  C   UNL A   1      46.411  31.286  27.585  1.00  0.00     0.029 A 
ATOM     55  N   UNL A   1      44.825  29.734  27.714  1.00  0.00    -0.354 N 
ATOM     56  N   UNL A   1      43.685  27.067  27.337  1.00  0.00    -0.248 NA
ATOM     57  C   UNL A   1      43.806  24.917  26.438  1.00  0.00     0.031 C 
ATOM     58  C   UNL A   1      46.858  30.143  26.915  1.00  0.00     0.029 A 
ATOM     59  C   UNL A   1      45.882  29.164  27.022  1.00  0.00     0.049 A 
ATOM     60  H   UNL A   1      43.981  29.276  27.932  1.00  0.00     0.167 HD
ATOM     61  C   UNL A   1      44.907  26.910  26.693  1.00  0.00     0.074 A 
ATOM     62  C   UNL A   1      44.943  25.553  26.192  1.00  0.00     0.031 C 
ATOM     63  C   UNL A   1      45.911  27.810  26.532  1.00  0.00     0.037 A 
BRANCH  50  64
ATOM     64  C   UNL A   1      44.706  33.348  28.993  1.00  0.00     0.064 A 
ATOM     65  C   UNL A   1      44.461  34.381  28.075  1.00  0.00     0.173 A 
ATOM     66  C   UNL A   1      45.381  33.673  30.179  1.00  0.00     0.173 A 
ATOM     67  F   UNL A   1      43.834  34.122  26.918  1.00  0.00    -0.203 F 
ATOM     68  C   UNL A   1      44.901  35.679  28.323  1.00  0.00     0.198 A 
ATOM     69  C   UNL A   1      45.789  34.979  30.440  1.00  0.00     0.198 A 
ATOM     70  F   UNL A   1      45.638  32.726  31.094  1.00  0.00    -0.203 F 
ATOM     71  F   UNL A   1      44.703  36.639  27.408  1.00  0.00    -0.200 F 
ATOM     72  C   UNL A   1      45.557  35.979  29.508  1.00  0.00     0.200 A 
ATOM     73  F   UNL A   1      46.410  35.268  31.592  1.00  0.00    -0.200 F 
ATOM     74  F   UNL A   1      45.973  37.230  29.748  1.00  0.00    -0.200 F 
ENDBRANCH  50  64
BRANCH  51  75
ATOM     75  C   UNL A   1      41.196  24.129  27.494  1.00  0.00     0.064 A 
ATOM     76  C   UNL A   1      41.792  23.010  28.092  1.00  0.00     0.173 A 
ATOM     77  C   UNL A   1      40.122  23.904  26.620  1.00  0.00     0.173 A 
ATOM     78  F   UNL A   1      42.842  23.167  28.912  1.00  0.00    -0.203 F 
ATOM     79  C   UNL A   1      41.347  21.719  27.810  1.00  0.00     0.198 A 
ATOM     80  C   UNL A   1      39.656  22.616  26.365  1.00  0.00     0.198 A 
ATOM     81  F   UNL A   1      39.521  24.939  26.015  1.00  0.00    -0.203 F 
ATOM     82  F   UNL A   1      41.972  20.664  28.352  1.00  0.00    -0.200 F 
ATOM     83  C   UNL A   1      40.276  21.523  26.952  1.00  0.00     0.200 A 
ATOM     84  F   UNL A   1      38.615  22.434  25.542  1.00  0.00    -0.200 F 
ATOM     85  F   UNL A   1      39.849  20.283  26.681  1.00  0.00    -0.200 F 
ENDBRANCH  51  75
BRANCH  63  86
ATOM     86  C   UNL A   1      47.153  27.340  25.823  1.00  0.00     0.064 A 
ATOM     87  C   UNL A   1      47.352  27.555  24.451  1.00  0.00     0.173 A 
ATOM     88  C   UNL A   1      48.168  26.681  26.535  1.00  0.00     0.173 A 
ATOM     89  F   UNL A   1      46.410  28.170  23.720  1.00  0.00    -0.203 F 
ATOM     90  C   UNL A   1      48.499  27.092  23.811  1.00  0.00     0.198 A 
ATOM     91  C   UNL A   1      49.330  26.252  25.900  1.00  0.00     0.198 A 
ATOM     92  F   UNL A   1      48.037  26.458  27.851  1.00  0.00    -0.203 F 
ATOM     93  F   UNL A   1      48.637  27.251  22.488  1.00  0.00    -0.200 F 
ATOM     94  C   UNL A   1      49.489  26.446  24.537  1.00  0.00     0.200 A 
ATOM     95  F   UNL A   1      50.293  25.644  26.606  1.00  0.00    -0.200 F 
ATOM     96  F   UNL A   1      50.593  26.002  23.920  1.00  0.00    -0.200 F 
ENDBRANCH  63  86
ENDBRANCH  37  38
ENDBRANCH  30  32
ENDBRANCH  29  30
ENDBRANCH  28  29
ENDBRANCH  27  28
ENDBRANCH  26  27
ENDBRANCH  25  26
ENDBRANCH   1  25
TORSDOF 19
ENDMDL
MODEL 2
REMARK VINA RESULT:     -11.2      1.367      2.472
REMARK SMILES Cc1nc([C@@H]2C[N@@H+]3CCC[C@@H]3CO2)sc1CC(=O)OCCOCCOCCOC(=O)c1ccc(-c2c3nc(c(-c4c(F)c(F)c(F)c(F)c4F)c4ccc([nH]4)c(-c4c(F)c(F)c(F)c(F)c4F)c4nc(c(-c5c(F)c(F)c(F)c(F)c5F)c5ccc2[nH]5)C=C4)C=C3)cc1
REMARK SMILES IDX 23 1 22 2 21 3 20 4 19 5 17 6 18 7 16 8 15 9 1 10 2 11 3 12
REMARK SMILES IDX 4 13 14 14 5 15 6 16 13 17 7 18 12 19 8 20 11 21 9 23 10 24
REMARK SMILES IDX 24 25 25 26 26 27 27 28 28 29 29 30 30 31 31 32 32 33 93 34
REMARK SMILES IDX 33 35 92 36 34 37 35 38 36 39 86 40 37 41 91 42 85 43 87 44
REMARK SMILES IDX 38 45 90 46 84 47 83 48 39 50 71 51 51 52 70 53 52 54 55 55
REMARK SMILES IDX 69 56 88 57 53 58 54 59 68 61 89 62 56 63 40 64 41 65 49 66
REMARK SMILES IDX 42 67 43 68 47 69 50 70 44 71 45 72 48 73 46 74 72 75 73 76
REMARK SMILES IDX 81 77 74 78 75 79 79 80 82 81 76 82 77 83 80 84 78 85 57 86
REMARK SMILES IDX 58 87 66 88 59 89 60 90 64 91 67 92 61 93 62 94 65 95 63 96
REMARK H PARENT 7 22 87 49 55 60
REMARK Flexibility Score: inf
ROOT
ATOM      1  C   UNL A   1      33.628  35.068  28.732  1.00  0.00     0.188 C 
ENDROOT
BRANCH   1   2
ATOM      2  O   UNL A   1      34.915  34.567  28.381  1.00  0.00    -0.376 OA
BRANCH   2   3
ATOM      3  C   UNL A   1      35.041  33.202  28.001  1.00  0.00     0.202 C 
BRANCH   3   4
ATOM      4  C   UNL A   1      33.745  32.376  27.977  1.00  0.00     0.261 C 
BRANCH   4   5
ATOM      5  O   UNL A   1      33.951  30.947  28.073  1.00  0.00    -0.463 OA
BRANCH   5   6
ATOM      6  C   UNL A   1      33.936  30.236  26.918  1.00  0.00     0.311 C 
ATOM      7  O   UNL A   1      34.793  29.404  26.629  1.00  0.00    -0.252 OA
BRANCH   6   8
ATOM      8  C   UNL A   1      32.686  30.394  26.064  1.00  0.00     0.171 C 
BRANCH   8   9
ATOM      9  C   UNL A   1      32.005  29.153  25.554  1.00  0.00     0.039 A 
ATOM     10  C   UNL A   1      31.530  27.772  27.684  1.00  0.00     0.068 C 
ATOM     11  C   UNL A   1      31.517  28.041  26.223  1.00  0.00     0.052 A 
ATOM     12  N   UNL A   1      30.949  27.071  25.409  1.00  0.00    -0.243 NA
ATOM     13  C   UNL A   1      31.024  27.411  24.138  1.00  0.00     0.128 A 
ATOM     14  S   UNL A   1      31.468  29.059  23.911  1.00  0.00    -0.120 S 
BRANCH  13  15
ATOM     15  C   UNL A   1      30.792  26.495  22.940  1.00  0.00     0.232 C 
ATOM     16  C   UNL A   1      30.636  24.994  23.306  1.00  0.00     0.302 C 
ATOM     17  O   UNL A   1      31.807  26.753  21.949  1.00  0.00    -0.359 OA
ATOM     18  N   UNL A   1      31.641  24.039  22.825  1.00  0.00    -0.328 N 
ATOM     19  C   UNL A   1      33.047  26.119  22.266  1.00  0.00     0.226 C 
ATOM     20  C   UNL A   1      31.906  22.920  23.730  1.00  0.00     0.262 C 
ATOM     21  C   UNL A   1      32.912  24.599  22.349  1.00  0.00     0.210 C 
ATOM     22  H   UNL A   1      31.159  23.686  21.999  1.00  0.00     0.348 HD
ATOM     23  C   UNL A   1      33.381  22.601  23.541  1.00  0.00     0.068 C 
ATOM     24  C   UNL A   1      33.979  23.959  23.233  1.00  0.00     0.073 C 
ENDBRANCH  13  15
ENDBRANCH   8   9
ENDBRANCH   6   8
ENDBRANCH   5   6
ENDBRANCH   4   5
ENDBRANCH   3   4
ENDBRANCH   2   3
ENDBRANCH   1   2
BRANCH   1  25
ATOM     25  C   UNL A   1      33.311  35.389  30.200  1.00  0.00     0.188 C 
BRANCH  25  26
ATOM     26  O   UNL A   1      33.563  34.306  31.072  1.00  0.00    -0.376 OA
BRANCH  26  27
ATOM     27  C   UNL A   1      33.798  34.661  32.421  1.00  0.00     0.202 C 
BRANCH  27  28
ATOM     28  C   UNL A   1      34.310  33.448  33.203  1.00  0.00     0.261 C 
BRANCH  28  29
ATOM     29  O   UNL A   1      35.305  32.660  32.513  1.00  0.00    -0.460 OA
BRANCH  29  30
ATOM     30  C   UNL A   1      36.374  32.270  33.236  1.00  0.00     0.338 C 
ATOM     31  O   UNL A   1      36.504  32.342  34.454  1.00  0.00    -0.246 OA
BRANCH  30  32
ATOM     32  C   UNL A   1      37.306  31.527  32.363  1.00  0.00     0.060 A 
ATOM     33  C   UNL A   1      38.325  30.775  32.961  1.00  0.00     0.016 A 
ATOM     34  C   UNL A   1      37.212  31.593  30.971  1.00  0.00     0.016 A 
ATOM     35  C   UNL A   1      39.276  30.121  32.177  1.00  0.00     0.010 A 
ATOM     36  C   UNL A   1      38.179  30.953  30.184  1.00  0.00     0.010 A 
ATOM     37  C   UNL A   1      39.236  30.244  30.783  1.00  0.00    -0.014 A 
BRANCH  37  38
ATOM     38  C   UNL A   1      40.400  29.791  29.976  1.00  0.00     0.031 A 
ATOM     39  C   UNL A   1      41.514  30.768  29.704  1.00  0.00     0.074 A 
ATOM     40  C   UNL A   1      40.502  28.524  29.537  1.00  0.00     0.049 A 
ATOM     41  N   UNL A   1      42.614  30.610  29.011  1.00  0.00    -0.248 NA
ATOM     42  C   UNL A   1      41.368  32.105  30.300  1.00  0.00     0.031 C 
ATOM     43  C   UNL A   1      39.522  27.467  29.776  1.00  0.00     0.029 A 
ATOM     44  N   UNL A   1      41.482  27.915  28.793  1.00  0.00    -0.354 N 
ATOM     45  C   UNL A   1      43.281  31.827  29.077  1.00  0.00     0.074 A 
ATOM     46  C   UNL A   1      42.449  32.723  29.852  1.00  0.00     0.031 C 
ATOM     47  C   UNL A   1      39.950  26.337  29.183  1.00  0.00     0.029 A 
ATOM     48  C   UNL A   1      41.213  26.601  28.496  1.00  0.00     0.049 A 
ATOM     49  H   UNL A   1      42.302  28.376  28.501  1.00  0.00     0.167 HD
ATOM     50  C   UNL A   1      44.482  32.165  28.550  1.00  0.00     0.037 A 
ATOM     51  C   UNL A   1      41.897  25.722  27.737  1.00  0.00     0.037 A 
ATOM     52  C   UNL A   1      45.312  31.275  27.780  1.00  0.00     0.049 A 
ATOM     53  C   UNL A   1      43.194  26.147  27.095  1.00  0.00     0.074 A 
ATOM     54  C   UNL A   1      46.549  31.522  27.211  1.00  0.00     0.029 A 
ATOM     55  N   UNL A   1      44.984  29.964  27.465  1.00  0.00    -0.354 N 
ATOM     56  N   UNL A   1      43.825  27.294  27.174  1.00  0.00    -0.248 NA
ATOM     57  C   UNL A   1      43.878  25.148  26.260  1.00  0.00     0.031 C 
ATOM     58  C   UNL A   1      46.942  30.382  26.502  1.00  0.00     0.029 A 
ATOM     59  C   UNL A   1      45.982  29.400  26.686  1.00  0.00     0.049 A 
ATOM     60  H   UNL A   1      44.162  29.502  27.750  1.00  0.00     0.167 HD
ATOM     61  C   UNL A   1      44.990  27.144  26.431  1.00  0.00     0.074 A 
ATOM     62  C   UNL A   1      44.988  25.788  25.923  1.00  0.00     0.031 C 
ATOM     63  C   UNL A   1      45.974  28.047  26.190  1.00  0.00     0.037 A 
BRANCH  50  64
ATOM     64  C   UNL A   1      44.959  33.573  28.762  1.00  0.00     0.064 A 
ATOM     65  C   UNL A   1      44.664  34.602  27.854  1.00  0.00     0.173 A 
ATOM     66  C   UNL A   1      45.701  33.904  29.907  1.00  0.00     0.173 A 
ATOM     67  F   UNL A   1      43.972  34.338  26.736  1.00  0.00    -0.203 F 
ATOM     68  C   UNL A   1      45.118  35.901  28.070  1.00  0.00     0.198 A 
ATOM     69  C   UNL A   1      46.124  35.211  30.137  1.00  0.00     0.198 A 
ATOM     70  F   UNL A   1      46.009  32.961  30.810  1.00  0.00    -0.203 F 
ATOM     71  F   UNL A   1      44.869  36.856  27.163  1.00  0.00    -0.200 F 
ATOM     72  C   UNL A   1      45.840  36.206  29.215  1.00  0.00     0.200 A 
ATOM     73  F   UNL A   1      46.810  35.505  31.250  1.00  0.00    -0.200 F 
ATOM     74  F   UNL A   1      46.270  37.458  29.424  1.00  0.00    -0.200 F 
ENDBRANCH  50  64
BRANCH  51  75
ATOM     75  C   UNL A   1      41.367  24.347  27.525  1.00  0.00     0.064 A 
ATOM     76  C   UNL A   1      41.989  23.232  28.102  1.00  0.00     0.173 A 
ATOM     77  C   UNL A   1      40.249  24.118  26.709  1.00  0.00     0.173 A 
ATOM     78  F   UNL A   1      43.080  23.394  28.866  1.00  0.00    -0.203 F 
ATOM     79  C   UNL A   1      41.529  21.939  27.854  1.00  0.00     0.198 A 
ATOM     80  C   UNL A   1      39.769  22.828  26.488  1.00  0.00     0.198 A 
ATOM     81  F   UNL A   1      39.621  25.148  26.125  1.00  0.00    -0.203 F 
ATOM     82  F   UNL A   1      42.178  20.889  28.374  1.00  0.00    -0.200 F 
ATOM     83  C   UNL A   1      40.415  21.739  27.053  1.00  0.00     0.200 A 
ATOM     84  F   UNL A   1      38.687  22.641  25.721  1.00  0.00    -0.200 F 
ATOM     85  F   UNL A   1      39.973  20.497  26.815  1.00  0.00    -0.200 F 
ENDBRANCH  51  75
BRANCH  63  86
ATOM     86  C   UNL A   1      47.155  27.585  25.380  1.00  0.00     0.064 A 
ATOM     87  C   UNL A   1      48.227  26.890  25.958  1.00  0.00     0.173 A 
ATOM     88  C   UNL A   1      47.203  27.826  23.997  1.00  0.00     0.173 A 
ATOM     89  F   UNL A   1      48.239  26.642  27.277  1.00  0.00    -0.203 F 
ATOM     90  C   UNL A   1      49.321  26.491  25.193  1.00  0.00     0.198 A 
ATOM     91  C   UNL A   1      48.280  27.393  23.228  1.00  0.00     0.198 A 
ATOM     92  F   UNL A   1      46.201  28.476  23.387  1.00  0.00    -0.203 F 
ATOM     93  F   UNL A   1      50.363  25.887  25.780  1.00  0.00    -0.200 F 
ATOM     94  C   UNL A   1      49.344  26.738  23.828  1.00  0.00     0.200 A 
ATOM     95  F   UNL A   1      48.291  27.617  21.907  1.00  0.00    -0.200 F 
ATOM     96  F   UNL A   1      50.396  26.352  23.094  1.00  0.00    -0.200 F 
ENDBRANCH  63  86
ENDBRANCH  37  38
ENDBRANCH  30  32
ENDBRANCH  29  30
ENDBRANCH  28  29
ENDBRANCH  27  28
ENDBRANCH  26  27
ENDBRANCH  25  26
ENDBRANCH   1  25
TORSDOF 19
ENDMDL
MODEL 3
REMARK VINA RESULT:     -11.0      5.074     10.749
REMARK SMILES Cc1nc([C@@H]2C[N@@H+]3CCC[C@@H]3CO2)sc1CC(=O)OCCOCCOCCOC(=O)c1ccc(-c2c3nc(c(-c4c(F)c(F)c(F)c(F)c4F)c4ccc([nH]4)c(-c4c(F)c(F)c(F)c(F)c4F)c4nc(c(-c5c(F)c(F)c(F)c(F)c5F)c5ccc2[nH]5)C=C4)C=C3)cc1
REMARK SMILES IDX 23 1 22 2 21 3 20 4 19 5 17 6 18 7 16 8 15 9 1 10 2 11 3 12
REMARK SMILES IDX 4 13 14 14 5 15 6 16 13 17 7 18 12 19 8 20 11 21 9 23 10 24
REMARK SMILES IDX 24 25 25 26 26 27 27 28 28 29 29 30 30 31 31 32 32 33 93 34
REMARK SMILES IDX 33 35 92 36 34 37 35 38 36 39 86 40 37 41 91 42 85 43 87 44
REMARK SMILES IDX 38 45 90 46 84 47 83 48 39 50 71 51 51 52 70 53 52 54 55 55
REMARK SMILES IDX 69 56 88 57 53 58 54 59 68 61 89 62 56 63 40 64 41 65 49 66
REMARK SMILES IDX 42 67 43 68 47 69 50 70 44 71 45 72 48 73 46 74 72 75 73 76
REMARK SMILES IDX 81 77 74 78 75 79 79 80 82 81 76 82 77 83 80 84 78 85 57 86
REMARK SMILES IDX 58 87 66 88 59 89 60 90 64 91 67 92 61 93 62 94 65 95 63 96
REMARK H PARENT 7 22 87 49 55 60
REMARK Flexibility Score: inf
ROOT
ATOM      1  C   UNL A   1      41.563  20.864  27.295  1.00  0.00     0.188 C 
ENDROOT
BRANCH   1   2
ATOM      2  O   UNL A   1      40.281  21.484  27.330  1.00  0.00    -0.376 OA
BRANCH   2   3
ATOM      3  C   UNL A   1      39.693  21.918  26.109  1.00  0.00     0.202 C 
BRANCH   3   4
ATOM      4  C   UNL A   1      38.327  21.311  25.755  1.00  0.00     0.261 C 
BRANCH   4   5
ATOM      5  O   UNL A   1      37.443  22.212  25.048  1.00  0.00    -0.463 OA
BRANCH   5   6
ATOM      6  C   UNL A   1      36.496  22.856  25.776  1.00  0.00     0.311 C 
ATOM      7  O   UNL A   1      36.660  23.977  26.252  1.00  0.00    -0.252 OA
BRANCH   6   8
ATOM      8  C   UNL A   1      35.131  22.182  25.825  1.00  0.00     0.171 C 
BRANCH   8   9
ATOM      9  C   UNL A   1      33.926  22.971  25.391  1.00  0.00     0.039 A 
ATOM     10  C   UNL A   1      34.158  23.118  22.823  1.00  0.00     0.068 C 
ATOM     11  C   UNL A   1      33.507  23.375  24.133  1.00  0.00     0.052 A 
ATOM     12  N   UNL A   1      32.329  24.109  24.118  1.00  0.00    -0.243 NA
ATOM     13  C   UNL A   1      31.866  24.295  25.337  1.00  0.00     0.128 A 
ATOM     14  S   UNL A   1      32.645  23.302  26.508  1.00  0.00    -0.120 S 
BRANCH  13  15
ATOM     15  C   UNL A   1      30.784  25.287  25.754  1.00  0.00     0.232 C 
ATOM     16  C   UNL A   1      30.007  25.920  24.568  1.00  0.00     0.302 C 
ATOM     17  O   UNL A   1      31.357  26.252  26.659  1.00  0.00    -0.359 OA
ATOM     18  N   UNL A   1      30.119  27.365  24.338  1.00  0.00    -0.328 N 
ATOM     19  C   UNL A   1      32.100  27.262  25.975  1.00  0.00     0.226 C 
ATOM     20  C   UNL A   1      30.058  27.769  22.933  1.00  0.00     0.262 C 
ATOM     21  C   UNL A   1      31.229  28.057  25.002  1.00  0.00     0.210 C 
ATOM     22  H   UNL A   1      29.269  27.677  24.806  1.00  0.00     0.348 HD
ATOM     23  C   UNL A   1      30.969  28.982  22.832  1.00  0.00     0.068 C 
ATOM     24  C   UNL A   1      32.035  28.686  23.869  1.00  0.00     0.073 C 
ENDBRANCH  13  15
ENDBRANCH   8   9
ENDBRANCH   6   8
ENDBRANCH   5   6
ENDBRANCH   4   5
ENDBRANCH   3   4
ENDBRANCH   2   3
ENDBRANCH   1   2
BRANCH   1  25
ATOM     25  C   UNL A   1      41.888  19.852  26.188  1.00  0.00     0.188 C 
BRANCH  25  26
ATOM     26  O   UNL A   1      42.987  20.238  25.387  1.00  0.00    -0.376 OA
BRANCH  26  27
ATOM     27  C   UNL A   1      43.657  21.410  25.810  1.00  0.00     0.202 C 
BRANCH  27  28
ATOM     28  C   UNL A   1      43.864  22.356  24.624  1.00  0.00     0.261 C 
BRANCH  28  29
ATOM     29  O   UNL A   1      43.213  23.639  24.754  1.00  0.00    -0.460 OA
BRANCH  29  30
ATOM     30  C   UNL A   1      43.991  24.677  25.121  1.00  0.00     0.338 C 
ATOM     31  O   UNL A   1      45.049  25.022  24.602  1.00  0.00    -0.246 OA
BRANCH  30  32
ATOM     32  C   UNL A   1      43.273  25.494  26.120  1.00  0.00     0.060 A 
ATOM     33  C   UNL A   1      43.684  26.819  26.319  1.00  0.00     0.016 A 
ATOM     34  C   UNL A   1      42.233  24.963  26.885  1.00  0.00     0.016 A 
ATOM     35  C   UNL A   1      43.088  27.604  27.306  1.00  0.00     0.010 A 
ATOM     36  C   UNL A   1      41.649  25.745  27.890  1.00  0.00     0.010 A 
ATOM     37  C   UNL A   1      42.097  27.057  28.130  1.00  0.00    -0.014 A 
BRANCH  37  38
ATOM     38  C   UNL A   1      41.674  27.794  29.351  1.00  0.00     0.031 A 
ATOM     39  C   UNL A   1      40.420  28.626  29.294  1.00  0.00     0.074 A 
ATOM     40  C   UNL A   1      42.353  27.689  30.507  1.00  0.00     0.049 A 
ATOM     41  N   UNL A   1      39.869  29.372  30.218  1.00  0.00    -0.248 NA
ATOM     42  C   UNL A   1      39.687  28.612  28.018  1.00  0.00     0.031 C 
ATOM     43  C   UNL A   1      43.550  26.876  30.713  1.00  0.00     0.029 A 
ATOM     44  N   UNL A   1      42.128  28.274  31.728  1.00  0.00    -0.354 N 
ATOM     45  C   UNL A   1      38.735  29.921  29.634  1.00  0.00     0.074 A 
ATOM     46  C   UNL A   1      38.693  29.451  28.266  1.00  0.00     0.031 C 
ATOM     47  C   UNL A   1      43.959  27.020  31.986  1.00  0.00     0.029 A 
ATOM     48  C   UNL A   1      43.074  27.960  32.674  1.00  0.00     0.049 A 
ATOM     49  H   UNL A   1      41.362  28.864  31.910  1.00  0.00     0.167 HD
ATOM     50  C   UNL A   1      37.806  30.737  30.189  1.00  0.00     0.037 A 
ATOM     51  C   UNL A   1      43.220  28.398  33.940  1.00  0.00     0.037 A 
ATOM     52  C   UNL A   1      37.845  31.206  31.550  1.00  0.00     0.049 A 
ATOM     53  C   UNL A   1      42.216  29.369  34.510  1.00  0.00     0.074 A 
ATOM     54  C   UNL A   1      36.946  32.029  32.206  1.00  0.00     0.029 A 
ATOM     55  N   UNL A   1      38.843  30.899  32.463  1.00  0.00    -0.354 N 
ATOM     56  N   UNL A   1      41.139  29.874  33.956  1.00  0.00    -0.248 NA
ATOM     57  C   UNL A   1      42.447  29.827  35.888  1.00  0.00     0.031 C 
ATOM     58  C   UNL A   1      37.430  32.267  33.497  1.00  0.00     0.029 A 
ATOM     59  C   UNL A   1      38.595  31.538  33.668  1.00  0.00     0.049 A 
ATOM     60  H   UNL A   1      39.614  30.314  32.283  1.00  0.00     0.167 HD
ATOM     61  C   UNL A   1      40.550  30.677  34.925  1.00  0.00     0.074 A 
ATOM     62  C   UNL A   1      41.378  30.579  36.108  1.00  0.00     0.031 C 
ATOM     63  C   UNL A   1      39.423  31.429  34.843  1.00  0.00     0.037 A 
BRANCH  50  64
ATOM     64  C   UNL A   1      36.680  31.203  29.310  1.00  0.00     0.064 A 
ATOM     65  C   UNL A   1      35.650  30.340  28.905  1.00  0.00     0.173 A 
ATOM     66  C   UNL A   1      36.618  32.540  28.889  1.00  0.00     0.173 A 
ATOM     67  F   UNL A   1      35.669  29.049  29.265  1.00  0.00    -0.203 F 
ATOM     68  C   UNL A   1      34.617  30.792  28.087  1.00  0.00     0.198 A 
ATOM     69  C   UNL A   1      35.564  32.997  28.101  1.00  0.00     0.198 A 
ATOM     70  F   UNL A   1      37.574  33.409  29.251  1.00  0.00    -0.203 F 
ATOM     71  F   UNL A   1      33.672  29.938  27.669  1.00  0.00    -0.200 F 
ATOM     72  C   UNL A   1      34.570  32.122  27.694  1.00  0.00     0.200 A 
ATOM     73  F   UNL A   1      35.515  34.285  27.733  1.00  0.00    -0.200 F 
ATOM     74  F   UNL A   1      33.571  32.557  26.914  1.00  0.00    -0.200 F 
ENDBRANCH  50  64
BRANCH  51  75
ATOM     75  C   UNL A   1      44.373  27.937  34.762  1.00  0.00     0.064 A 
ATOM     76  C   UNL A   1      44.284  26.785  35.554  1.00  0.00     0.173 A 
ATOM     77  C   UNL A   1      45.573  28.662  34.801  1.00  0.00     0.173 A 
ATOM     78  F   UNL A   1      43.148  26.072  35.576  1.00  0.00    -0.203 F 
ATOM     79  C   UNL A   1      45.342  26.387  36.370  1.00  0.00     0.198 A 
ATOM     80  C   UNL A   1      46.643  28.246  35.592  1.00  0.00     0.198 A 
ATOM     81  F   UNL A   1      45.708  29.777  34.069  1.00  0.00    -0.203 F 
ATOM     82  F   UNL A   1      45.209  25.312  37.160  1.00  0.00    -0.200 F 
ATOM     83  C   UNL A   1      46.523  27.114  36.383  1.00  0.00     0.200 A 
ATOM     84  F   UNL A   1      47.784  28.947  35.593  1.00  0.00    -0.200 F 
ATOM     85  F   UNL A   1      47.540  26.732  37.167  1.00  0.00    -0.200 F 
ENDBRANCH  51  75
BRANCH  63  86
ATOM     86  C   UNL A   1      38.993  32.169  36.081  1.00  0.00     0.064 A 
ATOM     87  C   UNL A   1      39.366  33.500  36.319  1.00  0.00     0.173 A 
ATOM     88  C   UNL A   1      38.180  31.538  37.036  1.00  0.00     0.173 A 
ATOM     89  F   UNL A   1      40.153  34.148  35.445  1.00  0.00    -0.203 F 
ATOM     90  C   UNL A   1      38.976  34.158  37.483  1.00  0.00     0.198 A 
ATOM     91  C   UNL A   1      37.760  32.210  38.181  1.00  0.00     0.198 A 
ATOM     92  F   UNL A   1      37.783  30.269  36.856  1.00  0.00    -0.203 F 
ATOM     93  F   UNL A   1      39.399  35.407  37.718  1.00  0.00    -0.200 F 
ATOM     94  C   UNL A   1      38.169  33.515  38.410  1.00  0.00     0.200 A 
ATOM     95  F   UNL A   1      36.965  31.593  39.066  1.00  0.00    -0.200 F 
ATOM     96  F   UNL A   1      37.793  34.150  39.528  1.00  0.00    -0.200 F 
ENDBRANCH  63  86
ENDBRANCH  37  38
ENDBRANCH  30  32
ENDBRANCH  29  30
ENDBRANCH  28  29
ENDBRANCH  27  28
ENDBRANCH  26  27
ENDBRANCH  25  26
ENDBRANCH   1  25
TORSDOF 19
ENDMDL
