MODEL 1
REMARK VINA RESULT:     -10.5      0.000      0.000
REMARK SMILES NC(=O)C1CC[NH+](Cc2ccc(C(=O)OCCOCCOCCOC(=O)c3ccc(-c4c5nc(c(-c6c(F)c(F)c(F)c(F)c6F)c6ccc([nH]6)c(-c6c(F)c(F)c(F)c(F)c6F)c6nc(c(-c7c(F)c(F)c(F)c(F)c7F)c7ccc4[nH]7)C=C6)C=C5)cc3)cc2)CC1
REMARK SMILES IDX 19 1 18 2 17 3 16 4 15 5 13 6 14 7 12 8 9 9 10 10 91 11
REMARK SMILES IDX 11 12 90 13 8 14 7 15 4 16 5 17 93 18 6 19 92 20 2 22 1 23
REMARK SMILES IDX 3 26 20 27 21 28 22 29 23 30 24 31 25 32 26 33 27 34 28 35
REMARK SMILES IDX 89 36 29 37 88 38 30 39 31 40 32 41 82 42 33 43 87 44 81 45
REMARK SMILES IDX 83 46 34 47 86 48 80 49 79 50 35 52 67 53 47 54 66 55 48 56
REMARK SMILES IDX 51 57 65 58 84 59 49 60 50 61 64 63 85 64 52 65 36 66 37 67
REMARK SMILES IDX 45 68 38 69 39 70 43 71 46 72 40 73 41 74 44 75 42 76 68 77
REMARK SMILES IDX 69 78 77 79 70 80 71 81 75 82 78 83 72 84 73 85 76 86 74 87
REMARK SMILES IDX 53 88 54 89 62 90 55 91 56 92 60 93 63 94 57 95 58 96 61 97
REMARK SMILES IDX 59 98
REMARK H PARENT 7 21 1 24 1 25 83 51 51 62
REMARK Flexibility Score: inf
ROOT
ATOM      1  C   UNL A   1      33.734  28.511  26.129  1.00  0.00     0.188 C 
ENDROOT
BRANCH   1   2
ATOM      2  O   UNL A   1      33.912  28.313  24.743  1.00  0.00    -0.376 OA
BRANCH   2   3
ATOM      3  C   UNL A   1      33.189  29.079  23.793  1.00  0.00     0.202 C 
BRANCH   3   4
ATOM      4  C   UNL A   1      31.691  28.902  23.500  1.00  0.00     0.261 C 
BRANCH   4   5
ATOM      5  O   UNL A   1      31.308  27.639  22.954  1.00  0.00    -0.460 OA
BRANCH   5   6
ATOM      6  C   UNL A   1      30.266  27.035  23.578  1.00  0.00     0.338 C 
ATOM      7  O   UNL A   1      29.091  27.360  23.515  1.00  0.00    -0.246 OA
BRANCH   6   8
ATOM      8  C   UNL A   1      30.721  25.770  24.201  1.00  0.00     0.060 A 
ATOM      9  C   UNL A   1      31.745  23.466  25.406  1.00  0.00     0.006 A 
ATOM     10  C   UNL A   1      31.747  24.684  26.103  1.00  0.00     0.010 A 
ATOM     11  C   UNL A   1      31.071  23.383  24.179  1.00  0.00     0.010 A 
ATOM     12  C   UNL A   1      31.238  25.832  25.500  1.00  0.00     0.016 A 
ATOM     13  C   UNL A   1      30.601  24.536  23.554  1.00  0.00     0.016 A 
BRANCH   9  14
ATOM     14  C   UNL A   1      32.640  22.328  25.872  1.00  0.00     0.299 C 
BRANCH  14  15
ATOM     15  N   UNL A   1      33.791  22.041  24.974  1.00  0.00    -0.331 N 
ATOM     16  C   UNL A   1      36.644  22.053  24.203  1.00  0.00     0.089 C 
ATOM     17  C   UNL A   1      35.610  22.980  23.558  1.00  0.00     0.075 C 
ATOM     18  C   UNL A   1      35.938  20.781  24.679  1.00  0.00     0.075 C 
ATOM     19  C   UNL A   1      34.460  23.265  24.519  1.00  0.00     0.263 C 
ATOM     20  C   UNL A   1      34.733  21.082  25.576  1.00  0.00     0.263 C 
ATOM     21  H   UNL A   1      33.408  21.594  24.141  1.00  0.00     0.348 HD
BRANCH  16  22
ATOM     22  C   UNL A   1      37.412  22.745  25.332  1.00  0.00     0.220 C 
ATOM     23  N   UNL A   1      38.163  21.924  26.119  1.00  0.00    -0.369 N 
ATOM     24  H   UNL A   1      38.685  22.299  26.866  1.00  0.00     0.159 HD
ATOM     25  H   UNL A   1      38.185  20.956  25.942  1.00  0.00     0.159 HD
ATOM     26  O   UNL A   1      37.365  23.944  25.578  1.00  0.00    -0.275 OA
ENDBRANCH  16  22
ENDBRANCH  14  15
ENDBRANCH   9  14
ENDBRANCH   6   8
ENDBRANCH   5   6
ENDBRANCH   4   5
ENDBRANCH   3   4
ENDBRANCH   2   3
ENDBRANCH   1   2
BRANCH   1  27
ATOM     27  C   UNL A   1      33.675  29.936  26.712  1.00  0.00     0.188 C 
BRANCH  27  28
ATOM     28  O   UNL A   1      32.470  30.417  27.254  1.00  0.00    -0.376 OA
BRANCH  28  29
ATOM     29  C   UNL A   1      31.737  31.417  26.569  1.00  0.00     0.202 C 
BRANCH  29  30
ATOM     30  C   UNL A   1      31.782  32.927  26.881  1.00  0.00     0.261 C 
BRANCH  30  31
ATOM     31  O   UNL A   1      33.063  33.540  27.061  1.00  0.00    -0.460 OA
BRANCH  31  32
ATOM     32  C   UNL A   1      33.276  34.128  28.265  1.00  0.00     0.338 C 
ATOM     33  O   UNL A   1      32.545  34.914  28.851  1.00  0.00    -0.246 OA
BRANCH  32  34
ATOM     34  C   UNL A   1      34.481  33.535  28.872  1.00  0.00     0.060 A 
ATOM     35  C   UNL A   1      34.364  32.354  29.618  1.00  0.00     0.016 A 
ATOM     36  C   UNL A   1      35.721  34.147  28.702  1.00  0.00     0.016 A 
ATOM     37  C   UNL A   1      35.498  31.765  30.179  1.00  0.00     0.010 A 
ATOM     38  C   UNL A   1      36.851  33.573  29.289  1.00  0.00     0.010 A 
ATOM     39  C   UNL A   1      36.746  32.382  30.034  1.00  0.00    -0.014 A 
BRANCH  39  40
ATOM     40  C   UNL A   1      37.940  31.853  30.735  1.00  0.00     0.031 A 
ATOM     41  C   UNL A   1      38.760  30.786  30.074  1.00  0.00     0.074 A 
ATOM     42  C   UNL A   1      38.257  32.281  31.969  1.00  0.00     0.049 A 
ATOM     43  N   UNL A   1      39.750  30.079  30.556  1.00  0.00    -0.248 NA
ATOM     44  C   UNL A   1      38.410  30.471  28.682  1.00  0.00     0.031 C 
ATOM     45  C   UNL A   1      37.558  33.334  32.701  1.00  0.00     0.029 A 
ATOM     46  N   UNL A   1      39.232  31.853  32.836  1.00  0.00    -0.354 N 
ATOM     47  C   UNL A   1      40.131  29.222  29.532  1.00  0.00     0.074 A 
ATOM     48  C   UNL A   1      39.252  29.485  28.412  1.00  0.00     0.031 C 
ATOM     49  C   UNL A   1      38.101  33.444  33.925  1.00  0.00     0.029 A 
ATOM     50  C   UNL A   1      39.154  32.438  34.075  1.00  0.00     0.049 A 
ATOM     51  H   UNL A   1      39.919  31.190  32.594  1.00  0.00     0.167 HD
ATOM     52  C   UNL A   1      41.123  28.299  29.532  1.00  0.00     0.037 A 
ATOM     53  C   UNL A   1      39.820  32.162  35.213  1.00  0.00     0.037 A 
ATOM     54  C   UNL A   1      41.983  28.035  30.656  1.00  0.00     0.049 A 
ATOM     55  C   UNL A   1      40.862  31.073  35.220  1.00  0.00     0.074 A 
ATOM     56  C   UNL A   1      43.046  27.152  30.741  1.00  0.00     0.029 A 
ATOM     57  N   UNL A   1      41.863  28.635  31.902  1.00  0.00    -0.354 N 
ATOM     58  N   UNL A   1      41.252  30.295  34.238  1.00  0.00    -0.248 NA
ATOM     59  C   UNL A   1      41.555  30.821  36.492  1.00  0.00     0.031 C 
ATOM     60  C   UNL A   1      43.520  27.165  32.056  1.00  0.00     0.029 A 
ATOM     61  C   UNL A   1      42.801  28.106  32.775  1.00  0.00     0.049 A 
ATOM     62  H   UNL A   1      41.209  29.334  32.131  1.00  0.00     0.167 HD
ATOM     63  C   UNL A   1      42.241  29.475  34.768  1.00  0.00     0.074 A 
ATOM     64  C   UNL A   1      42.405  29.862  36.153  1.00  0.00     0.031 C 
ATOM     65  C   UNL A   1      42.948  28.489  34.158  1.00  0.00     0.037 A 
BRANCH  52  66
ATOM     66  C   UNL A   1      41.293  27.471  28.290  1.00  0.00     0.064 A 
ATOM     67  C   UNL A   1      40.637  26.244  28.116  1.00  0.00     0.173 A 
ATOM     68  C   UNL A   1      42.124  27.921  27.251  1.00  0.00     0.173 A 
ATOM     69  F   UNL A   1      39.839  25.762  29.082  1.00  0.00    -0.203 F 
ATOM     70  C   UNL A   1      40.839  25.478  26.970  1.00  0.00     0.198 A 
ATOM     71  C   UNL A   1      42.296  27.170  26.091  1.00  0.00     0.198 A 
ATOM     72  F   UNL A   1      42.771  29.092  27.360  1.00  0.00    -0.203 F 
ATOM     73  F   UNL A   1      40.252  24.278  26.855  1.00  0.00    -0.200 F 
ATOM     74  C   UNL A   1      41.663  25.944  25.958  1.00  0.00     0.200 A 
ATOM     75  F   UNL A   1      43.080  27.631  25.107  1.00  0.00    -0.200 F 
ATOM     76  F   UNL A   1      41.857  25.206  24.856  1.00  0.00    -0.200 F 
ENDBRANCH  52  66
BRANCH  53  77
ATOM     77  C   UNL A   1      39.481  32.904  36.457  1.00  0.00     0.064 A 
ATOM     78  C   UNL A   1      40.149  34.085  36.802  1.00  0.00     0.173 A 
ATOM     79  C   UNL A   1      38.470  32.450  37.317  1.00  0.00     0.173 A 
ATOM     80  F   UNL A   1      41.144  34.544  36.029  1.00  0.00    -0.203 F 
ATOM     81  C   UNL A   1      39.822  34.782  37.966  1.00  0.00     0.198 A 
ATOM     82  C   UNL A   1      38.124  33.162  38.463  1.00  0.00     0.198 A 
ATOM     83  F   UNL A   1      37.806  31.319  37.036  1.00  0.00    -0.203 F 
ATOM     84  F   UNL A   1      40.504  35.888  38.295  1.00  0.00    -0.200 F 
ATOM     85  C   UNL A   1      38.804  34.325  38.788  1.00  0.00     0.200 A 
ATOM     86  F   UNL A   1      37.133  32.722  39.250  1.00  0.00    -0.200 F 
ATOM     87  F   UNL A   1      38.484  35.002  39.901  1.00  0.00    -0.200 F 
ENDBRANCH  53  77
BRANCH  65  88
ATOM     88  C   UNL A   1      43.975  27.760  34.979  1.00  0.00     0.064 A 
ATOM     89  C   UNL A   1      45.280  28.252  35.130  1.00  0.00     0.173 A 
ATOM     90  C   UNL A   1      43.633  26.589  35.673  1.00  0.00     0.173 A 
ATOM     91  F   UNL A   1      45.665  29.359  34.478  1.00  0.00    -0.203 F 
ATOM     92  C   UNL A   1      46.208  27.589  35.932  1.00  0.00     0.198 A 
ATOM     93  C   UNL A   1      44.552  25.947  36.500  1.00  0.00     0.198 A 
ATOM     94  F   UNL A   1      42.396  26.078  35.570  1.00  0.00    -0.203 F 
ATOM     95  F   UNL A   1      47.460  28.055  36.030  1.00  0.00    -0.200 F 
ATOM     96  C   UNL A   1      45.840  26.445  36.624  1.00  0.00     0.200 A 
ATOM     97  F   UNL A   1      44.189  24.852  37.180  1.00  0.00    -0.200 F 
ATOM     98  F   UNL A   1      46.729  25.818  37.407  1.00  0.00    -0.200 F 
ENDBRANCH  65  88
ENDBRANCH  39  40
ENDBRANCH  32  34
ENDBRANCH  31  32
ENDBRANCH  30  31
ENDBRANCH  29  30
ENDBRANCH  28  29
ENDBRANCH  27  28
ENDBRANCH   1  27
TORSDOF 20
ENDMDL
MODEL 2
REMARK VINA RESULT:     -10.3      1.524      2.524
REMARK SMILES NC(=O)C1CC[NH+](Cc2ccc(C(=O)OCCOCCOCCOC(=O)c3ccc(-c4c5nc(c(-c6c(F)c(F)c(F)c(F)c6F)c6ccc([nH]6)c(-c6c(F)c(F)c(F)c(F)c6F)c6nc(c(-c7c(F)c(F)c(F)c(F)c7F)c7ccc4[nH]7)C=C6)C=C5)cc3)cc2)CC1
REMARK SMILES IDX 19 1 18 2 17 3 16 4 15 5 13 6 14 7 12 8 9 9 10 10 91 11
REMARK SMILES IDX 11 12 90 13 8 14 7 15 4 16 5 17 93 18 6 19 92 20 2 22 1 23
REMARK SMILES IDX 3 26 20 27 21 28 22 29 23 30 24 31 25 32 26 33 27 34 28 35
REMARK SMILES IDX 89 36 29 37 88 38 30 39 31 40 32 41 82 42 33 43 87 44 81 45
REMARK SMILES IDX 83 46 34 47 86 48 80 49 79 50 35 52 67 53 47 54 66 55 48 56
REMARK SMILES IDX 51 57 65 58 84 59 49 60 50 61 64 63 85 64 52 65 36 66 37 67
REMARK SMILES IDX 45 68 38 69 39 70 43 71 46 72 40 73 41 74 44 75 42 76 68 77
REMARK SMILES IDX 69 78 77 79 70 80 71 81 75 82 78 83 72 84 73 85 76 86 74 87
REMARK SMILES IDX 53 88 54 89 62 90 55 91 56 92 60 93 63 94 57 95 58 96 61 97
REMARK SMILES IDX 59 98
REMARK H PARENT 7 21 1 24 1 25 83 51 51 62
REMARK Flexibility Score: inf
ROOT
ATOM      1  C   UNL A   1      34.257  28.736  26.977  1.00  0.00     0.188 C 
ENDROOT
BRANCH   1   2
ATOM      2  O   UNL A   1      33.944  27.829  25.941  1.00  0.00    -0.376 OA
BRANCH   2   3
ATOM      3  C   UNL A   1      32.915  28.109  25.007  1.00  0.00     0.202 C 
BRANCH   3   4
ATOM      4  C   UNL A   1      31.436  27.751  25.218  1.00  0.00     0.261 C 
BRANCH   4   5
ATOM      5  O   UNL A   1      31.018  26.493  24.688  1.00  0.00    -0.460 OA
BRANCH   5   6
ATOM      6  C   UNL A   1      30.668  25.565  25.614  1.00  0.00     0.338 C 
ATOM      7  O   UNL A   1      29.681  25.589  26.331  1.00  0.00    -0.246 OA
BRANCH   6   8
ATOM      8  C   UNL A   1      31.554  24.384  25.499  1.00  0.00     0.060 A 
ATOM      9  C   UNL A   1      33.366  22.262  25.341  1.00  0.00     0.006 A 
ATOM     10  C   UNL A   1      33.189  22.947  26.553  1.00  0.00     0.010 A 
ATOM     11  C   UNL A   1      32.504  22.539  24.269  1.00  0.00     0.010 A 
ATOM     12  C   UNL A   1      32.287  24.006  26.630  1.00  0.00     0.016 A 
ATOM     13  C   UNL A   1      31.633  23.624  24.328  1.00  0.00     0.016 A 
BRANCH   9  14
ATOM     14  C   UNL A   1      34.602  21.402  25.134  1.00  0.00     0.299 C 
BRANCH  14  15
ATOM     15  N   UNL A   1      34.404  19.956  25.425  1.00  0.00    -0.331 N 
ATOM     16  C   UNL A   1      33.718  17.164  24.742  1.00  0.00     0.089 C 
ATOM     17  C   UNL A   1      32.794  18.063  25.566  1.00  0.00     0.075 C 
ATOM     18  C   UNL A   1      35.165  17.613  24.957  1.00  0.00     0.075 C 
ATOM     19  C   UNL A   1      33.015  19.533  25.221  1.00  0.00     0.263 C 
ATOM     20  C   UNL A   1      35.359  19.109  24.688  1.00  0.00     0.263 C 
ATOM     21  H   UNL A   1      34.603  19.827  26.417  1.00  0.00     0.348 HD
BRANCH  16  22
ATOM     22  C   UNL A   1      33.333  17.146  23.260  1.00  0.00     0.220 C 
ATOM     23  N   UNL A   1      32.082  17.607  22.974  1.00  0.00    -0.369 N 
ATOM     24  H   UNL A   1      31.766  17.625  22.041  1.00  0.00     0.159 HD
ATOM     25  H   UNL A   1      31.495  17.923  23.697  1.00  0.00     0.159 HD
ATOM     26  O   UNL A   1      34.046  16.727  22.358  1.00  0.00    -0.275 OA
ENDBRANCH  16  22
ENDBRANCH  14  15
ENDBRANCH   9  14
ENDBRANCH   6   8
ENDBRANCH   5   6
ENDBRANCH   4   5
ENDBRANCH   3   4
ENDBRANCH   2   3
ENDBRANCH   1   2
BRANCH   1  27
ATOM     27  C   UNL A   1      33.766  30.195  26.912  1.00  0.00     0.188 C 
BRANCH  27  28
ATOM     28  O   UNL A   1      32.461  30.509  27.331  1.00  0.00    -0.376 OA
BRANCH  28  29
ATOM     29  C   UNL A   1      31.745  31.549  26.689  1.00  0.00     0.202 C 
BRANCH  29  30
ATOM     30  C   UNL A   1      31.762  33.034  27.108  1.00  0.00     0.261 C 
BRANCH  30  31
ATOM     31  O   UNL A   1      33.031  33.680  27.248  1.00  0.00    -0.460 OA
BRANCH  31  32
ATOM     32  C   UNL A   1      33.262  34.283  28.441  1.00  0.00     0.338 C 
ATOM     33  O   UNL A   1      32.538  35.073  29.030  1.00  0.00    -0.246 OA
BRANCH  32  34
ATOM     34  C   UNL A   1      34.480  33.703  29.034  1.00  0.00     0.060 A 
ATOM     35  C   UNL A   1      34.369  32.591  29.881  1.00  0.00     0.016 A 
ATOM     36  C   UNL A   1      35.727  34.257  28.752  1.00  0.00     0.016 A 
ATOM     37  C   UNL A   1      35.514  32.012  30.431  1.00  0.00     0.010 A 
ATOM     38  C   UNL A   1      36.870  33.697  29.328  1.00  0.00     0.010 A 
ATOM     39  C   UNL A   1      36.770  32.575  30.173  1.00  0.00    -0.014 A 
BRANCH  39  40
ATOM     40  C   UNL A   1      37.983  32.065  30.855  1.00  0.00     0.031 A 
ATOM     41  C   UNL A   1      38.790  30.986  30.198  1.00  0.00     0.074 A 
ATOM     42  C   UNL A   1      38.330  32.523  32.071  1.00  0.00     0.049 A 
ATOM     43  N   UNL A   1      39.795  30.293  30.670  1.00  0.00    -0.248 NA
ATOM     44  C   UNL A   1      38.406  30.638  28.823  1.00  0.00     0.031 C 
ATOM     45  C   UNL A   1      37.647  33.590  32.796  1.00  0.00     0.029 A 
ATOM     46  N   UNL A   1      39.329  32.118  32.922  1.00  0.00    -0.354 N 
ATOM     47  C   UNL A   1      40.152  29.414  29.657  1.00  0.00     0.074 A 
ATOM     48  C   UNL A   1      39.243  29.648  28.554  1.00  0.00     0.031 C 
ATOM     49  C   UNL A   1      38.221  33.730  34.002  1.00  0.00     0.029 A 
ATOM     50  C   UNL A   1      39.280  32.732  34.148  1.00  0.00     0.049 A 
ATOM     51  H   UNL A   1      40.012  31.452  32.677  1.00  0.00     0.167 HD
ATOM     52  C   UNL A   1      41.147  28.494  29.653  1.00  0.00     0.037 A 
ATOM     53  C   UNL A   1      39.976  32.484  35.275  1.00  0.00     0.037 A 
ATOM     54  C   UNL A   1      42.037  28.259  30.760  1.00  0.00     0.049 A 
ATOM     55  C   UNL A   1      41.022  31.398  35.279  1.00  0.00     0.074 A 
ATOM     56  C   UNL A   1      43.105  27.382  30.838  1.00  0.00     0.029 A 
ATOM     57  N   UNL A   1      41.947  28.888  31.994  1.00  0.00    -0.354 N 
ATOM     58  N   UNL A   1      41.390  30.600  34.306  1.00  0.00    -0.248 NA
ATOM     59  C   UNL A   1      41.749  31.179  36.539  1.00  0.00     0.031 C 
ATOM     60  C   UNL A   1      43.613  27.427  32.140  1.00  0.00     0.029 A 
ATOM     61  C   UNL A   1      42.909  28.382  32.855  1.00  0.00     0.049 A 
ATOM     62  H   UNL A   1      41.296  29.590  32.224  1.00  0.00     0.167 HD
ATOM     63  C   UNL A   1      42.395  29.795  34.829  1.00  0.00     0.074 A 
ATOM     64  C   UNL A   1      42.593  30.214  36.200  1.00  0.00     0.031 C 
ATOM     65  C   UNL A   1      43.090  28.797  34.225  1.00  0.00     0.037 A 
BRANCH  52  66
ATOM     66  C   UNL A   1      41.288  27.639  28.426  1.00  0.00     0.064 A 
ATOM     67  C   UNL A   1      42.153  27.979  27.375  1.00  0.00     0.173 A 
ATOM     68  C   UNL A   1      40.546  26.453  28.304  1.00  0.00     0.173 A 
ATOM     69  F   UNL A   1      42.878  29.106  27.435  1.00  0.00    -0.203 F 
ATOM     70  C   UNL A   1      42.239  27.187  26.232  1.00  0.00     0.198 A 
ATOM     71  C   UNL A   1      40.661  25.646  27.175  1.00  0.00     0.198 A 
ATOM     72  F   UNL A   1      39.708  26.075  29.281  1.00  0.00    -0.203 F 
ATOM     73  F   UNL A   1      43.024  27.567  25.214  1.00  0.00    -0.200 F 
ATOM     74  C   UNL A   1      41.498  26.021  26.136  1.00  0.00     0.200 A 
ATOM     75  F   UNL A   1      39.955  24.509  27.092  1.00  0.00    -0.200 F 
ATOM     76  F   UNL A   1      41.581  25.261  25.034  1.00  0.00    -0.200 F 
ENDBRANCH  52  66
BRANCH  53  77
ATOM     77  C   UNL A   1      39.667  33.254  36.509  1.00  0.00     0.064 A 
ATOM     78  C   UNL A   1      40.349  34.437  36.817  1.00  0.00     0.173 A 
ATOM     79  C   UNL A   1      38.671  32.824  37.399  1.00  0.00     0.173 A 
ATOM     80  F   UNL A   1      41.332  34.873  36.015  1.00  0.00    -0.203 F 
ATOM     81  C   UNL A   1      40.050  35.160  37.972  1.00  0.00     0.198 A 
ATOM     82  C   UNL A   1      38.351  33.562  38.536  1.00  0.00     0.198 A 
ATOM     83  F   UNL A   1      37.994  31.692  37.154  1.00  0.00    -0.203 F 
ATOM     84  F   UNL A   1      40.745  36.268  38.265  1.00  0.00    -0.200 F 
ATOM     85  C   UNL A   1      39.045  34.727  38.824  1.00  0.00     0.200 A 
ATOM     86  F   UNL A   1      37.374  33.145  39.351  1.00  0.00    -0.200 F 
ATOM     87  F   UNL A   1      38.751  35.428  39.928  1.00  0.00    -0.200 F 
ENDBRANCH  53  77
BRANCH  65  88
ATOM     88  C   UNL A   1      44.140  28.090  35.035  1.00  0.00     0.064 A 
ATOM     89  C   UNL A   1      43.861  26.900  35.724  1.00  0.00     0.173 A 
ATOM     90  C   UNL A   1      45.458  28.574  35.072  1.00  0.00     0.173 A 
ATOM     91  F   UNL A   1      42.616  26.402  35.734  1.00  0.00    -0.203 F 
ATOM     92  C   UNL A   1      44.858  26.232  36.433  1.00  0.00     0.198 A 
ATOM     93  C   UNL A   1      46.458  27.886  35.754  1.00  0.00     0.198 A 
ATOM     94  F   UNL A   1      45.781  29.704  34.426  1.00  0.00    -0.203 F 
ATOM     95  F   UNL A   1      44.559  25.118  37.116  1.00  0.00    -0.200 F 
ATOM     96  C   UNL A   1      46.156  26.718  36.438  1.00  0.00     0.200 A 
ATOM     97  F   UNL A   1      47.715  28.350  35.744  1.00  0.00    -0.200 F 
ATOM     98  F   UNL A   1      47.116  26.065  37.107  1.00  0.00    -0.200 F 
ENDBRANCH  65  88
ENDBRANCH  39  40
ENDBRANCH  32  34
ENDBRANCH  31  32
ENDBRANCH  30  31
ENDBRANCH  29  30
ENDBRANCH  28  29
ENDBRANCH  27  28
ENDBRANCH   1  27
TORSDOF 20
ENDMDL
MODEL 3
REMARK VINA RESULT:     -10.1      1.558      2.477
REMARK SMILES NC(=O)C1CC[NH+](Cc2ccc(C(=O)OCCOCCOCCOC(=O)c3ccc(-c4c5nc(c(-c6c(F)c(F)c(F)c(F)c6F)c6ccc([nH]6)c(-c6c(F)c(F)c(F)c(F)c6F)c6nc(c(-c7c(F)c(F)c(F)c(F)c7F)c7ccc4[nH]7)C=C6)C=C5)cc3)cc2)CC1
REMARK SMILES IDX 19 1 18 2 17 3 16 4 15 5 13 6 14 7 12 8 9 9 10 10 91 11
REMARK SMILES IDX 11 12 90 13 8 14 7 15 4 16 5 17 93 18 6 19 92 20 2 22 1 23
REMARK SMILES IDX 3 26 20 27 21 28 22 29 23 30 24 31 25 32 26 33 27 34 28 35
REMARK SMILES IDX 89 36 29 37 88 38 30 39 31 40 32 41 82 42 33 43 87 44 81 45
REMARK SMILES IDX 83 46 34 47 86 48 80 49 79 50 35 52 67 53 47 54 66 55 48 56
REMARK SMILES IDX 51 57 65 58 84 59 49 60 50 61 64 63 85 64 52 65 36 66 37 67
REMARK SMILES IDX 45 68 38 69 39 70 43 71 46 72 40 73 41 74 44 75 42 76 68 77
REMARK SMILES IDX 69 78 77 79 70 80 71 81 75 82 78 83 72 84 73 85 76 86 74 87
REMARK SMILES IDX 53 88 54 89 62 90 55 91 56 92 60 93 63 94 57 95 58 96 61 97
REMARK SMILES IDX 59 98
REMARK H PARENT 7 21 1 24 1 25 83 51 51 62
REMARK Flexibility Score: inf
ROOT
ATOM      1  C   UNL A   1      33.457  28.293  26.718  1.00  0.00     0.188 C 
ENDROOT
BRANCH   1   2
ATOM      2  O   UNL A   1      33.811  27.635  25.521  1.00  0.00    -0.376 OA
BRANCH   2   3
ATOM      3  C   UNL A   1      34.048  28.360  24.326  1.00  0.00     0.202 C 
BRANCH   3   4
ATOM      4  C   UNL A   1      33.049  28.459  23.163  1.00  0.00     0.261 C 
BRANCH   4   5
ATOM      5  O   UNL A   1      33.103  27.400  22.205  1.00  0.00    -0.460 OA
BRANCH   5   6
ATOM      6  C   UNL A   1      32.012  26.594  22.175  1.00  0.00     0.338 C 
ATOM      7  O   UNL A   1      30.956  26.817  21.605  1.00  0.00    -0.246 OA
BRANCH   6   8
ATOM      8  C   UNL A   1      32.346  25.279  22.771  1.00  0.00     0.060 A 
ATOM      9  C   UNL A   1      33.034  22.890  24.046  1.00  0.00     0.006 A 
ATOM     10  C   UNL A   1      32.138  23.780  24.657  1.00  0.00     0.010 A 
ATOM     11  C   UNL A   1      33.439  23.130  22.725  1.00  0.00     0.010 A 
ATOM     12  C   UNL A   1      31.797  24.972  24.021  1.00  0.00     0.016 A 
ATOM     13  C   UNL A   1      33.137  24.339  22.104  1.00  0.00     0.016 A 
BRANCH   9  14
ATOM     14  C   UNL A   1      33.716  21.815  24.878  1.00  0.00     0.299 C 
BRANCH  14  15
ATOM     15  N   UNL A   1      33.747  20.470  24.243  1.00  0.00    -0.331 N 
ATOM     16  C   UNL A   1      33.306  17.549  24.152  1.00  0.00     0.089 C 
ATOM     17  C   UNL A   1      34.697  18.170  24.287  1.00  0.00     0.075 C 
ATOM     18  C   UNL A   1      32.397  18.530  23.405  1.00  0.00     0.075 C 
ATOM     19  C   UNL A   1      34.621  19.537  24.961  1.00  0.00     0.263 C 
ATOM     20  C   UNL A   1      32.393  19.923  24.042  1.00  0.00     0.263 C 
ATOM     21  H   UNL A   1      34.154  20.593  23.316  1.00  0.00     0.348 HD
BRANCH  16  22
ATOM     22  C   UNL A   1      32.723  17.140  25.507  1.00  0.00     0.220 C 
ATOM     23  N   UNL A   1      32.760  18.100  26.475  1.00  0.00    -0.369 N 
ATOM     24  H   UNL A   1      32.402  17.907  27.373  1.00  0.00     0.159 HD
ATOM     25  H   UNL A   1      33.144  18.984  26.278  1.00  0.00     0.159 HD
ATOM     26  O   UNL A   1      32.271  16.032  25.769  1.00  0.00    -0.275 OA
ENDBRANCH  16  22
ENDBRANCH  14  15
ENDBRANCH   9  14
ENDBRANCH   6   8
ENDBRANCH   5   6
ENDBRANCH   4   5
ENDBRANCH   3   4
ENDBRANCH   2   3
ENDBRANCH   1   2
BRANCH   1  27
ATOM     27  C   UNL A   1      33.273  29.823  26.742  1.00  0.00     0.188 C 
BRANCH  27  28
ATOM     28  O   UNL A   1      32.040  30.369  27.143  1.00  0.00    -0.376 OA
BRANCH  28  29
ATOM     29  C   UNL A   1      31.552  31.543  26.518  1.00  0.00     0.202 C 
BRANCH  29  30
ATOM     30  C   UNL A   1      31.699  32.975  27.071  1.00  0.00     0.261 C 
BRANCH  30  31
ATOM     31  O   UNL A   1      33.016  33.527  27.172  1.00  0.00    -0.460 OA
BRANCH  31  32
ATOM     32  C   UNL A   1      33.293  34.196  28.318  1.00  0.00     0.338 C 
ATOM     33  O   UNL A   1      32.610  35.047  28.870  1.00  0.00    -0.246 OA
BRANCH  32  34
ATOM     34  C   UNL A   1      34.504  33.613  28.923  1.00  0.00     0.060 A 
ATOM     35  C   UNL A   1      34.398  32.428  29.665  1.00  0.00     0.016 A 
ATOM     36  C   UNL A   1      35.739  34.236  28.756  1.00  0.00     0.016 A 
ATOM     37  C   UNL A   1      35.537  31.847  30.224  1.00  0.00     0.010 A 
ATOM     38  C   UNL A   1      36.874  33.670  29.341  1.00  0.00     0.010 A 
ATOM     39  C   UNL A   1      36.779  32.476  30.081  1.00  0.00    -0.014 A 
BRANCH  39  40
ATOM     40  C   UNL A   1      37.978  31.955  30.780  1.00  0.00     0.031 A 
ATOM     41  C   UNL A   1      38.804  30.894  30.119  1.00  0.00     0.074 A 
ATOM     42  C   UNL A   1      38.294  32.386  32.014  1.00  0.00     0.049 A 
ATOM     43  N   UNL A   1      39.799  30.193  30.599  1.00  0.00    -0.248 NA
ATOM     44  C   UNL A   1      38.454  30.575  28.727  1.00  0.00     0.031 C 
ATOM     45  C   UNL A   1      37.590  33.435  32.746  1.00  0.00     0.029 A 
ATOM     46  N   UNL A   1      39.274  31.965  32.879  1.00  0.00    -0.354 N 
ATOM     47  C   UNL A   1      40.184  29.338  29.575  1.00  0.00     0.074 A 
ATOM     48  C   UNL A   1      39.301  29.594  28.457  1.00  0.00     0.031 C 
ATOM     49  C   UNL A   1      38.135  33.550  33.969  1.00  0.00     0.029 A 
ATOM     50  C   UNL A   1      39.194  32.552  34.117  1.00  0.00     0.049 A 
ATOM     51  H   UNL A   1      39.965  31.307  32.636  1.00  0.00     0.167 HD
ATOM     52  C   UNL A   1      41.182  28.421  29.574  1.00  0.00     0.037 A 
ATOM     53  C   UNL A   1      39.864  32.280  35.255  1.00  0.00     0.037 A 
ATOM     54  C   UNL A   1      42.045  28.164  30.697  1.00  0.00     0.049 A 
ATOM     55  C   UNL A   1      40.913  31.198  35.260  1.00  0.00     0.074 A 
ATOM     56  C   UNL A   1      43.114  27.288  30.781  1.00  0.00     0.029 A 
ATOM     57  N   UNL A   1      41.924  28.764  31.942  1.00  0.00    -0.354 N 
ATOM     58  N   UNL A   1      41.307  30.422  34.279  1.00  0.00    -0.248 NA
ATOM     59  C   UNL A   1      41.610  30.952  36.531  1.00  0.00     0.031 C 
ATOM     60  C   UNL A   1      43.591  27.305  32.095  1.00  0.00     0.029 A 
ATOM     61  C   UNL A   1      42.867  28.242  32.815  1.00  0.00     0.049 A 
ATOM     62  H   UNL A   1      41.266  29.459  32.172  1.00  0.00     0.167 HD
ATOM     63  C   UNL A   1      42.302  29.609  34.807  1.00  0.00     0.074 A 
ATOM     64  C   UNL A   1      42.466  29.998  36.192  1.00  0.00     0.031 C 
ATOM     65  C   UNL A   1      43.014  28.627  34.197  1.00  0.00     0.037 A 
BRANCH  52  66
ATOM     66  C   UNL A   1      41.355  27.594  28.332  1.00  0.00     0.064 A 
ATOM     67  C   UNL A   1      40.657  26.394  28.133  1.00  0.00     0.173 A 
ATOM     68  C   UNL A   1      42.232  28.016  27.320  1.00  0.00     0.173 A 
ATOM     69  F   UNL A   1      39.814  25.939  29.073  1.00  0.00    -0.203 F 
ATOM     70  C   UNL A   1      40.862  25.626  26.988  1.00  0.00     0.198 A 
ATOM     71  C   UNL A   1      42.408  27.264  26.162  1.00  0.00     0.198 A 
ATOM     72  F   UNL A   1      42.921  29.160  27.455  1.00  0.00    -0.203 F 
ATOM     73  F   UNL A   1      40.232  24.451  26.850  1.00  0.00    -0.200 F 
ATOM     74  C   UNL A   1      41.732  26.064  26.003  1.00  0.00     0.200 A 
ATOM     75  F   UNL A   1      43.238  27.698  25.203  1.00  0.00    -0.200 F 
ATOM     76  F   UNL A   1      41.929  25.324  24.903  1.00  0.00    -0.200 F 
ENDBRANCH  52  66
BRANCH  53  77
ATOM     77  C   UNL A   1      39.523  33.022  36.498  1.00  0.00     0.064 A 
ATOM     78  C   UNL A   1      38.554  32.541  37.388  1.00  0.00     0.173 A 
ATOM     79  C   UNL A   1      40.171  34.222  36.825  1.00  0.00     0.173 A 
ATOM     80  F   UNL A   1      37.884  31.415  37.105  1.00  0.00    -0.203 F 
ATOM     81  C   UNL A   1      38.243  33.237  38.556  1.00  0.00     0.198 A 
ATOM     82  C   UNL A   1      39.882  34.901  38.006  1.00  0.00     0.198 A 
ATOM     83  F   UNL A   1      41.101  34.730  36.002  1.00  0.00    -0.203 F 
ATOM     84  F   UNL A   1      37.284  32.776  39.372  1.00  0.00    -0.200 F 
ATOM     85  C   UNL A   1      38.914  34.409  38.869  1.00  0.00     0.200 A 
ATOM     86  F   UNL A   1      40.540  36.028  38.309  1.00  0.00    -0.200 F 
ATOM     87  F   UNL A   1      38.622  35.071  39.998  1.00  0.00    -0.200 F 
ENDBRANCH  53  77
BRANCH  65  88
ATOM     88  C   UNL A   1      44.048  27.905  35.016  1.00  0.00     0.064 A 
ATOM     89  C   UNL A   1      43.761  26.691  35.659  1.00  0.00     0.173 A 
ATOM     90  C   UNL A   1      45.358  28.401  35.108  1.00  0.00     0.173 A 
ATOM     91  F   UNL A   1      42.522  26.180  35.615  1.00  0.00    -0.203 F 
ATOM     92  C   UNL A   1      44.743  26.010  36.376  1.00  0.00     0.198 A 
ATOM     93  C   UNL A   1      46.345  27.701  35.798  1.00  0.00     0.198 A 
ATOM     94  F   UNL A   1      45.689  29.554  34.508  1.00  0.00    -0.203 F 
ATOM     95  F   UNL A   1      44.436  24.873  37.015  1.00  0.00    -0.200 F 
ATOM     96  C   UNL A   1      46.036  26.509  36.436  1.00  0.00     0.200 A 
ATOM     97  F   UNL A   1      47.596  28.177  35.841  1.00  0.00    -0.200 F 
ATOM     98  F   UNL A   1      46.982  25.844  37.113  1.00  0.00    -0.200 F 
ENDBRANCH  65  88
ENDBRANCH  39  40
ENDBRANCH  32  34
ENDBRANCH  31  32
ENDBRANCH  30  31
ENDBRANCH  29  30
ENDBRANCH  28  29
ENDBRANCH  27  28
ENDBRANCH   1  27
TORSDOF 20
ENDMDL
