MODEL 1
REMARK VINA RESULT:     -10.9      0.000      0.000
REMARK SMILES CC(C)(C)OC(=O)N1C[C@@H](C(=O)OCCOCCOCCOC(=O)c2ccc(-c3c4nc(c(-c5c(F)c(F)c(F)c(F)c5F)c5ccc([nH]5)c(-c5c(F)c(F)c(F)c(F)c5F)c5nc(c(-c6c(F)c(F)c(F)c(F)c6F)c6ccc3[nH]6)C=C5)C=C4)cc2)[C@H](c2cccc([N+](=O)[O-])c2)C1
REMARK SMILES IDX 17 1 16 2 15 3 14 4 13 5 11 6 12 7 10 8 8 9 9 10 98 11 88 12
REMARK SMILES IDX 6 13 7 14 5 15 2 16 1 17 3 18 4 19 89 20 90 21 97 22 91 23
REMARK SMILES IDX 93 24 92 25 94 26 95 27 96 28 18 29 19 30 20 31 21 32 22 33
REMARK SMILES IDX 23 34 24 35 25 36 26 37 87 38 27 39 86 40 28 41 29 42 30 43
REMARK SMILES IDX 80 44 31 45 85 46 79 47 81 48 32 49 84 50 78 51 77 52 33 54
REMARK SMILES IDX 65 55 45 56 64 57 46 58 49 59 63 60 82 61 47 62 48 63 62 65
REMARK SMILES IDX 83 66 50 67 34 68 35 69 43 70 36 71 37 72 41 73 44 74 38 75
REMARK SMILES IDX 39 76 42 77 40 78 66 79 67 80 75 81 68 82 69 83 73 84 76 85
REMARK SMILES IDX 70 86 71 87 74 88 72 89 51 90 52 91 60 92 53 93 54 94 58 95
REMARK SMILES IDX 61 96 55 97 56 98 59 99 57 100
REMARK H PARENT 81 53 49 64
REMARK Flexibility Score: inf
ROOT
ATOM      1  C   UNL A   1      35.220  33.097  27.949  1.00  0.00     0.188 C 
ENDROOT
BRANCH   1   2
ATOM      2  O   UNL A   1      34.544  31.844  28.031  1.00  0.00    -0.376 OA
BRANCH   2   3
ATOM      3  C   UNL A   1      35.280  30.634  28.072  1.00  0.00     0.202 C 
BRANCH   3   4
ATOM      4  C   UNL A   1      34.675  29.442  27.319  1.00  0.00     0.261 C 
BRANCH   4   5
ATOM      5  O   UNL A   1      33.678  29.731  26.315  1.00  0.00    -0.463 OA
BRANCH   5   6
ATOM      6  C   UNL A   1      32.559  28.959  26.378  1.00  0.00     0.311 C 
ATOM      7  O   UNL A   1      32.063  28.556  27.424  1.00  0.00    -0.252 OA
BRANCH   6   8
ATOM      8  C   UNL A   1      32.031  28.585  25.003  1.00  0.00     0.128 C 
ATOM      9  N   UNL A   1      30.182  29.018  23.595  1.00  0.00    -0.307 N 
ATOM     10  C   UNL A   1      31.240  29.692  24.315  1.00  0.00     0.139 C 
ATOM     11  C   UNL A   1      29.893  27.719  24.162  1.00  0.00     0.132 C 
ATOM     12  C   UNL A   1      31.029  27.397  25.146  1.00  0.00     0.055 C 
BRANCH   9  13
ATOM     13  C   UNL A   1      29.378  29.531  22.600  1.00  0.00     0.410 C 
ATOM     14  O   UNL A   1      28.569  28.834  22.000  1.00  0.00    -0.224 OA
BRANCH  13  15
ATOM     15  O   UNL A   1      29.612  30.844  22.336  1.00  0.00    -0.444 OA
BRANCH  15  16
ATOM     16  C   UNL A   1      28.553  31.829  22.556  1.00  0.00     0.106 C 
ATOM     17  C   UNL A   1      27.907  32.063  21.180  1.00  0.00     0.056 C 
ATOM     18  C   UNL A   1      29.152  33.150  23.049  1.00  0.00     0.056 C 
ATOM     19  C   UNL A   1      27.443  31.332  23.501  1.00  0.00     0.056 C 
ENDBRANCH  15  16
ENDBRANCH  13  15
ENDBRANCH   9  13
BRANCH  12  20
ATOM     20  C   UNL A   1      31.762  26.062  25.055  1.00  0.00    -0.035 A 
ATOM     21  C   UNL A   1      31.784  25.110  26.082  1.00  0.00     0.004 A 
ATOM     22  C   UNL A   1      32.456  25.751  23.866  1.00  0.00     0.089 A 
ATOM     23  C   UNL A   1      32.446  23.885  25.917  1.00  0.00     0.007 A 
ATOM     24  C   UNL A   1      33.079  24.511  23.687  1.00  0.00     0.269 A 
ATOM     25  C   UNL A   1      33.083  23.573  24.717  1.00  0.00     0.085 A 
BRANCH  24  26
ATOM     26  N   UNL A   1      33.696  24.193  22.394  1.00  0.00     0.062 N 
ATOM     27  O   UNL A   1      34.586  23.331  22.376  1.00  0.00    -0.258 OA
ATOM     28  O   UNL A   1      33.276  24.789  21.391  1.00  0.00    -0.258 OA
ENDBRANCH  24  26
ENDBRANCH  12  20
ENDBRANCH   6   8
ENDBRANCH   5   6
ENDBRANCH   4   5
ENDBRANCH   3   4
ENDBRANCH   2   3
ENDBRANCH   1   2
BRANCH   1  29
ATOM     29  C   UNL A   1      35.391  33.977  29.200  1.00  0.00     0.188 C 
BRANCH  29  30
ATOM     30  O   UNL A   1      34.283  33.845  30.070  1.00  0.00    -0.376 OA
BRANCH  30  31
ATOM     31  C   UNL A   1      34.326  34.597  31.262  1.00  0.00     0.202 C 
BRANCH  31  32
ATOM     32  C   UNL A   1      34.365  33.762  32.549  1.00  0.00     0.261 C 
BRANCH  32  33
ATOM     33  O   UNL A   1      35.030  32.487  32.468  1.00  0.00    -0.460 OA
BRANCH  33  34
ATOM     34  C   UNL A   1      36.141  32.308  33.224  1.00  0.00     0.338 C 
ATOM     35  O   UNL A   1      36.281  32.601  34.388  1.00  0.00    -0.246 OA
BRANCH  34  36
ATOM     36  C   UNL A   1      37.117  31.514  32.431  1.00  0.00     0.060 A 
ATOM     37  C   UNL A   1      37.986  30.634  33.094  1.00  0.00     0.016 A 
ATOM     38  C   UNL A   1      37.197  31.658  31.045  1.00  0.00     0.016 A 
ATOM     39  C   UNL A   1      38.959  29.925  32.375  1.00  0.00     0.010 A 
ATOM     40  C   UNL A   1      38.181  30.964  30.330  1.00  0.00     0.010 A 
ATOM     41  C   UNL A   1      39.091  30.119  30.993  1.00  0.00    -0.014 A 
BRANCH  41  42
ATOM     42  C   UNL A   1      40.290  29.623  30.262  1.00  0.00     0.031 A 
ATOM     43  C   UNL A   1      41.443  30.571  30.060  1.00  0.00     0.074 A 
ATOM     44  C   UNL A   1      40.367  28.375  29.765  1.00  0.00     0.049 A 
ATOM     45  N   UNL A   1      42.531  30.431  29.345  1.00  0.00    -0.248 NA
ATOM     46  C   UNL A   1      41.347  31.861  30.761  1.00  0.00     0.031 C 
ATOM     47  C   UNL A   1      39.361  27.331  29.935  1.00  0.00     0.029 A 
ATOM     48  N   UNL A   1      41.342  27.782  28.996  1.00  0.00    -0.354 N 
ATOM     49  C   UNL A   1      43.239  31.617  29.498  1.00  0.00     0.074 A 
ATOM     50  C   UNL A   1      42.444  32.475  30.349  1.00  0.00     0.031 C 
ATOM     51  C   UNL A   1      39.764  26.228  29.278  1.00  0.00     0.029 A 
ATOM     52  C   UNL A   1      41.033  26.502  28.603  1.00  0.00     0.049 A 
ATOM     53  H   UNL A   1      42.183  28.233  28.751  1.00  0.00     0.167 HD
ATOM     54  C   UNL A   1      44.445  31.959  28.983  1.00  0.00     0.037 A 
ATOM     55  C   UNL A   1      41.684  25.666  27.768  1.00  0.00     0.037 A 
ATOM     56  C   UNL A   1      45.235  31.111  28.131  1.00  0.00     0.049 A 
ATOM     57  C   UNL A   1      42.974  26.108  27.118  1.00  0.00     0.074 A 
ATOM     58  C   UNL A   1      46.467  31.372  27.556  1.00  0.00     0.029 A 
ATOM     59  N   UNL A   1      44.867  29.837  27.724  1.00  0.00    -0.354 N 
ATOM     60  N   UNL A   1      43.638  27.229  27.265  1.00  0.00    -0.248 NA
ATOM     61  C   UNL A   1      43.602  25.166  26.178  1.00  0.00     0.031 C 
ATOM     62  C   UNL A   1      46.817  30.280  26.755  1.00  0.00     0.029 A 
ATOM     63  C   UNL A   1      45.836  29.310  26.884  1.00  0.00     0.049 A 
ATOM     64  H   UNL A   1      44.039  29.375  27.992  1.00  0.00     0.167 HD
ATOM     65  C   UNL A   1      44.776  27.109  26.474  1.00  0.00     0.074 A 
ATOM     66  C   UNL A   1      44.716  25.804  25.852  1.00  0.00     0.031 C 
ATOM     67  C   UNL A   1      45.780  28.000  26.285  1.00  0.00     0.037 A 
BRANCH  54  68
ATOM     68  C   UNL A   1      44.963  33.333  29.301  1.00  0.00     0.064 A 
ATOM     69  C   UNL A   1      44.546  34.465  28.584  1.00  0.00     0.173 A 
ATOM     70  C   UNL A   1      45.882  33.521  30.345  1.00  0.00     0.173 A 
ATOM     71  F   UNL A   1      43.680  34.340  27.567  1.00  0.00    -0.203 F 
ATOM     72  C   UNL A   1      45.057  35.727  28.876  1.00  0.00     0.198 A 
ATOM     73  C   UNL A   1      46.364  34.789  30.657  1.00  0.00     0.198 A 
ATOM     74  F   UNL A   1      46.311  32.474  31.067  1.00  0.00    -0.203 F 
ATOM     75  F   UNL A   1      44.692  36.784  28.138  1.00  0.00    -0.200 F 
ATOM     76  C   UNL A   1      45.961  35.889  29.916  1.00  0.00     0.200 A 
ATOM     77  F   UNL A   1      47.225  34.946  31.672  1.00  0.00    -0.200 F 
ATOM     78  F   UNL A   1      46.451  37.104  30.197  1.00  0.00    -0.200 F 
ENDBRANCH  54  68
BRANCH  55  79
ATOM     79  C   UNL A   1      41.125  24.316  27.476  1.00  0.00     0.064 A 
ATOM     80  C   UNL A   1      41.724  23.159  27.998  1.00  0.00     0.173 A 
ATOM     81  C   UNL A   1      40.014  24.149  26.637  1.00  0.00     0.173 A 
ATOM     82  F   UNL A   1      42.812  23.262  28.775  1.00  0.00    -0.203 F 
ATOM     83  C   UNL A   1      41.244  21.890  27.678  1.00  0.00     0.198 A 
ATOM     84  C   UNL A   1      39.515  22.880  26.344  1.00  0.00     0.198 A 
ATOM     85  F   UNL A   1      39.411  25.220  26.100  1.00  0.00    -0.203 F 
ATOM     86  F   UNL A   1      41.871  20.802  28.146  1.00  0.00    -0.200 F 
ATOM     87  C   UNL A   1      40.136  21.752  26.857  1.00  0.00     0.200 A 
ATOM     88  F   UNL A   1      38.439  22.752  25.555  1.00  0.00    -0.200 F 
ATOM     89  F   UNL A   1      39.674  20.532  26.550  1.00  0.00    -0.200 F 
ENDBRANCH  55  79
BRANCH  67  90
ATOM     90  C   UNL A   1      46.937  27.580  25.419  1.00  0.00     0.064 A 
ATOM     91  C   UNL A   1      48.019  26.846  25.925  1.00  0.00     0.173 A 
ATOM     92  C   UNL A   1      46.932  27.874  24.045  1.00  0.00     0.173 A 
ATOM     93  F   UNL A   1      48.080  26.547  27.231  1.00  0.00    -0.203 F 
ATOM     94  C   UNL A   1      49.063  26.441  25.094  1.00  0.00     0.198 A 
ATOM     95  C   UNL A   1      47.959  27.440  23.212  1.00  0.00     0.198 A 
ATOM     96  F   UNL A   1      45.917  28.566  23.506  1.00  0.00    -0.203 F 
ATOM     97  F   UNL A   1      50.108  25.780  25.609  1.00  0.00    -0.200 F 
ATOM     98  C   UNL A   1      49.027  26.731  23.738  1.00  0.00     0.200 A 
ATOM     99  F   UNL A   1      47.914  27.705  21.899  1.00  0.00    -0.200 F 
ATOM    100  F   UNL A   1      50.027  26.330  22.939  1.00  0.00    -0.200 F 
ENDBRANCH  67  90
ENDBRANCH  41  42
ENDBRANCH  34  36
ENDBRANCH  33  34
ENDBRANCH  32  33
ENDBRANCH  31  32
ENDBRANCH  30  31
ENDBRANCH  29  30
ENDBRANCH   1  29
TORSDOF 22
ENDMDL
MODEL 2
REMARK VINA RESULT:     -10.8      4.781      7.868
REMARK SMILES CC(C)(C)OC(=O)N1C[C@@H](C(=O)OCCOCCOCCOC(=O)c2ccc(-c3c4nc(c(-c5c(F)c(F)c(F)c(F)c5F)c5ccc([nH]5)c(-c5c(F)c(F)c(F)c(F)c5F)c5nc(c(-c6c(F)c(F)c(F)c(F)c6F)c6ccc3[nH]6)C=C5)C=C4)cc2)[C@H](c2cccc([N+](=O)[O-])c2)C1
REMARK SMILES IDX 17 1 16 2 15 3 14 4 13 5 11 6 12 7 10 8 8 9 9 10 98 11 88 12
REMARK SMILES IDX 6 13 7 14 5 15 2 16 1 17 3 18 4 19 89 20 90 21 97 22 91 23
REMARK SMILES IDX 93 24 92 25 94 26 95 27 96 28 18 29 19 30 20 31 21 32 22 33
REMARK SMILES IDX 23 34 24 35 25 36 26 37 87 38 27 39 86 40 28 41 29 42 30 43
REMARK SMILES IDX 80 44 31 45 85 46 79 47 81 48 32 49 84 50 78 51 77 52 33 54
REMARK SMILES IDX 65 55 45 56 64 57 46 58 49 59 63 60 82 61 47 62 48 63 62 65
REMARK SMILES IDX 83 66 50 67 34 68 35 69 43 70 36 71 37 72 41 73 44 74 38 75
REMARK SMILES IDX 39 76 42 77 40 78 66 79 67 80 75 81 68 82 69 83 73 84 76 85
REMARK SMILES IDX 70 86 71 87 74 88 72 89 51 90 52 91 60 92 53 93 54 94 58 95
REMARK SMILES IDX 61 96 55 97 56 98 59 99 57 100
REMARK H PARENT 81 53 49 64
REMARK Flexibility Score: inf
ROOT
ATOM      1  C   UNL A   1      34.508  32.677  28.237  1.00  0.00     0.188 C 
ENDROOT
BRANCH   1   2
ATOM      2  O   UNL A   1      33.564  31.652  27.931  1.00  0.00    -0.376 OA
BRANCH   2   3
ATOM      3  C   UNL A   1      33.984  30.461  27.288  1.00  0.00     0.202 C 
BRANCH   3   4
ATOM      4  C   UNL A   1      32.888  29.434  26.974  1.00  0.00     0.261 C 
BRANCH   4   5
ATOM      5  O   UNL A   1      33.311  28.153  26.458  1.00  0.00    -0.463 OA
BRANCH   5   6
ATOM      6  C   UNL A   1      33.191  28.008  25.110  1.00  0.00     0.311 C 
ATOM      7  O   UNL A   1      33.366  28.915  24.306  1.00  0.00    -0.252 OA
BRANCH   6   8
ATOM      8  C   UNL A   1      32.737  26.613  24.713  1.00  0.00     0.128 C 
ATOM      9  N   UNL A   1      33.515  24.730  23.514  1.00  0.00    -0.307 N 
ATOM     10  C   UNL A   1      33.864  25.591  24.622  1.00  0.00     0.139 C 
ATOM     11  C   UNL A   1      32.617  25.386  22.589  1.00  0.00     0.132 C 
ATOM     12  C   UNL A   1      32.119  26.665  23.281  1.00  0.00     0.055 C 
BRANCH   9  13
ATOM     13  C   UNL A   1      34.048  23.498  23.201  1.00  0.00     0.410 C 
ATOM     14  O   UNL A   1      34.565  23.276  22.113  1.00  0.00    -0.224 OA
BRANCH  13  15
ATOM     15  O   UNL A   1      33.895  22.574  24.187  1.00  0.00    -0.444 OA
BRANCH  15  16
ATOM     16  C   UNL A   1      32.702  21.728  24.210  1.00  0.00     0.106 C 
ATOM     17  C   UNL A   1      32.131  21.769  22.783  1.00  0.00     0.056 C 
ATOM     18  C   UNL A   1      31.661  22.308  25.173  1.00  0.00     0.056 C 
ATOM     19  C   UNL A   1      33.005  20.254  24.537  1.00  0.00     0.056 C 
ENDBRANCH  15  16
ENDBRANCH  13  15
ENDBRANCH   9  13
BRANCH  12  20
ATOM     20  C   UNL A   1      30.623  26.961  23.351  1.00  0.00    -0.035 A 
ATOM     21  C   UNL A   1      29.694  26.144  24.006  1.00  0.00     0.004 A 
ATOM     22  C   UNL A   1      30.136  28.132  22.730  1.00  0.00     0.089 A 
ATOM     23  C   UNL A   1      28.338  26.497  24.065  1.00  0.00     0.007 A 
ATOM     24  C   UNL A   1      28.791  28.504  22.826  1.00  0.00     0.269 A 
ATOM     25  C   UNL A   1      27.882  27.682  23.490  1.00  0.00     0.085 A 
BRANCH  24  26
ATOM     26  N   UNL A   1      28.353  29.783  22.255  1.00  0.00     0.062 N 
ATOM     27  O   UNL A   1      28.951  30.203  21.254  1.00  0.00    -0.258 OA
ATOM     28  O   UNL A   1      27.395  30.357  22.794  1.00  0.00    -0.258 OA
ENDBRANCH  24  26
ENDBRANCH  12  20
ENDBRANCH   6   8
ENDBRANCH   5   6
ENDBRANCH   4   5
ENDBRANCH   3   4
ENDBRANCH   2   3
ENDBRANCH   1   2
BRANCH   1  29
ATOM     29  C   UNL A   1      34.328  33.557  29.487  1.00  0.00     0.188 C 
BRANCH  29  30
ATOM     30  O   UNL A   1      33.144  34.326  29.403  1.00  0.00    -0.376 OA
BRANCH  30  31
ATOM     31  C   UNL A   1      33.305  35.725  29.314  1.00  0.00     0.202 C 
BRANCH  31  32
ATOM     32  C   UNL A   1      32.544  36.529  30.376  1.00  0.00     0.261 C 
BRANCH  32  33
ATOM     33  O   UNL A   1      32.285  35.860  31.626  1.00  0.00    -0.460 OA
BRANCH  33  34
ATOM     34  C   UNL A   1      33.092  36.154  32.675  1.00  0.00     0.338 C 
ATOM     35  O   UNL A   1      32.879  36.958  33.551  1.00  0.00    -0.246 OA
BRANCH  34  36
ATOM     36  C   UNL A   1      34.219  35.183  32.678  1.00  0.00     0.060 A 
ATOM     37  C   UNL A   1      33.985  33.861  33.086  1.00  0.00     0.016 A 
ATOM     38  C   UNL A   1      35.505  35.581  32.309  1.00  0.00     0.016 A 
ATOM     39  C   UNL A   1      35.045  32.946  33.161  1.00  0.00     0.010 A 
ATOM     40  C   UNL A   1      36.566  34.671  32.402  1.00  0.00     0.010 A 
ATOM     41  C   UNL A   1      36.351  33.358  32.861  1.00  0.00    -0.014 A 
BRANCH  41  42
ATOM     42  C   UNL A   1      37.522  32.510  33.217  1.00  0.00     0.031 A 
ATOM     43  C   UNL A   1      38.232  32.787  34.516  1.00  0.00     0.074 A 
ATOM     44  C   UNL A   1      37.973  31.528  32.415  1.00  0.00     0.049 A 
ATOM     45  N   UNL A   1      39.348  32.290  34.987  1.00  0.00    -0.248 NA
ATOM     46  C   UNL A   1      37.590  33.769  35.405  1.00  0.00     0.031 C 
ATOM     47  C   UNL A   1      37.354  31.105  31.163  1.00  0.00     0.029 A 
ATOM     48  N   UNL A   1      39.077  30.716  32.537  1.00  0.00    -0.354 N 
ATOM     49  C   UNL A   1      39.549  32.908  36.215  1.00  0.00     0.074 A 
ATOM     50  C   UNL A   1      38.456  33.837  36.403  1.00  0.00     0.031 C 
ATOM     51  C   UNL A   1      38.095  30.120  30.623  1.00  0.00     0.029 A 
ATOM     52  C   UNL A   1      39.265  29.875  31.467  1.00  0.00     0.049 A 
ATOM     53  H   UNL A   1      39.677  30.737  33.318  1.00  0.00     0.167 HD
ATOM     54  C   UNL A   1      40.548  32.716  37.110  1.00  0.00     0.037 A 
ATOM     55  C   UNL A   1      40.280  29.032  31.189  1.00  0.00     0.037 A 
ATOM     56  C   UNL A   1      41.641  31.798  36.924  1.00  0.00     0.049 A 
ATOM     57  C   UNL A   1      41.441  28.913  32.149  1.00  0.00     0.074 A 
ATOM     58  C   UNL A   1      42.704  31.538  37.771  1.00  0.00     0.029 A 
ATOM     59  N   UNL A   1      41.815  30.994  35.807  1.00  0.00    -0.354 N 
ATOM     60  N   UNL A   1      41.627  29.499  33.307  1.00  0.00    -0.248 NA
ATOM     61  C   UNL A   1      42.538  28.014  31.757  1.00  0.00     0.031 C 
ATOM     62  C   UNL A   1      43.551  30.620  37.143  1.00  0.00     0.029 A 
ATOM     63  C   UNL A   1      42.982  30.257  35.933  1.00  0.00     0.049 A 
ATOM     64  H   UNL A   1      41.200  30.953  35.039  1.00  0.00     0.167 HD
ATOM     65  C   UNL A   1      42.833  29.011  33.797  1.00  0.00     0.074 A 
ATOM     66  C   UNL A   1      43.335  28.076  32.814  1.00  0.00     0.031 C 
ATOM     67  C   UNL A   1      43.465  29.310  34.960  1.00  0.00     0.037 A 
BRANCH  54  68
ATOM     68  C   UNL A   1      40.523  33.551  38.359  1.00  0.00     0.064 A 
ATOM     69  C   UNL A   1      39.687  33.237  39.442  1.00  0.00     0.173 A 
ATOM     70  C   UNL A   1      41.355  34.675  38.478  1.00  0.00     0.173 A 
ATOM     71  F   UNL A   1      38.861  32.183  39.374  1.00  0.00    -0.203 F 
ATOM     72  C   UNL A   1      39.659  34.038  40.581  1.00  0.00     0.198 A 
ATOM     73  C   UNL A   1      41.350  35.452  39.633  1.00  0.00     0.198 A 
ATOM     74  F   UNL A   1      42.179  35.018  37.476  1.00  0.00    -0.203 F 
ATOM     75  F   UNL A   1      38.807  33.755  41.576  1.00  0.00    -0.200 F 
ATOM     76  C   UNL A   1      40.495  35.141  40.678  1.00  0.00     0.200 A 
ATOM     77  F   UNL A   1      42.169  36.509  39.731  1.00  0.00    -0.200 F 
ATOM     78  F   UNL A   1      40.467  35.910  41.775  1.00  0.00    -0.200 F 
ENDBRANCH  54  68
BRANCH  55  79
ATOM     79  C   UNL A   1      40.266  28.231  29.933  1.00  0.00     0.064 A 
ATOM     80  C   UNL A   1      40.961  28.666  28.793  1.00  0.00     0.173 A 
ATOM     81  C   UNL A   1      39.527  27.044  29.829  1.00  0.00     0.173 A 
ATOM     82  F   UNL A   1      41.653  29.814  28.830  1.00  0.00    -0.203 F 
ATOM     83  C   UNL A   1      40.902  27.954  27.597  1.00  0.00     0.198 A 
ATOM     84  C   UNL A   1      39.495  26.316  28.640  1.00  0.00     0.198 A 
ATOM     85  F   UNL A   1      38.834  26.590  30.883  1.00  0.00    -0.203 F 
ATOM     86  F   UNL A   1      41.529  28.423  26.509  1.00  0.00    -0.200 F 
ATOM     87  C   UNL A   1      40.174  26.776  27.523  1.00  0.00     0.200 A 
ATOM     88  F   UNL A   1      38.796  25.174  28.575  1.00  0.00    -0.200 F 
ATOM     89  F   UNL A   1      40.118  26.091  26.372  1.00  0.00    -0.200 F 
ENDBRANCH  55  79
BRANCH  67  90
ATOM     90  C   UNL A   1      44.740  28.576  35.274  1.00  0.00     0.064 A 
ATOM     91  C   UNL A   1      45.999  29.086  34.924  1.00  0.00     0.173 A 
ATOM     92  C   UNL A   1      44.700  27.367  35.988  1.00  0.00     0.173 A 
ATOM     93  F   UNL A   1      46.095  30.231  34.233  1.00  0.00    -0.203 F 
ATOM     94  C   UNL A   1      47.168  28.402  35.256  1.00  0.00     0.198 A 
ATOM     95  C   UNL A   1      45.870  26.703  36.346  1.00  0.00     0.198 A 
ATOM     96  F   UNL A   1      43.524  26.837  36.356  1.00  0.00    -0.203 F 
ATOM     97  F   UNL A   1      48.356  28.886  34.871  1.00  0.00    -0.200 F 
ATOM     98  C   UNL A   1      47.103  27.217  35.974  1.00  0.00     0.200 A 
ATOM     99  F   UNL A   1      45.806  25.568  37.055  1.00  0.00    -0.200 F 
ATOM    100  F   UNL A   1      48.229  26.567  36.301  1.00  0.00    -0.200 F 
ENDBRANCH  67  90
ENDBRANCH  41  42
ENDBRANCH  34  36
ENDBRANCH  33  34
ENDBRANCH  32  33
ENDBRANCH  31  32
ENDBRANCH  30  31
ENDBRANCH  29  30
ENDBRANCH   1  29
TORSDOF 22
ENDMDL
MODEL 3
REMARK VINA RESULT:     -10.3      4.832      7.444
REMARK SMILES CC(C)(C)OC(=O)N1C[C@@H](C(=O)OCCOCCOCCOC(=O)c2ccc(-c3c4nc(c(-c5c(F)c(F)c(F)c(F)c5F)c5ccc([nH]5)c(-c5c(F)c(F)c(F)c(F)c5F)c5nc(c(-c6c(F)c(F)c(F)c(F)c6F)c6ccc3[nH]6)C=C5)C=C4)cc2)[C@H](c2cccc([N+](=O)[O-])c2)C1
REMARK SMILES IDX 17 1 16 2 15 3 14 4 13 5 11 6 12 7 10 8 8 9 9 10 98 11 88 12
REMARK SMILES IDX 6 13 7 14 5 15 2 16 1 17 3 18 4 19 89 20 90 21 97 22 91 23
REMARK SMILES IDX 93 24 92 25 94 26 95 27 96 28 18 29 19 30 20 31 21 32 22 33
REMARK SMILES IDX 23 34 24 35 25 36 26 37 87 38 27 39 86 40 28 41 29 42 30 43
REMARK SMILES IDX 80 44 31 45 85 46 79 47 81 48 32 49 84 50 78 51 77 52 33 54
REMARK SMILES IDX 65 55 45 56 64 57 46 58 49 59 63 60 82 61 47 62 48 63 62 65
REMARK SMILES IDX 83 66 50 67 34 68 35 69 43 70 36 71 37 72 41 73 44 74 38 75
REMARK SMILES IDX 39 76 42 77 40 78 66 79 67 80 75 81 68 82 69 83 73 84 76 85
REMARK SMILES IDX 70 86 71 87 74 88 72 89 51 90 52 91 60 92 53 93 54 94 58 95
REMARK SMILES IDX 61 96 55 97 56 98 59 99 57 100
REMARK H PARENT 81 53 49 64
REMARK Flexibility Score: inf
ROOT
ATOM      1  C   UNL A   1      35.892  32.414  28.469  1.00  0.00     0.188 C 
ENDROOT
BRANCH   1   2
ATOM      2  O   UNL A   1      35.049  31.269  28.591  1.00  0.00    -0.376 OA
BRANCH   2   3
ATOM      3  C   UNL A   1      33.757  31.267  28.009  1.00  0.00     0.202 C 
BRANCH   3   4
ATOM      4  C   UNL A   1      33.574  30.393  26.761  1.00  0.00     0.261 C 
BRANCH   4   5
ATOM      5  O   UNL A   1      33.410  28.973  26.966  1.00  0.00    -0.463 OA
BRANCH   5   6
ATOM      6  C   UNL A   1      32.141  28.510  26.799  1.00  0.00     0.311 C 
ATOM      7  O   UNL A   1      31.373  28.273  27.723  1.00  0.00    -0.252 OA
BRANCH   6   8
ATOM      8  C   UNL A   1      31.804  28.245  25.341  1.00  0.00     0.128 C 
ATOM      9  N   UNL A   1      30.146  28.774  23.743  1.00  0.00    -0.307 N 
ATOM     10  C   UNL A   1      31.087  29.397  24.646  1.00  0.00     0.139 C 
ATOM     11  C   UNL A   1      29.812  27.430  24.160  1.00  0.00     0.132 C 
ATOM     12  C   UNL A   1      30.818  27.040  25.255  1.00  0.00     0.055 C 
BRANCH   9  13
ATOM     13  C   UNL A   1      29.466  29.360  22.696  1.00  0.00     0.410 C 
ATOM     14  O   UNL A   1      28.703  28.720  21.983  1.00  0.00    -0.224 OA
BRANCH  13  15
ATOM     15  O   UNL A   1      29.769  30.674  22.519  1.00  0.00    -0.444 OA
BRANCH  15  16
ATOM     16  C   UNL A   1      28.701  31.673  22.537  1.00  0.00     0.106 C 
ATOM     17  C   UNL A   1      27.634  31.128  23.501  1.00  0.00     0.056 C 
ATOM     18  C   UNL A   1      28.080  31.810  21.143  1.00  0.00     0.056 C 
ATOM     19  C   UNL A   1      29.153  33.040  23.084  1.00  0.00     0.056 C 
ENDBRANCH  15  16
ENDBRANCH  13  15
ENDBRANCH   9  13
BRANCH  12  20
ATOM     20  C   UNL A   1      31.583  25.724  25.154  1.00  0.00    -0.035 A 
ATOM     21  C   UNL A   1      31.859  24.893  26.247  1.00  0.00     0.004 A 
ATOM     22  C   UNL A   1      32.039  25.303  23.886  1.00  0.00     0.089 A 
ATOM     23  C   UNL A   1      32.535  23.677  26.077  1.00  0.00     0.007 A 
ATOM     24  C   UNL A   1      32.675  24.069  23.712  1.00  0.00     0.269 A 
ATOM     25  C   UNL A   1      32.933  23.252  24.810  1.00  0.00     0.085 A 
BRANCH  24  26
ATOM     26  N   UNL A   1      33.035  23.627  22.360  1.00  0.00     0.062 N 
ATOM     27  O   UNL A   1      33.651  24.424  21.637  1.00  0.00    -0.258 OA
ATOM     28  O   UNL A   1      32.722  22.474  22.027  1.00  0.00    -0.258 OA
ENDBRANCH  24  26
ENDBRANCH  12  20
ENDBRANCH   6   8
ENDBRANCH   5   6
ENDBRANCH   4   5
ENDBRANCH   3   4
ENDBRANCH   2   3
ENDBRANCH   1   2
BRANCH   1  29
ATOM     29  C   UNL A   1      35.447  33.627  27.634  1.00  0.00     0.188 C 
BRANCH  29  30
ATOM     30  O   UNL A   1      35.415  34.803  28.421  1.00  0.00    -0.376 OA
BRANCH  30  31
ATOM     31  C   UNL A   1      34.140  35.283  28.785  1.00  0.00     0.202 C 
BRANCH  31  32
ATOM     32  C   UNL A   1      33.508  34.579  29.993  1.00  0.00     0.261 C 
BRANCH  32  33
ATOM     33  O   UNL A   1      32.372  35.230  30.595  1.00  0.00    -0.460 OA
BRANCH  33  34
ATOM     34  C   UNL A   1      32.526  35.735  31.844  1.00  0.00     0.338 C 
ATOM     35  O   UNL A   1      31.784  36.498  32.415  1.00  0.00    -0.246 OA
BRANCH  34  36
ATOM     36  C   UNL A   1      33.681  35.046  32.482  1.00  0.00     0.060 A 
ATOM     37  C   UNL A   1      34.937  35.670  32.482  1.00  0.00     0.016 A 
ATOM     38  C   UNL A   1      33.532  33.779  33.049  1.00  0.00     0.016 A 
ATOM     39  C   UNL A   1      36.053  35.012  33.019  1.00  0.00     0.010 A 
ATOM     40  C   UNL A   1      34.651  33.115  33.567  1.00  0.00     0.010 A 
ATOM     41  C   UNL A   1      35.926  33.711  33.525  1.00  0.00    -0.014 A 
BRANCH  41  42
ATOM     42  C   UNL A   1      37.127  32.882  33.818  1.00  0.00     0.031 A 
ATOM     43  C   UNL A   1      37.879  33.145  35.096  1.00  0.00     0.074 A 
ATOM     44  C   UNL A   1      37.568  31.929  32.978  1.00  0.00     0.049 A 
ATOM     45  N   UNL A   1      39.022  32.663  35.514  1.00  0.00    -0.248 NA
ATOM     46  C   UNL A   1      37.250  34.093  36.031  1.00  0.00     0.031 C 
ATOM     47  C   UNL A   1      36.912  31.520  31.739  1.00  0.00     0.029 A 
ATOM     48  N   UNL A   1      38.694  31.139  33.040  1.00  0.00    -0.354 N 
ATOM     49  C   UNL A   1      39.256  33.257  36.748  1.00  0.00     0.074 A 
ATOM     50  C   UNL A   1      38.151  34.158  36.997  1.00  0.00     0.031 C 
ATOM     51  C   UNL A   1      37.653  30.564  31.149  1.00  0.00     0.029 A 
ATOM     52  C   UNL A   1      38.859  30.326  31.944  1.00  0.00     0.049 A 
ATOM     53  H   UNL A   1      39.321  31.155  33.798  1.00  0.00     0.167 HD
ATOM     54  C   UNL A   1      40.292  33.068  37.600  1.00  0.00     0.037 A 
ATOM     55  C   UNL A   1      39.881  29.512  31.609  1.00  0.00     0.037 A 
ATOM     56  C   UNL A   1      41.396  32.179  37.353  1.00  0.00     0.049 A 
ATOM     57  C   UNL A   1      41.079  29.397  32.523  1.00  0.00     0.074 A 
ATOM     58  C   UNL A   1      42.495  31.923  38.154  1.00  0.00     0.029 A 
ATOM     59  N   UNL A   1      41.546  31.404  36.212  1.00  0.00    -0.354 N 
ATOM     60  N   UNL A   1      41.295  29.961  33.686  1.00  0.00    -0.248 NA
ATOM     61  C   UNL A   1      42.180  28.532  32.069  1.00  0.00     0.031 C 
ATOM     62  C   UNL A   1      43.338  31.038  37.473  1.00  0.00     0.029 A 
ATOM     63  C   UNL A   1      42.732  30.690  36.277  1.00  0.00     0.049 A 
ATOM     64  H   UNL A   1      40.903  31.366  35.466  1.00  0.00     0.167 HD
ATOM     65  C   UNL A   1      42.530  29.490  34.120  1.00  0.00     0.074 A 
ATOM     66  C   UNL A   1      43.014  28.588  33.097  1.00  0.00     0.031 C 
ATOM     67  C   UNL A   1      43.198  29.776  35.264  1.00  0.00     0.037 A 
BRANCH  54  68
ATOM     68  C   UNL A   1      40.296  33.873  38.868  1.00  0.00     0.064 A 
ATOM     69  C   UNL A   1      39.597  33.456  40.012  1.00  0.00     0.173 A 
ATOM     70  C   UNL A   1      41.018  35.074  38.944  1.00  0.00     0.173 A 
ATOM     71  F   UNL A   1      38.879  32.324  39.989  1.00  0.00    -0.203 F 
ATOM     72  C   UNL A   1      39.591  34.230  41.170  1.00  0.00     0.198 A 
ATOM     73  C   UNL A   1      41.039  35.827  40.115  1.00  0.00     0.198 A 
ATOM     74  F   UNL A   1      41.708  35.517  37.882  1.00  0.00    -0.203 F 
ATOM     75  F   UNL A   1      38.866  33.844  42.228  1.00  0.00    -0.200 F 
ATOM     76  C   UNL A   1      40.317  35.411  41.222  1.00  0.00     0.200 A 
ATOM     77  F   UNL A   1      41.753  36.960  40.169  1.00  0.00    -0.200 F 
ATOM     78  F   UNL A   1      40.311  36.154  42.338  1.00  0.00    -0.200 F 
ENDBRANCH  54  68
BRANCH  55  79
ATOM     79  C   UNL A   1      39.837  28.740  30.335  1.00  0.00     0.064 A 
ATOM     80  C   UNL A   1      39.299  27.445  30.295  1.00  0.00     0.173 A 
ATOM     81  C   UNL A   1      40.368  29.260  29.146  1.00  0.00     0.173 A 
ATOM     82  F   UNL A   1      38.812  26.889  31.414  1.00  0.00    -0.203 F 
ATOM     83  C   UNL A   1      39.311  26.694  29.121  1.00  0.00     0.198 A 
ATOM     84  C   UNL A   1      40.351  28.519  27.964  1.00  0.00     0.198 A 
ATOM     85  F   UNL A   1      40.907  30.487  29.131  1.00  0.00    -0.203 F 
ATOM     86  F   UNL A   1      38.842  25.439  29.127  1.00  0.00    -0.200 F 
ATOM     87  C   UNL A   1      39.831  27.235  27.955  1.00  0.00     0.200 A 
ATOM     88  F   UNL A   1      40.848  29.048  26.838  1.00  0.00    -0.200 F 
ATOM     89  F   UNL A   1      39.842  26.513  26.826  1.00  0.00    -0.200 F 
ENDBRANCH  55  79
BRANCH  67  90
ATOM     90  C   UNL A   1      44.500  29.064  35.514  1.00  0.00     0.064 A 
ATOM     91  C   UNL A   1      45.727  29.576  35.069  1.00  0.00     0.173 A 
ATOM     92  C   UNL A   1      44.521  27.875  36.262  1.00  0.00     0.173 A 
ATOM     93  F   UNL A   1      45.764  30.702  34.341  1.00  0.00    -0.203 F 
ATOM     94  C   UNL A   1      46.922  28.913  35.341  1.00  0.00     0.198 A 
ATOM     95  C   UNL A   1      45.719  27.233  36.561  1.00  0.00     0.198 A 
ATOM     96  F   UNL A   1      43.377  27.344  36.721  1.00  0.00    -0.203 F 
ATOM     97  F   UNL A   1      48.078  29.398  34.866  1.00  0.00    -0.200 F 
ATOM     98  C   UNL A   1      46.918  27.748  36.094  1.00  0.00     0.200 A 
ATOM     99  F   UNL A   1      45.715  26.117  37.303  1.00  0.00    -0.200 F 
ATOM    100  F   UNL A   1      48.071  27.119  36.365  1.00  0.00    -0.200 F 
ENDBRANCH  67  90
ENDBRANCH  41  42
ENDBRANCH  34  36
ENDBRANCH  33  34
ENDBRANCH  32  33
ENDBRANCH  31  32
ENDBRANCH  30  31
ENDBRANCH  29  30
ENDBRANCH   1  29
TORSDOF 22
ENDMDL
