MODEL 1
REMARK VINA RESULT:     -12.2      0.000      0.000
REMARK SMILES Cc1ccnc(C(=O)c2[nH]c3ccc(C(C)(C)C)cc3c2CC(=O)OCCOCCOCCOC(=O)c2ccc(-c3c4nc(c(-c5c(F)c(F)c(F)c(F)c5F)c5ccc([nH]5)c(-c5c(F)c(F)c(F)c(F)c5F)c5nc(c(-c6c(F)c(F)c(F)c(F)c6F)c6ccc3[nH]6)C=C5)C=C4)cc2)c1
REMARK SMILES IDX 29 1 28 2 27 3 26 4 25 5 23 6 24 7 22 8 21 9 9 10 10 11
REMARK SMILES IDX 11 12 20 14 12 15 19 16 13 17 14 18 7 19 8 20 6 21 1 22 2 23
REMARK SMILES IDX 3 24 100 25 4 26 5 27 15 28 16 29 17 30 18 31 30 32 31 33
REMARK SMILES IDX 32 34 33 35 34 36 35 37 36 38 37 39 38 40 99 41 39 42 98 43
REMARK SMILES IDX 40 44 41 45 42 46 92 47 43 48 97 49 91 50 93 51 44 52 96 53
REMARK SMILES IDX 90 54 89 55 45 57 77 58 57 59 76 60 58 61 61 62 75 63 94 64
REMARK SMILES IDX 59 65 60 66 74 68 95 69 62 70 46 71 47 72 55 73 48 74 49 75
REMARK SMILES IDX 53 76 56 77 50 78 51 79 54 80 52 81 78 82 79 83 87 84 80 85
REMARK SMILES IDX 81 86 85 87 88 88 82 89 83 90 86 91 84 92 63 93 64 94 72 95
REMARK SMILES IDX 65 96 66 97 70 98 73 99 67 100 68 101 71 102 69 103
REMARK H PARENT 10 13 93 56 61 67
REMARK Flexibility Score: inf
ROOT
ATOM      1  C   UNL A   1      39.653  21.404  26.505  1.00  0.00     0.188 C 
ENDROOT
BRANCH   1   2
ATOM      2  O   UNL A   1      38.830  21.329  25.345  1.00  0.00    -0.376 OA
BRANCH   2   3
ATOM      3  C   UNL A   1      37.450  21.638  25.493  1.00  0.00     0.202 C 
BRANCH   3   4
ATOM      4  C   UNL A   1      36.698  21.905  24.188  1.00  0.00     0.261 C 
BRANCH   4   5
ATOM      5  O   UNL A   1      36.681  23.311  23.853  1.00  0.00    -0.463 OA
BRANCH   5   6
ATOM      6  C   UNL A   1      35.486  23.934  23.996  1.00  0.00     0.310 C 
ATOM      7  O   UNL A   1      34.647  24.001  23.099  1.00  0.00    -0.252 OA
BRANCH   6   8
ATOM      8  C   UNL A   1      35.187  24.491  25.374  1.00  0.00     0.161 C 
BRANCH   8   9
ATOM      9  C   UNL A   1      33.787  24.419  25.939  1.00  0.00     0.000 A 
ATOM     10  C   UNL A   1      33.110  23.295  26.430  1.00  0.00     0.093 A 
ATOM     11  N   UNL A   1      31.871  23.726  26.855  1.00  0.00    -0.352 N 
ATOM     12  C   UNL A   1      31.589  24.945  26.294  1.00  0.00     0.046 A 
ATOM     13  H   UNL A   1      31.278  23.233  27.466  1.00  0.00     0.167 HD
ATOM     14  C   UNL A   1      32.776  25.416  25.748  1.00  0.00     0.004 A 
ATOM     15  C   UNL A   1      30.381  25.639  26.198  1.00  0.00     0.027 A 
ATOM     16  C   UNL A   1      32.748  26.631  25.040  1.00  0.00     0.015 A 
ATOM     17  C   UNL A   1      30.368  26.796  25.408  1.00  0.00     0.006 A 
ATOM     18  C   UNL A   1      31.525  27.289  24.787  1.00  0.00    -0.042 A 
BRANCH  10  19
ATOM     19  C   UNL A   1      33.560  21.919  26.483  1.00  0.00     0.227 C 
ATOM     20  O   UNL A   1      34.414  21.527  27.277  1.00  0.00    -0.285 OA
BRANCH  19  21
ATOM     21  C   UNL A   1      33.033  20.934  25.498  1.00  0.00     0.113 A 
ATOM     22  C   UNL A   1      31.886  20.796  21.898  1.00  0.00     0.044 C 
ATOM     23  C   UNL A   1      32.323  20.398  23.276  1.00  0.00    -0.047 A 
ATOM     24  C   UNL A   1      32.584  19.057  23.572  1.00  0.00     0.023 A 
ATOM     25  C   UNL A   1      32.573  21.364  24.258  1.00  0.00     0.036 A 
ATOM     26  C   UNL A   1      32.994  18.725  24.852  1.00  0.00     0.112 A 
ATOM     27  N   UNL A   1      33.196  19.632  25.830  1.00  0.00    -0.253 NA
ENDBRANCH  19  21
ENDBRANCH  10  19
BRANCH  18  28
ATOM     28  C   UNL A   1      31.504  28.443  23.771  1.00  0.00    -0.013 C 
ATOM     29  C   UNL A   1      32.945  28.804  23.358  1.00  0.00     0.016 C 
ATOM     30  C   UNL A   1      30.709  27.992  22.521  1.00  0.00     0.016 C 
ATOM     31  C   UNL A   1      30.827  29.726  24.295  1.00  0.00     0.016 C 
ENDBRANCH  18  28
ENDBRANCH   8   9
ENDBRANCH   6   8
ENDBRANCH   5   6
ENDBRANCH   4   5
ENDBRANCH   3   4
ENDBRANCH   2   3
ENDBRANCH   1   2
BRANCH   1  32
ATOM     32  C   UNL A   1      41.134  21.800  26.336  1.00  0.00     0.188 C 
BRANCH  32  33
ATOM     33  O   UNL A   1      42.027  20.868  25.740  1.00  0.00    -0.376 OA
BRANCH  33  34
ATOM     34  C   UNL A   1      43.419  21.136  25.869  1.00  0.00     0.202 C 
BRANCH  34  35
ATOM     35  C   UNL A   1      44.008  21.901  24.690  1.00  0.00     0.261 C 
BRANCH  35  36
ATOM     36  O   UNL A   1      43.258  23.106  24.451  1.00  0.00    -0.460 OA
BRANCH  36  37
ATOM     37  C   UNL A   1      43.900  24.236  24.821  1.00  0.00     0.338 C 
ATOM     38  O   UNL A   1      45.067  24.518  24.595  1.00  0.00    -0.246 OA
BRANCH  37  39
ATOM     39  C   UNL A   1      43.002  25.156  25.548  1.00  0.00     0.060 A 
ATOM     40  C   UNL A   1      43.096  26.530  25.361  1.00  0.00     0.016 A 
ATOM     41  C   UNL A   1      42.248  24.660  26.609  1.00  0.00     0.016 A 
ATOM     42  C   UNL A   1      42.601  27.405  26.332  1.00  0.00     0.010 A 
ATOM     43  C   UNL A   1      41.661  25.544  27.525  1.00  0.00     0.010 A 
ATOM     44  C   UNL A   1      41.904  26.926  27.449  1.00  0.00    -0.014 A 
BRANCH  44  45
ATOM     45  C   UNL A   1      41.548  27.837  28.582  1.00  0.00     0.031 A 
ATOM     46  C   UNL A   1      42.441  27.914  29.803  1.00  0.00     0.074 A 
ATOM     47  C   UNL A   1      40.473  28.649  28.520  1.00  0.00     0.049 A 
ATOM     48  N   UNL A   1      42.233  28.509  30.954  1.00  0.00    -0.248 NA
ATOM     49  C   UNL A   1      43.746  27.237  29.718  1.00  0.00     0.031 C 
ATOM     50  C   UNL A   1      39.566  28.772  27.381  1.00  0.00     0.029 A 
ATOM     51  N   UNL A   1      39.966  29.536  29.444  1.00  0.00    -0.354 N 
ATOM     52  C   UNL A   1      43.354  28.245  31.734  1.00  0.00     0.074 A 
ATOM     53  C   UNL A   1      44.240  27.429  30.934  1.00  0.00     0.031 C 
ATOM     54  C   UNL A   1      38.636  29.700  27.656  1.00  0.00     0.029 A 
ATOM     55  C   UNL A   1      38.815  30.163  29.027  1.00  0.00     0.049 A 
ATOM     56  H   UNL A   1      40.386  29.705  30.318  1.00  0.00     0.167 HD
ATOM     57  C   UNL A   1      43.622  28.641  33.003  1.00  0.00     0.037 A 
ATOM     58  C   UNL A   1      37.963  30.973  29.686  1.00  0.00     0.037 A 
ATOM     59  C   UNL A   1      42.754  29.467  33.804  1.00  0.00     0.049 A 
ATOM     60  C   UNL A   1      38.228  31.307  31.128  1.00  0.00     0.074 A 
ATOM     61  C   UNL A   1      42.920  29.879  35.116  1.00  0.00     0.029 A 
ATOM     62  N   UNL A   1      41.560  30.015  33.365  1.00  0.00    -0.354 N 
ATOM     63  N   UNL A   1      39.246  30.980  31.885  1.00  0.00    -0.248 NA
ATOM     64  C   UNL A   1      37.204  32.108  31.816  1.00  0.00     0.031 C 
ATOM     65  C   UNL A   1      41.805  30.640  35.484  1.00  0.00     0.029 A 
ATOM     66  C   UNL A   1      40.970  30.746  34.386  1.00  0.00     0.049 A 
ATOM     67  H   UNL A   1      41.184  29.902  32.462  1.00  0.00     0.167 HD
ATOM     68  C   UNL A   1      38.993  31.540  33.129  1.00  0.00     0.074 A 
ATOM     69  C   UNL A   1      37.743  32.259  33.017  1.00  0.00     0.031 C 
ATOM     70  C   UNL A   1      39.725  31.456  34.268  1.00  0.00     0.037 A 
BRANCH  57  71
ATOM     71  C   UNL A   1      44.898  28.160  33.632  1.00  0.00     0.064 A 
ATOM     72  C   UNL A   1      45.004  26.887  34.210  1.00  0.00     0.173 A 
ATOM     73  C   UNL A   1      46.051  28.960  33.591  1.00  0.00     0.173 A 
ATOM     74  F   UNL A   1      43.928  26.090  34.292  1.00  0.00    -0.203 F 
ATOM     75  C   UNL A   1      46.216  26.437  34.731  1.00  0.00     0.198 A 
ATOM     76  C   UNL A   1      47.265  28.498  34.090  1.00  0.00     0.198 A 
ATOM     77  F   UNL A   1      46.003  30.186  33.044  1.00  0.00    -0.203 F 
ATOM     78  F   UNL A   1      46.288  25.228  35.304  1.00  0.00    -0.200 F 
ATOM     79  C   UNL A   1      47.347  27.237  34.661  1.00  0.00     0.200 A 
ATOM     80  F   UNL A   1      48.358  29.269  34.011  1.00  0.00    -0.200 F 
ATOM     81  F   UNL A   1      48.514  26.796  35.149  1.00  0.00    -0.200 F 
ENDBRANCH  57  71
BRANCH  58  82
ATOM     82  C   UNL A   1      36.729  31.465  29.013  1.00  0.00     0.064 A 
ATOM     83  C   UNL A   1      36.591  32.809  28.639  1.00  0.00     0.173 A 
ATOM     84  C   UNL A   1      35.646  30.607  28.768  1.00  0.00     0.173 A 
ATOM     85  F   UNL A   1      37.582  33.677  28.885  1.00  0.00    -0.203 F 
ATOM     86  C   UNL A   1      35.412  33.278  28.063  1.00  0.00     0.198 A 
ATOM     87  C   UNL A   1      34.483  31.067  28.156  1.00  0.00     0.198 A 
ATOM     88  F   UNL A   1      35.717  29.315  29.121  1.00  0.00    -0.203 F 
ATOM     89  F   UNL A   1      35.282  34.579  27.774  1.00  0.00    -0.200 F 
ATOM     90  C   UNL A   1      34.362  32.405  27.814  1.00  0.00     0.200 A 
ATOM     91  F   UNL A   1      33.477  30.218  27.909  1.00  0.00    -0.200 F 
ATOM     92  F   UNL A   1      33.229  32.857  27.260  1.00  0.00    -0.200 F 
ENDBRANCH  58  82
BRANCH  70  93
ATOM     93  C   UNL A   1      39.198  32.185  35.470  1.00  0.00     0.064 A 
ATOM     94  C   UNL A   1      39.485  33.540  35.693  1.00  0.00     0.173 A 
ATOM     95  C   UNL A   1      38.409  31.517  36.418  1.00  0.00     0.173 A 
ATOM     96  F   UNL A   1      40.248  34.219  34.823  1.00  0.00    -0.203 F 
ATOM     97  C   UNL A   1      39.041  34.186  36.843  1.00  0.00     0.198 A 
ATOM     98  C   UNL A   1      37.939  32.176  37.552  1.00  0.00     0.198 A 
ATOM     99  F   UNL A   1      38.096  30.224  36.249  1.00  0.00    -0.203 F 
ATOM    100  F   UNL A   1      39.387  35.462  37.068  1.00  0.00    -0.200 F 
ATOM    101  C   UNL A   1      38.268  33.506  37.770  1.00  0.00     0.200 A 
ATOM    102  F   UNL A   1      37.181  31.519  38.441  1.00  0.00    -0.200 F 
ATOM    103  F   UNL A   1      37.850  34.126  38.882  1.00  0.00    -0.200 F 
ENDBRANCH  70  93
ENDBRANCH  44  45
ENDBRANCH  37  39
ENDBRANCH  36  37
ENDBRANCH  35  36
ENDBRANCH  34  35
ENDBRANCH  33  34
ENDBRANCH  32  33
ENDBRANCH   1  32
TORSDOF 21
ENDMDL
MODEL 2
REMARK VINA RESULT:     -11.9      0.898      6.842
REMARK SMILES Cc1ccnc(C(=O)c2[nH]c3ccc(C(C)(C)C)cc3c2CC(=O)OCCOCCOCCOC(=O)c2ccc(-c3c4nc(c(-c5c(F)c(F)c(F)c(F)c5F)c5ccc([nH]5)c(-c5c(F)c(F)c(F)c(F)c5F)c5nc(c(-c6c(F)c(F)c(F)c(F)c6F)c6ccc3[nH]6)C=C5)C=C4)cc2)c1
REMARK SMILES IDX 29 1 28 2 27 3 26 4 25 5 23 6 24 7 22 8 21 9 9 10 10 11
REMARK SMILES IDX 11 12 20 14 12 15 19 16 13 17 14 18 7 19 8 20 6 21 1 22 2 23
REMARK SMILES IDX 3 24 100 25 4 26 5 27 15 28 16 29 17 30 18 31 30 32 31 33
REMARK SMILES IDX 32 34 33 35 34 36 35 37 36 38 37 39 38 40 99 41 39 42 98 43
REMARK SMILES IDX 40 44 41 45 42 46 92 47 43 48 97 49 91 50 93 51 44 52 96 53
REMARK SMILES IDX 90 54 89 55 45 57 77 58 57 59 76 60 58 61 61 62 75 63 94 64
REMARK SMILES IDX 59 65 60 66 74 68 95 69 62 70 46 71 47 72 55 73 48 74 49 75
REMARK SMILES IDX 53 76 56 77 50 78 51 79 54 80 52 81 78 82 79 83 87 84 80 85
REMARK SMILES IDX 81 86 85 87 88 88 82 89 83 90 86 91 84 92 63 93 64 94 72 95
REMARK SMILES IDX 65 96 66 97 70 98 73 99 67 100 68 101 71 102 69 103
REMARK H PARENT 10 13 93 56 61 67
REMARK Flexibility Score: inf
ROOT
ATOM      1  C   UNL A   1      40.608  21.340  27.301  1.00  0.00     0.188 C 
ENDROOT
BRANCH   1   2
ATOM      2  O   UNL A   1      39.527  21.551  26.399  1.00  0.00    -0.376 OA
BRANCH   2   3
ATOM      3  C   UNL A   1      39.141  22.893  26.132  1.00  0.00     0.202 C 
BRANCH   3   4
ATOM      4  C   UNL A   1      37.635  23.158  26.169  1.00  0.00     0.261 C 
BRANCH   4   5
ATOM      5  O   UNL A   1      37.038  23.057  24.857  1.00  0.00    -0.463 OA
BRANCH   5   6
ATOM      6  C   UNL A   1      35.782  23.553  24.744  1.00  0.00     0.310 C 
ATOM      7  O   UNL A   1      35.108  23.463  23.718  1.00  0.00    -0.252 OA
BRANCH   6   8
ATOM      8  C   UNL A   1      35.195  24.170  25.999  1.00  0.00     0.161 C 
BRANCH   8   9
ATOM      9  C   UNL A   1      33.705  24.120  26.249  1.00  0.00     0.000 A 
ATOM     10  C   UNL A   1      32.901  22.992  26.455  1.00  0.00     0.093 A 
ATOM     11  N   UNL A   1      31.615  23.447  26.661  1.00  0.00    -0.352 N 
ATOM     12  C   UNL A   1      31.502  24.733  26.200  1.00  0.00     0.046 A 
ATOM     13  H   UNL A   1      30.890  22.926  27.075  1.00  0.00     0.167 HD
ATOM     14  C   UNL A   1      32.793  25.189  25.970  1.00  0.00     0.004 A 
ATOM     15  C   UNL A   1      30.367  25.502  25.938  1.00  0.00     0.027 A 
ATOM     16  C   UNL A   1      32.958  26.472  25.419  1.00  0.00     0.015 A 
ATOM     17  C   UNL A   1      30.561  26.736  25.303  1.00  0.00     0.006 A 
ATOM     18  C   UNL A   1      31.840  27.224  24.996  1.00  0.00    -0.042 A 
BRANCH  10  19
ATOM     19  C   UNL A   1      33.282  21.594  26.440  1.00  0.00     0.227 C 
ATOM     20  O   UNL A   1      34.074  21.109  27.246  1.00  0.00    -0.285 OA
BRANCH  19  21
ATOM     21  C   UNL A   1      32.758  20.701  25.368  1.00  0.00     0.113 A 
ATOM     22  C   UNL A   1      31.917  20.812  21.684  1.00  0.00     0.044 C 
ATOM     23  C   UNL A   1      32.198  20.321  23.073  1.00  0.00    -0.047 A 
ATOM     24  C   UNL A   1      32.316  18.951  23.325  1.00  0.00     0.023 A 
ATOM     25  C   UNL A   1      32.445  21.220  24.117  1.00  0.00     0.036 A 
ATOM     26  C   UNL A   1      32.584  18.533  24.617  1.00  0.00     0.112 A 
ATOM     27  N   UNL A   1      32.779  19.377  25.650  1.00  0.00    -0.253 NA
ENDBRANCH  19  21
ENDBRANCH  10  19
BRANCH  18  28
ATOM     28  C   UNL A   1      32.076  28.479  24.140  1.00  0.00    -0.013 C 
ATOM     29  C   UNL A   1      32.751  28.088  22.811  1.00  0.00     0.016 C 
ATOM     30  C   UNL A   1      30.709  29.144  23.846  1.00  0.00     0.016 C 
ATOM     31  C   UNL A   1      32.956  29.547  24.823  1.00  0.00     0.016 C 
ENDBRANCH  18  28
ENDBRANCH   8   9
ENDBRANCH   6   8
ENDBRANCH   5   6
ENDBRANCH   4   5
ENDBRANCH   3   4
ENDBRANCH   2   3
ENDBRANCH   1   2
BRANCH   1  32
ATOM     32  C   UNL A   1      41.786  22.336  27.290  1.00  0.00     0.188 C 
BRANCH  32  33
ATOM     33  O   UNL A   1      43.080  21.860  26.941  1.00  0.00    -0.376 OA
BRANCH  33  34
ATOM     34  C   UNL A   1      43.362  21.719  25.553  1.00  0.00     0.202 C 
BRANCH  34  35
ATOM     35  C   UNL A   1      44.338  22.760  25.017  1.00  0.00     0.261 C 
BRANCH  35  36
ATOM     36  O   UNL A   1      43.634  23.962  24.652  1.00  0.00    -0.460 OA
BRANCH  36  37
ATOM     37  C   UNL A   1      44.278  25.100  24.992  1.00  0.00     0.338 C 
ATOM     38  O   UNL A   1      45.429  25.397  24.714  1.00  0.00    -0.246 OA
BRANCH  37  39
ATOM     39  C   UNL A   1      43.402  26.008  25.761  1.00  0.00     0.060 A 
ATOM     40  C   UNL A   1      43.849  27.269  26.138  1.00  0.00     0.016 A 
ATOM     41  C   UNL A   1      42.236  25.497  26.327  1.00  0.00     0.016 A 
ATOM     42  C   UNL A   1      43.245  27.935  27.209  1.00  0.00     0.010 A 
ATOM     43  C   UNL A   1      41.570  26.217  27.328  1.00  0.00     0.010 A 
ATOM     44  C   UNL A   1      42.116  27.405  27.845  1.00  0.00    -0.014 A 
BRANCH  44  45
ATOM     45  C   UNL A   1      41.589  28.011  29.109  1.00  0.00     0.031 A 
ATOM     46  C   UNL A   1      40.307  28.818  29.087  1.00  0.00     0.074 A 
ATOM     47  C   UNL A   1      42.198  27.805  30.294  1.00  0.00     0.049 A 
ATOM     48  N   UNL A   1      39.769  29.558  30.028  1.00  0.00    -0.248 NA
ATOM     49  C   UNL A   1      39.520  28.784  27.843  1.00  0.00     0.031 C 
ATOM     50  C   UNL A   1      43.382  26.975  30.509  1.00  0.00     0.029 A 
ATOM     51  N   UNL A   1      41.894  28.277  31.552  1.00  0.00    -0.354 N 
ATOM     52  C   UNL A   1      38.614  30.103  29.478  1.00  0.00     0.074 A 
ATOM     53  C   UNL A   1      38.526  29.618  28.118  1.00  0.00     0.031 C 
ATOM     54  C   UNL A   1      43.685  26.968  31.815  1.00  0.00     0.029 A 
ATOM     55  C   UNL A   1      42.785  27.874  32.519  1.00  0.00     0.049 A 
ATOM     56  H   UNL A   1      41.115  28.849  31.740  1.00  0.00     0.167 HD
ATOM     57  C   UNL A   1      37.708  30.934  30.050  1.00  0.00     0.037 A 
ATOM     58  C   UNL A   1      42.906  28.234  33.812  1.00  0.00     0.037 A 
ATOM     59  C   UNL A   1      37.776  31.410  31.408  1.00  0.00     0.049 A 
ATOM     60  C   UNL A   1      41.953  29.244  34.390  1.00  0.00     0.074 A 
ATOM     61  C   UNL A   1      36.930  32.293  32.059  1.00  0.00     0.029 A 
ATOM     62  N   UNL A   1      38.742  31.036  32.329  1.00  0.00    -0.354 N 
ATOM     63  N   UNL A   1      40.916  29.821  33.837  1.00  0.00    -0.248 NA
ATOM     64  C   UNL A   1      42.207  29.670  35.775  1.00  0.00     0.031 C 
ATOM     65  C   UNL A   1      37.410  32.486  33.360  1.00  0.00     0.029 A 
ATOM     66  C   UNL A   1      38.524  31.684  33.535  1.00  0.00     0.049 A 
ATOM     67  H   UNL A   1      39.476  30.404  32.152  1.00  0.00     0.167 HD
ATOM     68  C   UNL A   1      40.389  30.667  34.803  1.00  0.00     0.074 A 
ATOM     69  C   UNL A   1      41.198  30.501  35.991  1.00  0.00     0.031 C 
ATOM     70  C   UNL A   1      39.335  31.516  34.711  1.00  0.00     0.037 A 
BRANCH  57  71
ATOM     71  C   UNL A   1      36.570  31.421  29.200  1.00  0.00     0.064 A 
ATOM     72  C   UNL A   1      35.475  30.602  28.890  1.00  0.00     0.173 A 
ATOM     73  C   UNL A   1      36.543  32.750  28.749  1.00  0.00     0.173 A 
ATOM     74  F   UNL A   1      35.459  29.319  29.280  1.00  0.00    -0.203 F 
ATOM     75  C   UNL A   1      34.399  31.094  28.153  1.00  0.00     0.198 A 
ATOM     76  C   UNL A   1      35.456  33.245  28.035  1.00  0.00     0.198 A 
ATOM     77  F   UNL A   1      37.565  33.577  29.023  1.00  0.00    -0.203 F 
ATOM     78  F   UNL A   1      33.376  30.286  27.844  1.00  0.00    -0.200 F 
ATOM     79  C   UNL A   1      34.386  32.417  27.735  1.00  0.00     0.200 A 
ATOM     80  F   UNL A   1      35.441  34.527  27.642  1.00  0.00    -0.200 F 
ATOM     81  F   UNL A   1      33.343  32.892  27.040  1.00  0.00    -0.200 F 
ENDBRANCH  57  71
BRANCH  58  82
ATOM     82  C   UNL A   1      44.025  27.696  34.635  1.00  0.00     0.064 A 
ATOM     83  C   UNL A   1      45.266  28.345  34.688  1.00  0.00     0.173 A 
ATOM     84  C   UNL A   1      43.886  26.498  35.352  1.00  0.00     0.173 A 
ATOM     85  F   UNL A   1      45.462  29.473  33.990  1.00  0.00    -0.203 F 
ATOM     86  C   UNL A   1      46.329  27.808  35.412  1.00  0.00     0.198 A 
ATOM     87  C   UNL A   1      44.936  25.982  36.108  1.00  0.00     0.198 A 
ATOM     88  F   UNL A   1      42.725  25.827  35.323  1.00  0.00    -0.203 F 
ATOM     89  F   UNL A   1      47.523  28.414  35.393  1.00  0.00    -0.200 F 
ATOM     90  C   UNL A   1      46.160  26.631  36.128  1.00  0.00     0.200 A 
ATOM     91  F   UNL A   1      44.764  24.852  36.806  1.00  0.00    -0.200 F 
ATOM     92  F   UNL A   1      47.182  26.115  36.824  1.00  0.00    -0.200 F 
ENDBRANCH  58  82
BRANCH  70  93
ATOM     93  C   UNL A   1      38.989  32.305  35.941  1.00  0.00     0.064 A 
ATOM     94  C   UNL A   1      39.432  33.624  36.117  1.00  0.00     0.173 A 
ATOM     95  C   UNL A   1      38.220  31.729  36.963  1.00  0.00     0.173 A 
ATOM     96  F   UNL A   1      40.184  34.214  35.175  1.00  0.00    -0.203 F 
ATOM     97  C   UNL A   1      39.156  34.321  37.290  1.00  0.00     0.198 A 
ATOM     98  C   UNL A   1      37.918  32.441  38.121  1.00  0.00     0.198 A 
ATOM     99  F   UNL A   1      37.763  30.473  36.842  1.00  0.00    -0.203 F 
ATOM    100  F   UNL A   1      39.648  35.556  37.464  1.00  0.00    -0.200 F 
ATOM    101  C   UNL A   1      38.398  33.731  38.290  1.00  0.00     0.200 A 
ATOM    102  F   UNL A   1      37.176  31.873  39.081  1.00  0.00    -0.200 F 
ATOM    103  F   UNL A   1      38.142  34.399  39.422  1.00  0.00    -0.200 F 
ENDBRANCH  70  93
ENDBRANCH  44  45
ENDBRANCH  37  39
ENDBRANCH  36  37
ENDBRANCH  35  36
ENDBRANCH  34  35
ENDBRANCH  33  34
ENDBRANCH  32  33
ENDBRANCH   1  32
TORSDOF 21
ENDMDL
MODEL 3
REMARK VINA RESULT:     -11.5      3.079      8.628
REMARK SMILES Cc1ccnc(C(=O)c2[nH]c3ccc(C(C)(C)C)cc3c2CC(=O)OCCOCCOCCOC(=O)c2ccc(-c3c4nc(c(-c5c(F)c(F)c(F)c(F)c5F)c5ccc([nH]5)c(-c5c(F)c(F)c(F)c(F)c5F)c5nc(c(-c6c(F)c(F)c(F)c(F)c6F)c6ccc3[nH]6)C=C5)C=C4)cc2)c1
REMARK SMILES IDX 29 1 28 2 27 3 26 4 25 5 23 6 24 7 22 8 21 9 9 10 10 11
REMARK SMILES IDX 11 12 20 14 12 15 19 16 13 17 14 18 7 19 8 20 6 21 1 22 2 23
REMARK SMILES IDX 3 24 100 25 4 26 5 27 15 28 16 29 17 30 18 31 30 32 31 33
REMARK SMILES IDX 32 34 33 35 34 36 35 37 36 38 37 39 38 40 99 41 39 42 98 43
REMARK SMILES IDX 40 44 41 45 42 46 92 47 43 48 97 49 91 50 93 51 44 52 96 53
REMARK SMILES IDX 90 54 89 55 45 57 77 58 57 59 76 60 58 61 61 62 75 63 94 64
REMARK SMILES IDX 59 65 60 66 74 68 95 69 62 70 46 71 47 72 55 73 48 74 49 75
REMARK SMILES IDX 53 76 56 77 50 78 51 79 54 80 52 81 78 82 79 83 87 84 80 85
REMARK SMILES IDX 81 86 85 87 88 88 82 89 83 90 86 91 84 92 63 93 64 94 72 95
REMARK SMILES IDX 65 96 66 97 70 98 73 99 67 100 68 101 71 102 69 103
REMARK H PARENT 10 13 93 56 61 67
REMARK Flexibility Score: inf
ROOT
ATOM      1  C   UNL A   1      31.222  28.746  22.776  1.00  0.00     0.188 C 
ENDROOT
BRANCH   1   2
ATOM      2  O   UNL A   1      30.800  27.551  22.127  1.00  0.00    -0.376 OA
BRANCH   2   3
ATOM      3  C   UNL A   1      31.431  26.334  22.509  1.00  0.00     0.202 C 
BRANCH   3   4
ATOM      4  C   UNL A   1      31.945  26.290  23.949  1.00  0.00     0.261 C 
BRANCH   4   5
ATOM      5  O   UNL A   1      33.383  26.426  24.013  1.00  0.00    -0.463 OA
BRANCH   5   6
ATOM      6  C   UNL A   1      34.088  25.281  23.845  1.00  0.00     0.310 C 
ATOM      7  O   UNL A   1      34.299  24.772  22.745  1.00  0.00    -0.252 OA
BRANCH   6   8
ATOM      8  C   UNL A   1      34.693  24.683  25.100  1.00  0.00     0.161 C 
BRANCH   8   9
ATOM      9  C   UNL A   1      35.354  23.324  25.056  1.00  0.00     0.000 A 
ATOM     10  C   UNL A   1      34.739  22.065  25.033  1.00  0.00     0.093 A 
ATOM     11  N   UNL A   1      35.748  21.126  24.973  1.00  0.00    -0.352 N 
ATOM     12  C   UNL A   1      36.933  21.697  25.360  1.00  0.00     0.046 A 
ATOM     13  H   UNL A   1      35.634  20.189  24.694  1.00  0.00     0.167 HD
ATOM     14  C   UNL A   1      36.724  23.070  25.385  1.00  0.00     0.004 A 
ATOM     15  C   UNL A   1      38.144  21.106  25.723  1.00  0.00     0.027 A 
ATOM     16  C   UNL A   1      37.775  23.895  25.825  1.00  0.00     0.015 A 
ATOM     17  C   UNL A   1      39.137  21.946  26.245  1.00  0.00     0.006 A 
ATOM     18  C   UNL A   1      38.962  23.335  26.344  1.00  0.00    -0.042 A 
BRANCH  10  19
ATOM     19  C   UNL A   1      33.327  21.747  25.088  1.00  0.00     0.227 C 
ATOM     20  O   UNL A   1      32.470  22.567  25.412  1.00  0.00    -0.285 OA
BRANCH  19  21
ATOM     21  C   UNL A   1      32.876  20.354  24.811  1.00  0.00     0.113 A 
ATOM     22  C   UNL A   1      32.180  18.083  21.870  1.00  0.00     0.044 C 
ATOM     23  C   UNL A   1      32.422  18.589  23.261  1.00  0.00    -0.047 A 
ATOM     24  C   UNL A   1      32.575  17.689  24.320  1.00  0.00     0.023 A 
ATOM     25  C   UNL A   1      32.596  19.955  23.509  1.00  0.00     0.036 A 
ATOM     26  C   UNL A   1      32.805  18.189  25.590  1.00  0.00     0.112 A 
ATOM     27  N   UNL A   1      32.930  19.504  25.864  1.00  0.00    -0.253 NA
ENDBRANCH  19  21
ENDBRANCH  10  19
BRANCH  18  28
ATOM     28  C   UNL A   1      39.953  24.254  27.078  1.00  0.00    -0.013 C 
ATOM     29  C   UNL A   1      41.032  23.408  27.781  1.00  0.00     0.016 C 
ATOM     30  C   UNL A   1      40.626  25.188  26.042  1.00  0.00     0.016 C 
ATOM     31  C   UNL A   1      39.297  25.162  28.139  1.00  0.00     0.016 C 
ENDBRANCH  18  28
ENDBRANCH   8   9
ENDBRANCH   6   8
ENDBRANCH   5   6
ENDBRANCH   4   5
ENDBRANCH   3   4
ENDBRANCH   2   3
ENDBRANCH   1   2
BRANCH   1  32
ATOM     32  C   UNL A   1      30.156  29.644  23.436  1.00  0.00     0.188 C 
BRANCH  32  33
ATOM     33  O   UNL A   1      30.520  30.411  24.577  1.00  0.00    -0.376 OA
BRANCH  33  34
ATOM     34  C   UNL A   1      31.563  29.894  25.395  1.00  0.00     0.202 C 
BRANCH  34  35
ATOM     35  C   UNL A   1      31.769  30.671  26.691  1.00  0.00     0.261 C 
BRANCH  35  36
ATOM     36  O   UNL A   1      33.047  30.347  27.269  1.00  0.00    -0.460 OA
BRANCH  36  37
ATOM     37  C   UNL A   1      33.761  31.425  27.662  1.00  0.00     0.338 C 
ATOM     38  O   UNL A   1      33.324  32.538  27.907  1.00  0.00    -0.246 OA
BRANCH  37  39
ATOM     39  C   UNL A   1      35.197  31.104  27.790  1.00  0.00     0.060 A 
ATOM     40  C   UNL A   1      35.615  29.787  27.942  1.00  0.00     0.016 A 
ATOM     41  C   UNL A   1      36.099  32.140  28.022  1.00  0.00     0.016 A 
ATOM     42  C   UNL A   1      36.866  29.509  28.503  1.00  0.00     0.010 A 
ATOM     43  C   UNL A   1      37.391  31.853  28.484  1.00  0.00     0.010 A 
ATOM     44  C   UNL A   1      37.762  30.539  28.815  1.00  0.00    -0.014 A 
BRANCH  44  45
ATOM     45  C   UNL A   1      39.011  30.261  29.593  1.00  0.00     0.031 A 
ATOM     46  C   UNL A   1      39.147  30.763  31.016  1.00  0.00     0.074 A 
ATOM     47  C   UNL A   1      40.008  29.512  29.079  1.00  0.00     0.049 A 
ATOM     48  N   UNL A   1      40.198  30.774  31.801  1.00  0.00    -0.248 NA
ATOM     49  C   UNL A   1      37.938  31.325  31.642  1.00  0.00     0.031 C 
ATOM     50  C   UNL A   1      39.997  28.870  27.765  1.00  0.00     0.029 A 
ATOM     51  N   UNL A   1      41.228  29.158  29.609  1.00  0.00    -0.354 N 
ATOM     52  C   UNL A   1      39.788  31.373  32.988  1.00  0.00     0.074 A 
ATOM     53  C   UNL A   1      38.394  31.723  32.822  1.00  0.00     0.031 C 
ATOM     54  C   UNL A   1      41.134  28.177  27.604  1.00  0.00     0.029 A 
ATOM     55  C   UNL A   1      42.000  28.407  28.755  1.00  0.00     0.049 A 
ATOM     56  H   UNL A   1      41.519  29.417  30.514  1.00  0.00     0.167 HD
ATOM     57  C   UNL A   1      40.506  31.614  34.112  1.00  0.00     0.037 A 
ATOM     58  C   UNL A   1      43.280  27.997  28.853  1.00  0.00     0.037 A 
ATOM     59  C   UNL A   1      41.889  31.256  34.295  1.00  0.00     0.049 A 
ATOM     60  C   UNL A   1      44.087  28.375  30.064  1.00  0.00     0.074 A 
ATOM     61  C   UNL A   1      42.712  31.504  35.381  1.00  0.00     0.029 A 
ATOM     62  N   UNL A   1      42.654  30.565  33.369  1.00  0.00    -0.354 N 
ATOM     63  N   UNL A   1      43.716  29.018  31.143  1.00  0.00    -0.248 NA
ATOM     64  C   UNL A   1      45.505  27.985  30.058  1.00  0.00     0.031 C 
ATOM     65  C   UNL A   1      43.986  31.001  35.095  1.00  0.00     0.029 A 
ATOM     66  C   UNL A   1      43.943  30.394  33.852  1.00  0.00     0.049 A 
ATOM     67  H   UNL A   1      42.331  30.244  32.496  1.00  0.00     0.167 HD
ATOM     68  C   UNL A   1      44.846  29.103  31.945  1.00  0.00     0.074 A 
ATOM     69  C   UNL A   1      45.908  28.412  31.246  1.00  0.00     0.031 C 
ATOM     70  C   UNL A   1      44.994  29.709  33.149  1.00  0.00     0.037 A 
BRANCH  57  71
ATOM     71  C   UNL A   1      39.821  32.335  35.238  1.00  0.00     0.064 A 
ATOM     72  C   UNL A   1      39.897  33.728  35.380  1.00  0.00     0.173 A 
ATOM     73  C   UNL A   1      39.018  31.626  36.146  1.00  0.00     0.173 A 
ATOM     74  F   UNL A   1      40.665  34.451  34.551  1.00  0.00    -0.203 F 
ATOM     75  C   UNL A   1      39.201  34.383  36.395  1.00  0.00     0.198 A 
ATOM     76  C   UNL A   1      38.305  32.286  37.143  1.00  0.00     0.198 A 
ATOM     77  F   UNL A   1      38.908  30.291  36.051  1.00  0.00    -0.203 F 
ATOM     78  F   UNL A   1      39.311  35.712  36.530  1.00  0.00    -0.200 F 
ATOM     79  C   UNL A   1      38.399  33.664  37.268  1.00  0.00     0.200 A 
ATOM     80  F   UNL A   1      37.522  31.590  37.978  1.00  0.00    -0.200 F 
ATOM     81  F   UNL A   1      37.719  34.298  38.234  1.00  0.00    -0.200 F 
ENDBRANCH  57  71
BRANCH  58  82
ATOM     82  C   UNL A   1      43.911  27.246  27.731  1.00  0.00     0.064 A 
ATOM     83  C   UNL A   1      44.477  27.914  26.636  1.00  0.00     0.173 A 
ATOM     84  C   UNL A   1      43.924  25.843  27.715  1.00  0.00     0.173 A 
ATOM     85  F   UNL A   1      44.457  29.254  26.585  1.00  0.00    -0.203 F 
ATOM     86  C   UNL A   1      45.014  27.207  25.561  1.00  0.00     0.198 A 
ATOM     87  C   UNL A   1      44.496  25.138  26.659  1.00  0.00     0.198 A 
ATOM     88  F   UNL A   1      43.381  25.153  28.729  1.00  0.00    -0.203 F 
ATOM     89  F   UNL A   1      45.489  27.870  24.498  1.00  0.00    -0.200 F 
ATOM     90  C   UNL A   1      45.031  25.820  25.578  1.00  0.00     0.200 A 
ATOM     91  F   UNL A   1      44.519  23.798  26.685  1.00  0.00    -0.200 F 
ATOM     92  F   UNL A   1      45.547  25.142  24.544  1.00  0.00    -0.200 F 
ENDBRANCH  58  82
BRANCH  70  93
ATOM     93  C   UNL A   1      46.349  29.624  33.790  1.00  0.00     0.064 A 
ATOM     94  C   UNL A   1      46.673  28.600  34.693  1.00  0.00     0.173 A 
ATOM     95  C   UNL A   1      47.331  30.587  33.510  1.00  0.00     0.173 A 
ATOM     96  F   UNL A   1      45.764  27.664  35.005  1.00  0.00    -0.203 F 
ATOM     97  C   UNL A   1      47.912  28.570  35.326  1.00  0.00     0.198 A 
ATOM     98  C   UNL A   1      48.581  30.534  34.121  1.00  0.00     0.198 A 
ATOM     99  F   UNL A   1      47.077  31.582  32.647  1.00  0.00    -0.203 F 
ATOM    100  F   UNL A   1      48.173  27.621  36.237  1.00  0.00    -0.200 F 
ATOM    101  C   UNL A   1      48.865  29.534  35.040  1.00  0.00     0.200 A 
ATOM    102  F   UNL A   1      49.505  31.461  33.834  1.00  0.00    -0.200 F 
ATOM    103  F   UNL A   1      50.054  29.510  35.658  1.00  0.00    -0.200 F 
ENDBRANCH  70  93
ENDBRANCH  44  45
ENDBRANCH  37  39
ENDBRANCH  36  37
ENDBRANCH  35  36
ENDBRANCH  34  35
ENDBRANCH  33  34
ENDBRANCH  32  33
ENDBRANCH   1  32
TORSDOF 21
ENDMDL
