MODEL 1
REMARK VINA RESULT:     -12.7      0.000      0.000
REMARK SMILES Cc1cccc2c1[C@H]1c3c(C)cccc3[C@H](CC(=O)OCCOCCOCCOC(=O)c3ccc(-c4c5nc(c(-c6c(F)c(F)c(F)c(F)c6F)c6ccc([nH]6)c(-c6c(F)c(F)c(F)c(F)c6F)c6nc(c(-c7c(F)c(F)c(F)c(F)c7F)c7ccc4[nH]7)C=C6)C=C5)cc3)C[C@H]1CC2
REMARK SMILES IDX 25 1 24 2 23 3 22 4 21 5 20 6 18 7 19 8 17 9 16 10 1 11 2 12
REMARK SMILES IDX 3 13 7 14 4 15 6 16 8 17 5 18 98 19 9 20 96 21 97 22 10 23
REMARK SMILES IDX 15 24 95 25 12 26 11 27 14 28 13 29 26 30 27 31 28 32 29 33
REMARK SMILES IDX 30 34 31 35 32 36 33 37 94 38 34 39 93 40 35 41 36 42 37 43
REMARK SMILES IDX 87 44 38 45 92 46 86 47 88 48 39 49 91 50 85 51 84 52 40 54
REMARK SMILES IDX 72 55 52 56 71 57 53 58 56 59 70 60 89 61 54 62 55 63 69 65
REMARK SMILES IDX 90 66 57 67 41 68 42 69 50 70 43 71 44 72 48 73 51 74 45 75
REMARK SMILES IDX 46 76 49 77 47 78 73 79 74 80 82 81 75 82 76 83 80 84 83 85
REMARK SMILES IDX 77 86 78 87 81 88 79 89 58 90 59 91 67 92 60 93 61 94 65 95
REMARK SMILES IDX 68 96 62 97 63 98 66 99 64 100
REMARK H PARENT 88 53 56 64
REMARK Flexibility Score: inf
ROOT
ATOM      1  C   UNL A   1      41.525  19.407  26.204  1.00  0.00     0.188 C 
ENDROOT
BRANCH   1   2
ATOM      2  C   UNL A   1      40.551  20.344  26.930  1.00  0.00     0.188 C 
BRANCH   2   3
ATOM      3  O   UNL A   1      39.660  21.150  26.165  1.00  0.00    -0.376 OA
BRANCH   3   4
ATOM      4  C   UNL A   1      39.512  22.528  26.495  1.00  0.00     0.202 C 
BRANCH   4   5
ATOM      5  C   UNL A   1      38.196  23.215  26.082  1.00  0.00     0.261 C 
BRANCH   5   6
ATOM      6  O   UNL A   1      37.260  22.336  25.415  1.00  0.00    -0.463 OA
BRANCH   6   7
ATOM      7  C   UNL A   1      35.942  22.490  25.705  1.00  0.00     0.306 C 
ATOM      8  O   UNL A   1      35.515  23.284  26.535  1.00  0.00    -0.252 OA
BRANCH   7   9
ATOM      9  C   UNL A   1      35.017  21.736  24.745  1.00  0.00     0.131 C 
BRANCH   9  10
ATOM     10  C   UNL A   1      34.065  22.535  23.796  1.00  0.00     0.031 C 
ATOM     11  C   UNL A   1      33.748  28.030  25.912  1.00  0.00     0.044 C 
ATOM     12  C   UNL A   1      32.737  27.924  24.798  1.00  0.00    -0.047 A 
ATOM     13  C   UNL A   1      31.887  29.030  24.603  1.00  0.00     0.004 A 
ATOM     14  C   UNL A   1      32.646  26.807  23.925  1.00  0.00    -0.034 A 
ATOM     15  C   UNL A   1      30.990  29.067  23.542  1.00  0.00     0.001 A 
ATOM     16  C   UNL A   1      31.853  26.935  22.760  1.00  0.00    -0.044 A 
ATOM     17  C   UNL A   1      33.344  25.470  24.210  1.00  0.00     0.053 C 
ATOM     18  C   UNL A   1      31.006  28.045  22.601  1.00  0.00     0.004 A 
ATOM     19  C   UNL A   1      32.007  26.005  21.579  1.00  0.00     0.036 C 
ATOM     20  C   UNL A   1      32.516  24.344  24.897  1.00  0.00    -0.034 A 
ATOM     21  C   UNL A   1      33.927  24.963  22.869  1.00  0.00     0.002 C 
ATOM     22  C   UNL A   1      32.819  24.737  21.830  1.00  0.00     0.009 C 
ATOM     23  C   UNL A   1      31.479  24.560  25.848  1.00  0.00    -0.047 A 
ATOM     24  C   UNL A   1      32.848  22.982  24.611  1.00  0.00    -0.040 A 
ATOM     25  C   UNL A   1      34.784  23.721  23.119  1.00  0.00     0.013 C 
ATOM     26  C   UNL A   1      30.803  23.462  26.426  1.00  0.00     0.004 A 
ATOM     27  C   UNL A   1      30.995  25.900  26.331  1.00  0.00     0.044 C 
ATOM     28  C   UNL A   1      32.076  21.923  25.138  1.00  0.00     0.004 A 
ATOM     29  C   UNL A   1      31.077  22.158  26.059  1.00  0.00     0.001 A 
ENDBRANCH   9  10
ENDBRANCH   7   9
ENDBRANCH   6   7
ENDBRANCH   5   6
ENDBRANCH   4   5
ENDBRANCH   3   4
ENDBRANCH   2   3
ENDBRANCH   1   2
BRANCH   1  30
ATOM     30  O   UNL A   1      42.409  20.076  25.332  1.00  0.00    -0.376 OA
BRANCH  30  31
ATOM     31  C   UNL A   1      43.162  21.128  25.898  1.00  0.00     0.202 C 
BRANCH  31  32
ATOM     32  C   UNL A   1      43.627  22.150  24.854  1.00  0.00     0.261 C 
BRANCH  32  33
ATOM     33  O   UNL A   1      43.009  23.452  24.927  1.00  0.00    -0.460 OA
BRANCH  33  34
ATOM     34  C   UNL A   1      43.810  24.517  25.148  1.00  0.00     0.338 C 
ATOM     35  O   UNL A   1      44.844  24.797  24.554  1.00  0.00    -0.246 OA
BRANCH  34  36
ATOM     36  C   UNL A   1      43.113  25.427  26.084  1.00  0.00     0.060 A 
ATOM     37  C   UNL A   1      43.320  26.813  25.993  1.00  0.00     0.016 A 
ATOM     38  C   UNL A   1      42.255  24.912  27.055  1.00  0.00     0.016 A 
ATOM     39  C   UNL A   1      42.682  27.684  26.881  1.00  0.00     0.010 A 
ATOM     40  C   UNL A   1      41.645  25.779  27.966  1.00  0.00     0.010 A 
ATOM     41  C   UNL A   1      41.875  27.166  27.901  1.00  0.00    -0.014 A 
BRANCH  41  42
ATOM     42  C   UNL A   1      41.442  28.030  29.028  1.00  0.00     0.031 A 
ATOM     43  C   UNL A   1      42.200  27.932  30.324  1.00  0.00     0.074 A 
ATOM     44  C   UNL A   1      40.400  28.872  28.918  1.00  0.00     0.049 A 
ATOM     45  N   UNL A   1      41.946  28.484  31.481  1.00  0.00    -0.248 NA
ATOM     46  C   UNL A   1      43.412  27.094  30.311  1.00  0.00     0.031 C 
ATOM     47  C   UNL A   1      39.625  29.107  27.703  1.00  0.00     0.029 A 
ATOM     48  N   UNL A   1      39.803  29.677  29.861  1.00  0.00    -0.354 N 
ATOM     49  C   UNL A   1      42.958  28.059  32.331  1.00  0.00     0.074 A 
ATOM     50  C   UNL A   1      43.820  27.185  31.568  1.00  0.00     0.031 C 
ATOM     51  C   UNL A   1      38.639  29.980  27.979  1.00  0.00     0.029 A 
ATOM     52  C   UNL A   1      38.689  30.334  29.398  1.00  0.00     0.049 A 
ATOM     53  H   UNL A   1      40.143  29.774  30.780  1.00  0.00     0.167 HD
ATOM     54  C   UNL A   1      43.153  28.376  33.632  1.00  0.00     0.037 A 
ATOM     55  C   UNL A   1      37.797  31.104  30.054  1.00  0.00     0.037 A 
ATOM     56  C   UNL A   1      42.293  29.244  34.392  1.00  0.00     0.049 A 
ATOM     57  C   UNL A   1      37.982  31.360  31.532  1.00  0.00     0.074 A 
ATOM     58  C   UNL A   1      42.413  29.625  35.717  1.00  0.00     0.029 A 
ATOM     59  N   UNL A   1      41.154  29.860  33.897  1.00  0.00    -0.354 N 
ATOM     60  N   UNL A   1      38.946  30.964  32.328  1.00  0.00    -0.248 NA
ATOM     61  C   UNL A   1      36.954  32.170  32.204  1.00  0.00     0.031 C 
ATOM     62  C   UNL A   1      41.316  30.427  36.040  1.00  0.00     0.029 A 
ATOM     63  C   UNL A   1      40.549  30.598  34.900  1.00  0.00     0.049 A 
ATOM     64  H   UNL A   1      40.827  29.785  32.973  1.00  0.00     0.167 HD
ATOM     65  C   UNL A   1      38.660  31.502  33.577  1.00  0.00     0.074 A 
ATOM     66  C   UNL A   1      37.440  32.265  33.433  1.00  0.00     0.031 C 
ATOM     67  C   UNL A   1      39.345  31.373  34.740  1.00  0.00     0.037 A 
BRANCH  54  68
ATOM     68  C   UNL A   1      44.335  27.781  34.336  1.00  0.00     0.064 A 
ATOM     69  C   UNL A   1      45.547  28.476  34.445  1.00  0.00     0.173 A 
ATOM     70  C   UNL A   1      44.218  26.550  35.000  1.00  0.00     0.173 A 
ATOM     71  F   UNL A   1      45.713  29.648  33.813  1.00  0.00    -0.203 F 
ATOM     72  C   UNL A   1      46.599  27.963  35.199  1.00  0.00     0.198 A 
ATOM     73  C   UNL A   1      45.262  26.054  35.775  1.00  0.00     0.198 A 
ATOM     74  F   UNL A   1      43.078  25.847  34.926  1.00  0.00    -0.203 F 
ATOM     75  F   UNL A   1      47.755  28.636  35.277  1.00  0.00    -0.200 F 
ATOM     76  C   UNL A   1      46.451  26.762  35.875  1.00  0.00     0.200 A 
ATOM     77  F   UNL A   1      45.111  24.901  36.441  1.00  0.00    -0.200 F 
ATOM     78  F   UNL A   1      47.452  26.286  36.627  1.00  0.00    -0.200 F 
ENDBRANCH  54  68
BRANCH  55  79
ATOM     79  C   UNL A   1      36.629  31.681  29.333  1.00  0.00     0.064 A 
ATOM     80  C   UNL A   1      36.559  33.053  29.051  1.00  0.00     0.173 A 
ATOM     81  C   UNL A   1      35.543  30.882  28.942  1.00  0.00     0.173 A 
ATOM     82  F   UNL A   1      37.554  33.866  29.434  1.00  0.00    -0.203 F 
ATOM     83  C   UNL A   1      35.442  33.606  28.427  1.00  0.00     0.198 A 
ATOM     84  C   UNL A   1      34.441  31.431  28.288  1.00  0.00     0.198 A 
ATOM     85  F   UNL A   1      35.552  29.566  29.196  1.00  0.00    -0.203 F 
ATOM     86  F   UNL A   1      35.377  34.929  28.224  1.00  0.00    -0.200 F 
ATOM     87  C   UNL A   1      34.388  32.794  28.039  1.00  0.00     0.200 A 
ATOM     88  F   UNL A   1      33.428  30.640  27.907  1.00  0.00    -0.200 F 
ATOM     89  F   UNL A   1      33.315  33.326  27.438  1.00  0.00    -0.200 F 
ENDBRANCH  55  79
BRANCH  67  90
ATOM     90  C   UNL A   1      38.831  32.101  35.949  1.00  0.00     0.064 A 
ATOM     91  C   UNL A   1      38.077  31.448  36.937  1.00  0.00     0.173 A 
ATOM     92  C   UNL A   1      39.172  33.445  36.167  1.00  0.00     0.173 A 
ATOM     93  F   UNL A   1      37.716  30.167  36.773  1.00  0.00    -0.203 F 
ATOM     94  C   UNL A   1      37.673  32.119  38.088  1.00  0.00     0.198 A 
ATOM     95  C   UNL A   1      38.795  34.102  37.335  1.00  0.00     0.198 A 
ATOM     96  F   UNL A   1      39.903  34.113  35.261  1.00  0.00    -0.203 F 
ATOM     97  F   UNL A   1      36.923  31.486  39.001  1.00  0.00    -0.200 F 
ATOM     98  C   UNL A   1      38.041  33.441  38.292  1.00  0.00     0.200 A 
ATOM     99  F   UNL A   1      39.173  35.372  37.540  1.00  0.00    -0.200 F 
ATOM    100  F   UNL A   1      37.669  34.078  39.411  1.00  0.00    -0.200 F 
ENDBRANCH  67  90
ENDBRANCH  41  42
ENDBRANCH  34  36
ENDBRANCH  33  34
ENDBRANCH  32  33
ENDBRANCH  31  32
ENDBRANCH  30  31
ENDBRANCH   1  30
TORSDOF 18
ENDMDL
MODEL 2
REMARK VINA RESULT:     -12.4      5.133     10.542
REMARK SMILES Cc1cccc2c1[C@H]1c3c(C)cccc3[C@H](CC(=O)OCCOCCOCCOC(=O)c3ccc(-c4c5nc(c(-c6c(F)c(F)c(F)c(F)c6F)c6ccc([nH]6)c(-c6c(F)c(F)c(F)c(F)c6F)c6nc(c(-c7c(F)c(F)c(F)c(F)c7F)c7ccc4[nH]7)C=C6)C=C5)cc3)C[C@H]1CC2
REMARK SMILES IDX 25 1 24 2 23 3 22 4 21 5 20 6 18 7 19 8 17 9 16 10 1 11 2 12
REMARK SMILES IDX 3 13 7 14 4 15 6 16 8 17 5 18 98 19 9 20 96 21 97 22 10 23
REMARK SMILES IDX 15 24 95 25 12 26 11 27 14 28 13 29 26 30 27 31 28 32 29 33
REMARK SMILES IDX 30 34 31 35 32 36 33 37 94 38 34 39 93 40 35 41 36 42 37 43
REMARK SMILES IDX 87 44 38 45 92 46 86 47 88 48 39 49 91 50 85 51 84 52 40 54
REMARK SMILES IDX 72 55 52 56 71 57 53 58 56 59 70 60 89 61 54 62 55 63 69 65
REMARK SMILES IDX 90 66 57 67 41 68 42 69 50 70 43 71 44 72 48 73 51 74 45 75
REMARK SMILES IDX 46 76 49 77 47 78 73 79 74 80 82 81 75 82 76 83 80 84 83 85
REMARK SMILES IDX 77 86 78 87 81 88 79 89 58 90 59 91 67 92 60 93 61 94 65 95
REMARK SMILES IDX 68 96 62 97 63 98 66 99 64 100
REMARK H PARENT 88 53 56 64
REMARK Flexibility Score: inf
ROOT
ATOM      1  C   UNL A   1      34.936  33.657  28.513  1.00  0.00     0.188 C 
ENDROOT
BRANCH   1   2
ATOM      2  C   UNL A   1      34.089  32.382  28.631  1.00  0.00     0.188 C 
BRANCH   2   3
ATOM      3  O   UNL A   1      34.000  31.501  27.515  1.00  0.00    -0.376 OA
BRANCH   3   4
ATOM      4  C   UNL A   1      34.812  30.331  27.486  1.00  0.00     0.202 C 
BRANCH   4   5
ATOM      5  C   UNL A   1      34.336  29.163  26.602  1.00  0.00     0.261 C 
BRANCH   5   6
ATOM      6  O   UNL A   1      32.994  29.329  26.085  1.00  0.00    -0.463 OA
BRANCH   6   7
ATOM      7  C   UNL A   1      32.767  28.946  24.802  1.00  0.00     0.306 C 
ATOM      8  O   UNL A   1      33.651  28.814  23.963  1.00  0.00    -0.252 OA
BRANCH   7   9
ATOM      9  C   UNL A   1      31.329  28.484  24.552  1.00  0.00     0.131 C 
BRANCH   9  10
ATOM     10  C   UNL A   1      30.944  26.986  24.781  1.00  0.00     0.031 C 
ATOM     11  C   UNL A   1      35.963  24.059  25.786  1.00  0.00     0.044 C 
ATOM     12  C   UNL A   1      34.867  23.031  25.667  1.00  0.00    -0.047 A 
ATOM     13  C   UNL A   1      35.258  21.678  25.675  1.00  0.00     0.004 A 
ATOM     14  C   UNL A   1      33.486  23.361  25.606  1.00  0.00    -0.034 A 
ATOM     15  C   UNL A   1      34.314  20.658  25.668  1.00  0.00     0.001 A 
ATOM     16  C   UNL A   1      32.544  22.318  25.771  1.00  0.00    -0.044 A 
ATOM     17  C   UNL A   1      32.983  24.786  25.339  1.00  0.00     0.053 C 
ATOM     18  C   UNL A   1      32.966  20.978  25.762  1.00  0.00     0.004 A 
ATOM     19  C   UNL A   1      31.103  22.589  26.137  1.00  0.00     0.036 C 
ATOM     20  C   UNL A   1      32.608  25.169  23.877  1.00  0.00    -0.034 A 
ATOM     21  C   UNL A   1      31.779  25.030  26.281  1.00  0.00     0.002 C 
ATOM     22  C   UNL A   1      30.642  24.038  26.000  1.00  0.00     0.009 C 
ATOM     23  C   UNL A   1      33.245  24.656  22.712  1.00  0.00    -0.047 A 
ATOM     24  C   UNL A   1      31.592  26.155  23.669  1.00  0.00    -0.040 A 
ATOM     25  C   UNL A   1      31.342  26.493  26.187  1.00  0.00     0.013 C 
ATOM     26  C   UNL A   1      32.838  25.088  21.429  1.00  0.00     0.004 A 
ATOM     27  C   UNL A   1      34.364  23.650  22.693  1.00  0.00     0.044 C 
ATOM     28  C   UNL A   1      31.152  26.477  22.366  1.00  0.00     0.004 A 
ATOM     29  C   UNL A   1      31.787  25.968  21.253  1.00  0.00     0.001 A 
ENDBRANCH   9  10
ENDBRANCH   7   9
ENDBRANCH   6   7
ENDBRANCH   5   6
ENDBRANCH   4   5
ENDBRANCH   3   4
ENDBRANCH   2   3
ENDBRANCH   1   2
BRANCH   1  30
ATOM     30  O   UNL A   1      35.319  34.198  29.757  1.00  0.00    -0.376 OA
BRANCH  30  31
ATOM     31  C   UNL A   1      34.276  34.443  30.677  1.00  0.00     0.202 C 
BRANCH  31  32
ATOM     32  C   UNL A   1      34.404  33.604  31.953  1.00  0.00     0.261 C 
BRANCH  32  33
ATOM     33  O   UNL A   1      35.080  32.337  31.811  1.00  0.00    -0.460 OA
BRANCH  33  34
ATOM     34  C   UNL A   1      36.082  32.058  32.675  1.00  0.00     0.338 C 
ATOM     35  O   UNL A   1      36.074  32.223  33.888  1.00  0.00    -0.246 OA
BRANCH  34  36
ATOM     36  C   UNL A   1      37.120  31.300  31.941  1.00  0.00     0.060 A 
ATOM     37  C   UNL A   1      38.045  30.519  32.651  1.00  0.00     0.016 A 
ATOM     38  C   UNL A   1      37.182  31.363  30.549  1.00  0.00     0.016 A 
ATOM     39  C   UNL A   1      39.042  29.811  31.974  1.00  0.00     0.010 A 
ATOM     40  C   UNL A   1      38.200  30.684  29.874  1.00  0.00     0.010 A 
ATOM     41  C   UNL A   1      39.151  29.927  30.583  1.00  0.00    -0.014 A 
BRANCH  41  42
ATOM     42  C   UNL A   1      40.368  29.444  29.882  1.00  0.00     0.031 A 
ATOM     43  C   UNL A   1      41.483  30.426  29.647  1.00  0.00     0.074 A 
ATOM     44  C   UNL A   1      40.485  28.175  29.454  1.00  0.00     0.049 A 
ATOM     45  N   UNL A   1      42.585  30.285  28.958  1.00  0.00    -0.248 NA
ATOM     46  C   UNL A   1      41.331  31.751  30.275  1.00  0.00     0.031 C 
ATOM     47  C   UNL A   1      39.507  27.113  29.674  1.00  0.00     0.029 A 
ATOM     48  N   UNL A   1      41.481  27.571  28.721  1.00  0.00    -0.354 N 
ATOM     49  C   UNL A   1      43.253  31.498  29.065  1.00  0.00     0.074 A 
ATOM     50  C   UNL A   1      42.427  32.373  29.865  1.00  0.00     0.031 C 
ATOM     51  C   UNL A   1      39.941  25.992  29.070  1.00  0.00     0.029 A 
ATOM     52  C   UNL A   1      41.205  26.268  28.386  1.00  0.00     0.049 A 
ATOM     53  H   UNL A   1      42.313  28.031  28.462  1.00  0.00     0.167 HD
ATOM     54  C   UNL A   1      44.453  31.846  28.547  1.00  0.00     0.037 A 
ATOM     55  C   UNL A   1      41.881  25.411  27.593  1.00  0.00     0.037 A 
ATOM     56  C   UNL A   1      45.274  30.975  27.748  1.00  0.00     0.049 A 
ATOM     57  C   UNL A   1      43.169  25.861  26.943  1.00  0.00     0.074 A 
ATOM     58  C   UNL A   1      46.508  31.241  27.181  1.00  0.00     0.029 A 
ATOM     59  N   UNL A   1      44.943  29.675  27.401  1.00  0.00    -0.354 N 
ATOM     60  N   UNL A   1      43.801  27.004  27.056  1.00  0.00    -0.248 NA
ATOM     61  C   UNL A   1      43.838  24.899  26.053  1.00  0.00     0.031 C 
ATOM     62  C   UNL A   1      46.898  30.121  26.443  1.00  0.00     0.029 A 
ATOM     63  C   UNL A   1      45.939  29.135  26.604  1.00  0.00     0.049 A 
ATOM     64  H   UNL A   1      44.123  29.206  27.679  1.00  0.00     0.167 HD
ATOM     65  C   UNL A   1      44.951  26.886  26.285  1.00  0.00     0.074 A 
ATOM     66  C   UNL A   1      44.940  25.555  25.719  1.00  0.00     0.031 C 
ATOM     67  C   UNL A   1      45.928  27.800  26.064  1.00  0.00     0.037 A 
BRANCH  54  68
ATOM     68  C   UNL A   1      44.963  33.231  28.810  1.00  0.00     0.064 A 
ATOM     69  C   UNL A   1      45.827  33.501  29.881  1.00  0.00     0.173 A 
ATOM     70  C   UNL A   1      44.670  34.275  27.919  1.00  0.00     0.173 A 
ATOM     71  F   UNL A   1      46.122  32.540  30.769  1.00  0.00    -0.203 F 
ATOM     72  C   UNL A   1      46.384  34.765  30.046  1.00  0.00     0.198 A 
ATOM     73  C   UNL A   1      45.251  35.530  28.072  1.00  0.00     0.198 A 
ATOM     74  F   UNL A   1      43.849  34.066  26.878  1.00  0.00    -0.203 F 
ATOM     75  F   UNL A   1      47.195  35.007  31.085  1.00  0.00    -0.200 F 
ATOM     76  C   UNL A   1      46.109  35.774  29.134  1.00  0.00     0.200 A 
ATOM     77  F   UNL A   1      44.996  36.498  27.181  1.00  0.00    -0.200 F 
ATOM     78  F   UNL A   1      46.673  36.981  29.277  1.00  0.00    -0.200 F 
ENDBRANCH  54  68
BRANCH  55  79
ATOM     79  C   UNL A   1      41.351  24.042  27.344  1.00  0.00     0.064 A 
ATOM     80  C   UNL A   1      41.991  22.913  27.873  1.00  0.00     0.173 A 
ATOM     81  C   UNL A   1      40.218  23.830  26.545  1.00  0.00     0.173 A 
ATOM     82  F   UNL A   1      43.099  23.058  28.616  1.00  0.00    -0.203 F 
ATOM     83  C   UNL A   1      41.533  21.626  27.597  1.00  0.00     0.198 A 
ATOM     84  C   UNL A   1      39.739  22.544  26.295  1.00  0.00     0.198 A 
ATOM     85  F   UNL A   1      39.572  24.873  26.004  1.00  0.00    -0.203 F 
ATOM     86  F   UNL A   1      42.199  20.563  28.067  1.00  0.00    -0.200 F 
ATOM     87  C   UNL A   1      40.403  21.443  26.814  1.00  0.00     0.200 A 
ATOM     88  F   UNL A   1      38.642  22.373  25.546  1.00  0.00    -0.200 F 
ATOM     89  F   UNL A   1      39.961  20.206  26.549  1.00  0.00    -0.200 F 
ENDBRANCH  55  79
BRANCH  67  90
ATOM     90  C   UNL A   1      47.096  27.396  25.210  1.00  0.00     0.064 A 
ATOM     91  C   UNL A   1      47.188  27.772  23.861  1.00  0.00     0.173 A 
ATOM     92  C   UNL A   1      48.178  26.700  25.771  1.00  0.00     0.173 A 
ATOM     93  F   UNL A   1      46.178  28.430  23.274  1.00  0.00    -0.203 F 
ATOM     94  C   UNL A   1      48.313  27.453  23.105  1.00  0.00     0.198 A 
ATOM     95  C   UNL A   1      49.315  26.413  25.021  1.00  0.00     0.198 A 
ATOM     96  F   UNL A   1      48.148  26.327  27.060  1.00  0.00    -0.203 F 
ATOM     97  F   UNL A   1      48.363  27.791  21.809  1.00  0.00    -0.200 F 
ATOM     98  C   UNL A   1      49.379  26.784  23.687  1.00  0.00     0.200 A 
ATOM     99  F   UNL A   1      50.354  25.787  25.593  1.00  0.00    -0.200 F 
ATOM    100  F   UNL A   1      50.470  26.498  22.963  1.00  0.00    -0.200 F 
ENDBRANCH  67  90
ENDBRANCH  41  42
ENDBRANCH  34  36
ENDBRANCH  33  34
ENDBRANCH  32  33
ENDBRANCH  31  32
ENDBRANCH  30  31
ENDBRANCH   1  30
TORSDOF 18
ENDMDL
MODEL 3
REMARK VINA RESULT:     -12.3      4.304      7.443
REMARK SMILES Cc1cccc2c1[C@H]1c3c(C)cccc3[C@H](CC(=O)OCCOCCOCCOC(=O)c3ccc(-c4c5nc(c(-c6c(F)c(F)c(F)c(F)c6F)c6ccc([nH]6)c(-c6c(F)c(F)c(F)c(F)c6F)c6nc(c(-c7c(F)c(F)c(F)c(F)c7F)c7ccc4[nH]7)C=C6)C=C5)cc3)C[C@H]1CC2
REMARK SMILES IDX 25 1 24 2 23 3 22 4 21 5 20 6 18 7 19 8 17 9 16 10 1 11 2 12
REMARK SMILES IDX 3 13 7 14 4 15 6 16 8 17 5 18 98 19 9 20 96 21 97 22 10 23
REMARK SMILES IDX 15 24 95 25 12 26 11 27 14 28 13 29 26 30 27 31 28 32 29 33
REMARK SMILES IDX 30 34 31 35 32 36 33 37 94 38 34 39 93 40 35 41 36 42 37 43
REMARK SMILES IDX 87 44 38 45 92 46 86 47 88 48 39 49 91 50 85 51 84 52 40 54
REMARK SMILES IDX 72 55 52 56 71 57 53 58 56 59 70 60 89 61 54 62 55 63 69 65
REMARK SMILES IDX 90 66 57 67 41 68 42 69 50 70 43 71 44 72 48 73 51 74 45 75
REMARK SMILES IDX 46 76 49 77 47 78 73 79 74 80 82 81 75 82 76 83 80 84 83 85
REMARK SMILES IDX 77 86 78 87 81 88 79 89 58 90 59 91 67 92 60 93 61 94 65 95
REMARK SMILES IDX 68 96 62 97 63 98 66 99 64 100
REMARK H PARENT 88 53 56 64
REMARK Flexibility Score: inf
ROOT
ATOM      1  C   UNL A   1      42.856  18.328  26.729  1.00  0.00     0.188 C 
ENDROOT
BRANCH   1   2
ATOM      2  C   UNL A   1      43.316  18.876  25.371  1.00  0.00     0.188 C 
BRANCH   2   3
ATOM      3  O   UNL A   1      44.500  18.354  24.775  1.00  0.00    -0.376 OA
BRANCH   3   4
ATOM      4  C   UNL A   1      45.476  19.255  24.261  1.00  0.00     0.202 C 
BRANCH   4   5
ATOM      5  C   UNL A   1      46.016  20.333  25.221  1.00  0.00     0.261 C 
BRANCH   5   6
ATOM      6  O   UNL A   1      45.929  21.680  24.698  1.00  0.00    -0.463 OA
BRANCH   6   7
ATOM      7  C   UNL A   1      44.701  22.129  24.331  1.00  0.00     0.306 C 
ATOM      8  O   UNL A   1      44.265  22.067  23.188  1.00  0.00    -0.252 OA
BRANCH   7   9
ATOM      9  C   UNL A   1      43.821  22.528  25.520  1.00  0.00     0.131 C 
BRANCH   9  10
ATOM     10  C   UNL A   1      43.637  24.039  25.876  1.00  0.00     0.031 C 
ATOM     11  C   UNL A   1      49.037  26.339  26.446  1.00  0.00     0.044 C 
ATOM     12  C   UNL A   1      48.056  27.395  26.887  1.00  0.00    -0.047 A 
ATOM     13  C   UNL A   1      48.594  28.573  27.440  1.00  0.00     0.004 A 
ATOM     14  C   UNL A   1      46.650  27.279  26.721  1.00  0.00    -0.034 A 
ATOM     15  C   UNL A   1      47.777  29.643  27.787  1.00  0.00     0.001 A 
ATOM     16  C   UNL A   1      45.857  28.434  26.919  1.00  0.00    -0.044 A 
ATOM     17  C   UNL A   1      45.962  25.952  26.369  1.00  0.00     0.053 C 
ATOM     18  C   UNL A   1      46.422  29.589  27.485  1.00  0.00     0.004 A 
ATOM     19  C   UNL A   1      44.449  28.543  26.381  1.00  0.00     0.036 C 
ATOM     20  C   UNL A   1      45.373  25.101  27.532  1.00  0.00    -0.034 A 
ATOM     21  C   UNL A   1      44.860  26.271  25.329  1.00  0.00     0.002 C 
ATOM     22  C   UNL A   1      43.816  27.238  25.903  1.00  0.00     0.009 C 
ATOM     23  C   UNL A   1      45.919  25.028  28.845  1.00  0.00    -0.047 A 
ATOM     24  C   UNL A   1      44.235  24.275  27.266  1.00  0.00    -0.040 A 
ATOM     25  C   UNL A   1      44.254  24.966  24.809  1.00  0.00     0.013 C 
ATOM     26  C   UNL A   1      45.315  24.205  29.823  1.00  0.00     0.004 A 
ATOM     27  C   UNL A   1      47.133  25.770  29.335  1.00  0.00     0.044 C 
ATOM     28  C   UNL A   1      43.609  23.549  28.304  1.00  0.00     0.004 A 
ATOM     29  C   UNL A   1      44.159  23.493  29.567  1.00  0.00     0.001 A 
ENDBRANCH   9  10
ENDBRANCH   7   9
ENDBRANCH   6   7
ENDBRANCH   5   6
ENDBRANCH   4   5
ENDBRANCH   3   4
ENDBRANCH   2   3
ENDBRANCH   1   2
BRANCH   1  30
ATOM     30  O   UNL A   1      41.992  19.197  27.425  1.00  0.00    -0.376 OA
BRANCH  30  31
ATOM     31  C   UNL A   1      41.206  20.061  26.632  1.00  0.00     0.202 C 
BRANCH  31  32
ATOM     32  C   UNL A   1      40.761  21.318  27.388  1.00  0.00     0.261 C 
BRANCH  32  33
ATOM     33  O   UNL A   1      40.811  22.553  26.643  1.00  0.00    -0.460 OA
BRANCH  33  34
ATOM     34  C   UNL A   1      39.646  23.203  26.423  1.00  0.00     0.338 C 
ATOM     35  O   UNL A   1      38.625  22.737  25.935  1.00  0.00    -0.246 OA
BRANCH  34  36
ATOM     36  C   UNL A   1      39.729  24.525  27.084  1.00  0.00     0.060 A 
ATOM     37  C   UNL A   1      40.377  25.588  26.435  1.00  0.00     0.016 A 
ATOM     38  C   UNL A   1      39.168  24.714  28.346  1.00  0.00     0.016 A 
ATOM     39  C   UNL A   1      40.479  26.838  27.053  1.00  0.00     0.010 A 
ATOM     40  C   UNL A   1      39.300  25.954  28.979  1.00  0.00     0.010 A 
ATOM     41  C   UNL A   1      39.978  27.013  28.349  1.00  0.00    -0.014 A 
BRANCH  41  42
ATOM     42  C   UNL A   1      40.342  28.218  29.137  1.00  0.00     0.031 A 
ATOM     43  C   UNL A   1      41.699  28.255  29.785  1.00  0.00     0.074 A 
ATOM     44  C   UNL A   1      39.493  29.250  29.289  1.00  0.00     0.049 A 
ATOM     45  N   UNL A   1      42.201  29.130  30.616  1.00  0.00    -0.248 NA
ATOM     46  C   UNL A   1      42.615  27.151  29.448  1.00  0.00     0.031 C 
ATOM     47  C   UNL A   1      38.178  29.365  28.664  1.00  0.00     0.029 A 
ATOM     48  N   UNL A   1      39.611  30.396  30.041  1.00  0.00    -0.354 N 
ATOM     49  C   UNL A   1      43.484  28.682  30.904  1.00  0.00     0.074 A 
ATOM     50  C   UNL A   1      43.679  27.447  30.179  1.00  0.00     0.031 C 
ATOM     51  C   UNL A   1      37.601  30.509  29.075  1.00  0.00     0.029 A 
ATOM     52  C   UNL A   1      38.487  31.185  30.023  1.00  0.00     0.049 A 
ATOM     53  H   UNL A   1      40.426  30.629  30.543  1.00  0.00     0.167 HD
ATOM     54  C   UNL A   1      44.416  29.255  31.698  1.00  0.00     0.037 A 
ATOM     55  C   UNL A   1      38.198  32.304  30.718  1.00  0.00     0.037 A 
ATOM     56  C   UNL A   1      44.220  30.483  32.422  1.00  0.00     0.049 A 
ATOM     57  C   UNL A   1      39.221  32.868  31.677  1.00  0.00     0.074 A 
ATOM     58  C   UNL A   1      45.112  31.142  33.250  1.00  0.00     0.029 A 
ATOM     59  N   UNL A   1      43.055  31.232  32.407  1.00  0.00    -0.354 N 
ATOM     60  N   UNL A   1      40.435  32.446  31.937  1.00  0.00    -0.248 NA
ATOM     61  C   UNL A   1      38.833  34.065  32.440  1.00  0.00     0.031 C 
ATOM     62  C   UNL A   1      44.466  32.260  33.782  1.00  0.00     0.029 A 
ATOM     63  C   UNL A   1      43.196  32.334  33.233  1.00  0.00     0.049 A 
ATOM     64  H   UNL A   1      42.249  31.014  31.886  1.00  0.00     0.167 HD
ATOM     65  C   UNL A   1      40.964  33.340  32.861  1.00  0.00     0.074 A 
ATOM     66  C   UNL A   1      39.945  34.336  33.108  1.00  0.00     0.031 C 
ATOM     67  C   UNL A   1      42.183  33.333  33.454  1.00  0.00     0.037 A 
BRANCH  54  68
ATOM     68  C   UNL A   1      45.740  28.567  31.846  1.00  0.00     0.064 A 
ATOM     69  C   UNL A   1      46.910  29.106  31.294  1.00  0.00     0.173 A 
ATOM     70  C   UNL A   1      45.855  27.414  32.638  1.00  0.00     0.173 A 
ATOM     71  F   UNL A   1      46.849  30.197  30.515  1.00  0.00    -0.203 F 
ATOM     72  C   UNL A   1      48.149  28.520  31.535  1.00  0.00     0.198 A 
ATOM     73  C   UNL A   1      47.099  26.847  32.899  1.00  0.00     0.198 A 
ATOM     74  F   UNL A   1      44.764  26.860  33.188  1.00  0.00    -0.203 F 
ATOM     75  F   UNL A   1      49.254  29.042  30.985  1.00  0.00    -0.200 F 
ATOM     76  C   UNL A   1      48.245  27.401  32.349  1.00  0.00     0.200 A 
ATOM     77  F   UNL A   1      47.190  25.775  33.699  1.00  0.00    -0.200 F 
ATOM     78  F   UNL A   1      49.442  26.858  32.607  1.00  0.00    -0.200 F 
ENDBRANCH  54  68
BRANCH  55  79
ATOM     79  C   UNL A   1      36.875  32.967  30.557  1.00  0.00     0.064 A 
ATOM     80  C   UNL A   1      35.881  32.845  31.539  1.00  0.00     0.173 A 
ATOM     81  C   UNL A   1      36.561  33.706  29.407  1.00  0.00     0.173 A 
ATOM     82  F   UNL A   1      36.117  32.121  32.644  1.00  0.00    -0.203 F 
ATOM     83  C   UNL A   1      34.621  33.416  31.368  1.00  0.00     0.198 A 
ATOM     84  C   UNL A   1      35.312  34.306  29.250  1.00  0.00     0.198 A 
ATOM     85  F   UNL A   1      37.470  33.847  28.431  1.00  0.00    -0.203 F 
ATOM     86  F   UNL A   1      33.672  33.233  32.296  1.00  0.00    -0.200 F 
ATOM     87  C   UNL A   1      34.340  34.153  30.227  1.00  0.00     0.200 A 
ATOM     88  F   UNL A   1      35.049  35.023  28.150  1.00  0.00    -0.200 F 
ATOM     89  F   UNL A   1      33.130  34.702  30.063  1.00  0.00    -0.200 F 
ENDBRANCH  55  79
BRANCH  67  90
ATOM     90  C   UNL A   1      42.517  34.454  34.398  1.00  0.00     0.064 A 
ATOM     91  C   UNL A   1      42.946  35.706  33.933  1.00  0.00     0.173 A 
ATOM     92  C   UNL A   1      42.319  34.300  35.779  1.00  0.00     0.173 A 
ATOM     93  F   UNL A   1      43.159  35.903  32.624  1.00  0.00    -0.203 F 
ATOM     94  C   UNL A   1      43.179  36.756  34.818  1.00  0.00     0.198 A 
ATOM     95  C   UNL A   1      42.520  35.363  36.657  1.00  0.00     0.198 A 
ATOM     96  F   UNL A   1      41.896  33.128  36.277  1.00  0.00    -0.203 F 
ATOM     97  F   UNL A   1      43.622  37.933  34.354  1.00  0.00    -0.200 F 
ATOM     98  C   UNL A   1      42.954  36.588  36.176  1.00  0.00     0.200 A 
ATOM     99  F   UNL A   1      42.280  35.204  37.966  1.00  0.00    -0.200 F 
ATOM    100  F   UNL A   1      43.158  37.607  37.022  1.00  0.00    -0.200 F 
ENDBRANCH  67  90
ENDBRANCH  41  42
ENDBRANCH  34  36
ENDBRANCH  33  34
ENDBRANCH  32  33
ENDBRANCH  31  32
ENDBRANCH  30  31
ENDBRANCH   1  30
TORSDOF 18
ENDMDL
