MODEL 1
REMARK VINA RESULT:     -11.8      0.000      0.000
REMARK SMILES O=C(OCCOCCOCCOC(=O)[C@H]1C[C@](O)(c2ccc(F)cc2)[C@@H](c2ccc(F)cc2)O1)c1ccc(-c2c3nc(c(-c4c(F)c(F)c(F)c(F)c4F)c4ccc([nH]4)c(-c4c(F)c(F)c(F)c(F)c4F)c4nc(c(-c5c(F)c(F)c(F)c(F)c5F)c5ccc2[nH]5)C=C4)C=C3)cc1
REMARK SMILES IDX 7 1 6 2 5 3 4 4 3 5 2 6 1 7 35 8 36 9 97 10 37 11 96 12
REMARK SMILES IDX 38 13 39 14 40 15 90 16 41 17 95 18 89 19 91 20 42 21 94 22
REMARK SMILES IDX 88 23 87 24 43 26 75 27 55 28 74 29 56 30 59 31 73 32 92 33
REMARK SMILES IDX 57 34 58 35 72 37 93 38 60 39 44 40 45 41 53 42 46 43 47 44
REMARK SMILES IDX 51 45 54 46 48 47 49 48 52 49 50 50 76 51 77 52 85 53 78 54
REMARK SMILES IDX 79 55 83 56 86 57 80 58 81 59 84 60 82 61 61 62 62 63 70 64
REMARK SMILES IDX 63 65 64 66 68 67 71 68 65 69 66 70 69 71 67 72 8 73 9 74
REMARK SMILES IDX 10 75 11 76 12 77 13 78 14 79 15 80 16 81 34 82 17 83 26 84
REMARK SMILES IDX 19 85 20 86 25 87 21 88 24 89 22 90 23 91 18 92 27 94 28 95
REMARK SMILES IDX 33 96 29 97 32 98 30 99 31 100
REMARK H PARENT 91 25 59 36 18 93
REMARK Flexibility Score: inf
ROOT
ATOM      1  C   UNL A   1      41.090  21.359  27.507  1.00  0.00     0.188 C 
ENDROOT
BRANCH   1   2
ATOM      2  O   UNL A   1      41.274  19.935  27.545  1.00  0.00    -0.376 OA
BRANCH   2   3
ATOM      3  C   UNL A   1      41.512  19.360  26.251  1.00  0.00     0.202 C 
BRANCH   3   4
ATOM      4  C   UNL A   1      42.653  18.330  26.150  1.00  0.00     0.261 C 
BRANCH   4   5
ATOM      5  O   UNL A   1      43.422  18.429  24.947  1.00  0.00    -0.460 OA
BRANCH   5   6
ATOM      6  C   UNL A   1      44.526  19.174  24.711  1.00  0.00     0.338 C 
ATOM      7  O   UNL A   1      45.556  18.585  24.384  1.00  0.00    -0.246 OA
BRANCH   6   8
ATOM      8  C   UNL A   1      44.584  20.669  24.824  1.00  0.00     0.060 A 
ATOM      9  C   UNL A   1      44.532  21.602  23.780  1.00  0.00     0.016 A 
ATOM     10  C   UNL A   1      44.657  21.175  26.125  1.00  0.00     0.016 A 
ATOM     11  C   UNL A   1      44.589  22.986  23.996  1.00  0.00     0.010 A 
ATOM     12  C   UNL A   1      44.683  22.552  26.347  1.00  0.00     0.010 A 
ATOM     13  C   UNL A   1      44.641  23.485  25.283  1.00  0.00    -0.014 A 
BRANCH  13  14
ATOM     14  C   UNL A   1      44.806  24.928  25.616  1.00  0.00     0.031 A 
ATOM     15  C   UNL A   1      46.222  25.397  25.655  1.00  0.00     0.074 A 
ATOM     16  C   UNL A   1      43.801  25.798  25.872  1.00  0.00     0.049 A 
ATOM     17  N   UNL A   1      46.701  26.508  26.124  1.00  0.00    -0.248 NA
ATOM     18  C   UNL A   1      47.228  24.534  24.997  1.00  0.00     0.031 C 
ATOM     19  C   UNL A   1      42.435  25.702  25.385  1.00  0.00     0.029 A 
ATOM     20  N   UNL A   1      43.738  26.929  26.654  1.00  0.00    -0.354 N 
ATOM     21  C   UNL A   1      48.027  26.517  25.735  1.00  0.00     0.074 A 
ATOM     22  C   UNL A   1      48.334  25.247  25.132  1.00  0.00     0.031 C 
ATOM     23  C   UNL A   1      41.619  26.529  26.064  1.00  0.00     0.029 A 
ATOM     24  C   UNL A   1      42.436  27.316  26.968  1.00  0.00     0.049 A 
ATOM     25  H   UNL A   1      44.536  27.417  26.961  1.00  0.00     0.167 HD
ATOM     26  C   UNL A   1      48.864  27.570  25.794  1.00  0.00     0.037 A 
ATOM     27  C   UNL A   1      41.993  28.224  27.870  1.00  0.00     0.037 A 
ATOM     28  C   UNL A   1      48.465  28.812  26.388  1.00  0.00     0.049 A 
ATOM     29  C   UNL A   1      43.064  29.152  28.358  1.00  0.00     0.074 A 
ATOM     30  C   UNL A   1      49.188  29.977  26.514  1.00  0.00     0.029 A 
ATOM     31  N   UNL A   1      47.216  29.034  26.968  1.00  0.00    -0.354 N 
ATOM     32  N   UNL A   1      44.334  29.149  28.028  1.00  0.00    -0.248 NA
ATOM     33  C   UNL A   1      42.653  30.278  29.198  1.00  0.00     0.031 C 
ATOM     34  C   UNL A   1      48.405  30.876  27.243  1.00  0.00     0.029 A 
ATOM     35  C   UNL A   1      47.172  30.296  27.522  1.00  0.00     0.049 A 
ATOM     36  H   UNL A   1      46.476  28.383  26.982  1.00  0.00     0.167 HD
ATOM     37  C   UNL A   1      44.849  30.337  28.493  1.00  0.00     0.074 A 
ATOM     38  C   UNL A   1      43.774  30.991  29.223  1.00  0.00     0.031 C 
ATOM     39  C   UNL A   1      46.069  30.874  28.255  1.00  0.00     0.037 A 
BRANCH  26  40
ATOM     40  C   UNL A   1      50.223  27.406  25.194  1.00  0.00     0.064 A 
ATOM     41  C   UNL A   1      51.319  27.082  26.001  1.00  0.00     0.173 A 
ATOM     42  C   UNL A   1      50.443  27.554  23.814  1.00  0.00     0.173 A 
ATOM     43  F   UNL A   1      51.155  26.901  27.320  1.00  0.00    -0.203 F 
ATOM     44  C   UNL A   1      52.591  26.931  25.455  1.00  0.00     0.198 A 
ATOM     45  C   UNL A   1      51.712  27.383  23.268  1.00  0.00     0.198 A 
ATOM     46  F   UNL A   1      49.417  27.822  22.989  1.00  0.00    -0.203 F 
ATOM     47  F   UNL A   1      53.628  26.632  26.249  1.00  0.00    -0.200 F 
ATOM     48  C   UNL A   1      52.786  27.080  24.089  1.00  0.00     0.200 A 
ATOM     49  F   UNL A   1      51.891  27.491  21.943  1.00  0.00    -0.200 F 
ATOM     50  F   UNL A   1      54.009  26.921  23.564  1.00  0.00    -0.200 F 
ENDBRANCH  26  40
BRANCH  27  51
ATOM     51  C   UNL A   1      40.557  28.436  28.249  1.00  0.00     0.064 A 
ATOM     52  C   UNL A   1      39.652  29.071  27.382  1.00  0.00     0.173 A 
ATOM     53  C   UNL A   1      40.007  27.931  29.433  1.00  0.00     0.173 A 
ATOM     54  F   UNL A   1      40.017  29.346  26.128  1.00  0.00    -0.203 F 
ATOM     55  C   UNL A   1      38.323  29.333  27.732  1.00  0.00     0.198 A 
ATOM     56  C   UNL A   1      38.655  28.119  29.756  1.00  0.00     0.198 A 
ATOM     57  F   UNL A   1      40.768  27.198  30.256  1.00  0.00    -0.203 F 
ATOM     58  F   UNL A   1      37.527  30.012  26.892  1.00  0.00    -0.200 F 
ATOM     59  C   UNL A   1      37.822  28.854  28.925  1.00  0.00     0.200 A 
ATOM     60  F   UNL A   1      38.149  27.564  30.866  1.00  0.00    -0.200 F 
ATOM     61  F   UNL A   1      36.536  29.055  29.248  1.00  0.00    -0.200 F 
ENDBRANCH  27  51
BRANCH  39  62
ATOM     62  C   UNL A   1      46.290  32.252  28.772  1.00  0.00     0.064 A 
ATOM     63  C   UNL A   1      46.007  33.353  27.950  1.00  0.00     0.173 A 
ATOM     64  C   UNL A   1      46.917  32.465  30.002  1.00  0.00     0.173 A 
ATOM     65  F   UNL A   1      45.408  33.178  26.762  1.00  0.00    -0.203 F 
ATOM     66  C   UNL A   1      46.404  34.627  28.325  1.00  0.00     0.198 A 
ATOM     67  C   UNL A   1      47.279  33.746  30.389  1.00  0.00     0.198 A 
ATOM     68  F   UNL A   1      47.174  31.431  30.817  1.00  0.00    -0.203 F 
ATOM     69  F   UNL A   1      46.199  35.660  27.497  1.00  0.00    -0.200 F 
ATOM     70  C   UNL A   1      47.043  34.822  29.542  1.00  0.00     0.200 A 
ATOM     71  F   UNL A   1      47.872  33.940  31.573  1.00  0.00    -0.200 F 
ATOM     72  F   UNL A   1      47.441  36.050  29.896  1.00  0.00    -0.200 F 
ENDBRANCH  39  62
ENDBRANCH  13  14
ENDBRANCH   6   8
ENDBRANCH   5   6
ENDBRANCH   4   5
ENDBRANCH   3   4
ENDBRANCH   2   3
ENDBRANCH   1   2
BRANCH   1  73
ATOM     73  C   UNL A   1      40.566  21.906  26.177  1.00  0.00     0.188 C 
BRANCH  73  74
ATOM     74  O   UNL A   1      39.249  22.451  26.163  1.00  0.00    -0.376 OA
BRANCH  74  75
ATOM     75  C   UNL A   1      38.268  21.766  25.399  1.00  0.00     0.202 C 
BRANCH  75  76
ATOM     76  C   UNL A   1      36.810  22.223  25.526  1.00  0.00     0.261 C 
BRANCH  76  77
ATOM     77  O   UNL A   1      36.541  23.542  25.024  1.00  0.00    -0.461 OA
BRANCH  77  78
ATOM     78  C   UNL A   1      35.636  23.635  24.013  1.00  0.00     0.335 C 
ATOM     79  O   UNL A   1      35.672  22.949  22.990  1.00  0.00    -0.249 OA
BRANCH  78  80
ATOM     80  C   UNL A   1      34.567  24.724  24.236  1.00  0.00     0.232 C 
ATOM     81  C   UNL A   1      33.804  25.232  23.026  1.00  0.00     0.087 C 
ATOM     82  O   UNL A   1      33.585  24.298  25.195  1.00  0.00    -0.355 OA
ATOM     83  C   UNL A   1      32.398  24.662  23.166  1.00  0.00     0.123 C 
ATOM     84  C   UNL A   1      32.462  23.777  24.459  1.00  0.00     0.186 C 
BRANCH  83  85
ATOM     85  C   UNL A   1      31.342  25.781  23.075  1.00  0.00    -0.013 A 
ATOM     86  C   UNL A   1      30.133  25.610  23.783  1.00  0.00     0.010 A 
ATOM     87  C   UNL A   1      31.482  26.987  22.377  1.00  0.00     0.010 A 
ATOM     88  C   UNL A   1      29.189  26.633  23.930  1.00  0.00     0.039 A 
ATOM     89  C   UNL A   1      30.500  27.990  22.480  1.00  0.00     0.039 A 
ATOM     90  C   UNL A   1      29.403  27.838  23.308  1.00  0.00     0.123 A 
ATOM     91  F   UNL A   1      28.542  28.848  23.479  1.00  0.00    -0.207 F 
ENDBRANCH  83  85
BRANCH  83  92
ATOM     92  O   UNL A   1      32.197  23.875  21.996  1.00  0.00    -0.382 OA
ATOM     93  H   UNL A   1      32.367  22.942  22.201  1.00  0.00     0.212 HD
ENDBRANCH  83  92
BRANCH  84  94
ATOM     94  C   UNL A   1      32.634  22.246  24.408  1.00  0.00    -0.016 A 
ATOM     95  C   UNL A   1      33.031  21.448  25.496  1.00  0.00     0.009 A 
ATOM     96  C   UNL A   1      32.284  21.572  23.218  1.00  0.00     0.009 A 
ATOM     97  C   UNL A   1      33.059  20.051  25.419  1.00  0.00     0.039 A 
ATOM     98  C   UNL A   1      32.312  20.172  23.138  1.00  0.00     0.039 A 
ATOM     99  C   UNL A   1      32.689  19.424  24.243  1.00  0.00     0.123 A 
ATOM    100  F   UNL A   1      32.677  18.087  24.185  1.00  0.00    -0.207 F 
ENDBRANCH  84  94
ENDBRANCH  78  80
ENDBRANCH  77  78
ENDBRANCH  76  77
ENDBRANCH  75  76
ENDBRANCH  74  75
ENDBRANCH  73  74
ENDBRANCH   1  73
TORSDOF 20
ENDMDL
MODEL 2
REMARK VINA RESULT:     -11.7      5.780     10.599
REMARK SMILES O=C(OCCOCCOCCOC(=O)[C@H]1C[C@](O)(c2ccc(F)cc2)[C@@H](c2ccc(F)cc2)O1)c1ccc(-c2c3nc(c(-c4c(F)c(F)c(F)c(F)c4F)c4ccc([nH]4)c(-c4c(F)c(F)c(F)c(F)c4F)c4nc(c(-c5c(F)c(F)c(F)c(F)c5F)c5ccc2[nH]5)C=C4)C=C3)cc1
REMARK SMILES IDX 7 1 6 2 5 3 4 4 3 5 2 6 1 7 35 8 36 9 97 10 37 11 96 12
REMARK SMILES IDX 38 13 39 14 40 15 90 16 41 17 95 18 89 19 91 20 42 21 94 22
REMARK SMILES IDX 88 23 87 24 43 26 75 27 55 28 74 29 56 30 59 31 73 32 92 33
REMARK SMILES IDX 57 34 58 35 72 37 93 38 60 39 44 40 45 41 53 42 46 43 47 44
REMARK SMILES IDX 51 45 54 46 48 47 49 48 52 49 50 50 76 51 77 52 85 53 78 54
REMARK SMILES IDX 79 55 83 56 86 57 80 58 81 59 84 60 82 61 61 62 62 63 70 64
REMARK SMILES IDX 63 65 64 66 68 67 71 68 65 69 66 70 69 71 67 72 8 73 9 74
REMARK SMILES IDX 10 75 11 76 12 77 13 78 14 79 15 80 16 81 34 82 17 83 26 84
REMARK SMILES IDX 19 85 20 86 25 87 21 88 24 89 22 90 23 91 18 92 27 94 28 95
REMARK SMILES IDX 33 96 29 97 32 98 30 99 31 100
REMARK H PARENT 91 25 59 36 18 93
REMARK Flexibility Score: inf
ROOT
ATOM      1  C   UNL A   1      31.982  28.694  26.837  1.00  0.00     0.188 C 
ENDROOT
BRANCH   1   2
ATOM      2  O   UNL A   1      31.716  30.071  26.531  1.00  0.00    -0.376 OA
BRANCH   2   3
ATOM      3  C   UNL A   1      32.545  30.985  27.266  1.00  0.00     0.202 C 
BRANCH   3   4
ATOM      4  C   UNL A   1      32.582  32.442  26.766  1.00  0.00     0.261 C 
BRANCH   4   5
ATOM      5  O   UNL A   1      32.196  33.405  27.752  1.00  0.00    -0.460 OA
BRANCH   5   6
ATOM      6  C   UNL A   1      32.984  34.231  28.478  1.00  0.00     0.338 C 
ATOM      7  O   UNL A   1      32.566  35.364  28.710  1.00  0.00    -0.246 OA
BRANCH   6   8
ATOM      8  C   UNL A   1      34.336  33.862  29.015  1.00  0.00     0.060 A 
ATOM      9  C   UNL A   1      35.584  34.233  28.500  1.00  0.00     0.016 A 
ATOM     10  C   UNL A   1      34.333  33.096  30.184  1.00  0.00     0.016 A 
ATOM     11  C   UNL A   1      36.795  33.836  29.085  1.00  0.00     0.010 A 
ATOM     12  C   UNL A   1      35.535  32.724  30.788  1.00  0.00     0.010 A 
ATOM     13  C   UNL A   1      36.791  33.096  30.251  1.00  0.00    -0.014 A 
BRANCH  13  14
ATOM     14  C   UNL A   1      38.014  32.540  30.895  1.00  0.00     0.031 A 
ATOM     15  C   UNL A   1      38.498  31.259  30.304  1.00  0.00     0.074 A 
ATOM     16  C   UNL A   1      38.683  33.099  31.931  1.00  0.00     0.049 A 
ATOM     17  N   UNL A   1      39.377  30.426  30.769  1.00  0.00    -0.248 NA
ATOM     18  C   UNL A   1      37.985  30.909  28.960  1.00  0.00     0.031 C 
ATOM     19  C   UNL A   1      38.713  34.510  32.275  1.00  0.00     0.029 A 
ATOM     20  N   UNL A   1      39.441  32.550  32.941  1.00  0.00    -0.354 N 
ATOM     21  C   UNL A   1      39.588  29.521  29.746  1.00  0.00     0.074 A 
ATOM     22  C   UNL A   1      38.646  29.795  28.694  1.00  0.00     0.031 C 
ATOM     23  C   UNL A   1      39.194  34.696  33.518  1.00  0.00     0.029 A 
ATOM     24  C   UNL A   1      39.626  33.408  34.025  1.00  0.00     0.049 A 
ATOM     25  H   UNL A   1      39.816  31.641  32.901  1.00  0.00     0.167 HD
ATOM     26  C   UNL A   1      40.580  28.614  29.681  1.00  0.00     0.037 A 
ATOM     27  C   UNL A   1      40.116  33.152  35.261  1.00  0.00     0.037 A 
ATOM     28  C   UNL A   1      41.497  28.426  30.768  1.00  0.00     0.049 A 
ATOM     29  C   UNL A   1      40.844  31.845  35.356  1.00  0.00     0.074 A 
ATOM     30  C   UNL A   1      42.563  27.560  30.855  1.00  0.00     0.029 A 
ATOM     31  N   UNL A   1      41.432  29.127  31.973  1.00  0.00    -0.354 N 
ATOM     32  N   UNL A   1      41.020  30.958  34.405  1.00  0.00    -0.248 NA
ATOM     33  C   UNL A   1      41.561  31.558  36.600  1.00  0.00     0.031 C 
ATOM     34  C   UNL A   1      43.094  27.679  32.142  1.00  0.00     0.029 A 
ATOM     35  C   UNL A   1      42.398  28.660  32.840  1.00  0.00     0.049 A 
ATOM     36  H   UNL A   1      40.791  29.847  32.173  1.00  0.00     0.167 HD
ATOM     37  C   UNL A   1      41.974  30.084  34.873  1.00  0.00     0.074 A 
ATOM     38  C   UNL A   1      42.263  30.489  36.240  1.00  0.00     0.031 C 
ATOM     39  C   UNL A   1      42.614  29.100  34.200  1.00  0.00     0.037 A 
BRANCH  26  40
ATOM     40  C   UNL A   1      40.710  27.821  28.421  1.00  0.00     0.064 A 
ATOM     41  C   UNL A   1      40.080  26.578  28.298  1.00  0.00     0.173 A 
ATOM     42  C   UNL A   1      41.449  28.297  27.323  1.00  0.00     0.173 A 
ATOM     43  F   UNL A   1      39.339  26.095  29.307  1.00  0.00    -0.203 F 
ATOM     44  C   UNL A   1      40.197  25.828  27.131  1.00  0.00     0.198 A 
ATOM     45  C   UNL A   1      41.547  27.554  26.150  1.00  0.00     0.198 A 
ATOM     46  F   UNL A   1      42.037  29.502  27.374  1.00  0.00    -0.203 F 
ATOM     47  F   UNL A   1      39.593  24.636  27.039  1.00  0.00    -0.200 F 
ATOM     48  C   UNL A   1      40.929  26.317  26.057  1.00  0.00     0.200 A 
ATOM     49  F   UNL A   1      42.224  28.044  25.101  1.00  0.00    -0.200 F 
ATOM     50  F   UNL A   1      41.028  25.599  24.930  1.00  0.00    -0.200 F 
ENDBRANCH  26  40
BRANCH  27  51
ATOM     51  C   UNL A   1      40.109  34.116  36.411  1.00  0.00     0.064 A 
ATOM     52  C   UNL A   1      39.209  33.979  37.482  1.00  0.00     0.173 A 
ATOM     53  C   UNL A   1      41.054  35.140  36.542  1.00  0.00     0.173 A 
ATOM     54  F   UNL A   1      38.454  32.883  37.577  1.00  0.00    -0.203 F 
ATOM     55  C   UNL A   1      39.143  34.895  38.538  1.00  0.00     0.198 A 
ATOM     56  C   UNL A   1      41.045  36.015  37.639  1.00  0.00     0.198 A 
ATOM     57  F   UNL A   1      42.030  35.260  35.633  1.00  0.00    -0.203 F 
ATOM     58  F   UNL A   1      38.211  34.755  39.492  1.00  0.00    -0.200 F 
ATOM     59  C   UNL A   1      40.066  35.917  38.616  1.00  0.00     0.200 A 
ATOM     60  F   UNL A   1      42.005  36.941  37.763  1.00  0.00    -0.200 F 
ATOM     61  F   UNL A   1      40.043  36.770  39.651  1.00  0.00    -0.200 F 
ENDBRANCH  27  51
BRANCH  39  62
ATOM     62  C   UNL A   1      43.712  28.412  34.932  1.00  0.00     0.064 A 
ATOM     63  C   UNL A   1      43.412  27.334  35.777  1.00  0.00     0.173 A 
ATOM     64  C   UNL A   1      45.014  28.917  34.911  1.00  0.00     0.173 A 
ATOM     65  F   UNL A   1      42.168  26.831  35.821  1.00  0.00    -0.203 F 
ATOM     66  C   UNL A   1      44.378  26.820  36.628  1.00  0.00     0.198 A 
ATOM     67  C   UNL A   1      45.987  28.375  35.737  1.00  0.00     0.198 A 
ATOM     68  F   UNL A   1      45.334  29.930  34.091  1.00  0.00    -0.203 F 
ATOM     69  F   UNL A   1      44.058  25.844  37.487  1.00  0.00    -0.200 F 
ATOM     70  C   UNL A   1      45.663  27.344  36.610  1.00  0.00     0.200 A 
ATOM     71  F   UNL A   1      47.234  28.861  35.704  1.00  0.00    -0.200 F 
ATOM     72  F   UNL A   1      46.592  26.859  37.444  1.00  0.00    -0.200 F 
ENDBRANCH  39  62
ENDBRANCH  13  14
ENDBRANCH   6   8
ENDBRANCH   5   6
ENDBRANCH   4   5
ENDBRANCH   3   4
ENDBRANCH   2   3
ENDBRANCH   1   2
BRANCH   1  73
ATOM     73  C   UNL A   1      31.733  27.718  25.683  1.00  0.00     0.188 C 
BRANCH  73  74
ATOM     74  O   UNL A   1      30.896  26.594  25.942  1.00  0.00    -0.376 OA
BRANCH  74  75
ATOM     75  C   UNL A   1      31.508  25.441  26.499  1.00  0.00     0.202 C 
BRANCH  75  76
ATOM     76  C   UNL A   1      33.020  25.270  26.318  1.00  0.00     0.261 C 
BRANCH  76  77
ATOM     77  O   UNL A   1      33.488  23.912  26.360  1.00  0.00    -0.461 OA
BRANCH  77  78
ATOM     78  C   UNL A   1      34.695  23.667  25.784  1.00  0.00     0.335 C 
ATOM     79  O   UNL A   1      35.533  24.536  25.540  1.00  0.00    -0.249 OA
BRANCH  78  80
ATOM     80  C   UNL A   1      34.915  22.186  25.412  1.00  0.00     0.232 C 
ATOM     81  C   UNL A   1      34.013  21.148  26.057  1.00  0.00     0.087 C 
ATOM     82  O   UNL A   1      34.823  21.988  23.991  1.00  0.00    -0.355 OA
ATOM     83  C   UNL A   1      33.086  20.673  24.944  1.00  0.00     0.123 C 
ATOM     84  C   UNL A   1      33.483  21.545  23.704  1.00  0.00     0.186 C 
BRANCH  83  85
ATOM     85  C   UNL A   1      33.120  19.136  24.823  1.00  0.00    -0.013 A 
ATOM     86  C   UNL A   1      32.826  18.374  25.974  1.00  0.00     0.010 A 
ATOM     87  C   UNL A   1      33.382  18.411  23.655  1.00  0.00     0.010 A 
ATOM     88  C   UNL A   1      32.640  16.988  25.939  1.00  0.00     0.039 A 
ATOM     89  C   UNL A   1      33.251  17.009  23.639  1.00  0.00     0.039 A 
ATOM     90  C   UNL A   1      32.813  16.318  24.753  1.00  0.00     0.123 A 
ATOM     91  F   UNL A   1      32.586  15.001  24.683  1.00  0.00    -0.207 F 
ENDBRANCH  83  85
BRANCH  83  92
ATOM     92  O   UNL A   1      31.771  20.973  25.403  1.00  0.00    -0.382 OA
ATOM     93  H   UNL A   1      31.720  20.822  26.360  1.00  0.00     0.212 HD
ENDBRANCH  83  92
BRANCH  84  94
ATOM     94  C   UNL A   1      32.683  22.791  23.277  1.00  0.00    -0.016 A 
ATOM     95  C   UNL A   1      31.331  23.022  23.591  1.00  0.00     0.009 A 
ATOM     96  C   UNL A   1      33.364  23.826  22.601  1.00  0.00     0.009 A 
ATOM     97  C   UNL A   1      30.691  24.224  23.273  1.00  0.00     0.039 A 
ATOM     98  C   UNL A   1      32.725  25.033  22.280  1.00  0.00     0.039 A 
ATOM     99  C   UNL A   1      31.397  25.224  22.630  1.00  0.00     0.123 A 
ATOM    100  F   UNL A   1      30.794  26.389  22.363  1.00  0.00    -0.207 F 
ENDBRANCH  84  94
ENDBRANCH  78  80
ENDBRANCH  77  78
ENDBRANCH  76  77
ENDBRANCH  75  76
ENDBRANCH  74  75
ENDBRANCH  73  74
ENDBRANCH   1  73
TORSDOF 20
ENDMDL
MODEL 3
REMARK VINA RESULT:     -11.6      1.805      7.678
REMARK SMILES O=C(OCCOCCOCCOC(=O)[C@H]1C[C@](O)(c2ccc(F)cc2)[C@@H](c2ccc(F)cc2)O1)c1ccc(-c2c3nc(c(-c4c(F)c(F)c(F)c(F)c4F)c4ccc([nH]4)c(-c4c(F)c(F)c(F)c(F)c4F)c4nc(c(-c5c(F)c(F)c(F)c(F)c5F)c5ccc2[nH]5)C=C4)C=C3)cc1
REMARK SMILES IDX 7 1 6 2 5 3 4 4 3 5 2 6 1 7 35 8 36 9 97 10 37 11 96 12
REMARK SMILES IDX 38 13 39 14 40 15 90 16 41 17 95 18 89 19 91 20 42 21 94 22
REMARK SMILES IDX 88 23 87 24 43 26 75 27 55 28 74 29 56 30 59 31 73 32 92 33
REMARK SMILES IDX 57 34 58 35 72 37 93 38 60 39 44 40 45 41 53 42 46 43 47 44
REMARK SMILES IDX 51 45 54 46 48 47 49 48 52 49 50 50 76 51 77 52 85 53 78 54
REMARK SMILES IDX 79 55 83 56 86 57 80 58 81 59 84 60 82 61 61 62 62 63 70 64
REMARK SMILES IDX 63 65 64 66 68 67 71 68 65 69 66 70 69 71 67 72 8 73 9 74
REMARK SMILES IDX 10 75 11 76 12 77 13 78 14 79 15 80 16 81 34 82 17 83 26 84
REMARK SMILES IDX 19 85 20 86 25 87 21 88 24 89 22 90 23 91 18 92 27 94 28 95
REMARK SMILES IDX 33 96 29 97 32 98 30 99 31 100
REMARK H PARENT 91 25 59 36 18 93
REMARK Flexibility Score: inf
ROOT
ATOM      1  C   UNL A   1      38.378  23.104  26.264  1.00  0.00     0.188 C 
ENDROOT
BRANCH   1   2
ATOM      2  O   UNL A   1      39.387  22.091  26.392  1.00  0.00    -0.376 OA
BRANCH   2   3
ATOM      3  C   UNL A   1      39.097  20.903  25.640  1.00  0.00     0.202 C 
BRANCH   3   4
ATOM      4  C   UNL A   1      39.708  19.588  26.160  1.00  0.00     0.261 C 
BRANCH   4   5
ATOM      5  O   UNL A   1      40.896  19.185  25.472  1.00  0.00    -0.460 OA
BRANCH   5   6
ATOM      6  C   UNL A   1      42.181  19.505  25.749  1.00  0.00     0.338 C 
ATOM      7  O   UNL A   1      43.048  18.671  25.490  1.00  0.00    -0.246 OA
BRANCH   6   8
ATOM      8  C   UNL A   1      42.622  20.805  26.355  1.00  0.00     0.060 A 
ATOM      9  C   UNL A   1      42.427  21.236  27.674  1.00  0.00     0.016 A 
ATOM     10  C   UNL A   1      43.342  21.653  25.509  1.00  0.00     0.016 A 
ATOM     11  C   UNL A   1      42.887  22.474  28.143  1.00  0.00     0.010 A 
ATOM     12  C   UNL A   1      43.828  22.873  25.979  1.00  0.00     0.010 A 
ATOM     13  C   UNL A   1      43.616  23.303  27.312  1.00  0.00    -0.014 A 
BRANCH  13  14
ATOM     14  C   UNL A   1      44.060  24.676  27.679  1.00  0.00     0.031 A 
ATOM     15  C   UNL A   1      42.952  25.657  27.869  1.00  0.00     0.074 A 
ATOM     16  C   UNL A   1      45.345  25.072  27.844  1.00  0.00     0.049 A 
ATOM     17  N   UNL A   1      43.013  26.949  27.965  1.00  0.00    -0.248 NA
ATOM     18  C   UNL A   1      41.595  25.099  28.065  1.00  0.00     0.031 C 
ATOM     19  C   UNL A   1      46.463  24.225  28.223  1.00  0.00     0.029 A 
ATOM     20  N   UNL A   1      45.965  26.288  27.667  1.00  0.00    -0.354 N 
ATOM     21  C   UNL A   1      41.738  27.341  28.324  1.00  0.00     0.074 A 
ATOM     22  C   UNL A   1      40.877  26.189  28.279  1.00  0.00     0.031 C 
ATOM     23  C   UNL A   1      47.637  24.841  27.994  1.00  0.00     0.029 A 
ATOM     24  C   UNL A   1      47.351  26.194  27.557  1.00  0.00     0.049 A 
ATOM     25  H   UNL A   1      45.475  27.141  27.624  1.00  0.00     0.167 HD
ATOM     26  C   UNL A   1      41.376  28.562  28.760  1.00  0.00     0.037 A 
ATOM     27  C   UNL A   1      48.256  27.124  27.169  1.00  0.00     0.037 A 
ATOM     28  C   UNL A   1      42.308  29.651  28.800  1.00  0.00     0.049 A 
ATOM     29  C   UNL A   1      47.714  28.522  27.168  1.00  0.00     0.074 A 
ATOM     30  C   UNL A   1      42.104  30.943  29.227  1.00  0.00     0.029 A 
ATOM     31  N   UNL A   1      43.634  29.558  28.377  1.00  0.00    -0.354 N 
ATOM     32  N   UNL A   1      46.496  28.906  27.469  1.00  0.00    -0.248 NA
ATOM     33  C   UNL A   1      48.660  29.614  26.936  1.00  0.00     0.031 C 
ATOM     34  C   UNL A   1      43.284  31.653  28.987  1.00  0.00     0.029 A 
ATOM     35  C   UNL A   1      44.243  30.792  28.464  1.00  0.00     0.049 A 
ATOM     36  H   UNL A   1      44.070  28.732  28.062  1.00  0.00     0.167 HD
ATOM     37  C   UNL A   1      46.552  30.273  27.604  1.00  0.00     0.074 A 
ATOM     38  C   UNL A   1      47.908  30.664  27.248  1.00  0.00     0.031 C 
ATOM     39  C   UNL A   1      45.597  31.111  28.070  1.00  0.00     0.037 A 
BRANCH  26  40
ATOM     40  C   UNL A   1      39.967  28.740  29.227  1.00  0.00     0.064 A 
ATOM     41  C   UNL A   1      38.976  29.172  28.340  1.00  0.00     0.173 A 
ATOM     42  C   UNL A   1      39.590  28.467  30.554  1.00  0.00     0.173 A 
ATOM     43  F   UNL A   1      39.280  29.416  27.056  1.00  0.00    -0.203 F 
ATOM     44  C   UNL A   1      37.661  29.345  28.764  1.00  0.00     0.198 A 
ATOM     45  C   UNL A   1      38.271  28.622  30.970  1.00  0.00     0.198 A 
ATOM     46  F   UNL A   1      40.494  28.009  31.434  1.00  0.00    -0.203 F 
ATOM     47  F   UNL A   1      36.730  29.770  27.898  1.00  0.00    -0.200 F 
ATOM     48  C   UNL A   1      37.309  29.069  30.078  1.00  0.00     0.200 A 
ATOM     49  F   UNL A   1      37.926  28.319  32.230  1.00  0.00    -0.200 F 
ATOM     50  F   UNL A   1      36.040  29.223  30.479  1.00  0.00    -0.200 F 
ENDBRANCH  26  40
BRANCH  27  51
ATOM     51  C   UNL A   1      49.713  26.862  26.919  1.00  0.00     0.064 A 
ATOM     52  C   UNL A   1      50.640  26.795  27.973  1.00  0.00     0.173 A 
ATOM     53  C   UNL A   1      50.219  26.568  25.649  1.00  0.00     0.173 A 
ATOM     54  F   UNL A   1      50.209  26.794  29.237  1.00  0.00    -0.203 F 
ATOM     55  C   UNL A   1      52.011  26.608  27.765  1.00  0.00     0.198 A 
ATOM     56  C   UNL A   1      51.581  26.301  25.441  1.00  0.00     0.198 A 
ATOM     57  F   UNL A   1      49.382  26.481  24.606  1.00  0.00    -0.203 F 
ATOM     58  F   UNL A   1      52.859  26.630  28.805  1.00  0.00    -0.200 F 
ATOM     59  C   UNL A   1      52.483  26.359  26.493  1.00  0.00     0.200 A 
ATOM     60  F   UNL A   1      52.017  25.959  24.222  1.00  0.00    -0.200 F 
ATOM     61  F   UNL A   1      53.788  26.128  26.289  1.00  0.00    -0.200 F 
ENDBRANCH  27  51
BRANCH  39  62
ATOM     62  C   UNL A   1      46.000  32.533  28.245  1.00  0.00     0.064 A 
ATOM     63  C   UNL A   1      46.505  32.963  29.481  1.00  0.00     0.173 A 
ATOM     64  C   UNL A   1      45.744  33.479  27.249  1.00  0.00     0.173 A 
ATOM     65  F   UNL A   1      46.757  32.077  30.457  1.00  0.00    -0.203 F 
ATOM     66  C   UNL A   1      46.683  34.314  29.733  1.00  0.00     0.198 A 
ATOM     67  C   UNL A   1      45.959  34.827  27.494  1.00  0.00     0.198 A 
ATOM     68  F   UNL A   1      45.287  33.090  26.049  1.00  0.00    -0.203 F 
ATOM     69  F   UNL A   1      47.089  34.718  30.944  1.00  0.00    -0.200 F 
ATOM     70  C   UNL A   1      46.406  35.244  28.741  1.00  0.00     0.200 A 
ATOM     71  F   UNL A   1      45.718  35.724  26.530  1.00  0.00    -0.200 F 
ATOM     72  F   UNL A   1      46.562  36.551  28.991  1.00  0.00    -0.200 F 
ENDBRANCH  39  62
ENDBRANCH  13  14
ENDBRANCH   6   8
ENDBRANCH   5   6
ENDBRANCH   4   5
ENDBRANCH   3   4
ENDBRANCH   2   3
ENDBRANCH   1   2
BRANCH   1  73
ATOM     73  C   UNL A   1      37.028  22.605  25.740  1.00  0.00     0.188 C 
BRANCH  73  74
ATOM     74  O   UNL A   1      36.231  23.524  24.997  1.00  0.00    -0.376 OA
BRANCH  74  75
ATOM     75  C   UNL A   1      36.186  23.357  23.588  1.00  0.00     0.202 C 
BRANCH  75  76
ATOM     76  C   UNL A   1      34.812  23.239  22.921  1.00  0.00     0.261 C 
BRANCH  76  77
ATOM     77  O   UNL A   1      34.249  24.480  22.465  1.00  0.00    -0.461 OA
BRANCH  77  78
ATOM     78  C   UNL A   1      32.897  24.602  22.552  1.00  0.00     0.335 C 
ATOM     79  O   UNL A   1      32.120  23.648  22.617  1.00  0.00    -0.249 OA
BRANCH  78  80
ATOM     80  C   UNL A   1      32.404  26.064  22.515  1.00  0.00     0.232 C 
ATOM     81  C   UNL A   1      30.936  26.313  22.214  1.00  0.00     0.087 C 
ATOM     82  O   UNL A   1      32.693  26.740  23.750  1.00  0.00    -0.355 OA
ATOM     83  C   UNL A   1      30.324  26.765  23.534  1.00  0.00     0.123 C 
ATOM     84  C   UNL A   1      31.505  26.681  24.562  1.00  0.00     0.186 C 
BRANCH  83  85
ATOM     85  C   UNL A   1      29.575  28.101  23.360  1.00  0.00    -0.013 A 
ATOM     86  C   UNL A   1      28.182  28.054  23.136  1.00  0.00     0.010 A 
ATOM     87  C   UNL A   1      30.143  29.377  23.441  1.00  0.00     0.010 A 
ATOM     88  C   UNL A   1      27.372  29.195  23.155  1.00  0.00     0.039 A 
ATOM     89  C   UNL A   1      29.330  30.526  23.400  1.00  0.00     0.039 A 
ATOM     90  C   UNL A   1      27.953  30.427  23.331  1.00  0.00     0.123 A 
ATOM     91  F   UNL A   1      27.193  31.527  23.408  1.00  0.00    -0.207 F 
ENDBRANCH  83  85
BRANCH  83  92
ATOM     92  O   UNL A   1      29.306  25.809  23.818  1.00  0.00    -0.382 OA
ATOM     93  H   UNL A   1      29.550  24.953  23.432  1.00  0.00     0.212 HD
ENDBRANCH  83  92
BRANCH  84  94
ATOM     94  C   UNL A   1      31.682  25.490  25.524  1.00  0.00    -0.016 A 
ATOM     95  C   UNL A   1      30.645  24.633  25.938  1.00  0.00     0.009 A 
ATOM     96  C   UNL A   1      32.985  25.166  25.959  1.00  0.00     0.009 A 
ATOM     97  C   UNL A   1      30.888  23.501  26.723  1.00  0.00     0.039 A 
ATOM     98  C   UNL A   1      33.232  24.032  26.746  1.00  0.00     0.039 A 
ATOM     99  C   UNL A   1      32.181  23.204  27.111  1.00  0.00     0.123 A 
ATOM    100  F   UNL A   1      32.416  22.098  27.827  1.00  0.00    -0.207 F 
ENDBRANCH  84  94
ENDBRANCH  78  80
ENDBRANCH  77  78
ENDBRANCH  76  77
ENDBRANCH  75  76
ENDBRANCH  74  75
ENDBRANCH  73  74
ENDBRANCH   1  73
TORSDOF 20
ENDMDL
