MODEL 1
REMARK VINA RESULT:     -10.6      0.000      0.000
REMARK SMILES CC(=O)c1ccc(N2/C(=[NH+]/C(=O)CCC(=O)OCCOCCOCCOC(=O)c3ccc(-c4c5nc(c(-c6c(F)c(F)c(F)c(F)c6F)c6ccc([nH]6)c(-c6c(F)c(F)c(F)c(F)c6F)c6nc(c(-c7c(F)c(F)c(F)c(F)c7F)c7ccc4[nH]7)C=C6)C=C5)cc3)S[C@H]3CS(=O)(=O)C[C@@H]32)cc1
REMARK SMILES IDX 21 1 20 2 19 3 18 4 17 5 15 6 16 7 14 8 13 9 11 10 8 11 9 12
REMARK SMILES IDX 99 13 10 14 92 15 93 16 98 17 94 19 95 20 12 21 96 22 97 23
REMARK SMILES IDX 7 24 4 25 5 26 101 27 6 28 100 29 2 30 1 31 3 32 22 33 23 34
REMARK SMILES IDX 24 35 25 36 26 37 27 38 28 39 29 40 30 41 91 42 31 43 90 44
REMARK SMILES IDX 32 45 33 46 34 47 84 48 35 49 89 50 83 51 85 52 36 53 88 54
REMARK SMILES IDX 82 55 81 56 37 58 69 59 49 60 68 61 50 62 53 63 67 64 86 65
REMARK SMILES IDX 51 66 52 67 66 69 87 70 54 71 38 72 39 73 47 74 40 75 41 76
REMARK SMILES IDX 45 77 48 78 42 79 43 80 46 81 44 82 70 83 71 84 79 85 72 86
REMARK SMILES IDX 73 87 77 88 80 89 74 90 75 91 78 92 76 93 55 94 56 95 64 96
REMARK SMILES IDX 57 97 58 98 62 99 65 100 59 101 60 102 63 103 61 104
REMARK H PARENT 10 18 85 57 53 68
REMARK Flexibility Score: inf
ROOT
ATOM      1  C   UNL A   1      42.856  18.813  26.155  1.00  0.00     0.188 C 
ENDROOT
BRANCH   1   2
ATOM      2  O   UNL A   1      41.505  18.574  25.769  1.00  0.00    -0.376 OA
BRANCH   2   3
ATOM      3  C   UNL A   1      40.560  19.591  26.115  1.00  0.00     0.202 C 
BRANCH   3   4
ATOM      4  C   UNL A   1      41.166  20.786  26.855  1.00  0.00     0.261 C 
BRANCH   4   5
ATOM      5  O   UNL A   1      41.101  21.984  26.069  1.00  0.00    -0.463 OA
BRANCH   5   6
ATOM      6  C   UNL A   1      40.809  23.137  26.714  1.00  0.00     0.306 C 
ATOM      7  O   UNL A   1      41.627  24.003  27.001  1.00  0.00    -0.252 OA
BRANCH   6   8
ATOM      8  C   UNL A   1      39.328  23.312  26.974  1.00  0.00     0.135 C 
BRANCH   8   9
ATOM      9  C   UNL A   1      38.385  22.943  25.833  1.00  0.00     0.139 C 
BRANCH   9  10
ATOM     10  C   UNL A   1      37.068  23.667  25.992  1.00  0.00     0.308 C 
ATOM     11  N   UNL A   1      33.596  22.954  25.028  1.00  0.00    -0.217 N 
ATOM     12  C   UNL A   1      34.851  23.529  25.289  1.00  0.00     0.319 C 
ATOM     13  C   UNL A   1      32.540  23.932  24.763  1.00  0.00     0.212 C 
ATOM     14  N   UNL A   1      35.958  22.951  25.602  1.00  0.00    -0.204 N 
ATOM     15  S   UNL A   1      34.662  25.319  25.131  1.00  0.00    -0.029 SA
ATOM     16  C   UNL A   1      32.945  25.143  25.606  1.00  0.00     0.120 C 
ATOM     17  C   UNL A   1      31.131  23.631  25.228  1.00  0.00     0.188 C 
ATOM     18  H   UNL A   1      36.013  21.969  25.561  1.00  0.00     0.316 HD
ATOM     19  C   UNL A   1      31.936  26.218  25.331  1.00  0.00     0.156 C 
ATOM     20  S   UNL A   1      30.407  25.271  25.346  1.00  0.00     0.155 S 
ATOM     21  O   UNL A   1      37.066  24.747  26.583  1.00  0.00    -0.247 OA
ATOM     22  O   UNL A   1      29.795  25.399  26.654  1.00  0.00    -0.229 OA
ATOM     23  O   UNL A   1      29.693  25.545  24.120  1.00  0.00    -0.229 OA
BRANCH  11  24
ATOM     24  C   UNL A   1      33.258  21.598  24.927  1.00  0.00     0.128 A 
ATOM     25  C   UNL A   1      32.799  18.800  24.685  1.00  0.00     0.018 A 
ATOM     26  C   UNL A   1      33.193  19.357  25.905  1.00  0.00     0.016 A 
ATOM     27  C   UNL A   1      32.666  19.641  23.575  1.00  0.00     0.016 A 
ATOM     28  C   UNL A   1      33.437  20.733  26.017  1.00  0.00     0.052 A 
ATOM     29  C   UNL A   1      32.884  21.027  23.705  1.00  0.00     0.052 A 
BRANCH  25  30
ATOM     30  C   UNL A   1      32.518  17.334  24.640  1.00  0.00     0.159 C 
ATOM     31  C   UNL A   1      33.335  16.448  23.734  1.00  0.00     0.093 C 
ATOM     32  O   UNL A   1      31.635  16.867  25.358  1.00  0.00    -0.295 OA
ENDBRANCH  25  30
ENDBRANCH  11  24
ENDBRANCH   9  10
ENDBRANCH   8   9
ENDBRANCH   6   8
ENDBRANCH   5   6
ENDBRANCH   4   5
ENDBRANCH   3   4
ENDBRANCH   2   3
ENDBRANCH   1   2
BRANCH   1  33
ATOM     33  C   UNL A   1      43.854  18.838  25.001  1.00  0.00     0.188 C 
BRANCH  33  34
ATOM     34  O   UNL A   1      45.117  18.258  25.265  1.00  0.00    -0.376 OA
BRANCH  34  35
ATOM     35  C   UNL A   1      46.239  19.140  25.319  1.00  0.00     0.202 C 
BRANCH  35  36
ATOM     36  C   UNL A   1      46.124  20.550  24.695  1.00  0.00     0.261 C 
BRANCH  36  37
ATOM     37  O   UNL A   1      46.421  21.670  25.552  1.00  0.00    -0.460 OA
BRANCH  37  38
ATOM     38  C   UNL A   1      45.389  22.445  25.957  1.00  0.00     0.338 C 
ATOM     39  O   UNL A   1      44.305  22.052  26.352  1.00  0.00    -0.246 OA
BRANCH  38  40
ATOM     40  C   UNL A   1      45.891  23.841  26.136  1.00  0.00     0.060 A 
ATOM     41  C   UNL A   1      45.887  24.680  25.012  1.00  0.00     0.016 A 
ATOM     42  C   UNL A   1      46.245  24.367  27.385  1.00  0.00     0.016 A 
ATOM     43  C   UNL A   1      46.271  26.019  25.121  1.00  0.00     0.010 A 
ATOM     44  C   UNL A   1      46.649  25.707  27.491  1.00  0.00     0.010 A 
ATOM     45  C   UNL A   1      46.699  26.530  26.352  1.00  0.00    -0.014 A 
BRANCH  45  46
ATOM     46  C   UNL A   1      47.401  27.841  26.383  1.00  0.00     0.031 A 
ATOM     47  C   UNL A   1      48.886  27.853  26.131  1.00  0.00     0.074 A 
ATOM     48  C   UNL A   1      46.745  29.004  26.552  1.00  0.00     0.049 A 
ATOM     49  N   UNL A   1      49.717  28.863  26.068  1.00  0.00    -0.248 NA
ATOM     50  C   UNL A   1      49.518  26.541  25.916  1.00  0.00     0.031 C 
ATOM     51  C   UNL A   1      45.306  29.142  26.764  1.00  0.00     0.029 A 
ATOM     52  N   UNL A   1      47.214  30.296  26.568  1.00  0.00    -0.354 N 
ATOM     53  C   UNL A   1      50.963  28.307  25.806  1.00  0.00     0.074 A 
ATOM     54  C   UNL A   1      50.789  26.873  25.762  1.00  0.00     0.031 C 
ATOM     55  C   UNL A   1      45.009  30.448  26.892  1.00  0.00     0.029 A 
ATOM     56  C   UNL A   1      46.238  31.236  26.797  1.00  0.00     0.049 A 
ATOM     57  H   UNL A   1      48.160  30.527  26.428  1.00  0.00     0.167 HD
ATOM     58  C   UNL A   1      52.147  28.936  25.607  1.00  0.00     0.037 A 
ATOM     59  C   UNL A   1      46.331  32.575  26.931  1.00  0.00     0.037 A 
ATOM     60  C   UNL A   1      52.327  30.362  25.656  1.00  0.00     0.049 A 
ATOM     61  C   UNL A   1      47.677  33.246  26.785  1.00  0.00     0.074 A 
ATOM     62  C   UNL A   1      53.485  31.092  25.454  1.00  0.00     0.029 A 
ATOM     63  N   UNL A   1      51.325  31.276  25.943  1.00  0.00    -0.354 N 
ATOM     64  N   UNL A   1      48.844  32.717  26.504  1.00  0.00    -0.248 NA
ATOM     65  C   UNL A   1      47.713  34.705  26.967  1.00  0.00     0.031 C 
ATOM     66  C   UNL A   1      53.198  32.442  25.682  1.00  0.00     0.029 A 
ATOM     67  C   UNL A   1      51.845  32.561  25.956  1.00  0.00     0.049 A 
ATOM     68  H   UNL A   1      50.382  31.046  26.112  1.00  0.00     0.167 HD
ATOM     69  C   UNL A   1      49.744  33.777  26.448  1.00  0.00     0.074 A 
ATOM     70  C   UNL A   1      48.982  34.982  26.701  1.00  0.00     0.031 C 
ATOM     71  C   UNL A   1      51.079  33.755  26.211  1.00  0.00     0.037 A 
BRANCH  58  72
ATOM     72  C   UNL A   1      53.351  28.074  25.348  1.00  0.00     0.064 A 
ATOM     73  C   UNL A   1      54.066  27.466  26.393  1.00  0.00     0.173 A 
ATOM     74  C   UNL A   1      53.779  27.833  24.035  1.00  0.00     0.173 A 
ATOM     75  F   UNL A   1      53.710  27.678  27.668  1.00  0.00    -0.203 F 
ATOM     76  C   UNL A   1      55.180  26.674  26.131  1.00  0.00     0.198 A 
ATOM     77  C   UNL A   1      54.873  27.012  23.775  1.00  0.00     0.198 A 
ATOM     78  F   UNL A   1      53.131  28.387  22.999  1.00  0.00    -0.203 F 
ATOM     79  F   UNL A   1      55.881  26.149  27.146  1.00  0.00    -0.200 F 
ATOM     80  C   UNL A   1      55.578  26.441  24.823  1.00  0.00     0.200 A 
ATOM     81  F   UNL A   1      55.247  26.777  22.510  1.00  0.00    -0.200 F 
ATOM     82  F   UNL A   1      56.647  25.671  24.573  1.00  0.00    -0.200 F 
ENDBRANCH  58  72
BRANCH  59  83
ATOM     83  C   UNL A   1      45.118  33.384  27.235  1.00  0.00     0.064 A 
ATOM     84  C   UNL A   1      44.348  33.956  26.212  1.00  0.00     0.173 A 
ATOM     85  C   UNL A   1      44.730  33.639  28.558  1.00  0.00     0.173 A 
ATOM     86  F   UNL A   1      44.695  33.772  24.929  1.00  0.00    -0.203 F 
ATOM     87  C   UNL A   1      43.251  34.767  26.501  1.00  0.00     0.198 A 
ATOM     88  C   UNL A   1      43.614  34.423  28.847  1.00  0.00     0.198 A 
ATOM     89  F   UNL A   1      45.438  33.128  29.576  1.00  0.00    -0.203 F 
ATOM     90  F   UNL A   1      42.569  35.349  25.506  1.00  0.00    -0.200 F 
ATOM     91  C   UNL A   1      42.881  34.994  27.818  1.00  0.00     0.200 A 
ATOM     92  F   UNL A   1      43.256  34.633  30.121  1.00  0.00    -0.200 F 
ATOM     93  F   UNL A   1      41.827  35.774  28.096  1.00  0.00    -0.200 F 
ENDBRANCH  59  83
BRANCH  71  94
ATOM     94  C   UNL A   1      51.799  35.076  26.178  1.00  0.00     0.064 A 
ATOM     95  C   UNL A   1      52.321  35.665  27.340  1.00  0.00     0.173 A 
ATOM     96  C   UNL A   1      51.988  35.753  24.962  1.00  0.00     0.173 A 
ATOM     97  F   UNL A   1      52.162  35.067  28.530  1.00  0.00    -0.203 F 
ATOM     98  C   UNL A   1      52.967  36.900  27.292  1.00  0.00     0.198 A 
ATOM     99  C   UNL A   1      52.668  36.968  24.912  1.00  0.00     0.198 A 
ATOM    100  F   UNL A   1      51.522  35.233  23.818  1.00  0.00    -0.203 F 
ATOM    101  F   UNL A   1      53.398  37.472  28.424  1.00  0.00    -0.200 F 
ATOM    102  C   UNL A   1      53.144  37.547  26.079  1.00  0.00     0.200 A 
ATOM    103  F   UNL A   1      52.855  37.582  23.736  1.00  0.00    -0.200 F 
ATOM    104  F   UNL A   1      53.766  38.733  26.035  1.00  0.00    -0.200 F 
ENDBRANCH  71  94
ENDBRANCH  45  46
ENDBRANCH  38  40
ENDBRANCH  37  38
ENDBRANCH  36  37
ENDBRANCH  35  36
ENDBRANCH  34  35
ENDBRANCH  33  34
ENDBRANCH   1  33
TORSDOF 21
ENDMDL
MODEL 2
REMARK VINA RESULT:     -10.3      7.072     11.386
REMARK SMILES CC(=O)c1ccc(N2/C(=[NH+]/C(=O)CCC(=O)OCCOCCOCCOC(=O)c3ccc(-c4c5nc(c(-c6c(F)c(F)c(F)c(F)c6F)c6ccc([nH]6)c(-c6c(F)c(F)c(F)c(F)c6F)c6nc(c(-c7c(F)c(F)c(F)c(F)c7F)c7ccc4[nH]7)C=C6)C=C5)cc3)S[C@H]3CS(=O)(=O)C[C@@H]32)cc1
REMARK SMILES IDX 21 1 20 2 19 3 18 4 17 5 15 6 16 7 14 8 13 9 11 10 8 11 9 12
REMARK SMILES IDX 99 13 10 14 92 15 93 16 98 17 94 19 95 20 12 21 96 22 97 23
REMARK SMILES IDX 7 24 4 25 5 26 101 27 6 28 100 29 2 30 1 31 3 32 22 33 23 34
REMARK SMILES IDX 24 35 25 36 26 37 27 38 28 39 29 40 30 41 91 42 31 43 90 44
REMARK SMILES IDX 32 45 33 46 34 47 84 48 35 49 89 50 83 51 85 52 36 53 88 54
REMARK SMILES IDX 82 55 81 56 37 58 69 59 49 60 68 61 50 62 53 63 67 64 86 65
REMARK SMILES IDX 51 66 52 67 66 69 87 70 54 71 38 72 39 73 47 74 40 75 41 76
REMARK SMILES IDX 45 77 48 78 42 79 43 80 46 81 44 82 70 83 71 84 79 85 72 86
REMARK SMILES IDX 73 87 77 88 80 89 74 90 75 91 78 92 76 93 55 94 56 95 64 96
REMARK SMILES IDX 57 97 58 98 62 99 65 100 59 101 60 102 63 103 61 104
REMARK H PARENT 10 18 85 57 53 68
REMARK Flexibility Score: inf
ROOT
ATOM      1  C   UNL A   1      40.850  23.574  26.737  1.00  0.00     0.188 C 
ENDROOT
BRANCH   1   2
ATOM      2  O   UNL A   1      41.106  23.963  28.085  1.00  0.00    -0.376 OA
BRANCH   2   3
ATOM      3  C   UNL A   1      41.355  25.355  28.302  1.00  0.00     0.202 C 
BRANCH   3   4
ATOM      4  C   UNL A   1      40.126  26.151  28.749  1.00  0.00     0.261 C 
BRANCH   4   5
ATOM      5  O   UNL A   1      39.736  27.119  27.764  1.00  0.00    -0.463 OA
BRANCH   5   6
ATOM      6  C   UNL A   1      39.159  28.259  28.208  1.00  0.00     0.306 C 
ATOM      7  O   UNL A   1      39.047  29.287  27.549  1.00  0.00    -0.252 OA
BRANCH   6   8
ATOM      8  C   UNL A   1      38.561  28.122  29.592  1.00  0.00     0.135 C 
BRANCH   8   9
ATOM      9  C   UNL A   1      37.583  29.209  30.025  1.00  0.00     0.139 C 
BRANCH   9  10
ATOM     10  C   UNL A   1      37.700  29.450  31.513  1.00  0.00     0.308 C 
ATOM     11  N   UNL A   1      37.057  32.314  33.722  1.00  0.00    -0.217 N 
ATOM     12  C   UNL A   1      37.573  31.187  33.062  1.00  0.00     0.319 C 
ATOM     13  C   UNL A   1      37.694  32.589  35.011  1.00  0.00     0.212 C 
ATOM     14  N   UNL A   1      37.200  30.658  31.948  1.00  0.00    -0.204 N 
ATOM     15  S   UNL A   1      38.912  30.534  34.085  1.00  0.00    -0.029 SA
ATOM     16  C   UNL A   1      38.088  31.203  35.526  1.00  0.00     0.120 C 
ATOM     17  C   UNL A   1      36.856  33.161  36.134  1.00  0.00     0.188 C 
ATOM     18  H   UNL A   1      36.539  31.131  31.392  1.00  0.00     0.316 HD
ATOM     19  C   UNL A   1      38.812  31.413  36.823  1.00  0.00     0.156 C 
ATOM     20  S   UNL A   1      37.786  32.673  37.593  1.00  0.00     0.155 S 
ATOM     21  O   UNL A   1      38.076  28.520  32.225  1.00  0.00    -0.247 OA
ATOM     22  O   UNL A   1      36.872  32.028  38.513  1.00  0.00    -0.229 OA
ATOM     23  O   UNL A   1      38.636  33.775  37.982  1.00  0.00    -0.229 OA
BRANCH  11  24
ATOM     24  C   UNL A   1      36.082  33.217  33.281  1.00  0.00     0.128 A 
ATOM     25  C   UNL A   1      34.078  35.122  32.609  1.00  0.00     0.018 A 
ATOM     26  C   UNL A   1      35.420  35.502  32.712  1.00  0.00     0.016 A 
ATOM     27  C   UNL A   1      33.734  33.794  32.875  1.00  0.00     0.016 A 
ATOM     28  C   UNL A   1      36.402  34.565  33.061  1.00  0.00     0.052 A 
ATOM     29  C   UNL A   1      34.732  32.853  33.197  1.00  0.00     0.052 A 
BRANCH  25  30
ATOM     30  C   UNL A   1      33.085  36.159  32.196  1.00  0.00     0.159 C 
ATOM     31  C   UNL A   1      32.535  36.146  30.793  1.00  0.00     0.093 C 
ATOM     32  O   UNL A   1      32.717  37.001  33.015  1.00  0.00    -0.295 OA
ENDBRANCH  25  30
ENDBRANCH  11  24
ENDBRANCH   9  10
ENDBRANCH   8   9
ENDBRANCH   6   8
ENDBRANCH   5   6
ENDBRANCH   4   5
ENDBRANCH   3   4
ENDBRANCH   2   3
ENDBRANCH   1   2
BRANCH   1  33
ATOM     33  C   UNL A   1      41.438  22.222  26.342  1.00  0.00     0.188 C 
BRANCH  33  34
ATOM     34  O   UNL A   1      42.474  22.258  25.379  1.00  0.00    -0.376 OA
BRANCH  34  35
ATOM     35  C   UNL A   1      43.099  23.521  25.142  1.00  0.00     0.202 C 
BRANCH  35  36
ATOM     36  C   UNL A   1      44.611  23.568  24.820  1.00  0.00     0.261 C 
BRANCH  36  37
ATOM     37  O   UNL A   1      45.456  24.271  25.752  1.00  0.00    -0.460 OA
BRANCH  37  38
ATOM     38  C   UNL A   1      46.031  25.422  25.337  1.00  0.00     0.338 C 
ATOM     39  O   UNL A   1      46.631  25.591  24.290  1.00  0.00    -0.246 OA
BRANCH  38  40
ATOM     40  C   UNL A   1      45.552  26.531  26.217  1.00  0.00     0.060 A 
ATOM     41  C   UNL A   1      46.511  27.213  26.980  1.00  0.00     0.016 A 
ATOM     42  C   UNL A   1      44.226  26.984  26.216  1.00  0.00     0.016 A 
ATOM     43  C   UNL A   1      46.147  28.308  27.768  1.00  0.00     0.010 A 
ATOM     44  C   UNL A   1      43.857  28.072  27.022  1.00  0.00     0.010 A 
ATOM     45  C   UNL A   1      44.810  28.717  27.830  1.00  0.00    -0.014 A 
BRANCH  45  46
ATOM     46  C   UNL A   1      44.394  29.659  28.903  1.00  0.00     0.031 A 
ATOM     47  C   UNL A   1      44.085  29.089  30.264  1.00  0.00     0.074 A 
ATOM     48  C   UNL A   1      44.359  30.991  28.716  1.00  0.00     0.049 A 
ATOM     49  N   UNL A   1      43.739  29.698  31.369  1.00  0.00    -0.248 NA
ATOM     50  C   UNL A   1      44.186  27.626  30.391  1.00  0.00     0.031 C 
ATOM     51  C   UNL A   1      44.673  31.680  27.468  1.00  0.00     0.029 A 
ATOM     52  N   UNL A   1      44.043  32.005  29.591  1.00  0.00    -0.354 N 
ATOM     53  C   UNL A   1      43.584  28.696  32.318  1.00  0.00     0.074 A 
ATOM     54  C   UNL A   1      43.833  27.437  31.652  1.00  0.00     0.031 C 
ATOM     55  C   UNL A   1      44.531  33.005  27.654  1.00  0.00     0.029 A 
ATOM     56  C   UNL A   1      44.092  33.257  29.027  1.00  0.00     0.049 A 
ATOM     57  H   UNL A   1      43.805  31.849  30.533  1.00  0.00     0.167 HD
ATOM     58  C   UNL A   1      43.274  28.812  33.632  1.00  0.00     0.037 A 
ATOM     59  C   UNL A   1      43.799  34.463  29.555  1.00  0.00     0.037 A 
ATOM     60  C   UNL A   1      43.019  30.061  34.298  1.00  0.00     0.049 A 
ATOM     61  C   UNL A   1      43.377  34.559  31.003  1.00  0.00     0.074 A 
ATOM     62  C   UNL A   1      42.711  30.281  35.629  1.00  0.00     0.029 A 
ATOM     63  N   UNL A   1      43.026  31.303  33.680  1.00  0.00    -0.354 N 
ATOM     64  N   UNL A   1      43.265  33.610  31.902  1.00  0.00    -0.248 NA
ATOM     65  C   UNL A   1      43.048  35.900  31.510  1.00  0.00     0.031 C 
ATOM     66  C   UNL A   1      42.469  31.648  35.803  1.00  0.00     0.029 A 
ATOM     67  C   UNL A   1      42.696  32.289  34.597  1.00  0.00     0.049 A 
ATOM     68  H   UNL A   1      43.237  31.460  32.731  1.00  0.00     0.167 HD
ATOM     69  C   UNL A   1      42.883  34.240  33.081  1.00  0.00     0.074 A 
ATOM     70  C   UNL A   1      42.805  35.656  32.790  1.00  0.00     0.031 C 
ATOM     71  C   UNL A   1      42.619  33.697  34.296  1.00  0.00     0.037 A 
BRANCH  58  72
ATOM     72  C   UNL A   1      43.162  27.543  34.429  1.00  0.00     0.064 A 
ATOM     73  C   UNL A   1      44.276  26.961  35.056  1.00  0.00     0.173 A 
ATOM     74  C   UNL A   1      41.919  26.916  34.589  1.00  0.00     0.173 A 
ATOM     75  F   UNL A   1      45.492  27.510  34.920  1.00  0.00    -0.203 F 
ATOM     76  C   UNL A   1      44.151  25.783  35.787  1.00  0.00     0.198 A 
ATOM     77  C   UNL A   1      41.792  25.757  35.350  1.00  0.00     0.198 A 
ATOM     78  F   UNL A   1      40.821  27.431  34.013  1.00  0.00    -0.203 F 
ATOM     79  F   UNL A   1      45.236  25.215  36.331  1.00  0.00    -0.200 F 
ATOM     80  C   UNL A   1      42.908  25.187  35.941  1.00  0.00     0.200 A 
ATOM     81  F   UNL A   1      40.587  25.190  35.509  1.00  0.00    -0.200 F 
ATOM     82  F   UNL A   1      42.788  24.057  36.652  1.00  0.00    -0.200 F 
ENDBRANCH  58  72
BRANCH  59  83
ATOM     83  C   UNL A   1      43.877  35.689  28.714  1.00  0.00     0.064 A 
ATOM     84  C   UNL A   1      42.755  36.176  28.027  1.00  0.00     0.173 A 
ATOM     85  C   UNL A   1      45.088  36.375  28.543  1.00  0.00     0.173 A 
ATOM     86  F   UNL A   1      41.579  35.537  28.128  1.00  0.00    -0.203 F 
ATOM     87  C   UNL A   1      42.846  37.286  27.188  1.00  0.00     0.198 A 
ATOM     88  C   UNL A   1      45.173  37.505  27.731  1.00  0.00     0.198 A 
ATOM     89  F   UNL A   1      46.196  35.947  29.166  1.00  0.00    -0.203 F 
ATOM     90  F   UNL A   1      41.773  37.692  26.498  1.00  0.00    -0.200 F 
ATOM     91  C   UNL A   1      44.053  37.953  27.046  1.00  0.00     0.200 A 
ATOM     92  F   UNL A   1      46.339  38.151  27.604  1.00  0.00    -0.200 F 
ATOM     93  F   UNL A   1      44.142  39.020  26.239  1.00  0.00    -0.200 F 
ENDBRANCH  59  83
BRANCH  71  94
ATOM     94  C   UNL A   1      42.254  34.638  35.412  1.00  0.00     0.064 A 
ATOM     95  C   UNL A   1      43.203  35.089  36.342  1.00  0.00     0.173 A 
ATOM     96  C   UNL A   1      40.939  35.113  35.541  1.00  0.00     0.173 A 
ATOM     97  F   UNL A   1      44.473  34.660  36.272  1.00  0.00    -0.203 F 
ATOM     98  C   UNL A   1      42.842  35.944  37.382  1.00  0.00     0.198 A 
ATOM     99  C   UNL A   1      40.589  35.999  36.558  1.00  0.00     0.198 A 
ATOM    100  F   UNL A   1      39.992  34.727  34.674  1.00  0.00    -0.203 F 
ATOM    101  F   UNL A   1      43.752  36.307  38.295  1.00  0.00    -0.200 F 
ATOM    102  C   UNL A   1      41.538  36.402  37.485  1.00  0.00     0.200 A 
ATOM    103  F   UNL A   1      39.332  36.455  36.644  1.00  0.00    -0.200 F 
ATOM    104  F   UNL A   1      41.192  37.226  38.484  1.00  0.00    -0.200 F 
ENDBRANCH  71  94
ENDBRANCH  45  46
ENDBRANCH  38  40
ENDBRANCH  37  38
ENDBRANCH  36  37
ENDBRANCH  35  36
ENDBRANCH  34  35
ENDBRANCH  33  34
ENDBRANCH   1  33
TORSDOF 21
ENDMDL
MODEL 3
REMARK VINA RESULT:      -9.9      0.778      6.970
REMARK SMILES CC(=O)c1ccc(N2/C(=[NH+]/C(=O)CCC(=O)OCCOCCOCCOC(=O)c3ccc(-c4c5nc(c(-c6c(F)c(F)c(F)c(F)c6F)c6ccc([nH]6)c(-c6c(F)c(F)c(F)c(F)c6F)c6nc(c(-c7c(F)c(F)c(F)c(F)c7F)c7ccc4[nH]7)C=C6)C=C5)cc3)S[C@H]3CS(=O)(=O)C[C@@H]32)cc1
REMARK SMILES IDX 21 1 20 2 19 3 18 4 17 5 15 6 16 7 14 8 13 9 11 10 8 11 9 12
REMARK SMILES IDX 99 13 10 14 92 15 93 16 98 17 94 19 95 20 12 21 96 22 97 23
REMARK SMILES IDX 7 24 4 25 5 26 101 27 6 28 100 29 2 30 1 31 3 32 22 33 23 34
REMARK SMILES IDX 24 35 25 36 26 37 27 38 28 39 29 40 30 41 91 42 31 43 90 44
REMARK SMILES IDX 32 45 33 46 34 47 84 48 35 49 89 50 83 51 85 52 36 53 88 54
REMARK SMILES IDX 82 55 81 56 37 58 69 59 49 60 68 61 50 62 53 63 67 64 86 65
REMARK SMILES IDX 51 66 52 67 66 69 87 70 54 71 38 72 39 73 47 74 40 75 41 76
REMARK SMILES IDX 45 77 48 78 42 79 43 80 46 81 44 82 70 83 71 84 79 85 72 86
REMARK SMILES IDX 73 87 77 88 80 89 74 90 75 91 78 92 76 93 55 94 56 95 64 96
REMARK SMILES IDX 57 97 58 98 62 99 65 100 59 101 60 102 63 103 61 104
REMARK H PARENT 10 18 85 57 53 68
REMARK Flexibility Score: inf
ROOT
ATOM      1  C   UNL A   1      43.616  18.516  25.748  1.00  0.00     0.188 C 
ENDROOT
BRANCH   1   2
ATOM      2  O   UNL A   1      42.193  18.442  25.758  1.00  0.00    -0.376 OA
BRANCH   2   3
ATOM      3  C   UNL A   1      41.510  19.519  26.406  1.00  0.00     0.202 C 
BRANCH   3   4
ATOM      4  C   UNL A   1      42.141  20.894  26.175  1.00  0.00     0.261 C 
BRANCH   4   5
ATOM      5  O   UNL A   1      41.162  21.866  25.781  1.00  0.00    -0.463 OA
BRANCH   5   6
ATOM      6  C   UNL A   1      40.917  22.884  26.639  1.00  0.00     0.306 C 
ATOM      7  O   UNL A   1      41.770  23.638  27.089  1.00  0.00    -0.252 OA
BRANCH   6   8
ATOM      8  C   UNL A   1      39.442  23.074  26.926  1.00  0.00     0.135 C 
BRANCH   8   9
ATOM      9  C   UNL A   1      38.473  22.681  25.815  1.00  0.00     0.139 C 
BRANCH   9  10
ATOM     10  C   UNL A   1      37.174  23.438  25.967  1.00  0.00     0.308 C 
ATOM     11  N   UNL A   1      33.681  22.786  25.035  1.00  0.00    -0.217 N 
ATOM     12  C   UNL A   1      34.950  23.336  25.278  1.00  0.00     0.319 C 
ATOM     13  C   UNL A   1      32.646  23.782  24.757  1.00  0.00     0.212 C 
ATOM     14  N   UNL A   1      36.046  22.739  25.596  1.00  0.00    -0.204 N 
ATOM     15  S   UNL A   1      34.801  25.127  25.087  1.00  0.00    -0.029 SA
ATOM     16  C   UNL A   1      33.083  25.000  25.574  1.00  0.00     0.120 C 
ATOM     17  C   UNL A   1      31.233  23.522  25.234  1.00  0.00     0.188 C 
ATOM     18  H   UNL A   1      36.078  21.756  25.575  1.00  0.00     0.316 HD
ATOM     19  C   UNL A   1      32.097  26.092  25.283  1.00  0.00     0.156 C 
ATOM     20  S   UNL A   1      30.547  25.181  25.324  1.00  0.00     0.155 S 
ATOM     21  O   UNL A   1      37.199  24.528  26.536  1.00  0.00    -0.247 OA
ATOM     22  O   UNL A   1      29.946  25.349  26.632  1.00  0.00    -0.229 OA
ATOM     23  O   UNL A   1      29.833  25.447  24.097  1.00  0.00    -0.229 OA
BRANCH  11  24
ATOM     24  C   UNL A   1      33.311  21.436  24.962  1.00  0.00     0.128 A 
ATOM     25  C   UNL A   1      32.787  18.646  24.774  1.00  0.00     0.018 A 
ATOM     26  C   UNL A   1      33.214  19.214  25.978  1.00  0.00     0.016 A 
ATOM     27  C   UNL A   1      32.654  19.470  23.653  1.00  0.00     0.016 A 
ATOM     28  C   UNL A   1      33.490  20.585  26.063  1.00  0.00     0.052 A 
ATOM     29  C   UNL A   1      32.905  20.854  23.756  1.00  0.00     0.052 A 
BRANCH  25  30
ATOM     30  C   UNL A   1      32.474  17.185  24.759  1.00  0.00     0.159 C 
ATOM     31  C   UNL A   1      33.317  16.253  23.928  1.00  0.00     0.093 C 
ATOM     32  O   UNL A   1      31.541  16.762  25.440  1.00  0.00    -0.295 OA
ENDBRANCH  25  30
ENDBRANCH  11  24
ENDBRANCH   9  10
ENDBRANCH   8   9
ENDBRANCH   6   8
ENDBRANCH   5   6
ENDBRANCH   4   5
ENDBRANCH   3   4
ENDBRANCH   2   3
ENDBRANCH   1   2
BRANCH   1  33
ATOM     33  C   UNL A   1      44.228  18.830  24.386  1.00  0.00     0.188 C 
BRANCH  33  34
ATOM     34  O   UNL A   1      45.637  18.719  24.302  1.00  0.00    -0.376 OA
BRANCH  34  35
ATOM     35  C   UNL A   1      46.406  19.818  24.791  1.00  0.00     0.202 C 
BRANCH  35  36
ATOM     36  C   UNL A   1      45.739  21.207  24.928  1.00  0.00     0.261 C 
BRANCH  36  37
ATOM     37  O   UNL A   1      46.426  22.185  25.734  1.00  0.00    -0.460 OA
BRANCH  37  38
ATOM     38  C   UNL A   1      45.677  23.003  26.508  1.00  0.00     0.338 C 
ATOM     39  O   UNL A   1      44.788  22.660  27.268  1.00  0.00    -0.246 OA
BRANCH  38  40
ATOM     40  C   UNL A   1      46.313  24.355  26.516  1.00  0.00     0.060 A 
ATOM     41  C   UNL A   1      46.273  25.097  25.326  1.00  0.00     0.016 A 
ATOM     42  C   UNL A   1      46.829  24.946  27.677  1.00  0.00     0.016 A 
ATOM     43  C   UNL A   1      46.781  26.398  25.280  1.00  0.00     0.010 A 
ATOM     44  C   UNL A   1      47.356  26.245  27.626  1.00  0.00     0.010 A 
ATOM     45  C   UNL A   1      47.367  26.965  26.418  1.00  0.00    -0.014 A 
BRANCH  45  46
ATOM     46  C   UNL A   1      48.179  28.202  26.269  1.00  0.00     0.031 A 
ATOM     47  C   UNL A   1      47.493  29.527  26.476  1.00  0.00     0.074 A 
ATOM     48  C   UNL A   1      49.503  28.168  26.030  1.00  0.00     0.049 A 
ATOM     49  N   UNL A   1      47.984  30.740  26.439  1.00  0.00    -0.248 NA
ATOM     50  C   UNL A   1      46.052  29.472  26.770  1.00  0.00     0.031 C 
ATOM     51  C   UNL A   1      50.301  26.958  25.851  1.00  0.00     0.029 A 
ATOM     52  N   UNL A   1      50.412  29.192  25.904  1.00  0.00    -0.354 N 
ATOM     53  C   UNL A   1      46.915  31.586  26.706  1.00  0.00     0.074 A 
ATOM     54  C   UNL A   1      45.743  30.755  26.863  1.00  0.00     0.031 C 
ATOM     55  C   UNL A   1      51.581  27.309  25.633  1.00  0.00     0.029 A 
ATOM     56  C   UNL A   1      51.690  28.768  25.633  1.00  0.00     0.049 A 
ATOM     57  H   UNL A   1      50.169  30.141  25.999  1.00  0.00     0.167 HD
ATOM     58  C   UNL A   1      46.911  32.936  26.823  1.00  0.00     0.037 A 
ATOM     59  C   UNL A   1      52.812  29.478  25.396  1.00  0.00     0.037 A 
ATOM     60  C   UNL A   1      48.073  33.769  26.661  1.00  0.00     0.049 A 
ATOM     61  C   UNL A   1      52.765  30.987  25.452  1.00  0.00     0.074 A 
ATOM     62  C   UNL A   1      48.170  35.144  26.774  1.00  0.00     0.029 A 
ATOM     63  N   UNL A   1      49.338  33.305  26.335  1.00  0.00    -0.354 N 
ATOM     64  N   UNL A   1      51.758  31.778  25.739  1.00  0.00    -0.248 NA
ATOM     65  C   UNL A   1      54.017  31.700  25.160  1.00  0.00     0.031 C 
ATOM     66  C   UNL A   1      49.479  35.519  26.454  1.00  0.00     0.029 A 
ATOM     67  C   UNL A   1      50.216  34.371  26.211  1.00  0.00     0.049 A 
ATOM     68  H   UNL A   1      49.579  32.358  26.211  1.00  0.00     0.167 HD
ATOM     69  C   UNL A   1      52.260  33.074  25.688  1.00  0.00     0.074 A 
ATOM     70  C   UNL A   1      53.668  32.962  25.368  1.00  0.00     0.031 C 
ATOM     71  C   UNL A   1      51.615  34.250  25.889  1.00  0.00     0.037 A 
BRANCH  58  72
ATOM     72  C   UNL A   1      45.594  33.599  27.111  1.00  0.00     0.064 A 
ATOM     73  C   UNL A   1      44.717  33.985  26.084  1.00  0.00     0.173 A 
ATOM     74  C   UNL A   1      45.191  33.828  28.435  1.00  0.00     0.173 A 
ATOM     75  F   UNL A   1      45.061  33.806  24.800  1.00  0.00    -0.203 F 
ATOM     76  C   UNL A   1      43.503  34.602  26.373  1.00  0.00     0.198 A 
ATOM     77  C   UNL A   1      43.961  34.413  28.721  1.00  0.00     0.198 A 
ATOM     78  F   UNL A   1      45.989  33.477  29.455  1.00  0.00    -0.203 F 
ATOM     79  F   UNL A   1      42.707  35.012  25.375  1.00  0.00    -0.200 F 
ATOM     80  C   UNL A   1      43.122  34.807  27.690  1.00  0.00     0.200 A 
ATOM     81  F   UNL A   1      43.589  34.598  29.995  1.00  0.00    -0.200 F 
ATOM     82  F   UNL A   1      41.948  35.394  27.967  1.00  0.00    -0.200 F 
ENDBRANCH  58  72
BRANCH  59  83
ATOM     83  C   UNL A   1      54.086  28.779  25.066  1.00  0.00     0.064 A 
ATOM     84  C   UNL A   1      55.021  28.459  26.062  1.00  0.00     0.173 A 
ATOM     85  C   UNL A   1      54.414  28.456  23.742  1.00  0.00     0.173 A 
ATOM     86  F   UNL A   1      54.772  28.777  27.342  1.00  0.00    -0.203 F 
ATOM     87  C   UNL A   1      56.241  27.863  25.743  1.00  0.00     0.198 A 
ATOM     88  C   UNL A   1      55.619  27.831  23.426  1.00  0.00     0.198 A 
ATOM     89  F   UNL A   1      53.562  28.750  22.748  1.00  0.00    -0.203 F 
ATOM     90  F   UNL A   1      57.139  27.624  26.707  1.00  0.00    -0.200 F 
ATOM     91  C   UNL A   1      56.536  27.544  24.427  1.00  0.00     0.200 A 
ATOM     92  F   UNL A   1      55.896  27.516  22.154  1.00  0.00    -0.200 F 
ATOM     93  F   UNL A   1      57.708  26.972  24.119  1.00  0.00    -0.200 F 
ENDBRANCH  59  83
BRANCH  71  94
ATOM     94  C   UNL A   1      52.431  35.512  25.801  1.00  0.00     0.064 A 
ATOM     95  C   UNL A   1      53.052  36.073  26.928  1.00  0.00     0.173 A 
ATOM     96  C   UNL A   1      52.612  36.158  24.568  1.00  0.00     0.173 A 
ATOM     97  F   UNL A   1      52.906  35.502  28.134  1.00  0.00    -0.203 F 
ATOM     98  C   UNL A   1      53.787  37.254  26.830  1.00  0.00     0.198 A 
ATOM     99  C   UNL A   1      53.379  37.316  24.467  1.00  0.00     0.198 A 
ATOM    100  F   UNL A   1      52.053  35.661  23.455  1.00  0.00    -0.203 F 
ATOM    101  F   UNL A   1      54.314  37.804  27.932  1.00  0.00    -0.200 F 
ATOM    102  C   UNL A   1      53.954  37.870  25.601  1.00  0.00     0.200 A 
ATOM    103  F   UNL A   1      53.555  37.900  23.274  1.00  0.00    -0.200 F 
ATOM    104  F   UNL A   1      54.662  39.005  25.508  1.00  0.00    -0.200 F 
ENDBRANCH  71  94
ENDBRANCH  45  46
ENDBRANCH  38  40
ENDBRANCH  37  38
ENDBRANCH  36  37
ENDBRANCH  35  36
ENDBRANCH  34  35
ENDBRANCH  33  34
ENDBRANCH   1  33
TORSDOF 21
ENDMDL
