MODEL 1
REMARK VINA RESULT:     -11.5      0.000      0.000
REMARK SMILES Cc1nn(C)cc1CNC(=O)[C@H]1[C@@H]2CC[C@@H](C2)[C@@H]1C(=O)OCCOCCOCCOC(=O)c1ccc(-c2c3nc(c(-c4c(F)c(F)c(F)c(F)c4F)c4ccc([nH]4)c(-c4c(F)c(F)c(F)c(F)c4F)c4nc(c(-c5c(F)c(F)c(F)c(F)c5F)c5ccc2[nH]5)C=C4)C=C3)cc1
REMARK SMILES IDX 25 1 24 2 23 3 22 4 21 5 19 6 20 7 18 8 12 9 13 10 14 11
REMARK SMILES IDX 17 12 16 13 15 14 10 15 9 16 11 18 8 19 7 20 1 21 2 22 3 23
REMARK SMILES IDX 4 24 6 25 5 26 26 27 27 28 28 29 29 30 30 31 31 32 32 33
REMARK SMILES IDX 33 34 34 35 95 36 35 37 94 38 36 39 37 40 38 41 88 42 39 43
REMARK SMILES IDX 93 44 87 45 89 46 40 47 92 48 86 49 85 50 41 52 73 53 53 54
REMARK SMILES IDX 72 55 54 56 57 57 71 58 90 59 55 60 56 61 70 63 91 64 58 65
REMARK SMILES IDX 42 66 43 67 51 68 44 69 45 70 49 71 52 72 46 73 47 74 50 75
REMARK SMILES IDX 48 76 74 77 75 78 83 79 76 80 77 81 81 82 84 83 78 84 79 85
REMARK SMILES IDX 82 86 80 87 59 88 60 89 68 90 61 91 62 92 66 93 69 94 63 95
REMARK SMILES IDX 64 96 67 97 65 98
REMARK H PARENT 9 17 89 51 57 62
REMARK Flexibility Score: inf
ROOT
ATOM      1  C   UNL A   1      39.690  21.933  26.757  1.00  0.00     0.188 C 
ENDROOT
BRANCH   1   2
ATOM      2  O   UNL A   1      38.647  22.409  25.916  1.00  0.00    -0.376 OA
BRANCH   2   3
ATOM      3  C   UNL A   1      37.899  21.510  25.112  1.00  0.00     0.202 C 
BRANCH   3   4
ATOM      4  C   UNL A   1      36.851  22.113  24.166  1.00  0.00     0.261 C 
BRANCH   4   5
ATOM      5  O   UNL A   1      35.966  23.145  24.663  1.00  0.00    -0.463 OA
BRANCH   5   6
ATOM      6  C   UNL A   1      34.821  23.301  23.956  1.00  0.00     0.310 C 
ATOM      7  O   UNL A   1      34.728  23.983  22.941  1.00  0.00    -0.252 OA
BRANCH   6   8
ATOM      8  C   UNL A   1      33.612  22.574  24.499  1.00  0.00     0.115 C 
ATOM      9  C   UNL A   1      32.420  23.407  25.003  1.00  0.00     0.096 C 
ATOM     10  C   UNL A   1      31.890  22.510  26.176  1.00  0.00     0.002 C 
ATOM     11  C   UNL A   1      32.755  22.754  27.417  1.00  0.00     0.005 C 
ATOM     12  C   UNL A   1      32.357  21.094  25.799  1.00  0.00     0.009 C 
ATOM     13  C   UNL A   1      33.815  21.529  25.616  1.00  0.00     0.004 C 
ATOM     14  C   UNL A   1      34.103  22.159  26.999  1.00  0.00     0.005 C 
BRANCH   9  15
ATOM     15  C   UNL A   1      31.378  23.540  23.897  1.00  0.00     0.224 C 
ATOM     16  N   UNL A   1      30.466  24.549  23.935  1.00  0.00    -0.352 N 
ATOM     17  H   UNL A   1      29.925  24.642  23.118  1.00  0.00     0.163 HD
ATOM     18  O   UNL A   1      31.354  22.781  22.927  1.00  0.00    -0.275 OA
BRANCH  16  19
ATOM     19  C   UNL A   1      30.155  25.508  24.973  1.00  0.00     0.155 C 
BRANCH  19  20
ATOM     20  C   UNL A   1      30.292  26.899  24.456  1.00  0.00     0.012 A 
ATOM     21  C   UNL A   1      32.317  27.797  25.870  1.00  0.00     0.069 C 
ATOM     22  C   UNL A   1      31.266  27.875  24.827  1.00  0.00     0.064 A 
ATOM     23  N   UNL A   1      31.179  28.982  24.080  1.00  0.00    -0.178 NA
ATOM     24  N   UNL A   1      30.193  28.712  23.211  1.00  0.00    -0.275 N 
ATOM     25  C   UNL A   1      29.566  27.530  23.462  1.00  0.00     0.114 A 
ATOM     26  C   UNL A   1      29.937  29.614  22.113  1.00  0.00     0.173 C 
ENDBRANCH  19  20
ENDBRANCH  16  19
ENDBRANCH   9  15
ENDBRANCH   6   8
ENDBRANCH   5   6
ENDBRANCH   4   5
ENDBRANCH   3   4
ENDBRANCH   2   3
ENDBRANCH   1   2
BRANCH   1  27
ATOM     27  C   UNL A   1      40.710  20.924  26.234  1.00  0.00     0.188 C 
BRANCH  27  28
ATOM     28  O   UNL A   1      41.757  21.526  25.502  1.00  0.00    -0.376 OA
BRANCH  28  29
ATOM     29  C   UNL A   1      43.077  21.107  25.801  1.00  0.00     0.202 C 
BRANCH  29  30
ATOM     30  C   UNL A   1      44.109  22.006  25.108  1.00  0.00     0.261 C 
BRANCH  30  31
ATOM     31  O   UNL A   1      43.598  23.293  24.700  1.00  0.00    -0.460 OA
BRANCH  31  32
ATOM     32  C   UNL A   1      44.337  24.374  25.043  1.00  0.00     0.338 C 
ATOM     33  O   UNL A   1      45.381  24.736  24.522  1.00  0.00    -0.246 OA
BRANCH  32  34
ATOM     34  C   UNL A   1      43.537  25.218  25.970  1.00  0.00     0.060 A 
ATOM     35  C   UNL A   1      43.932  26.551  26.162  1.00  0.00     0.016 A 
ATOM     36  C   UNL A   1      42.393  24.733  26.607  1.00  0.00     0.016 A 
ATOM     37  C   UNL A   1      43.227  27.376  27.041  1.00  0.00     0.010 A 
ATOM     38  C   UNL A   1      41.691  25.559  27.495  1.00  0.00     0.010 A 
ATOM     39  C   UNL A   1      42.133  26.870  27.756  1.00  0.00    -0.014 A 
BRANCH  39  40
ATOM     40  C   UNL A   1      41.611  27.630  28.926  1.00  0.00     0.031 A 
ATOM     41  C   UNL A   1      42.350  27.519  30.236  1.00  0.00     0.074 A 
ATOM     42  C   UNL A   1      40.550  28.453  28.832  1.00  0.00     0.049 A 
ATOM     43  N   UNL A   1      42.109  28.099  31.385  1.00  0.00    -0.248 NA
ATOM     44  C   UNL A   1      43.522  26.630  30.249  1.00  0.00     0.031 C 
ATOM     45  C   UNL A   1      39.761  28.688  27.626  1.00  0.00     0.029 A 
ATOM     46  N   UNL A   1      39.957  29.251  29.783  1.00  0.00    -0.354 N 
ATOM     47  C   UNL A   1      43.095  27.646  32.252  1.00  0.00     0.074 A 
ATOM     48  C   UNL A   1      43.911  26.708  31.511  1.00  0.00     0.031 C 
ATOM     49  C   UNL A   1      38.788  29.573  27.908  1.00  0.00     0.029 A 
ATOM     50  C   UNL A   1      38.868  29.949  29.320  1.00  0.00     0.049 A 
ATOM     51  H   UNL A   1      40.283  29.317  30.710  1.00  0.00     0.167 HD
ATOM     52  C   UNL A   1      43.319  27.990  33.543  1.00  0.00     0.037 A 
ATOM     53  C   UNL A   1      38.028  30.786  29.963  1.00  0.00     0.037 A 
ATOM     54  C   UNL A   1      42.515  28.920  34.291  1.00  0.00     0.049 A 
ATOM     55  C   UNL A   1      38.257  31.098  31.424  1.00  0.00     0.074 A 
ATOM     56  C   UNL A   1      42.672  29.337  35.602  1.00  0.00     0.029 A 
ATOM     57  N   UNL A   1      41.397  29.574  33.796  1.00  0.00    -0.354 N 
ATOM     58  N   UNL A   1      39.211  30.688  32.226  1.00  0.00    -0.248 NA
ATOM     59  C   UNL A   1      37.291  32.002  32.066  1.00  0.00     0.031 C 
ATOM     60  C   UNL A   1      41.615  30.197  35.919  1.00  0.00     0.029 A 
ATOM     61  C   UNL A   1      40.839  30.371  34.785  1.00  0.00     0.049 A 
ATOM     62  H   UNL A   1      41.050  29.485  32.879  1.00  0.00     0.167 HD
ATOM     63  C   UNL A   1      38.981  31.310  33.448  1.00  0.00     0.074 A 
ATOM     64  C   UNL A   1      37.810  32.144  33.277  1.00  0.00     0.031 C 
ATOM     65  C   UNL A   1      39.676  31.203  34.608  1.00  0.00     0.037 A 
BRANCH  52  66
ATOM     66  C   UNL A   1      44.477  27.334  34.242  1.00  0.00     0.064 A 
ATOM     67  C   UNL A   1      45.741  27.940  34.308  1.00  0.00     0.173 A 
ATOM     68  C   UNL A   1      44.309  26.096  34.882  1.00  0.00     0.173 A 
ATOM     69  F   UNL A   1      45.959  29.115  33.698  1.00  0.00    -0.203 F 
ATOM     70  C   UNL A   1      46.800  27.318  34.965  1.00  0.00     0.198 A 
ATOM     71  C   UNL A   1      45.361  25.495  35.567  1.00  0.00     0.198 A 
ATOM     72  F   UNL A   1      43.121  25.474  34.852  1.00  0.00    -0.203 F 
ATOM     73  F   UNL A   1      48.012  27.891  34.970  1.00  0.00    -0.200 F 
ATOM     74  C   UNL A   1      46.607  26.102  35.601  1.00  0.00     0.200 A 
ATOM     75  F   UNL A   1      45.168  24.326  36.194  1.00  0.00    -0.200 F 
ATOM     76  F   UNL A   1      47.625  25.509  36.241  1.00  0.00    -0.200 F 
ENDBRANCH  52  66
BRANCH  53  77
ATOM     77  C   UNL A   1      36.877  31.398  29.243  1.00  0.00     0.064 A 
ATOM     78  C   UNL A   1      36.854  32.768  28.941  1.00  0.00     0.173 A 
ATOM     79  C   UNL A   1      35.753  30.637  28.891  1.00  0.00     0.173 A 
ATOM     80  F   UNL A   1      37.889  33.547  29.286  1.00  0.00    -0.203 F 
ATOM     81  C   UNL A   1      35.741  33.356  28.342  1.00  0.00     0.198 A 
ATOM     82  C   UNL A   1      34.656  31.219  28.260  1.00  0.00     0.198 A 
ATOM     83  F   UNL A   1      35.717  29.324  29.164  1.00  0.00    -0.203 F 
ATOM     84  F   UNL A   1      35.720  34.679  28.126  1.00  0.00    -0.200 F 
ATOM     85  C   UNL A   1      34.646  32.581  27.997  1.00  0.00     0.200 A 
ATOM     86  F   UNL A   1      33.603  30.464  27.920  1.00  0.00    -0.200 F 
ATOM     87  F   UNL A   1      33.575  33.147  27.423  1.00  0.00    -0.200 F 
ENDBRANCH  53  77
BRANCH  65  88
ATOM     88  C   UNL A   1      39.218  32.041  35.771  1.00  0.00     0.064 A 
ATOM     89  C   UNL A   1      38.318  31.554  36.732  1.00  0.00     0.173 A 
ATOM     90  C   UNL A   1      39.694  33.353  35.932  1.00  0.00     0.173 A 
ATOM     91  F   UNL A   1      37.824  30.311  36.625  1.00  0.00    -0.203 F 
ATOM     92  C   UNL A   1      37.873  32.362  37.776  1.00  0.00     0.198 A 
ATOM     93  C   UNL A   1      39.278  34.145  36.999  1.00  0.00     0.198 A 
ATOM     94  F   UNL A   1      40.567  33.868  35.054  1.00  0.00    -0.203 F 
ATOM     95  F   UNL A   1      36.958  31.898  38.637  1.00  0.00    -0.200 F 
ATOM     96  C   UNL A   1      38.357  33.655  37.912  1.00  0.00     0.200 A 
ATOM     97  F   UNL A   1      39.762  35.387  37.139  1.00  0.00    -0.200 F 
ATOM     98  F   UNL A   1      37.926  34.432  38.915  1.00  0.00    -0.200 F 
ENDBRANCH  65  88
ENDBRANCH  39  40
ENDBRANCH  32  34
ENDBRANCH  31  32
ENDBRANCH  30  31
ENDBRANCH  29  30
ENDBRANCH  28  29
ENDBRANCH  27  28
ENDBRANCH   1  27
TORSDOF 20
ENDMDL
MODEL 2
REMARK VINA RESULT:     -11.4      1.780      3.384
REMARK SMILES Cc1nn(C)cc1CNC(=O)[C@H]1[C@@H]2CC[C@@H](C2)[C@@H]1C(=O)OCCOCCOCCOC(=O)c1ccc(-c2c3nc(c(-c4c(F)c(F)c(F)c(F)c4F)c4ccc([nH]4)c(-c4c(F)c(F)c(F)c(F)c4F)c4nc(c(-c5c(F)c(F)c(F)c(F)c5F)c5ccc2[nH]5)C=C4)C=C3)cc1
REMARK SMILES IDX 25 1 24 2 23 3 22 4 21 5 19 6 20 7 18 8 12 9 13 10 14 11
REMARK SMILES IDX 17 12 16 13 15 14 10 15 9 16 11 18 8 19 7 20 1 21 2 22 3 23
REMARK SMILES IDX 4 24 6 25 5 26 26 27 27 28 28 29 29 30 30 31 31 32 32 33
REMARK SMILES IDX 33 34 34 35 95 36 35 37 94 38 36 39 37 40 38 41 88 42 39 43
REMARK SMILES IDX 93 44 87 45 89 46 40 47 92 48 86 49 85 50 41 52 73 53 53 54
REMARK SMILES IDX 72 55 54 56 57 57 71 58 90 59 55 60 56 61 70 63 91 64 58 65
REMARK SMILES IDX 42 66 43 67 51 68 44 69 45 70 49 71 52 72 46 73 47 74 50 75
REMARK SMILES IDX 48 76 74 77 75 78 83 79 76 80 77 81 81 82 84 83 78 84 79 85
REMARK SMILES IDX 82 86 80 87 59 88 60 89 68 90 61 91 62 92 66 93 69 94 63 95
REMARK SMILES IDX 64 96 67 97 65 98
REMARK H PARENT 9 17 89 51 57 62
REMARK Flexibility Score: inf
ROOT
ATOM      1  C   UNL A   1      40.627  21.982  27.164  1.00  0.00     0.188 C 
ENDROOT
BRANCH   1   2
ATOM      2  O   UNL A   1      39.292  22.233  26.745  1.00  0.00    -0.376 OA
BRANCH   2   3
ATOM      3  C   UNL A   1      38.659  21.384  25.801  1.00  0.00     0.202 C 
BRANCH   3   4
ATOM      4  C   UNL A   1      37.542  21.993  24.940  1.00  0.00     0.261 C 
BRANCH   4   5
ATOM      5  O   UNL A   1      36.283  22.340  25.564  1.00  0.00    -0.463 OA
BRANCH   5   6
ATOM      6  C   UNL A   1      35.320  22.758  24.707  1.00  0.00     0.310 C 
ATOM      7  O   UNL A   1      35.366  22.600  23.492  1.00  0.00    -0.252 OA
BRANCH   6   8
ATOM      8  C   UNL A   1      34.144  23.465  25.339  1.00  0.00     0.115 C 
ATOM      9  C   UNL A   1      32.733  23.163  24.804  1.00  0.00     0.096 C 
ATOM     10  C   UNL A   1      32.028  24.551  24.992  1.00  0.00     0.002 C 
ATOM     11  C   UNL A   1      32.416  25.467  23.827  1.00  0.00     0.005 C 
ATOM     12  C   UNL A   1      32.818  25.217  26.131  1.00  0.00     0.009 C 
ATOM     13  C   UNL A   1      34.167  25.004  25.436  1.00  0.00     0.004 C 
ATOM     14  C   UNL A   1      33.908  25.707  24.084  1.00  0.00     0.005 C 
BRANCH   9  15
ATOM     15  C   UNL A   1      32.073  22.088  25.663  1.00  0.00     0.224 C 
ATOM     16  N   UNL A   1      32.222  20.774  25.346  1.00  0.00    -0.352 N 
ATOM     17  H   UNL A   1      31.882  20.149  26.027  1.00  0.00     0.163 HD
ATOM     18  O   UNL A   1      31.431  22.365  26.677  1.00  0.00    -0.275 OA
BRANCH  16  19
ATOM     19  C   UNL A   1      32.795  20.138  24.180  1.00  0.00     0.155 C 
BRANCH  19  20
ATOM     20  C   UNL A   1      33.093  18.705  24.461  1.00  0.00     0.012 A 
ATOM     21  C   UNL A   1      35.717  18.724  24.604  1.00  0.00     0.069 C 
ATOM     22  C   UNL A   1      34.370  18.108  24.684  1.00  0.00     0.064 A 
ATOM     23  N   UNL A   1      34.270  16.819  25.029  1.00  0.00    -0.178 NA
ATOM     24  N   UNL A   1      32.947  16.594  25.070  1.00  0.00    -0.275 N 
ATOM     25  C   UNL A   1      32.211  17.654  24.638  1.00  0.00     0.114 A 
ATOM     26  C   UNL A   1      32.448  15.346  25.595  1.00  0.00     0.173 C 
ENDBRANCH  19  20
ENDBRANCH  16  19
ENDBRANCH   9  15
ENDBRANCH   6   8
ENDBRANCH   5   6
ENDBRANCH   4   5
ENDBRANCH   3   4
ENDBRANCH   2   3
ENDBRANCH   1   2
BRANCH   1  27
ATOM     27  C   UNL A   1      41.474  20.920  26.467  1.00  0.00     0.188 C 
BRANCH  27  28
ATOM     28  O   UNL A   1      42.282  21.447  25.435  1.00  0.00    -0.376 OA
BRANCH  28  29
ATOM     29  C   UNL A   1      43.632  21.021  25.392  1.00  0.00     0.202 C 
BRANCH  29  30
ATOM     30  C   UNL A   1      44.584  22.221  25.306  1.00  0.00     0.261 C 
BRANCH  30  31
ATOM     31  O   UNL A   1      43.965  23.440  24.846  1.00  0.00    -0.460 OA
BRANCH  31  32
ATOM     32  C   UNL A   1      44.618  24.593  25.124  1.00  0.00     0.338 C 
ATOM     33  O   UNL A   1      45.606  25.025  24.550  1.00  0.00    -0.246 OA
BRANCH  32  34
ATOM     34  C   UNL A   1      43.781  25.398  26.052  1.00  0.00     0.060 A 
ATOM     35  C   UNL A   1      44.123  26.743  26.257  1.00  0.00     0.016 A 
ATOM     36  C   UNL A   1      42.652  24.865  26.678  1.00  0.00     0.016 A 
ATOM     37  C   UNL A   1      43.382  27.534  27.138  1.00  0.00     0.010 A 
ATOM     38  C   UNL A   1      41.914  25.656  27.569  1.00  0.00     0.010 A 
ATOM     39  C   UNL A   1      42.305  26.980  27.843  1.00  0.00    -0.014 A 
BRANCH  39  40
ATOM     40  C   UNL A   1      41.747  27.710  29.016  1.00  0.00     0.031 A 
ATOM     41  C   UNL A   1      42.457  27.581  30.340  1.00  0.00     0.074 A 
ATOM     42  C   UNL A   1      40.679  28.523  28.915  1.00  0.00     0.049 A 
ATOM     43  N   UNL A   1      42.183  28.134  31.495  1.00  0.00    -0.248 NA
ATOM     44  C   UNL A   1      43.640  26.705  30.362  1.00  0.00     0.031 C 
ATOM     45  C   UNL A   1      39.915  28.774  27.696  1.00  0.00     0.029 A 
ATOM     46  N   UNL A   1      40.055  29.294  29.868  1.00  0.00    -0.354 N 
ATOM     47  C   UNL A   1      43.155  27.674  32.375  1.00  0.00     0.074 A 
ATOM     48  C   UNL A   1      43.998  26.761  31.634  1.00  0.00     0.031 C 
ATOM     49  C   UNL A   1      38.925  29.642  27.974  1.00  0.00     0.029 A 
ATOM     50  C   UNL A   1      38.968  29.989  29.394  1.00  0.00     0.049 A 
ATOM     51  H   UNL A   1      40.359  29.344  30.803  1.00  0.00     0.167 HD
ATOM     52  C   UNL A   1      43.346  27.994  33.677  1.00  0.00     0.037 A 
ATOM     53  C   UNL A   1      38.104  30.803  30.035  1.00  0.00     0.037 A 
ATOM     54  C   UNL A   1      42.514  28.899  34.425  1.00  0.00     0.049 A 
ATOM     55  C   UNL A   1      38.296  31.087  31.507  1.00  0.00     0.074 A 
ATOM     56  C   UNL A   1      42.636  29.291  35.748  1.00  0.00     0.029 A 
ATOM     57  N   UNL A   1      41.399  29.551  33.919  1.00  0.00    -0.354 N 
ATOM     58  N   UNL A   1      39.236  30.671  32.322  1.00  0.00    -0.248 NA
ATOM     59  C   UNL A   1      37.305  31.967  32.144  1.00  0.00     0.031 C 
ATOM     60  C   UNL A   1      41.562  30.132  36.058  1.00  0.00     0.029 A 
ATOM     61  C   UNL A   1      40.810  30.320  34.911  1.00  0.00     0.049 A 
ATOM     62  H   UNL A   1      41.075  29.476  32.993  1.00  0.00     0.167 HD
ATOM     63  C   UNL A   1      38.971  31.266  33.551  1.00  0.00     0.074 A 
ATOM     64  C   UNL A   1      37.795  32.089  33.370  1.00  0.00     0.031 C 
ATOM     65  C   UNL A   1      39.641  31.142  34.724  1.00  0.00     0.037 A 
BRANCH  52  66
ATOM     66  C   UNL A   1      44.495  27.337  34.389  1.00  0.00     0.064 A 
ATOM     67  C   UNL A   1      45.762  27.935  34.459  1.00  0.00     0.173 A 
ATOM     68  C   UNL A   1      44.315  26.105  35.039  1.00  0.00     0.173 A 
ATOM     69  F   UNL A   1      45.992  29.104  33.840  1.00  0.00    -0.203 F 
ATOM     70  C   UNL A   1      46.813  27.313  35.128  1.00  0.00     0.198 A 
ATOM     71  C   UNL A   1      45.359  25.503  35.735  1.00  0.00     0.198 A 
ATOM     72  F   UNL A   1      43.124  25.490  35.006  1.00  0.00    -0.203 F 
ATOM     73  F   UNL A   1      48.028  27.878  35.135  1.00  0.00    -0.200 F 
ATOM     74  C   UNL A   1      46.609  26.103  35.772  1.00  0.00     0.200 A 
ATOM     75  F   UNL A   1      45.155  24.341  36.371  1.00  0.00    -0.200 F 
ATOM     76  F   UNL A   1      47.619  25.510  36.423  1.00  0.00    -0.200 F 
ENDBRANCH  52  66
BRANCH  53  77
ATOM     77  C   UNL A   1      36.963  31.417  29.301  1.00  0.00     0.064 A 
ATOM     78  C   UNL A   1      36.942  32.788  29.006  1.00  0.00     0.173 A 
ATOM     79  C   UNL A   1      35.845  30.655  28.930  1.00  0.00     0.173 A 
ATOM     80  F   UNL A   1      37.971  33.567  29.369  1.00  0.00    -0.203 F 
ATOM     81  C   UNL A   1      35.837  33.377  28.394  1.00  0.00     0.198 A 
ATOM     82  C   UNL A   1      34.756  31.239  28.286  1.00  0.00     0.198 A 
ATOM     83  F   UNL A   1      35.808  29.342  29.196  1.00  0.00    -0.203 F 
ATOM     84  F   UNL A   1      35.817  34.701  28.183  1.00  0.00    -0.200 F 
ATOM     85  C   UNL A   1      34.748  32.602  28.029  1.00  0.00     0.200 A 
ATOM     86  F   UNL A   1      33.710  30.484  27.927  1.00  0.00    -0.200 F 
ATOM     87  F   UNL A   1      33.685  33.169  27.442  1.00  0.00    -0.200 F 
ENDBRANCH  53  77
BRANCH  65  88
ATOM     88  C   UNL A   1      39.148  31.951  35.893  1.00  0.00     0.064 A 
ATOM     89  C   UNL A   1      38.253  31.424  36.838  1.00  0.00     0.173 A 
ATOM     90  C   UNL A   1      39.582  33.274  36.076  1.00  0.00     0.173 A 
ATOM     91  F   UNL A   1      37.797  30.169  36.711  1.00  0.00    -0.203 F 
ATOM     92  C   UNL A   1      37.774  32.206  37.889  1.00  0.00     0.198 A 
ATOM     93  C   UNL A   1      39.133  34.039  37.149  1.00  0.00     0.198 A 
ATOM     94  F   UNL A   1      40.448  33.827  35.213  1.00  0.00    -0.203 F 
ATOM     95  F   UNL A   1      36.865  31.703  38.734  1.00  0.00    -0.200 F 
ATOM     96  C   UNL A   1      38.218  33.510  38.046  1.00  0.00     0.200 A 
ATOM     97  F   UNL A   1      39.578  35.293  37.309  1.00  0.00    -0.200 F 
ATOM     98  F   UNL A   1      37.754  34.261  39.055  1.00  0.00    -0.200 F 
ENDBRANCH  65  88
ENDBRANCH  39  40
ENDBRANCH  32  34
ENDBRANCH  31  32
ENDBRANCH  30  31
ENDBRANCH  29  30
ENDBRANCH  28  29
ENDBRANCH  27  28
ENDBRANCH   1  27
TORSDOF 20
ENDMDL
MODEL 3
REMARK VINA RESULT:     -11.3      5.180     10.442
REMARK SMILES Cc1nn(C)cc1CNC(=O)[C@H]1[C@@H]2CC[C@@H](C2)[C@@H]1C(=O)OCCOCCOCCOC(=O)c1ccc(-c2c3nc(c(-c4c(F)c(F)c(F)c(F)c4F)c4ccc([nH]4)c(-c4c(F)c(F)c(F)c(F)c4F)c4nc(c(-c5c(F)c(F)c(F)c(F)c5F)c5ccc2[nH]5)C=C4)C=C3)cc1
REMARK SMILES IDX 25 1 24 2 23 3 22 4 21 5 19 6 20 7 18 8 12 9 13 10 14 11
REMARK SMILES IDX 17 12 16 13 15 14 10 15 9 16 11 18 8 19 7 20 1 21 2 22 3 23
REMARK SMILES IDX 4 24 6 25 5 26 26 27 27 28 28 29 29 30 30 31 31 32 32 33
REMARK SMILES IDX 33 34 34 35 95 36 35 37 94 38 36 39 37 40 38 41 88 42 39 43
REMARK SMILES IDX 93 44 87 45 89 46 40 47 92 48 86 49 85 50 41 52 73 53 53 54
REMARK SMILES IDX 72 55 54 56 57 57 71 58 90 59 55 60 56 61 70 63 91 64 58 65
REMARK SMILES IDX 42 66 43 67 51 68 44 69 45 70 49 71 52 72 46 73 47 74 50 75
REMARK SMILES IDX 48 76 74 77 75 78 83 79 76 80 77 81 81 82 84 83 78 84 79 85
REMARK SMILES IDX 82 86 80 87 59 88 60 89 68 90 61 91 62 92 66 93 69 94 63 95
REMARK SMILES IDX 64 96 67 97 65 98
REMARK H PARENT 9 17 89 51 57 62
REMARK Flexibility Score: inf
ROOT
ATOM      1  C   UNL A   1      34.561  32.464  28.161  1.00  0.00     0.188 C 
ENDROOT
BRANCH   1   2
ATOM      2  O   UNL A   1      33.543  31.566  27.740  1.00  0.00    -0.376 OA
BRANCH   2   3
ATOM      3  C   UNL A   1      33.871  30.384  27.026  1.00  0.00     0.202 C 
BRANCH   3   4
ATOM      4  C   UNL A   1      33.151  29.090  27.433  1.00  0.00     0.261 C 
BRANCH   4   5
ATOM      5  O   UNL A   1      31.761  28.915  27.073  1.00  0.00    -0.463 OA
BRANCH   5   6
ATOM      6  C   UNL A   1      31.479  27.746  26.448  1.00  0.00     0.310 C 
ATOM      7  O   UNL A   1      31.610  26.642  26.964  1.00  0.00    -0.252 OA
BRANCH   6   8
ATOM      8  C   UNL A   1      30.982  27.868  25.025  1.00  0.00     0.115 C 
ATOM      9  C   UNL A   1      31.232  26.697  24.058  1.00  0.00     0.096 C 
ATOM     10  C   UNL A   1      31.426  27.455  22.699  1.00  0.00     0.002 C 
ATOM     11  C   UNL A   1      32.860  27.990  22.629  1.00  0.00     0.005 C 
ATOM     12  C   UNL A   1      30.659  28.772  22.897  1.00  0.00     0.009 C 
ATOM     13  C   UNL A   1      31.392  29.106  24.201  1.00  0.00     0.004 C 
ATOM     14  C   UNL A   1      32.862  29.064  23.722  1.00  0.00     0.005 C 
BRANCH   9  15
ATOM     15  C   UNL A   1      30.004  25.792  24.015  1.00  0.00     0.224 C 
ATOM     16  N   UNL A   1      30.141  24.469  23.729  1.00  0.00    -0.352 N 
ATOM     17  H   UNL A   1      29.322  23.937  23.858  1.00  0.00     0.163 HD
ATOM     18  O   UNL A   1      28.875  26.210  24.274  1.00  0.00    -0.275 OA
BRANCH  16  19
ATOM     19  C   UNL A   1      31.283  23.711  23.268  1.00  0.00     0.155 C 
BRANCH  19  20
ATOM     20  C   UNL A   1      31.987  23.076  24.417  1.00  0.00     0.012 A 
ATOM     21  C   UNL A   1      34.214  22.253  23.291  1.00  0.00     0.069 C 
ATOM     22  C   UNL A   1      33.284  22.479  24.424  1.00  0.00     0.064 A 
ATOM     23  N   UNL A   1      33.664  22.113  25.654  1.00  0.00    -0.178 NA
ATOM     24  N   UNL A   1      32.648  22.504  26.439  1.00  0.00    -0.275 N 
ATOM     25  C   UNL A   1      31.585  22.985  25.738  1.00  0.00     0.114 A 
ATOM     26  C   UNL A   1      32.786  22.441  27.874  1.00  0.00     0.173 C 
ENDBRANCH  19  20
ENDBRANCH  16  19
ENDBRANCH   9  15
ENDBRANCH   6   8
ENDBRANCH   5   6
ENDBRANCH   4   5
ENDBRANCH   3   4
ENDBRANCH   2   3
ENDBRANCH   1   2
BRANCH   1  27
ATOM     27  C   UNL A   1      34.202  33.809  28.788  1.00  0.00     0.188 C 
BRANCH  27  28
ATOM     28  O   UNL A   1      33.772  33.697  30.128  1.00  0.00    -0.376 OA
BRANCH  28  29
ATOM     29  C   UNL A   1      34.010  34.807  30.976  1.00  0.00     0.202 C 
BRANCH  29  30
ATOM     30  C   UNL A   1      34.706  34.369  32.271  1.00  0.00     0.261 C 
BRANCH  30  31
ATOM     31  O   UNL A   1      34.960  32.951  32.360  1.00  0.00    -0.460 OA
BRANCH  31  32
ATOM     32  C   UNL A   1      35.989  32.568  33.152  1.00  0.00     0.338 C 
ATOM     33  O   UNL A   1      36.031  32.630  34.371  1.00  0.00    -0.246 OA
BRANCH  32  34
ATOM     34  C   UNL A   1      36.957  31.797  32.327  1.00  0.00     0.060 A 
ATOM     35  C   UNL A   1      38.003  31.129  32.983  1.00  0.00     0.016 A 
ATOM     36  C   UNL A   1      36.823  31.687  30.942  1.00  0.00     0.016 A 
ATOM     37  C   UNL A   1      38.951  30.411  32.251  1.00  0.00     0.010 A 
ATOM     38  C   UNL A   1      37.779  30.975  30.207  1.00  0.00     0.010 A 
ATOM     39  C   UNL A   1      38.877  30.374  30.852  1.00  0.00    -0.014 A 
BRANCH  39  40
ATOM     40  C   UNL A   1      40.059  29.912  30.071  1.00  0.00     0.031 A 
ATOM     41  C   UNL A   1      41.196  30.880  29.859  1.00  0.00     0.074 A 
ATOM     42  C   UNL A   1      40.167  28.653  29.610  1.00  0.00     0.049 A 
ATOM     43  N   UNL A   1      42.337  30.709  29.239  1.00  0.00    -0.248 NA
ATOM     44  C   UNL A   1      41.020  32.227  30.426  1.00  0.00     0.031 C 
ATOM     45  C   UNL A   1      39.168  27.601  29.769  1.00  0.00     0.029 A 
ATOM     46  N   UNL A   1      41.186  28.047  28.911  1.00  0.00    -0.354 N 
ATOM     47  C   UNL A   1      43.009  31.921  29.342  1.00  0.00     0.074 A 
ATOM     48  C   UNL A   1      42.132  32.832  30.043  1.00  0.00     0.031 C 
ATOM     49  C   UNL A   1      39.622  26.476  29.187  1.00  0.00     0.029 A 
ATOM     50  C   UNL A   1      40.933  26.734  28.591  1.00  0.00     0.049 A 
ATOM     51  H   UNL A   1      42.019  28.509  28.663  1.00  0.00     0.167 HD
ATOM     52  C   UNL A   1      44.252  32.245  28.911  1.00  0.00     0.037 A 
ATOM     53  C   UNL A   1      41.670  25.848  27.890  1.00  0.00     0.037 A 
ATOM     54  C   UNL A   1      45.133  31.347  28.212  1.00  0.00     0.049 A 
ATOM     55  C   UNL A   1      43.024  26.257  27.358  1.00  0.00     0.074 A 
ATOM     56  C   UNL A   1      46.415  31.586  27.745  1.00  0.00     0.029 A 
ATOM     57  N   UNL A   1      44.823  30.039  27.872  1.00  0.00    -0.354 N 
ATOM     58  N   UNL A   1      43.663  27.395  27.487  1.00  0.00    -0.248 NA
ATOM     59  C   UNL A   1      43.764  25.246  26.587  1.00  0.00     0.031 C 
ATOM     60  C   UNL A   1      46.857  30.443  27.071  1.00  0.00     0.029 A 
ATOM     61  C   UNL A   1      45.879  29.468  27.178  1.00  0.00     0.049 A 
ATOM     62  H   UNL A   1      43.978  29.585  28.091  1.00  0.00     0.167 HD
ATOM     63  C   UNL A   1      44.887  27.225  26.849  1.00  0.00     0.074 A 
ATOM     64  C   UNL A   1      44.911  25.865  26.352  1.00  0.00     0.031 C 
ATOM     65  C   UNL A   1      45.901  28.112  26.689  1.00  0.00     0.037 A 
BRANCH  52  66
ATOM     66  C   UNL A   1      44.727  33.648  29.166  1.00  0.00     0.064 A 
ATOM     67  C   UNL A   1      45.453  33.986  30.318  1.00  0.00     0.173 A 
ATOM     68  C   UNL A   1      44.479  34.662  28.227  1.00  0.00     0.173 A 
ATOM     69  F   UNL A   1      45.703  33.058  31.255  1.00  0.00    -0.203 F 
ATOM     70  C   UNL A   1      45.890  35.291  30.534  1.00  0.00     0.198 A 
ATOM     71  C   UNL A   1      44.946  35.957  28.431  1.00  0.00     0.198 A 
ATOM     72  F   UNL A   1      43.791  34.394  27.107  1.00  0.00    -0.203 F 
ATOM     73  F   UNL A   1      46.536  35.600  31.666  1.00  0.00    -0.200 F 
ATOM     74  C   UNL A   1      45.643  36.272  29.586  1.00  0.00     0.200 A 
ATOM     75  F   UNL A   1      44.720  36.901  27.506  1.00  0.00    -0.200 F 
ATOM     76  F   UNL A   1      46.072  37.525  29.791  1.00  0.00    -0.200 F 
ENDBRANCH  52  66
BRANCH  53  77
ATOM     77  C   UNL A   1      41.156  24.473  27.638  1.00  0.00     0.064 A 
ATOM     78  C   UNL A   1      41.748  23.353  28.239  1.00  0.00     0.173 A 
ATOM     79  C   UNL A   1      40.096  24.248  26.747  1.00  0.00     0.173 A 
ATOM     80  F   UNL A   1      42.786  23.511  29.073  1.00  0.00    -0.203 F 
ATOM     81  C   UNL A   1      41.320  22.061  27.937  1.00  0.00     0.198 A 
ATOM     82  C   UNL A   1      39.646  22.958  26.473  1.00  0.00     0.198 A 
ATOM     83  F   UNL A   1      39.499  25.282  26.136  1.00  0.00    -0.203 F 
ATOM     84  F   UNL A   1      41.948  21.006  28.475  1.00  0.00    -0.200 F 
ATOM     85  C   UNL A   1      40.266  21.865  27.059  1.00  0.00     0.200 A 
ATOM     86  F   UNL A   1      38.620  22.774  25.631  1.00  0.00    -0.200 F 
ATOM     87  F   UNL A   1      39.855  20.623  26.768  1.00  0.00    -0.200 F 
ENDBRANCH  53  77
BRANCH  65  88
ATOM     88  C   UNL A   1      47.142  27.629  25.989  1.00  0.00     0.064 A 
ATOM     89  C   UNL A   1      47.310  27.757  24.600  1.00  0.00     0.173 A 
ATOM     90  C   UNL A   1      48.184  27.035  26.718  1.00  0.00     0.173 A 
ATOM     91  F   UNL A   1      46.344  28.310  23.851  1.00  0.00    -0.203 F 
ATOM     92  C   UNL A   1      48.448  27.263  23.966  1.00  0.00     0.198 A 
ATOM     93  C   UNL A   1      49.338  26.578  26.086  1.00  0.00     0.198 A 
ATOM     94  F   UNL A   1      48.086  26.899  28.049  1.00  0.00    -0.203 F 
ATOM     95  F   UNL A   1      48.551  27.331  22.632  1.00  0.00    -0.200 F 
ATOM     96  C   UNL A   1      49.463  26.678  24.709  1.00  0.00     0.200 A 
ATOM     97  F   UNL A   1      50.325  26.031  26.809  1.00  0.00    -0.200 F 
ATOM     98  F   UNL A   1      50.555  26.201  24.097  1.00  0.00    -0.200 F 
ENDBRANCH  65  88
ENDBRANCH  39  40
ENDBRANCH  32  34
ENDBRANCH  31  32
ENDBRANCH  30  31
ENDBRANCH  29  30
ENDBRANCH  28  29
ENDBRANCH  27  28
ENDBRANCH   1  27
TORSDOF 20
ENDMDL
