MODEL 1
REMARK VINA RESULT:     -11.5      0.000      0.000
REMARK SMILES CCN(C(=O)Cc1c(C(=O)OCCOCCOCCOC(=O)c2ccc(-c3c4nc(c(-c5c(F)c(F)c(F)c(F)c5F)c5ccc([nH]5)c(-c5c(F)c(F)c(F)c(F)c5F)c5nc(c(-c6c(F)c(F)c(F)c(F)c6F)c6ccc3[nH]6)C=C5)C=C4)cc2)[nH]c2ccccc12)c1cccc(C)c1
REMARK SMILES IDX 15 1 14 2 13 3 12 4 11 5 9 6 10 7 8 8 7 9 92 10 86 11 87 12
REMARK SMILES IDX 91 13 88 15 90 16 89 17 6 18 4 19 5 20 3 21 2 22 1 23 93 24
REMARK SMILES IDX 94 25 99 26 95 27 97 28 96 29 98 30 16 31 17 32 18 33 19 34
REMARK SMILES IDX 20 35 21 36 22 37 23 38 24 39 85 40 25 41 84 42 26 43 27 44
REMARK SMILES IDX 28 45 78 46 29 47 83 48 77 49 79 50 30 51 82 52 76 53 75 54
REMARK SMILES IDX 31 56 63 57 43 58 62 59 44 60 47 61 61 62 80 63 45 64 46 65
REMARK SMILES IDX 60 67 81 68 48 69 32 70 33 71 41 72 34 73 35 74 39 75 42 76
REMARK SMILES IDX 36 77 37 78 40 79 38 80 64 81 65 82 73 83 66 84 67 85 71 86
REMARK SMILES IDX 74 87 68 88 69 89 72 90 70 91 49 92 50 93 58 94 51 95 52 96
REMARK SMILES IDX 56 97 59 98 53 99 54 100 57 101 55 102
REMARK H PARENT 86 14 79 55 47 66
REMARK Flexibility Score: inf
ROOT
ATOM      1  C   UNL A   1      31.679  27.345  22.419  1.00  0.00     0.188 C 
ENDROOT
BRANCH   1   2
ATOM      2  O   UNL A   1      31.403  26.454  21.349  1.00  0.00    -0.376 OA
BRANCH   2   3
ATOM      3  C   UNL A   1      32.476  25.582  21.005  1.00  0.00     0.202 C 
BRANCH   3   4
ATOM      4  C   UNL A   1      33.041  24.727  22.157  1.00  0.00     0.261 C 
BRANCH   4   5
ATOM      5  O   UNL A   1      32.661  23.334  22.124  1.00  0.00    -0.459 OA
BRANCH   5   6
ATOM      6  C   UNL A   1      31.740  22.974  23.054  1.00  0.00     0.355 C 
ATOM      7  O   UNL A   1      30.847  23.712  23.410  1.00  0.00    -0.244 OA
BRANCH   6   8
ATOM      8  C   UNL A   1      31.976  21.623  23.534  1.00  0.00     0.129 A 
ATOM      9  C   UNL A   1      32.191  21.097  24.817  1.00  0.00     0.002 A 
ATOM     10  C   UNL A   1      32.475  19.693  24.647  1.00  0.00     0.004 A 
ATOM     11  N   UNL A   1      32.046  20.562  22.654  1.00  0.00    -0.349 N 
ATOM     12  C   UNL A   1      32.429  19.408  23.289  1.00  0.00     0.046 A 
ATOM     13  C   UNL A   1      32.779  18.646  25.546  1.00  0.00     0.010 A 
ATOM     14  H   UNL A   1      31.847  20.625  21.692  1.00  0.00     0.167 HD
ATOM     15  C   UNL A   1      32.722  18.140  22.773  1.00  0.00     0.027 A 
ATOM     16  C   UNL A   1      33.080  17.375  25.051  1.00  0.00     0.001 A 
ATOM     17  C   UNL A   1      33.065  17.131  23.681  1.00  0.00     0.002 A 
BRANCH   9  18
ATOM     18  C   UNL A   1      32.130  21.685  26.205  1.00  0.00     0.139 C 
BRANCH  18  19
ATOM     19  C   UNL A   1      33.341  22.397  26.758  1.00  0.00     0.231 C 
ATOM     20  O   UNL A   1      33.855  21.901  27.770  1.00  0.00    -0.274 OA
BRANCH  19  21
ATOM     21  N   UNL A   1      33.815  23.551  26.111  1.00  0.00    -0.312 N 
BRANCH  21  22
ATOM     22  C   UNL A   1      33.043  24.808  26.028  1.00  0.00     0.122 C 
ATOM     23  C   UNL A   1      33.711  26.082  25.516  1.00  0.00     0.028 C 
ENDBRANCH  21  22
BRANCH  21  24
ATOM     24  C   UNL A   1      35.112  23.481  25.476  1.00  0.00     0.044 A 
ATOM     25  C   UNL A   1      35.316  22.721  24.317  1.00  0.00     0.026 A 
ATOM     26  C   UNL A   1      36.245  23.986  26.124  1.00  0.00     0.029 A 
ATOM     27  C   UNL A   1      36.605  22.424  23.862  1.00  0.00     0.002 A 
ATOM     28  C   UNL A   1      37.542  23.605  25.743  1.00  0.00    -0.049 A 
ATOM     29  C   UNL A   1      37.716  22.845  24.588  1.00  0.00     0.003 A 
ATOM     30  C   UNL A   1      38.713  23.936  26.622  1.00  0.00     0.044 C 
ENDBRANCH  21  24
ENDBRANCH  19  21
ENDBRANCH  18  19
ENDBRANCH   9  18
ENDBRANCH   6   8
ENDBRANCH   5   6
ENDBRANCH   4   5
ENDBRANCH   3   4
ENDBRANCH   2   3
ENDBRANCH   1   2
BRANCH   1  31
ATOM     31  C   UNL A   1      30.603  27.373  23.528  1.00  0.00     0.188 C 
BRANCH  31  32
ATOM     32  O   UNL A   1      30.846  28.056  24.746  1.00  0.00    -0.376 OA
BRANCH  32  33
ATOM     33  C   UNL A   1      31.320  29.393  24.680  1.00  0.00     0.202 C 
BRANCH  33  34
ATOM     34  C   UNL A   1      32.644  29.784  25.366  1.00  0.00     0.261 C 
BRANCH  34  35
ATOM     35  O   UNL A   1      32.584  30.086  26.774  1.00  0.00    -0.460 OA
BRANCH  35  36
ATOM     36  C   UNL A   1      33.192  31.237  27.161  1.00  0.00     0.338 C 
ATOM     37  O   UNL A   1      32.690  32.346  27.235  1.00  0.00    -0.246 OA
BRANCH  36  38
ATOM     38  C   UNL A   1      34.552  30.949  27.673  1.00  0.00     0.060 A 
ATOM     39  C   UNL A   1      34.894  29.624  27.992  1.00  0.00     0.016 A 
ATOM     40  C   UNL A   1      35.454  31.982  27.922  1.00  0.00     0.016 A 
ATOM     41  C   UNL A   1      36.130  29.330  28.566  1.00  0.00     0.010 A 
ATOM     42  C   UNL A   1      36.680  31.689  28.532  1.00  0.00     0.010 A 
ATOM     43  C   UNL A   1      37.013  30.367  28.882  1.00  0.00    -0.014 A 
BRANCH  43  44
ATOM     44  C   UNL A   1      38.198  30.087  29.732  1.00  0.00     0.031 A 
ATOM     45  C   UNL A   1      39.260  29.158  29.210  1.00  0.00     0.074 A 
ATOM     46  C   UNL A   1      38.341  30.664  30.938  1.00  0.00     0.049 A 
ATOM     47  N   UNL A   1      40.344  28.715  29.796  1.00  0.00    -0.248 NA
ATOM     48  C   UNL A   1      39.072  28.659  27.839  1.00  0.00     0.031 C 
ATOM     49  C   UNL A   1      37.412  31.618  31.536  1.00  0.00     0.029 A 
ATOM     50  N   UNL A   1      39.328  30.513  31.882  1.00  0.00    -0.354 N 
ATOM     51  C   UNL A   1      40.959  27.879  28.872  1.00  0.00     0.074 A 
ATOM     52  C   UNL A   1      40.113  27.854  27.697  1.00  0.00     0.031 C 
ATOM     53  C   UNL A   1      37.862  31.953  32.758  1.00  0.00     0.029 A 
ATOM     54  C   UNL A   1      39.090  31.210  33.040  1.00  0.00     0.049 A 
ATOM     55  H   UNL A   1      40.130  29.958  31.742  1.00  0.00     0.167 HD
ATOM     56  C   UNL A   1      42.124  27.199  28.990  1.00  0.00     0.037 A 
ATOM     57  C   UNL A   1      39.768  31.218  34.204  1.00  0.00     0.037 A 
ATOM     58  C   UNL A   1      42.960  27.221  30.162  1.00  0.00     0.049 A 
ATOM     59  C   UNL A   1      41.018  30.383  34.343  1.00  0.00     0.074 A 
ATOM     60  C   UNL A   1      44.169  26.579  30.372  1.00  0.00     0.029 A 
ATOM     61  N   UNL A   1      42.668  27.911  31.329  1.00  0.00    -0.354 N 
ATOM     62  N   UNL A   1      41.609  29.615  33.458  1.00  0.00    -0.248 NA
ATOM     63  C   UNL A   1      41.698  30.420  35.646  1.00  0.00     0.031 C 
ATOM     64  C   UNL A   1      44.573  26.826  31.688  1.00  0.00     0.029 A 
ATOM     65  C   UNL A   1      43.656  27.684  32.275  1.00  0.00     0.049 A 
ATOM     66  H   UNL A   1      41.876  28.478  31.466  1.00  0.00     0.167 HD
ATOM     67  C   UNL A   1      42.740  29.106  34.086  1.00  0.00     0.074 A 
ATOM     68  C   UNL A   1      42.765  29.668  35.419  1.00  0.00     0.031 C 
ATOM     69  C   UNL A   1      43.675  28.251  33.600  1.00  0.00     0.037 A 
BRANCH  56  70
ATOM     70  C   UNL A   1      42.549  26.339  27.832  1.00  0.00     0.064 A 
ATOM     71  C   UNL A   1      42.096  25.019  27.684  1.00  0.00     0.173 A 
ATOM     72  C   UNL A   1      43.391  26.857  26.837  1.00  0.00     0.173 A 
ATOM     73  F   UNL A   1      41.296  24.471  28.612  1.00  0.00    -0.203 F 
ATOM     74  C   UNL A   1      42.495  24.242  26.599  1.00  0.00     0.198 A 
ATOM     75  C   UNL A   1      43.760  26.088  25.737  1.00  0.00     0.198 A 
ATOM     76  F   UNL A   1      43.849  28.115  26.925  1.00  0.00    -0.203 F 
ATOM     77  F   UNL A   1      42.091  22.968  26.505  1.00  0.00    -0.200 F 
ATOM     78  C   UNL A   1      43.319  24.780  25.622  1.00  0.00     0.200 A 
ATOM     79  F   UNL A   1      44.543  26.616  24.785  1.00  0.00    -0.200 F 
ATOM     80  F   UNL A   1      43.694  24.033  24.574  1.00  0.00    -0.200 F 
ENDBRANCH  56  70
BRANCH  57  81
ATOM     81  C   UNL A   1      39.275  32.030  35.349  1.00  0.00     0.064 A 
ATOM     82  C   UNL A   1      39.620  33.382  35.480  1.00  0.00     0.173 A 
ATOM     83  C   UNL A   1      38.476  31.462  36.354  1.00  0.00     0.173 A 
ATOM     84  F   UNL A   1      40.405  33.965  34.562  1.00  0.00    -0.203 F 
ATOM     85  C   UNL A   1      39.206  34.129  36.582  1.00  0.00     0.198 A 
ATOM     86  C   UNL A   1      38.034  32.218  37.438  1.00  0.00     0.198 A 
ATOM     87  F   UNL A   1      38.123  30.170  36.283  1.00  0.00    -0.203 F 
ATOM     88  F   UNL A   1      39.600  35.403  36.710  1.00  0.00    -0.200 F 
ATOM     89  C   UNL A   1      38.408  33.549  37.556  1.00  0.00     0.200 A 
ATOM     90  F   UNL A   1      37.255  31.656  38.371  1.00  0.00    -0.200 F 
ATOM     91  F   UNL A   1      38.010  34.267  38.614  1.00  0.00    -0.200 F 
ENDBRANCH  57  81
BRANCH  69  92
ATOM     92  C   UNL A   1      44.831  27.902  34.499  1.00  0.00     0.064 A 
ATOM     93  C   UNL A   1      44.870  26.705  35.228  1.00  0.00     0.173 A 
ATOM     94  C   UNL A   1      45.931  28.769  34.610  1.00  0.00     0.173 A 
ATOM     95  F   UNL A   1      43.842  25.844  35.171  1.00  0.00    -0.203 F 
ATOM     96  C   UNL A   1      45.947  26.406  36.061  1.00  0.00     0.198 A 
ATOM     97  C   UNL A   1      47.022  28.449  35.412  1.00  0.00     0.198 A 
ATOM     98  F   UNL A   1      45.954  29.925  33.927  1.00  0.00    -0.203 F 
ATOM     99  F   UNL A   1      45.931  25.284  36.795  1.00  0.00    -0.200 F 
ATOM    100  C   UNL A   1      47.023  27.274  36.147  1.00  0.00     0.200 A 
ATOM    101  F   UNL A   1      48.070  29.282  35.479  1.00  0.00    -0.200 F 
ATOM    102  F   UNL A   1      48.061  26.983  36.945  1.00  0.00    -0.200 F 
ENDBRANCH  69  92
ENDBRANCH  43  44
ENDBRANCH  36  38
ENDBRANCH  35  36
ENDBRANCH  34  35
ENDBRANCH  33  34
ENDBRANCH  32  33
ENDBRANCH  31  32
ENDBRANCH   1  31
TORSDOF 22
ENDMDL
MODEL 2
REMARK VINA RESULT:     -11.1      1.291      2.554
REMARK SMILES CCN(C(=O)Cc1c(C(=O)OCCOCCOCCOC(=O)c2ccc(-c3c4nc(c(-c5c(F)c(F)c(F)c(F)c5F)c5ccc([nH]5)c(-c5c(F)c(F)c(F)c(F)c5F)c5nc(c(-c6c(F)c(F)c(F)c(F)c6F)c6ccc3[nH]6)C=C5)C=C4)cc2)[nH]c2ccccc12)c1cccc(C)c1
REMARK SMILES IDX 15 1 14 2 13 3 12 4 11 5 9 6 10 7 8 8 7 9 92 10 86 11 87 12
REMARK SMILES IDX 91 13 88 15 90 16 89 17 6 18 4 19 5 20 3 21 2 22 1 23 93 24
REMARK SMILES IDX 94 25 99 26 95 27 97 28 96 29 98 30 16 31 17 32 18 33 19 34
REMARK SMILES IDX 20 35 21 36 22 37 23 38 24 39 85 40 25 41 84 42 26 43 27 44
REMARK SMILES IDX 28 45 78 46 29 47 83 48 77 49 79 50 30 51 82 52 76 53 75 54
REMARK SMILES IDX 31 56 63 57 43 58 62 59 44 60 47 61 61 62 80 63 45 64 46 65
REMARK SMILES IDX 60 67 81 68 48 69 32 70 33 71 41 72 34 73 35 74 39 75 42 76
REMARK SMILES IDX 36 77 37 78 40 79 38 80 64 81 65 82 73 83 66 84 67 85 71 86
REMARK SMILES IDX 74 87 68 88 69 89 72 90 70 91 49 92 50 93 58 94 51 95 52 96
REMARK SMILES IDX 56 97 59 98 53 99 54 100 57 101 55 102
REMARK H PARENT 86 14 79 55 47 66
REMARK Flexibility Score: inf
ROOT
ATOM      1  C   UNL A   1      28.731  29.782  22.932  1.00  0.00     0.188 C 
ENDROOT
BRANCH   1   2
ATOM      2  O   UNL A   1      29.037  28.564  22.268  1.00  0.00    -0.376 OA
BRANCH   2   3
ATOM      3  C   UNL A   1      30.046  27.779  22.898  1.00  0.00     0.202 C 
BRANCH   3   4
ATOM      4  C   UNL A   1      29.552  26.785  23.968  1.00  0.00     0.261 C 
BRANCH   4   5
ATOM      5  O   UNL A   1      30.558  26.361  24.916  1.00  0.00    -0.459 OA
BRANCH   5   6
ATOM      6  C   UNL A   1      30.230  25.259  25.637  1.00  0.00     0.355 C 
ATOM      7  O   UNL A   1      29.438  25.289  26.554  1.00  0.00    -0.244 OA
BRANCH   6   8
ATOM      8  C   UNL A   1      30.939  24.085  25.158  1.00  0.00     0.129 A 
ATOM      9  C   UNL A   1      31.577  23.793  23.943  1.00  0.00     0.002 A 
ATOM     10  C   UNL A   1      32.006  22.418  24.020  1.00  0.00     0.004 A 
ATOM     11  N   UNL A   1      31.060  22.960  25.950  1.00  0.00    -0.349 N 
ATOM     12  C   UNL A   1      31.622  21.918  25.257  1.00  0.00     0.046 A 
ATOM     13  C   UNL A   1      32.683  21.559  23.126  1.00  0.00     0.010 A 
ATOM     14  H   UNL A   1      30.778  22.911  26.891  1.00  0.00     0.167 HD
ATOM     15  C   UNL A   1      31.832  20.585  25.631  1.00  0.00     0.027 A 
ATOM     16  C   UNL A   1      32.897  20.224  23.478  1.00  0.00     0.001 A 
ATOM     17  C   UNL A   1      32.463  19.742  24.710  1.00  0.00     0.002 A 
BRANCH   9  18
ATOM     18  C   UNL A   1      31.900  24.610  22.716  1.00  0.00     0.139 C 
BRANCH  18  19
ATOM     19  C   UNL A   1      33.232  25.315  22.629  1.00  0.00     0.231 C 
ATOM     20  O   UNL A   1      33.629  25.598  21.491  1.00  0.00    -0.274 OA
BRANCH  19  21
ATOM     21  N   UNL A   1      33.931  25.612  23.811  1.00  0.00    -0.312 N 
BRANCH  21  22
ATOM     22  C   UNL A   1      33.920  26.945  24.448  1.00  0.00     0.122 C 
ATOM     23  C   UNL A   1      33.776  28.200  23.591  1.00  0.00     0.028 C 
ENDBRANCH  21  22
BRANCH  21  24
ATOM     24  C   UNL A   1      34.718  24.556  24.408  1.00  0.00     0.044 A 
ATOM     25  C   UNL A   1      35.521  23.714  23.626  1.00  0.00     0.026 A 
ATOM     26  C   UNL A   1      34.529  24.204  25.749  1.00  0.00     0.029 A 
ATOM     27  C   UNL A   1      36.058  22.533  24.149  1.00  0.00     0.002 A 
ATOM     28  C   UNL A   1      34.969  22.970  26.255  1.00  0.00    -0.049 A 
ATOM     29  C   UNL A   1      35.762  22.149  25.454  1.00  0.00     0.003 A 
ATOM     30  C   UNL A   1      34.511  22.504  27.607  1.00  0.00     0.044 C 
ENDBRANCH  21  24
ENDBRANCH  19  21
ENDBRANCH  18  19
ENDBRANCH   9  18
ENDBRANCH   6   8
ENDBRANCH   5   6
ENDBRANCH   4   5
ENDBRANCH   3   4
ENDBRANCH   2   3
ENDBRANCH   1   2
BRANCH   1  31
ATOM     31  C   UNL A   1      29.825  30.277  23.906  1.00  0.00     0.188 C 
BRANCH  31  32
ATOM     32  O   UNL A   1      29.720  31.555  24.511  1.00  0.00    -0.376 OA
BRANCH  32  33
ATOM     33  C   UNL A   1      30.688  31.915  25.483  1.00  0.00     0.202 C 
BRANCH  33  34
ATOM     34  C   UNL A   1      31.418  30.826  26.296  1.00  0.00     0.261 C 
BRANCH  34  35
ATOM     35  O   UNL A   1      32.854  30.916  26.363  1.00  0.00    -0.460 OA
BRANCH  35  36
ATOM     36  C   UNL A   1      33.352  31.880  27.180  1.00  0.00     0.338 C 
ATOM     37  O   UNL A   1      32.776  32.878  27.578  1.00  0.00    -0.246 OA
BRANCH  36  38
ATOM     38  C   UNL A   1      34.680  31.475  27.696  1.00  0.00     0.060 A 
ATOM     39  C   UNL A   1      34.906  30.125  28.014  1.00  0.00     0.016 A 
ATOM     40  C   UNL A   1      35.667  32.427  27.950  1.00  0.00     0.016 A 
ATOM     41  C   UNL A   1      36.110  29.726  28.592  1.00  0.00     0.010 A 
ATOM     42  C   UNL A   1      36.861  32.029  28.564  1.00  0.00     0.010 A 
ATOM     43  C   UNL A   1      37.078  30.682  28.913  1.00  0.00    -0.014 A 
BRANCH  43  44
ATOM     44  C   UNL A   1      38.231  30.301  29.767  1.00  0.00     0.031 A 
ATOM     45  C   UNL A   1      39.232  29.313  29.231  1.00  0.00     0.074 A 
ATOM     46  C   UNL A   1      38.401  30.837  30.988  1.00  0.00     0.049 A 
ATOM     47  N   UNL A   1      40.277  28.782  29.817  1.00  0.00    -0.248 NA
ATOM     48  C   UNL A   1      39.025  28.862  27.846  1.00  0.00     0.031 C 
ATOM     49  C   UNL A   1      37.534  31.839  31.600  1.00  0.00     0.029 A 
ATOM     50  N   UNL A   1      39.365  30.596  31.936  1.00  0.00    -0.354 N 
ATOM     51  C   UNL A   1      40.842  27.927  28.877  1.00  0.00     0.074 A 
ATOM     52  C   UNL A   1      40.009  27.989  27.695  1.00  0.00     0.031 C 
ATOM     53  C   UNL A   1      37.992  32.113  32.834  1.00  0.00     0.029 A 
ATOM     54  C   UNL A   1      39.163  31.279  33.109  1.00  0.00     0.049 A 
ATOM     55  H   UNL A   1      40.128  29.990  31.790  1.00  0.00     0.167 HD
ATOM     56  C   UNL A   1      41.956  27.165  28.989  1.00  0.00     0.037 A 
ATOM     57  C   UNL A   1      39.828  31.213  34.279  1.00  0.00     0.037 A 
ATOM     58  C   UNL A   1      42.779  27.101  30.169  1.00  0.00     0.049 A 
ATOM     59  C   UNL A   1      41.015  30.290  34.409  1.00  0.00     0.074 A 
ATOM     60  C   UNL A   1      43.938  26.372  30.375  1.00  0.00     0.029 A 
ATOM     61  N   UNL A   1      42.523  27.781  31.350  1.00  0.00    -0.354 N 
ATOM     62  N   UNL A   1      41.561  29.504  33.511  1.00  0.00    -0.248 NA
ATOM     63  C   UNL A   1      41.682  30.249  35.718  1.00  0.00     0.031 C 
ATOM     64  C   UNL A   1      44.344  26.559  31.700  1.00  0.00     0.029 A 
ATOM     65  C   UNL A   1      43.483  27.464  32.300  1.00  0.00     0.049 A 
ATOM     66  H   UNL A   1      41.770  28.400  31.494  1.00  0.00     0.167 HD
ATOM     67  C   UNL A   1      42.648  28.903  34.136  1.00  0.00     0.074 A 
ATOM     68  C   UNL A   1      42.696  29.430  35.483  1.00  0.00     0.031 C 
ATOM     69  C   UNL A   1      43.526  27.997  33.638  1.00  0.00     0.037 A 
BRANCH  56  70
ATOM     70  C   UNL A   1      42.332  26.306  27.815  1.00  0.00     0.064 A 
ATOM     71  C   UNL A   1      41.735  25.057  27.589  1.00  0.00     0.173 A 
ATOM     72  C   UNL A   1      43.278  26.757  26.882  1.00  0.00     0.173 A 
ATOM     73  F   UNL A   1      40.832  24.572  28.456  1.00  0.00    -0.203 F 
ATOM     74  C   UNL A   1      42.093  24.280  26.489  1.00  0.00     0.198 A 
ATOM     75  C   UNL A   1      43.607  25.993  25.766  1.00  0.00     0.198 A 
ATOM     76  F   UNL A   1      43.876  27.947  27.044  1.00  0.00    -0.203 F 
ATOM     77  F   UNL A   1      41.546  23.067  26.322  1.00  0.00    -0.200 F 
ATOM     78  C   UNL A   1      43.021  24.752  25.574  1.00  0.00     0.200 A 
ATOM     79  F   UNL A   1      44.492  26.460  24.873  1.00  0.00    -0.200 F 
ATOM     80  F   UNL A   1      43.356  24.007  24.512  1.00  0.00    -0.200 F 
ENDBRANCH  56  70
BRANCH  57  81
ATOM     81  C   UNL A   1      39.380  32.030  35.439  1.00  0.00     0.064 A 
ATOM     82  C   UNL A   1      38.515  31.500  36.407  1.00  0.00     0.173 A 
ATOM     83  C   UNL A   1      39.780  33.367  35.587  1.00  0.00     0.173 A 
ATOM     84  F   UNL A   1      38.080  30.236  36.296  1.00  0.00    -0.203 F 
ATOM     85  C   UNL A   1      38.048  32.280  37.462  1.00  0.00     0.198 A 
ATOM     86  C   UNL A   1      39.340  34.137  36.661  1.00  0.00     0.198 A 
ATOM     87  F   UNL A   1      40.600  33.927  34.685  1.00  0.00    -0.203 F 
ATOM     88  F   UNL A   1      37.176  31.765  38.339  1.00  0.00    -0.200 F 
ATOM     89  C   UNL A   1      38.466  33.596  37.593  1.00  0.00     0.200 A 
ATOM     90  F   UNL A   1      39.755  35.404  36.789  1.00  0.00    -0.200 F 
ATOM     91  F   UNL A   1      38.018  34.346  38.609  1.00  0.00    -0.200 F 
ENDBRANCH  57  81
BRANCH  69  92
ATOM     92  C   UNL A   1      44.646  27.547  34.538  1.00  0.00     0.064 A 
ATOM     93  C   UNL A   1      45.863  28.241  34.613  1.00  0.00     0.173 A 
ATOM     94  C   UNL A   1      44.487  26.420  35.360  1.00  0.00     0.173 A 
ATOM     95  F   UNL A   1      46.076  29.318  33.841  1.00  0.00    -0.203 F 
ATOM     96  C   UNL A   1      46.889  27.802  35.447  1.00  0.00     0.198 A 
ATOM     97  C   UNL A   1      45.499  26.007  36.221  1.00  0.00     0.198 A 
ATOM     98  F   UNL A   1      43.340  25.723  35.339  1.00  0.00    -0.203 F 
ATOM     99  F   UNL A   1      48.065  28.446  35.454  1.00  0.00    -0.200 F 
ATOM    100  C   UNL A   1      46.705  26.691  36.255  1.00  0.00     0.200 A 
ATOM    101  F   UNL A   1      45.311  24.943  37.015  1.00  0.00    -0.200 F 
ATOM    102  F   UNL A   1      47.691  26.273  37.060  1.00  0.00    -0.200 F 
ENDBRANCH  69  92
ENDBRANCH  43  44
ENDBRANCH  36  38
ENDBRANCH  35  36
ENDBRANCH  34  35
ENDBRANCH  33  34
ENDBRANCH  32  33
ENDBRANCH  31  32
ENDBRANCH   1  31
TORSDOF 22
ENDMDL
MODEL 3
REMARK VINA RESULT:     -11.0      1.140      2.954
REMARK SMILES CCN(C(=O)Cc1c(C(=O)OCCOCCOCCOC(=O)c2ccc(-c3c4nc(c(-c5c(F)c(F)c(F)c(F)c5F)c5ccc([nH]5)c(-c5c(F)c(F)c(F)c(F)c5F)c5nc(c(-c6c(F)c(F)c(F)c(F)c6F)c6ccc3[nH]6)C=C5)C=C4)cc2)[nH]c2ccccc12)c1cccc(C)c1
REMARK SMILES IDX 15 1 14 2 13 3 12 4 11 5 9 6 10 7 8 8 7 9 92 10 86 11 87 12
REMARK SMILES IDX 91 13 88 15 90 16 89 17 6 18 4 19 5 20 3 21 2 22 1 23 93 24
REMARK SMILES IDX 94 25 99 26 95 27 97 28 96 29 98 30 16 31 17 32 18 33 19 34
REMARK SMILES IDX 20 35 21 36 22 37 23 38 24 39 85 40 25 41 84 42 26 43 27 44
REMARK SMILES IDX 28 45 78 46 29 47 83 48 77 49 79 50 30 51 82 52 76 53 75 54
REMARK SMILES IDX 31 56 63 57 43 58 62 59 44 60 47 61 61 62 80 63 45 64 46 65
REMARK SMILES IDX 60 67 81 68 48 69 32 70 33 71 41 72 34 73 35 74 39 75 42 76
REMARK SMILES IDX 36 77 37 78 40 79 38 80 64 81 65 82 73 83 66 84 67 85 71 86
REMARK SMILES IDX 74 87 68 88 69 89 72 90 70 91 49 92 50 93 58 94 51 95 52 96
REMARK SMILES IDX 56 97 59 98 53 99 54 100 57 101 55 102
REMARK H PARENT 86 14 79 55 47 66
REMARK Flexibility Score: inf
ROOT
ATOM      1  C   UNL A   1      31.239  27.736  22.580  1.00  0.00     0.188 C 
ENDROOT
BRANCH   1   2
ATOM      2  O   UNL A   1      30.206  26.880  23.045  1.00  0.00    -0.376 OA
BRANCH   2   3
ATOM      3  C   UNL A   1      30.593  25.991  24.090  1.00  0.00     0.202 C 
BRANCH   3   4
ATOM      4  C   UNL A   1      31.119  26.657  25.377  1.00  0.00     0.261 C 
BRANCH   4   5
ATOM      5  O   UNL A   1      32.283  26.027  25.957  1.00  0.00    -0.459 OA
BRANCH   5   6
ATOM      6  C   UNL A   1      33.433  26.207  25.258  1.00  0.00     0.355 C 
ATOM      7  O   UNL A   1      33.761  27.282  24.805  1.00  0.00    -0.244 OA
BRANCH   6   8
ATOM      8  C   UNL A   1      34.182  24.967  25.147  1.00  0.00     0.129 A 
ATOM      9  C   UNL A   1      34.379  23.896  26.032  1.00  0.00     0.002 A 
ATOM     10  C   UNL A   1      35.315  23.000  25.396  1.00  0.00     0.004 A 
ATOM     11  N   UNL A   1      34.902  24.676  24.005  1.00  0.00    -0.349 N 
ATOM     12  C   UNL A   1      35.657  23.542  24.164  1.00  0.00     0.046 A 
ATOM     13  C   UNL A   1      35.904  21.775  25.782  1.00  0.00     0.010 A 
ATOM     14  H   UNL A   1      34.877  25.214  23.181  1.00  0.00     0.167 HD
ATOM     15  C   UNL A   1      36.600  22.950  23.315  1.00  0.00     0.027 A 
ATOM     16  C   UNL A   1      36.851  21.172  24.951  1.00  0.00     0.001 A 
ATOM     17  C   UNL A   1      37.203  21.761  23.740  1.00  0.00     0.002 A 
BRANCH   9  18
ATOM     18  C   UNL A   1      33.797  23.538  27.377  1.00  0.00     0.139 C 
BRANCH  18  19
ATOM     19  C   UNL A   1      32.621  22.594  27.444  1.00  0.00     0.231 C 
ATOM     20  O   UNL A   1      32.524  21.911  28.472  1.00  0.00    -0.274 OA
BRANCH  19  21
ATOM     21  N   UNL A   1      31.719  22.542  26.368  1.00  0.00    -0.312 N 
BRANCH  21  22
ATOM     22  C   UNL A   1      30.382  23.170  26.400  1.00  0.00     0.122 C 
ATOM     23  C   UNL A   1      29.293  22.604  27.308  1.00  0.00     0.028 C 
ENDBRANCH  21  22
BRANCH  21  24
ATOM     24  C   UNL A   1      32.122  21.812  25.187  1.00  0.00     0.044 A 
ATOM     25  C   UNL A   1      31.950  22.348  23.904  1.00  0.00     0.026 A 
ATOM     26  C   UNL A   1      32.488  20.464  25.279  1.00  0.00     0.029 A 
ATOM     27  C   UNL A   1      32.075  21.550  22.761  1.00  0.00     0.002 A 
ATOM     28  C   UNL A   1      32.508  19.628  24.151  1.00  0.00    -0.049 A 
ATOM     29  C   UNL A   1      32.329  20.187  22.886  1.00  0.00     0.003 A 
ATOM     30  C   UNL A   1      32.628  18.141  24.318  1.00  0.00     0.044 C 
ENDBRANCH  21  24
ENDBRANCH  19  21
ENDBRANCH  18  19
ENDBRANCH   9  18
ENDBRANCH   6   8
ENDBRANCH   5   6
ENDBRANCH   4   5
ENDBRANCH   3   4
ENDBRANCH   2   3
ENDBRANCH   1   2
BRANCH   1  31
ATOM     31  C   UNL A   1      30.997  29.240  22.845  1.00  0.00     0.188 C 
BRANCH  31  32
ATOM     32  O   UNL A   1      30.251  29.657  23.976  1.00  0.00    -0.376 OA
BRANCH  32  33
ATOM     33  C   UNL A   1      30.878  30.525  24.907  1.00  0.00     0.202 C 
BRANCH  33  34
ATOM     34  C   UNL A   1      32.209  30.121  25.573  1.00  0.00     0.261 C 
BRANCH  34  35
ATOM     35  O   UNL A   1      32.373  30.465  26.963  1.00  0.00    -0.460 OA
BRANCH  35  36
ATOM     36  C   UNL A   1      33.082  31.595  27.216  1.00  0.00     0.338 C 
ATOM     37  O   UNL A   1      32.671  32.743  27.191  1.00  0.00    -0.246 OA
BRANCH  36  38
ATOM     38  C   UNL A   1      34.432  31.249  27.718  1.00  0.00     0.060 A 
ATOM     39  C   UNL A   1      34.714  29.912  28.048  1.00  0.00     0.016 A 
ATOM     40  C   UNL A   1      35.383  32.241  27.948  1.00  0.00     0.016 A 
ATOM     41  C   UNL A   1      35.941  29.567  28.613  1.00  0.00     0.010 A 
ATOM     42  C   UNL A   1      36.600  31.897  28.550  1.00  0.00     0.010 A 
ATOM     43  C   UNL A   1      36.874  30.564  28.911  1.00  0.00    -0.014 A 
BRANCH  43  44
ATOM     44  C   UNL A   1      38.053  30.238  29.753  1.00  0.00     0.031 A 
ATOM     45  C   UNL A   1      39.086  29.285  29.214  1.00  0.00     0.074 A 
ATOM     46  C   UNL A   1      38.217  30.793  30.966  1.00  0.00     0.049 A 
ATOM     47  N   UNL A   1      40.158  28.803  29.790  1.00  0.00    -0.248 NA
ATOM     48  C   UNL A   1      38.879  28.811  27.836  1.00  0.00     0.031 C 
ATOM     49  C   UNL A   1      37.318  31.766  31.580  1.00  0.00     0.029 A 
ATOM     50  N   UNL A   1      39.202  30.601  31.904  1.00  0.00    -0.354 N 
ATOM     51  C   UNL A   1      40.745  27.961  28.852  1.00  0.00     0.074 A 
ATOM     52  C   UNL A   1      39.895  27.978  27.680  1.00  0.00     0.031 C 
ATOM     53  C   UNL A   1      37.782  32.071  32.805  1.00  0.00     0.029 A 
ATOM     54  C   UNL A   1      38.988  31.288  33.073  1.00  0.00     0.049 A 
ATOM     55  H   UNL A   1      39.987  30.024  31.753  1.00  0.00     0.167 HD
ATOM     56  C   UNL A   1      41.890  27.245  28.957  1.00  0.00     0.037 A 
ATOM     57  C   UNL A   1      39.670  31.260  34.234  1.00  0.00     0.037 A 
ATOM     58  C   UNL A   1      42.730  27.226  30.126  1.00  0.00     0.049 A 
ATOM     59  C   UNL A   1      40.895  30.387  34.357  1.00  0.00     0.074 A 
ATOM     60  C   UNL A   1      43.920  26.547  30.323  1.00  0.00     0.029 A 
ATOM     61  N   UNL A   1      42.462  27.908  31.304  1.00  0.00    -0.354 N 
ATOM     62  N   UNL A   1      41.460  29.614  33.460  1.00  0.00    -0.248 NA
ATOM     63  C   UNL A   1      41.580  30.386  35.658  1.00  0.00     0.031 C 
ATOM     64  C   UNL A   1      44.335  26.764  31.641  1.00  0.00     0.029 A 
ATOM     65  C   UNL A   1      43.446  27.639  32.243  1.00  0.00     0.049 A 
ATOM     66  H   UNL A   1      41.687  28.498  31.451  1.00  0.00     0.167 HD
ATOM     67  C   UNL A   1      42.578  29.063  34.076  1.00  0.00     0.074 A 
ATOM     68  C   UNL A   1      42.623  29.606  35.417  1.00  0.00     0.031 C 
ATOM     69  C   UNL A   1      43.485  28.188  33.575  1.00  0.00     0.037 A 
BRANCH  56  70
ATOM     70  C   UNL A   1      42.285  26.390  27.786  1.00  0.00     0.064 A 
ATOM     71  C   UNL A   1      43.216  26.825  26.831  1.00  0.00     0.173 A 
ATOM     72  C   UNL A   1      41.751  25.101  27.638  1.00  0.00     0.173 A 
ATOM     73  F   UNL A   1      43.750  28.053  26.918  1.00  0.00    -0.203 F 
ATOM     74  C   UNL A   1      43.575  26.013  25.757  1.00  0.00     0.198 A 
ATOM     75  C   UNL A   1      42.138  24.279  26.584  1.00  0.00     0.198 A 
ATOM     76  F   UNL A   1      40.861  24.631  28.526  1.00  0.00    -0.203 F 
ATOM     77  F   UNL A   1      44.428  26.469  24.829  1.00  0.00    -0.200 F 
ATOM     78  C   UNL A   1      43.042  24.738  25.639  1.00  0.00     0.200 A 
ATOM     79  F   UNL A   1      41.634  23.041  26.482  1.00  0.00    -0.200 F 
ATOM     80  F   UNL A   1      43.396  23.954  24.611  1.00  0.00    -0.200 F 
ENDBRANCH  56  70
BRANCH  57  81
ATOM     81  C   UNL A   1      39.205  32.070  35.392  1.00  0.00     0.064 A 
ATOM     82  C   UNL A   1      39.587  33.411  35.538  1.00  0.00     0.173 A 
ATOM     83  C   UNL A   1      38.395  31.511  36.393  1.00  0.00     0.173 A 
ATOM     84  F   UNL A   1      40.383  33.983  34.624  1.00  0.00    -0.203 F 
ATOM     85  C   UNL A   1      39.199  34.154  36.651  1.00  0.00     0.198 A 
ATOM     86  C   UNL A   1      37.980  32.265  37.489  1.00  0.00     0.198 A 
ATOM     87  F   UNL A   1      38.007  30.230  36.308  1.00  0.00    -0.203 F 
ATOM     88  F   UNL A   1      39.628  35.415  36.794  1.00  0.00    -0.200 F 
ATOM     89  C   UNL A   1      38.390  33.583  37.623  1.00  0.00     0.200 A 
ATOM     90  F   UNL A   1      37.190  31.713  38.419  1.00  0.00    -0.200 F 
ATOM     91  F   UNL A   1      38.017  34.299  38.692  1.00  0.00    -0.200 F 
ENDBRANCH  57  81
BRANCH  69  92
ATOM     92  C   UNL A   1      44.634  27.793  34.465  1.00  0.00     0.064 A 
ATOM     93  C   UNL A   1      45.814  28.548  34.533  1.00  0.00     0.173 A 
ATOM     94  C   UNL A   1      44.539  26.656  35.283  1.00  0.00     0.173 A 
ATOM     95  F   UNL A   1      45.966  29.637  33.765  1.00  0.00    -0.203 F 
ATOM     96  C   UNL A   1      46.868  28.159  35.358  1.00  0.00     0.198 A 
ATOM     97  C   UNL A   1      45.579  26.292  36.134  1.00  0.00     0.198 A 
ATOM     98  F   UNL A   1      43.429  25.900  35.268  1.00  0.00    -0.203 F 
ATOM     99  F   UNL A   1      48.010  28.862  35.359  1.00  0.00    -0.200 F 
ATOM    100  C   UNL A   1      46.747  27.037  36.162  1.00  0.00     0.200 A 
ATOM    101  F   UNL A   1      45.451  25.216  36.925  1.00  0.00    -0.200 F 
ATOM    102  F   UNL A   1      47.760  26.666  36.958  1.00  0.00    -0.200 F 
ENDBRANCH  69  92
ENDBRANCH  43  44
ENDBRANCH  36  38
ENDBRANCH  35  36
ENDBRANCH  34  35
ENDBRANCH  33  34
ENDBRANCH  32  33
ENDBRANCH  31  32
ENDBRANCH   1  31
TORSDOF 22
ENDMDL
