MODEL 1
REMARK VINA RESULT:      -8.4      0.000      0.000
REMARK SMILES CCCC[C@@H](C)[NH2+]Cc1ccc(C(=O)OCCOCCOCCOC(=O)c2ccc(-c3c4nc(c(-c5c(F)c(F)c(F)c(F)c5F)c5ccc([nH]5)c(-c5c(F)c(F)c(F)c(F)c5F)c5nc(c(-c6c(F)c(F)c(F)c(F)c6F)c6ccc3[nH]6)C=C5)C=C4)cc2)cn1
REMARK SMILES IDX 17 1 16 2 15 3 13 4 14 5 12 6 9 7 10 8 91 9 11 10 90 11 8 12
REMARK SMILES IDX 7 13 5 16 6 17 4 18 3 19 2 20 1 21 18 22 19 23 20 24 21 25
REMARK SMILES IDX 22 26 23 27 24 28 25 29 26 30 27 31 28 32 89 33 29 34 88 35
REMARK SMILES IDX 30 36 31 37 32 38 82 39 33 40 87 41 81 42 83 43 34 44 86 45
REMARK SMILES IDX 80 46 79 47 35 49 67 50 47 51 66 52 48 53 51 54 65 55 84 56
REMARK SMILES IDX 49 57 50 58 64 60 85 61 52 62 36 63 37 64 45 65 38 66 39 67
REMARK SMILES IDX 43 68 46 69 40 70 41 71 44 72 42 73 68 74 69 75 77 76 70 77
REMARK SMILES IDX 71 78 75 79 78 80 72 81 73 82 76 83 74 84 53 85 54 86 62 87
REMARK SMILES IDX 55 88 56 89 60 90 63 91 57 92 58 93 61 94 59 95
REMARK H PARENT 7 14 7 15 83 48 51 59
REMARK Flexibility Score: inf
ROOT
ATOM      1  C   UNL A   1      49.898  27.541  28.097  1.00  0.00     0.202 C 
ENDROOT
BRANCH   1   2
ATOM      2  C   UNL A   1      49.014  28.654  27.507  1.00  0.00     0.261 C 
BRANCH   2   3
ATOM      3  O   UNL A   1      47.607  28.352  27.499  1.00  0.00    -0.460 OA
BRANCH   3   4
ATOM      4  C   UNL A   1      47.178  27.651  26.424  1.00  0.00     0.339 C 
ATOM      5  O   UNL A   1      47.152  28.012  25.264  1.00  0.00    -0.246 OA
BRANCH   4   6
ATOM      6  C   UNL A   1      46.937  26.254  26.795  1.00  0.00     0.078 A 
ATOM      7  C   UNL A   1      46.030  23.686  26.958  1.00  0.00     0.094 A 
ATOM      8  C   UNL A   1      45.809  24.554  28.034  1.00  0.00     0.031 A 
ATOM      9  N   UNL A   1      46.873  23.996  25.949  1.00  0.00    -0.254 NA
ATOM     10  C   UNL A   1      46.298  25.861  27.962  1.00  0.00     0.019 A 
ATOM     11  C   UNL A   1      47.230  25.290  25.844  1.00  0.00     0.127 A 
BRANCH   7  12
ATOM     12  C   UNL A   1      45.059  22.553  26.670  1.00  0.00     0.318 C 
BRANCH  12  13
ATOM     13  N   UNL A   1      45.296  21.911  25.354  1.00  0.00    -0.339 N 
ATOM     14  H   UNL A   1      44.493  22.115  24.759  1.00  0.00     0.346 HD
ATOM     15  H   UNL A   1      46.178  22.298  25.017  1.00  0.00     0.346 HD
BRANCH  13  16
ATOM     16  C   UNL A   1      45.488  20.441  25.365  1.00  0.00     0.179 C 
ATOM     17  C   UNL A   1      46.722  19.948  24.603  1.00  0.00     0.075 C 
BRANCH  16  18
ATOM     18  C   UNL A   1      44.222  19.795  24.754  1.00  0.00     0.065 C 
BRANCH  18  19
ATOM     19  C   UNL A   1      43.172  19.290  25.765  1.00  0.00     0.006 C 
BRANCH  19  20
ATOM     20  C   UNL A   1      42.048  20.274  26.095  1.00  0.00    -0.003 C 
ATOM     21  C   UNL A   1      41.413  19.990  27.446  1.00  0.00     0.004 C 
ENDBRANCH  19  20
ENDBRANCH  18  19
ENDBRANCH  16  18
ENDBRANCH  13  16
ENDBRANCH  12  13
ENDBRANCH   7  12
ENDBRANCH   4   6
ENDBRANCH   3   4
ENDBRANCH   2   3
ENDBRANCH   1   2
BRANCH   1  22
ATOM     22  O   UNL A   1      50.875  27.841  29.090  1.00  0.00    -0.376 OA
BRANCH  22  23
ATOM     23  C   UNL A   1      50.613  27.495  30.443  1.00  0.00     0.188 C 
BRANCH  23  24
ATOM     24  C   UNL A   1      51.203  26.189  31.017  1.00  0.00     0.188 C 
BRANCH  24  25
ATOM     25  O   UNL A   1      50.256  25.179  31.244  1.00  0.00    -0.376 OA
BRANCH  25  26
ATOM     26  C   UNL A   1      49.241  25.386  32.207  1.00  0.00     0.202 C 
BRANCH  26  27
ATOM     27  C   UNL A   1      49.149  24.660  33.568  1.00  0.00     0.261 C 
BRANCH  27  28
ATOM     28  O   UNL A   1      48.673  25.381  34.711  1.00  0.00    -0.460 OA
BRANCH  28  29
ATOM     29  C   UNL A   1      47.570  24.883  35.317  1.00  0.00     0.338 C 
ATOM     30  O   UNL A   1      47.510  23.921  36.062  1.00  0.00    -0.246 OA
BRANCH  29  31
ATOM     31  C   UNL A   1      46.432  25.796  35.077  1.00  0.00     0.060 A 
ATOM     32  C   UNL A   1      45.131  25.284  35.174  1.00  0.00     0.016 A 
ATOM     33  C   UNL A   1      46.645  27.116  34.676  1.00  0.00     0.016 A 
ATOM     34  C   UNL A   1      44.041  26.073  34.802  1.00  0.00     0.010 A 
ATOM     35  C   UNL A   1      45.552  27.902  34.291  1.00  0.00     0.010 A 
ATOM     36  C   UNL A   1      44.251  27.365  34.301  1.00  0.00    -0.014 A 
BRANCH  36  37
ATOM     37  C   UNL A   1      43.144  28.054  33.587  1.00  0.00     0.031 A 
ATOM     38  C   UNL A   1      42.932  27.750  32.127  1.00  0.00     0.074 A 
ATOM     39  C   UNL A   1      42.305  28.889  34.226  1.00  0.00     0.049 A 
ATOM     40  N   UNL A   1      42.029  28.210  31.298  1.00  0.00    -0.248 NA
ATOM     41  C   UNL A   1      43.871  26.794  31.517  1.00  0.00     0.031 C 
ATOM     42  C   UNL A   1      42.376  29.241  35.641  1.00  0.00     0.029 A 
ATOM     43  N   UNL A   1      41.222  29.592  33.755  1.00  0.00    -0.354 N 
ATOM     44  C   UNL A   1      42.293  27.604  30.076  1.00  0.00     0.074 A 
ATOM     45  C   UNL A   1      43.466  26.777  30.257  1.00  0.00     0.031 C 
ATOM     46  C   UNL A   1      41.381  30.098  35.926  1.00  0.00     0.029 A 
ATOM     47  C   UNL A   1      40.618  30.373  34.709  1.00  0.00     0.049 A 
ATOM     48  H   UNL A   1      40.909  29.540  32.824  1.00  0.00     0.167 HD
ATOM     49  C   UNL A   1      41.613  27.713  28.909  1.00  0.00     0.037 A 
ATOM     50  C   UNL A   1      39.575  31.220  34.605  1.00  0.00     0.037 A 
ATOM     51  C   UNL A   1      40.445  28.534  28.724  1.00  0.00     0.049 A 
ATOM     52  C   UNL A   1      38.871  31.370  33.279  1.00  0.00     0.074 A 
ATOM     53  C   UNL A   1      39.677  28.702  27.585  1.00  0.00     0.029 A 
ATOM     54  N   UNL A   1      39.881  29.335  29.707  1.00  0.00    -0.354 N 
ATOM     55  N   UNL A   1      39.107  30.772  32.137  1.00  0.00    -0.248 NA
ATOM     56  C   UNL A   1      37.739  32.308  33.236  1.00  0.00     0.031 C 
ATOM     57  C   UNL A   1      38.684  29.647  27.862  1.00  0.00     0.029 A 
ATOM     58  C   UNL A   1      38.788  30.017  29.193  1.00  0.00     0.049 A 
ATOM     59  H   UNL A   1      40.207  29.409  30.633  1.00  0.00     0.167 HD
ATOM     60  C   UNL A   1      38.136  31.230  31.253  1.00  0.00     0.074 A 
ATOM     61  C   UNL A   1      37.296  32.144  31.998  1.00  0.00     0.031 C 
ATOM     62  C   UNL A   1      37.954  30.920  29.945  1.00  0.00     0.037 A 
BRANCH  49  63
ATOM     63  C   UNL A   1      42.132  26.939  27.730  1.00  0.00     0.064 A 
ATOM     64  C   UNL A   1      43.009  27.513  26.796  1.00  0.00     0.173 A 
ATOM     65  C   UNL A   1      41.764  25.598  27.544  1.00  0.00     0.173 A 
ATOM     66  F   UNL A   1      43.382  28.796  26.918  1.00  0.00    -0.203 F 
ATOM     67  C   UNL A   1      43.474  26.781  25.705  1.00  0.00     0.198 A 
ATOM     68  C   UNL A   1      42.257  24.861  26.471  1.00  0.00     0.198 A 
ATOM     69  F   UNL A   1      40.931  24.999  28.407  1.00  0.00    -0.203 F 
ATOM     70  F   UNL A   1      44.267  27.367  24.797  1.00  0.00    -0.200 F 
ATOM     71  C   UNL A   1      43.104  25.455  25.548  1.00  0.00     0.200 A 
ATOM     72  F   UNL A   1      41.910  23.574  26.328  1.00  0.00    -0.200 F 
ATOM     73  F   UNL A   1      43.557  24.751  24.502  1.00  0.00    -0.200 F 
ENDBRANCH  49  63
BRANCH  50  74
ATOM     74  C   UNL A   1      39.123  31.997  35.790  1.00  0.00     0.064 A 
ATOM     75  C   UNL A   1      39.595  33.296  36.030  1.00  0.00     0.173 A 
ATOM     76  C   UNL A   1      38.240  31.441  36.728  1.00  0.00     0.173 A 
ATOM     77  F   UNL A   1      40.464  33.859  35.179  1.00  0.00    -0.203 F 
ATOM     78  C   UNL A   1      39.221  33.998  37.174  1.00  0.00     0.198 A 
ATOM     79  C   UNL A   1      37.841  32.158  37.855  1.00  0.00     0.198 A 
ATOM     80  F   UNL A   1      37.762  30.202  36.550  1.00  0.00    -0.203 F 
ATOM     81  F   UNL A   1      39.734  35.214  37.408  1.00  0.00    -0.200 F 
ATOM     82  C   UNL A   1      38.341  33.431  38.082  1.00  0.00     0.200 A 
ATOM     83  F   UNL A   1      36.983  31.610  38.726  1.00  0.00    -0.200 F 
ATOM     84  F   UNL A   1      37.984  34.106  39.183  1.00  0.00    -0.200 F 
ENDBRANCH  50  74
BRANCH  62  85
ATOM     85  C   UNL A   1      36.772  31.537  29.248  1.00  0.00     0.064 A 
ATOM     86  C   UNL A   1      36.733  32.899  28.910  1.00  0.00     0.173 A 
ATOM     87  C   UNL A   1      35.662  30.748  28.905  1.00  0.00     0.173 A 
ATOM     88  F   UNL A   1      37.761  33.702  29.221  1.00  0.00    -0.203 F 
ATOM     89  C   UNL A   1      35.611  33.455  28.300  1.00  0.00     0.198 A 
ATOM     90  C   UNL A   1      34.558  31.300  28.260  1.00  0.00     0.198 A 
ATOM     91  F   UNL A   1      35.649  29.437  29.191  1.00  0.00    -0.203 F 
ATOM     92  F   UNL A   1      35.569  34.771  28.053  1.00  0.00    -0.200 F 
ATOM     93  C   UNL A   1      34.526  32.655  27.971  1.00  0.00     0.200 A 
ATOM     94  F   UNL A   1      33.520  30.520  27.927  1.00  0.00    -0.200 F 
ATOM     95  F   UNL A   1      33.448  33.192  27.387  1.00  0.00    -0.200 F 
ENDBRANCH  62  85
ENDBRANCH  36  37
ENDBRANCH  29  31
ENDBRANCH  28  29
ENDBRANCH  27  28
ENDBRANCH  26  27
ENDBRANCH  25  26
ENDBRANCH  24  25
ENDBRANCH  23  24
ENDBRANCH  22  23
ENDBRANCH   1  22
TORSDOF 23
ENDMDL
MODEL 2
REMARK VINA RESULT:      -7.9      4.565     12.187
REMARK SMILES CCCC[C@@H](C)[NH2+]Cc1ccc(C(=O)OCCOCCOCCOC(=O)c2ccc(-c3c4nc(c(-c5c(F)c(F)c(F)c(F)c5F)c5ccc([nH]5)c(-c5c(F)c(F)c(F)c(F)c5F)c5nc(c(-c6c(F)c(F)c(F)c(F)c6F)c6ccc3[nH]6)C=C5)C=C4)cc2)cn1
REMARK SMILES IDX 17 1 16 2 15 3 13 4 14 5 12 6 9 7 10 8 91 9 11 10 90 11 8 12
REMARK SMILES IDX 7 13 5 16 6 17 4 18 3 19 2 20 1 21 18 22 19 23 20 24 21 25
REMARK SMILES IDX 22 26 23 27 24 28 25 29 26 30 27 31 28 32 89 33 29 34 88 35
REMARK SMILES IDX 30 36 31 37 32 38 82 39 33 40 87 41 81 42 83 43 34 44 86 45
REMARK SMILES IDX 80 46 79 47 35 49 67 50 47 51 66 52 48 53 51 54 65 55 84 56
REMARK SMILES IDX 49 57 50 58 64 60 85 61 52 62 36 63 37 64 45 65 38 66 39 67
REMARK SMILES IDX 43 68 46 69 40 70 41 71 44 72 42 73 68 74 69 75 77 76 70 77
REMARK SMILES IDX 71 78 75 79 78 80 72 81 73 82 76 83 74 84 53 85 54 86 62 87
REMARK SMILES IDX 55 88 56 89 60 90 63 91 57 92 58 93 61 94 59 95
REMARK H PARENT 7 14 7 15 83 48 51 59
REMARK Flexibility Score: inf
ROOT
ATOM      1  C   UNL A   1      37.752  33.319  35.380  1.00  0.00     0.202 C 
ENDROOT
BRANCH   1   2
ATOM      2  C   UNL A   1      38.872  32.818  36.309  1.00  0.00     0.261 C 
BRANCH   2   3
ATOM      3  O   UNL A   1      39.823  31.945  35.673  1.00  0.00    -0.460 OA
BRANCH   3   4
ATOM      4  C   UNL A   1      39.602  30.623  35.860  1.00  0.00     0.339 C 
ATOM      5  O   UNL A   1      38.586  30.089  36.261  1.00  0.00    -0.246 OA
BRANCH   4   6
ATOM      6  C   UNL A   1      40.702  29.840  35.290  1.00  0.00     0.078 A 
ATOM      7  C   UNL A   1      42.251  27.897  34.166  1.00  0.00     0.094 A 
ATOM      8  C   UNL A   1      42.541  28.329  35.465  1.00  0.00     0.031 A 
ATOM      9  N   UNL A   1      41.390  28.562  33.364  1.00  0.00    -0.254 NA
ATOM     10  C   UNL A   1      41.764  29.344  36.031  1.00  0.00     0.019 A 
ATOM     11  C   UNL A   1      40.578  29.450  33.966  1.00  0.00     0.127 A 
BRANCH   7  12
ATOM     12  C   UNL A   1      42.572  26.474  33.737  1.00  0.00     0.318 C 
BRANCH  12  13
ATOM     13  N   UNL A   1      43.565  25.816  34.621  1.00  0.00    -0.339 N 
ATOM     14  H   UNL A   1      43.897  26.512  35.288  1.00  0.00     0.346 HD
ATOM     15  H   UNL A   1      43.073  25.029  35.044  1.00  0.00     0.346 HD
BRANCH  13  16
ATOM     16  C   UNL A   1      44.751  25.229  33.953  1.00  0.00     0.179 C 
ATOM     17  C   UNL A   1      44.461  24.544  32.613  1.00  0.00     0.075 C 
BRANCH  16  18
ATOM     18  C   UNL A   1      45.377  24.200  34.924  1.00  0.00     0.065 C 
BRANCH  18  19
ATOM     19  C   UNL A   1      45.341  22.729  34.457  1.00  0.00     0.006 C 
BRANCH  19  20
ATOM     20  C   UNL A   1      45.662  21.688  35.531  1.00  0.00    -0.003 C 
ATOM     21  C   UNL A   1      45.278  20.283  35.103  1.00  0.00     0.004 C 
ENDBRANCH  19  20
ENDBRANCH  18  19
ENDBRANCH  16  18
ENDBRANCH  13  16
ENDBRANCH  12  13
ENDBRANCH   7  12
ENDBRANCH   4   6
ENDBRANCH   3   4
ENDBRANCH   2   3
ENDBRANCH   1   2
BRANCH   1  22
ATOM     22  O   UNL A   1      37.366  32.559  34.237  1.00  0.00    -0.376 OA
BRANCH  22  23
ATOM     23  C   UNL A   1      36.830  33.237  33.109  1.00  0.00     0.188 C 
BRANCH  23  24
ATOM     24  C   UNL A   1      37.462  33.008  31.719  1.00  0.00     0.188 C 
BRANCH  24  25
ATOM     25  O   UNL A   1      37.048  33.924  30.739  1.00  0.00    -0.376 OA
BRANCH  25  26
ATOM     26  C   UNL A   1      35.668  34.201  30.592  1.00  0.00     0.202 C 
BRANCH  26  27
ATOM     27  C   UNL A   1      34.670  33.330  29.797  1.00  0.00     0.261 C 
BRANCH  27  28
ATOM     28  O   UNL A   1      34.740  31.903  29.920  1.00  0.00    -0.460 OA
BRANCH  28  29
ATOM     29  C   UNL A   1      34.792  31.204  28.762  1.00  0.00     0.338 C 
ATOM     30  O   UNL A   1      34.044  31.307  27.806  1.00  0.00    -0.246 OA
BRANCH  29  31
ATOM     31  C   UNL A   1      36.023  30.385  28.745  1.00  0.00     0.060 A 
ATOM     32  C   UNL A   1      36.432  29.767  29.934  1.00  0.00     0.016 A 
ATOM     33  C   UNL A   1      36.810  30.300  27.595  1.00  0.00     0.016 A 
ATOM     34  C   UNL A   1      37.666  29.118  29.994  1.00  0.00     0.010 A 
ATOM     35  C   UNL A   1      38.054  29.660  27.660  1.00  0.00     0.010 A 
ATOM     36  C   UNL A   1      38.510  29.114  28.875  1.00  0.00    -0.014 A 
BRANCH  36  37
ATOM     37  C   UNL A   1      39.940  28.743  29.046  1.00  0.00     0.031 A 
ATOM     38  C   UNL A   1      40.850  29.705  29.765  1.00  0.00     0.074 A 
ATOM     39  C   UNL A   1      40.415  27.557  28.628  1.00  0.00     0.049 A 
ATOM     40  N   UNL A   1      42.124  29.598  30.049  1.00  0.00    -0.248 NA
ATOM     41  C   UNL A   1      40.237  30.962  30.225  1.00  0.00     0.031 C 
ATOM     42  C   UNL A   1      39.635  26.524  27.952  1.00  0.00     0.029 A 
ATOM     43  N   UNL A   1      41.679  27.026  28.715  1.00  0.00    -0.354 N 
ATOM     44  C   UNL A   1      42.461  30.770  30.715  1.00  0.00     0.074 A 
ATOM     45  C   UNL A   1      41.273  31.593  30.756  1.00  0.00     0.031 C 
ATOM     46  C   UNL A   1      40.439  25.481  27.682  1.00  0.00     0.029 A 
ATOM     47  C   UNL A   1      41.794  25.783  28.143  1.00  0.00     0.049 A 
ATOM     48  H   UNL A   1      42.431  27.491  29.146  1.00  0.00     0.167 HD
ATOM     49  C   UNL A   1      43.651  31.125  31.260  1.00  0.00     0.037 A 
ATOM     50  C   UNL A   1      42.872  24.987  28.001  1.00  0.00     0.037 A 
ATOM     51  C   UNL A   1      44.836  30.309  31.222  1.00  0.00     0.049 A 
ATOM     52  C   UNL A   1      44.200  25.432  28.562  1.00  0.00     0.074 A 
ATOM     53  C   UNL A   1      46.085  30.574  31.755  1.00  0.00     0.029 A 
ATOM     54  N   UNL A   1      44.920  29.068  30.606  1.00  0.00    -0.354 N 
ATOM     55  N   UNL A   1      44.504  26.526  29.217  1.00  0.00    -0.248 NA
ATOM     56  C   UNL A   1      45.335  24.515  28.375  1.00  0.00     0.031 C 
ATOM     57  C   UNL A   1      46.940  29.520  31.413  1.00  0.00     0.029 A 
ATOM     58  C   UNL A   1      46.207  28.566  30.727  1.00  0.00     0.049 A 
ATOM     59  H   UNL A   1      44.176  28.611  30.152  1.00  0.00     0.167 HD
ATOM     60  C   UNL A   1      45.849  26.414  29.551  1.00  0.00     0.074 A 
ATOM     61  C   UNL A   1      46.298  25.136  29.042  1.00  0.00     0.031 C 
ATOM     62  C   UNL A   1      46.642  27.288  30.221  1.00  0.00     0.037 A 
BRANCH  49  63
ATOM     63  C   UNL A   1      43.734  32.470  31.924  1.00  0.00     0.064 A 
ATOM     64  C   UNL A   1      43.988  33.642  31.194  1.00  0.00     0.173 A 
ATOM     65  C   UNL A   1      43.535  32.593  33.307  1.00  0.00     0.173 A 
ATOM     66  F   UNL A   1      44.201  33.582  29.871  1.00  0.00    -0.203 F 
ATOM     67  C   UNL A   1      44.070  34.880  31.829  1.00  0.00     0.198 A 
ATOM     68  C   UNL A   1      43.583  33.835  33.933  1.00  0.00     0.198 A 
ATOM     69  F   UNL A   1      43.285  31.506  34.053  1.00  0.00    -0.203 F 
ATOM     70  F   UNL A   1      44.368  35.977  31.119  1.00  0.00    -0.200 F 
ATOM     71  C   UNL A   1      43.860  34.976  33.195  1.00  0.00     0.200 A 
ATOM     72  F   UNL A   1      43.365  33.928  35.252  1.00  0.00    -0.200 F 
ATOM     73  F   UNL A   1      43.932  36.167  33.804  1.00  0.00    -0.200 F 
ENDBRANCH  49  63
BRANCH  50  74
ATOM     74  C   UNL A   1      42.749  23.682  27.298  1.00  0.00     0.064 A 
ATOM     75  C   UNL A   1      42.289  22.538  27.966  1.00  0.00     0.173 A 
ATOM     76  C   UNL A   1      43.126  23.544  25.954  1.00  0.00     0.173 A 
ATOM     77  F   UNL A   1      41.945  22.612  29.261  1.00  0.00    -0.203 F 
ATOM     78  C   UNL A   1      42.235  21.303  27.325  1.00  0.00     0.198 A 
ATOM     79  C   UNL A   1      43.041  22.314  25.305  1.00  0.00     0.198 A 
ATOM     80  F   UNL A   1      43.578  24.604  25.270  1.00  0.00    -0.203 F 
ATOM     81  F   UNL A   1      41.848  20.214  28.005  1.00  0.00    -0.200 F 
ATOM     82  C   UNL A   1      42.605  21.192  25.994  1.00  0.00     0.200 A 
ATOM     83  F   UNL A   1      43.390  22.213  24.015  1.00  0.00    -0.200 F 
ATOM     84  F   UNL A   1      42.555  20.003  25.378  1.00  0.00    -0.200 F 
ENDBRANCH  50  74
BRANCH  62  85
ATOM     85  C   UNL A   1      48.062  26.869  30.487  1.00  0.00     0.064 A 
ATOM     86  C   UNL A   1      49.096  27.118  29.571  1.00  0.00     0.173 A 
ATOM     87  C   UNL A   1      48.395  26.214  31.683  1.00  0.00     0.173 A 
ATOM     88  F   UNL A   1      48.834  27.733  28.408  1.00  0.00    -0.203 F 
ATOM     89  C   UNL A   1      50.396  26.686  29.821  1.00  0.00     0.198 A 
ATOM     90  C   UNL A   1      49.703  25.817  31.947  1.00  0.00     0.198 A 
ATOM     91  F   UNL A   1      47.451  25.960  32.602  1.00  0.00    -0.203 F 
ATOM     92  F   UNL A   1      51.351  26.873  28.900  1.00  0.00    -0.200 F 
ATOM     93  C   UNL A   1      50.700  26.041  31.010  1.00  0.00     0.200 A 
ATOM     94  F   UNL A   1      49.997  25.210  33.106  1.00  0.00    -0.200 F 
ATOM     95  F   UNL A   1      51.951  25.623  31.248  1.00  0.00    -0.200 F 
ENDBRANCH  62  85
ENDBRANCH  36  37
ENDBRANCH  29  31
ENDBRANCH  28  29
ENDBRANCH  27  28
ENDBRANCH  26  27
ENDBRANCH  25  26
ENDBRANCH  24  25
ENDBRANCH  23  24
ENDBRANCH  22  23
ENDBRANCH   1  22
TORSDOF 23
ENDMDL
MODEL 3
REMARK VINA RESULT:      -7.7      7.569     10.445
REMARK SMILES CCCC[C@@H](C)[NH2+]Cc1ccc(C(=O)OCCOCCOCCOC(=O)c2ccc(-c3c4nc(c(-c5c(F)c(F)c(F)c(F)c5F)c5ccc([nH]5)c(-c5c(F)c(F)c(F)c(F)c5F)c5nc(c(-c6c(F)c(F)c(F)c(F)c6F)c6ccc3[nH]6)C=C5)C=C4)cc2)cn1
REMARK SMILES IDX 17 1 16 2 15 3 13 4 14 5 12 6 9 7 10 8 91 9 11 10 90 11 8 12
REMARK SMILES IDX 7 13 5 16 6 17 4 18 3 19 2 20 1 21 18 22 19 23 20 24 21 25
REMARK SMILES IDX 22 26 23 27 24 28 25 29 26 30 27 31 28 32 89 33 29 34 88 35
REMARK SMILES IDX 30 36 31 37 32 38 82 39 33 40 87 41 81 42 83 43 34 44 86 45
REMARK SMILES IDX 80 46 79 47 35 49 67 50 47 51 66 52 48 53 51 54 65 55 84 56
REMARK SMILES IDX 49 57 50 58 64 60 85 61 52 62 36 63 37 64 45 65 38 66 39 67
REMARK SMILES IDX 43 68 46 69 40 70 41 71 44 72 42 73 68 74 69 75 77 76 70 77
REMARK SMILES IDX 71 78 75 79 78 80 72 81 73 82 76 83 74 84 53 85 54 86 62 87
REMARK SMILES IDX 55 88 56 89 60 90 63 91 57 92 58 93 61 94 59 95
REMARK H PARENT 7 14 7 15 83 48 51 59
REMARK Flexibility Score: inf
ROOT
ATOM      1  C   UNL A   1      45.849  16.422  41.202  1.00  0.00     0.202 C 
ENDROOT
BRANCH   1   2
ATOM      2  C   UNL A   1      45.047  17.145  40.106  1.00  0.00     0.261 C 
BRANCH   2   3
ATOM      3  O   UNL A   1      43.621  16.977  40.207  1.00  0.00    -0.460 OA
BRANCH   3   4
ATOM      4  C   UNL A   1      43.127  15.884  39.580  1.00  0.00     0.339 C 
ATOM      5  O   UNL A   1      43.414  15.469  38.474  1.00  0.00    -0.246 OA
BRANCH   4   6
ATOM      6  C   UNL A   1      42.327  15.084  40.512  1.00  0.00     0.078 A 
ATOM      7  C   UNL A   1      41.453  13.524  42.572  1.00  0.00     0.094 A 
ATOM      8  C   UNL A   1      41.376  13.029  41.265  1.00  0.00     0.031 A 
ATOM      9  N   UNL A   1      41.721  14.823  42.831  1.00  0.00    -0.254 NA
ATOM     10  C   UNL A   1      41.798  13.839  40.207  1.00  0.00     0.019 A 
ATOM     11  C   UNL A   1      42.235  15.542  41.817  1.00  0.00     0.127 A 
BRANCH   7  12
ATOM     12  C   UNL A   1      41.631  12.576  43.746  1.00  0.00     0.318 C 
BRANCH  12  13
ATOM     13  N   UNL A   1      43.049  12.210  43.983  1.00  0.00    -0.339 N 
ATOM     14  H   UNL A   1      43.628  12.820  43.406  1.00  0.00     0.346 HD
ATOM     15  H   UNL A   1      43.194  12.320  44.987  1.00  0.00     0.346 HD
BRANCH  13  16
ATOM     16  C   UNL A   1      43.426  10.809  43.680  1.00  0.00     0.179 C 
ATOM     17  C   UNL A   1      42.269   9.806  43.732  1.00  0.00     0.075 C 
BRANCH  16  18
ATOM     18  C   UNL A   1      44.513  10.383  44.695  1.00  0.00     0.065 C 
BRANCH  18  19
ATOM     19  C   UNL A   1      45.973  10.559  44.226  1.00  0.00     0.006 C 
BRANCH  19  20
ATOM     20  C   UNL A   1      46.722  11.746  44.835  1.00  0.00    -0.003 C 
ATOM     21  C   UNL A   1      45.855  12.543  45.794  1.00  0.00     0.004 C 
ENDBRANCH  19  20
ENDBRANCH  18  19
ENDBRANCH  16  18
ENDBRANCH  13  16
ENDBRANCH  12  13
ENDBRANCH   7  12
ENDBRANCH   4   6
ENDBRANCH   3   4
ENDBRANCH   2   3
ENDBRANCH   1   2
BRANCH   1  22
ATOM     22  O   UNL A   1      47.242  16.678  41.368  1.00  0.00    -0.376 OA
BRANCH  22  23
ATOM     23  C   UNL A   1      47.652  17.750  42.205  1.00  0.00     0.188 C 
BRANCH  23  24
ATOM     24  C   UNL A   1      48.568  18.851  41.629  1.00  0.00     0.188 C 
BRANCH  24  25
ATOM     25  O   UNL A   1      47.919  19.749  40.767  1.00  0.00    -0.376 OA
BRANCH  25  26
ATOM     26  C   UNL A   1      47.926  19.498  39.375  1.00  0.00     0.202 C 
BRANCH  26  27
ATOM     27  C   UNL A   1      48.093  20.577  38.281  1.00  0.00     0.261 C 
BRANCH  27  28
ATOM     28  O   UNL A   1      46.936  21.290  37.825  1.00  0.00    -0.460 OA
BRANCH  28  29
ATOM     29  C   UNL A   1      46.230  20.710  36.827  1.00  0.00     0.338 C 
ATOM     30  O   UNL A   1      45.817  19.564  36.786  1.00  0.00    -0.246 OA
BRANCH  29  31
ATOM     31  C   UNL A   1      45.870  21.738  35.827  1.00  0.00     0.060 A 
ATOM     32  C   UNL A   1      46.888  22.540  35.296  1.00  0.00     0.016 A 
ATOM     33  C   UNL A   1      44.536  21.967  35.484  1.00  0.00     0.016 A 
ATOM     34  C   UNL A   1      46.567  23.620  34.471  1.00  0.00     0.010 A 
ATOM     35  C   UNL A   1      44.215  23.058  34.668  1.00  0.00     0.010 A 
ATOM     36  C   UNL A   1      45.225  23.921  34.202  1.00  0.00    -0.014 A 
BRANCH  36  37
ATOM     37  C   UNL A   1      44.881  25.250  33.633  1.00  0.00     0.031 A 
ATOM     38  C   UNL A   1      44.534  25.337  32.169  1.00  0.00     0.074 A 
ATOM     39  C   UNL A   1      44.819  26.351  34.402  1.00  0.00     0.049 A 
ATOM     40  N   UNL A   1      44.187  26.375  31.452  1.00  0.00    -0.248 NA
ATOM     41  C   UNL A   1      44.588  24.077  31.411  1.00  0.00     0.031 C 
ATOM     42  C   UNL A   1      45.095  26.399  35.835  1.00  0.00     0.029 A 
ATOM     43  N   UNL A   1      44.500  27.647  34.075  1.00  0.00    -0.354 N 
ATOM     44  C   UNL A   1      43.985  25.894  30.164  1.00  0.00     0.074 A 
ATOM     45  C   UNL A   1      44.290  24.481  30.186  1.00  0.00     0.031 C 
ATOM     46  C   UNL A   1      44.937  27.662  36.266  1.00  0.00     0.029 A 
ATOM     47  C   UNL A   1      44.572  28.516  35.135  1.00  0.00     0.049 A 
ATOM     48  H   UNL A   1      44.244  27.926  33.167  1.00  0.00     0.167 HD
ATOM     49  C   UNL A   1      43.568  26.564  29.062  1.00  0.00     0.037 A 
ATOM     50  C   UNL A   1      44.375  29.848  35.183  1.00  0.00     0.037 A 
ATOM     51  C   UNL A   1      43.263  27.971  29.035  1.00  0.00     0.049 A 
ATOM     52  C   UNL A   1      43.971  30.583  33.928  1.00  0.00     0.074 A 
ATOM     53  C   UNL A   1      42.822  28.740  27.973  1.00  0.00     0.029 A 
ATOM     54  N   UNL A   1      43.378  28.824  30.124  1.00  0.00    -0.354 N 
ATOM     55  N   UNL A   1      43.753  30.116  32.723  1.00  0.00    -0.248 NA
ATOM     56  C   UNL A   1      43.770  32.034  34.050  1.00  0.00     0.031 C 
ATOM     57  C   UNL A   1      42.724  30.067  28.403  1.00  0.00     0.029 A 
ATOM     58  C   UNL A   1      43.037  30.115  29.752  1.00  0.00     0.049 A 
ATOM     59  H   UNL A   1      43.659  28.553  31.028  1.00  0.00     0.167 HD
ATOM     60  C   UNL A   1      43.355  31.205  31.955  1.00  0.00     0.074 A 
ATOM     61  C   UNL A   1      43.345  32.353  32.836  1.00  0.00     0.031 C 
ATOM     62  C   UNL A   1      43.025  31.251  30.640  1.00  0.00     0.037 A 
BRANCH  49  63
ATOM     63  C   UNL A   1      43.441  25.784  27.784  1.00  0.00     0.064 A 
ATOM     64  C   UNL A   1      44.465  25.762  26.824  1.00  0.00     0.173 A 
ATOM     65  C   UNL A   1      42.287  25.030  27.525  1.00  0.00     0.173 A 
ATOM     66  F   UNL A   1      45.584  26.478  27.014  1.00  0.00    -0.203 F 
ATOM     67  C   UNL A   1      44.325  25.039  25.642  1.00  0.00     0.198 A 
ATOM     68  C   UNL A   1      42.164  24.282  26.358  1.00  0.00     0.198 A 
ATOM     69  F   UNL A   1      41.278  25.012  28.409  1.00  0.00    -0.203 F 
ATOM     70  F   UNL A   1      45.294  25.078  24.716  1.00  0.00    -0.200 F 
ATOM     71  C   UNL A   1      43.180  24.294  25.413  1.00  0.00     0.200 A 
ATOM     72  F   UNL A   1      41.062  23.550  26.145  1.00  0.00    -0.200 F 
ATOM     73  F   UNL A   1      43.049  23.594  24.278  1.00  0.00    -0.200 F 
ENDBRANCH  49  63
BRANCH  50  74
ATOM     74  C   UNL A   1      44.555  30.584  36.463  1.00  0.00     0.064 A 
ATOM     75  C   UNL A   1      43.466  30.854  37.304  1.00  0.00     0.173 A 
ATOM     76  C   UNL A   1      45.813  31.066  36.852  1.00  0.00     0.173 A 
ATOM     77  F   UNL A   1      42.237  30.440  36.961  1.00  0.00    -0.203 F 
ATOM     78  C   UNL A   1      43.624  31.598  38.471  1.00  0.00     0.198 A 
ATOM     79  C   UNL A   1      45.976  31.783  38.036  1.00  0.00     0.198 A 
ATOM     80  F   UNL A   1      46.887  30.841  36.082  1.00  0.00    -0.203 F 
ATOM     81  F   UNL A   1      42.556  31.891  39.226  1.00  0.00    -0.200 F 
ATOM     82  C   UNL A   1      44.879  32.057  38.840  1.00  0.00     0.200 A 
ATOM     83  F   UNL A   1      47.192  32.216  38.393  1.00  0.00    -0.200 F 
ATOM     84  F   UNL A   1      45.030  32.775  39.961  1.00  0.00    -0.200 F 
ENDBRANCH  50  74
BRANCH  62  85
ATOM     85  C   UNL A   1      42.576  32.576  30.086  1.00  0.00     0.064 A 
ATOM     86  C   UNL A   1      43.434  33.403  29.344  1.00  0.00     0.173 A 
ATOM     87  C   UNL A   1      41.261  33.021  30.296  1.00  0.00     0.173 A 
ATOM     88  F   UNL A   1      44.703  33.032  29.120  1.00  0.00    -0.203 F 
ATOM     89  C   UNL A   1      43.007  34.643  28.875  1.00  0.00     0.198 A 
ATOM     90  C   UNL A   1      40.826  34.245  29.793  1.00  0.00     0.198 A 
ATOM     91  F   UNL A   1      40.392  32.268  30.987  1.00  0.00    -0.203 F 
ATOM     92  F   UNL A   1      43.866  35.444  28.231  1.00  0.00    -0.200 F 
ATOM     93  C   UNL A   1      41.703  35.061  29.095  1.00  0.00     0.200 A 
ATOM     94  F   UNL A   1      39.560  34.638  29.991  1.00  0.00    -0.200 F 
ATOM     95  F   UNL A   1      41.295  36.255  28.646  1.00  0.00    -0.200 F 
ENDBRANCH  62  85
ENDBRANCH  36  37
ENDBRANCH  29  31
ENDBRANCH  28  29
ENDBRANCH  27  28
ENDBRANCH  26  27
ENDBRANCH  25  26
ENDBRANCH  24  25
ENDBRANCH  23  24
ENDBRANCH  22  23
ENDBRANCH   1  22
TORSDOF 23
ENDMDL
