MODEL 1
REMARK VINA RESULT:     -11.4      0.000      0.000
REMARK SMILES CC1(C)CCCC[C@H]1NC(=O)Nc1ccccc1C(=O)OCCOCCOCCOC(=O)c1ccc(-c2c3nc(c(-c4c(F)c(F)c(F)c(F)c4F)c4ccc([nH]4)c(-c4c(F)c(F)c(F)c(F)c4F)c4nc(c(-c5c(F)c(F)c(F)c(F)c5F)c5ccc2[nH]5)C=C4)C=C3)cc1
REMARK SMILES IDX 25 1 24 2 23 3 22 4 21 5 19 6 20 7 18 8 13 9 14 10 15 11
REMARK SMILES IDX 17 12 16 13 12 14 9 15 10 16 11 18 8 20 1 21 2 22 3 23 4 24
REMARK SMILES IDX 5 25 7 26 6 27 26 28 27 29 28 30 29 31 30 32 31 33 32 34
REMARK SMILES IDX 33 35 34 36 95 37 35 38 94 39 36 40 37 41 38 42 88 43 39 44
REMARK SMILES IDX 93 45 87 46 89 47 40 48 92 49 86 50 85 51 41 53 73 54 53 55
REMARK SMILES IDX 72 56 54 57 57 58 71 59 90 60 55 61 56 62 70 64 91 65 58 66
REMARK SMILES IDX 42 67 43 68 51 69 44 70 45 71 49 72 52 73 46 74 47 75 50 76
REMARK SMILES IDX 48 77 74 78 75 79 83 80 76 81 77 82 81 83 84 84 78 85 79 86
REMARK SMILES IDX 82 87 80 88 59 89 60 90 68 91 61 92 62 93 66 94 69 95 63 96
REMARK SMILES IDX 64 97 67 98 65 99
REMARK H PARENT 9 17 12 19 89 52 57 63
REMARK Flexibility Score: inf
ROOT
ATOM      1  C   UNL A   1      38.901  21.769  25.806  1.00  0.00     0.188 C 
ENDROOT
BRANCH   1   2
ATOM      2  O   UNL A   1      37.785  21.021  25.350  1.00  0.00    -0.376 OA
BRANCH   2   3
ATOM      3  C   UNL A   1      36.585  21.759  25.211  1.00  0.00     0.202 C 
BRANCH   3   4
ATOM      4  C   UNL A   1      36.813  23.260  25.125  1.00  0.00     0.261 C 
BRANCH   4   5
ATOM      5  O   UNL A   1      35.822  24.104  24.497  1.00  0.00    -0.460 OA
BRANCH   5   6
ATOM      6  C   UNL A   1      34.744  24.609  25.126  1.00  0.00     0.340 C 
ATOM      7  O   UNL A   1      34.674  25.657  25.747  1.00  0.00    -0.246 OA
BRANCH   6   8
ATOM      8  C   UNL A   1      33.554  23.754  24.898  1.00  0.00     0.083 A 
ATOM      9  C   UNL A   1      32.862  23.676  23.678  1.00  0.00     0.057 A 
ATOM     10  C   UNL A   1      31.662  22.944  23.645  1.00  0.00     0.027 A 
ATOM     11  C   UNL A   1      31.248  22.177  24.738  1.00  0.00     0.002 A 
ATOM     12  C   UNL A   1      33.141  22.962  25.991  1.00  0.00     0.018 A 
ATOM     13  C   UNL A   1      32.006  22.159  25.902  1.00  0.00     0.001 A 
BRANCH   9  14
ATOM     14  N   UNL A   1      33.250  24.241  22.444  1.00  0.00    -0.307 N 
ATOM     15  N   UNL A   1      32.364  26.459  22.277  1.00  0.00    -0.335 N 
ATOM     16  C   UNL A   1      32.891  25.335  21.734  1.00  0.00     0.319 C 
ATOM     17  H   UNL A   1      32.009  27.093  21.614  1.00  0.00     0.165 HD
ATOM     18  O   UNL A   1      33.129  25.349  20.523  1.00  0.00    -0.248 OA
ATOM     19  H   UNL A   1      33.949  23.714  21.993  1.00  0.00     0.171 HD
BRANCH  15  20
ATOM     20  C   UNL A   1      32.225  26.905  23.653  1.00  0.00     0.089 C 
ATOM     21  C   UNL A   1      31.247  29.265  23.400  1.00  0.00     0.013 C 
ATOM     22  C   UNL A   1      32.441  28.418  23.884  1.00  0.00    -0.015 C 
ATOM     23  C   UNL A   1      33.700  28.907  23.146  1.00  0.00     0.013 C 
ATOM     24  C   UNL A   1      32.640  28.571  25.417  1.00  0.00     0.008 C 
ATOM     25  C   UNL A   1      31.494  27.983  26.259  1.00  0.00     0.001 C 
ATOM     26  C   UNL A   1      30.907  26.454  24.302  1.00  0.00     0.025 C 
ATOM     27  C   UNL A   1      31.029  26.593  25.821  1.00  0.00     0.002 C 
ENDBRANCH  15  20
ENDBRANCH   9  14
ENDBRANCH   6   8
ENDBRANCH   5   6
ENDBRANCH   4   5
ENDBRANCH   3   4
ENDBRANCH   2   3
ENDBRANCH   1   2
BRANCH   1  28
ATOM     28  C   UNL A   1      40.121  20.913  26.206  1.00  0.00     0.188 C 
BRANCH  28  29
ATOM     29  O   UNL A   1      41.415  21.491  26.157  1.00  0.00    -0.376 OA
BRANCH  29  30
ATOM     30  C   UNL A   1      42.502  20.610  25.933  1.00  0.00     0.202 C 
BRANCH  30  31
ATOM     31  C   UNL A   1      43.810  21.234  25.410  1.00  0.00     0.261 C 
BRANCH  31  32
ATOM     32  O   UNL A   1      44.245  22.425  26.112  1.00  0.00    -0.460 OA
BRANCH  32  33
ATOM     33  C   UNL A   1      44.118  23.609  25.458  1.00  0.00     0.338 C 
ATOM     34  O   UNL A   1      44.405  23.829  24.291  1.00  0.00    -0.246 OA
BRANCH  33  35
ATOM     35  C   UNL A   1      43.343  24.589  26.279  1.00  0.00     0.060 A 
ATOM     36  C   UNL A   1      43.623  25.960  26.125  1.00  0.00     0.016 A 
ATOM     37  C   UNL A   1      42.385  24.189  27.210  1.00  0.00     0.016 A 
ATOM     38  C   UNL A   1      42.980  26.923  26.913  1.00  0.00     0.010 A 
ATOM     39  C   UNL A   1      41.772  25.152  28.031  1.00  0.00     0.010 A 
ATOM     40  C   UNL A   1      42.090  26.521  27.915  1.00  0.00    -0.014 A 
BRANCH  40  41
ATOM     41  C   UNL A   1      41.691  27.479  28.987  1.00  0.00     0.031 A 
ATOM     42  C   UNL A   1      42.458  27.447  30.286  1.00  0.00     0.074 A 
ATOM     43  C   UNL A   1      40.690  28.369  28.842  1.00  0.00     0.049 A 
ATOM     44  N   UNL A   1      42.236  28.087  31.407  1.00  0.00    -0.248 NA
ATOM     45  C   UNL A   1      43.636  26.566  30.322  1.00  0.00     0.031 C 
ATOM     46  C   UNL A   1      39.901  28.572  27.631  1.00  0.00     0.029 A 
ATOM     47  N   UNL A   1      40.155  29.259  29.747  1.00  0.00    -0.354 N 
ATOM     48  C   UNL A   1      43.230  27.670  32.283  1.00  0.00     0.074 A 
ATOM     49  C   UNL A   1      44.050  26.715  31.570  1.00  0.00     0.031 C 
ATOM     50  C   UNL A   1      38.958  29.501  27.878  1.00  0.00     0.029 A 
ATOM     51  C   UNL A   1      39.053  29.932  29.275  1.00  0.00     0.049 A 
ATOM     52  H   UNL A   1      40.526  29.400  30.648  1.00  0.00     0.167 HD
ATOM     53  C   UNL A   1      43.446  28.046  33.567  1.00  0.00     0.037 A 
ATOM     54  C   UNL A   1      38.199  30.766  29.904  1.00  0.00     0.037 A 
ATOM     55  C   UNL A   1      42.647  29.003  34.286  1.00  0.00     0.049 A 
ATOM     56  C   UNL A   1      38.409  31.106  31.363  1.00  0.00     0.074 A 
ATOM     57  C   UNL A   1      42.817  29.465  35.580  1.00  0.00     0.029 A 
ATOM     58  N   UNL A   1      41.523  29.634  33.780  1.00  0.00    -0.354 N 
ATOM     59  N   UNL A   1      39.363  30.724  32.177  1.00  0.00    -0.248 NA
ATOM     60  C   UNL A   1      37.414  31.992  31.991  1.00  0.00     0.031 C 
ATOM     61  C   UNL A   1      41.762  30.333  35.877  1.00  0.00     0.029 A 
ATOM     62  C   UNL A   1      40.970  30.457  34.749  1.00  0.00     0.049 A 
ATOM     63  H   UNL A   1      41.171  29.517  32.868  1.00  0.00     0.167 HD
ATOM     64  C   UNL A   1      39.100  31.342  33.396  1.00  0.00     0.074 A 
ATOM     65  C   UNL A   1      37.906  32.139  33.213  1.00  0.00     0.031 C 
ATOM     66  C   UNL A   1      39.786  31.256  34.562  1.00  0.00     0.037 A 
BRANCH  53  67
ATOM     67  C   UNL A   1      44.578  27.391  34.301  1.00  0.00     0.064 A 
ATOM     68  C   UNL A   1      44.406  26.193  35.009  1.00  0.00     0.173 A 
ATOM     69  C   UNL A   1      45.866  27.944  34.244  1.00  0.00     0.173 A 
ATOM     70  F   UNL A   1      43.191  25.633  35.104  1.00  0.00    -0.203 F 
ATOM     71  C   UNL A   1      45.481  25.583  35.651  1.00  0.00     0.198 A 
ATOM     72  C   UNL A   1      46.944  27.316  34.861  1.00  0.00     0.198 A 
ATOM     73  F   UNL A   1      46.084  29.086  33.574  1.00  0.00    -0.203 F 
ATOM     74  F   UNL A   1      45.288  24.459  36.354  1.00  0.00    -0.200 F 
ATOM     75  C   UNL A   1      46.750  26.139  35.568  1.00  0.00     0.200 A 
ATOM     76  F   UNL A   1      48.171  27.847  34.768  1.00  0.00    -0.200 F 
ATOM     77  F   UNL A   1      47.785  25.542  36.174  1.00  0.00    -0.200 F 
ENDBRANCH  53  67
BRANCH  54  78
ATOM     78  C   UNL A   1      37.019  31.318  29.181  1.00  0.00     0.064 A 
ATOM     79  C   UNL A   1      36.960  32.668  28.807  1.00  0.00     0.173 A 
ATOM     80  C   UNL A   1      35.898  30.519  28.910  1.00  0.00     0.173 A 
ATOM     81  F   UNL A   1      37.989  33.483  29.081  1.00  0.00    -0.203 F 
ATOM     82  C   UNL A   1      35.819  33.202  28.210  1.00  0.00     0.198 A 
ATOM     83  C   UNL A   1      34.770  31.047  28.284  1.00  0.00     0.198 A 
ATOM     84  F   UNL A   1      35.894  29.224  29.261  1.00  0.00    -0.203 F 
ATOM     85  F   UNL A   1      35.766  34.509  27.922  1.00  0.00    -0.200 F 
ATOM     86  C   UNL A   1      34.727  32.389  27.945  1.00  0.00     0.200 A 
ATOM     87  F   UNL A   1      33.719  30.256  28.024  1.00  0.00    -0.200 F 
ATOM     88  F   UNL A   1      33.629  32.904  27.375  1.00  0.00    -0.200 F 
ENDBRANCH  54  78
BRANCH  66  89
ATOM     89  C   UNL A   1      39.294  32.065  35.730  1.00  0.00     0.064 A 
ATOM     90  C   UNL A   1      38.336  31.566  36.625  1.00  0.00     0.173 A 
ATOM     91  C   UNL A   1      39.827  33.339  35.987  1.00  0.00     0.173 A 
ATOM     92  F   UNL A   1      37.786  30.359  36.419  1.00  0.00    -0.203 F 
ATOM     93  C   UNL A   1      37.912  32.320  37.716  1.00  0.00     0.198 A 
ATOM     94  C   UNL A   1      39.423  34.077  37.097  1.00  0.00     0.198 A 
ATOM     95  F   UNL A   1      40.753  33.863  35.170  1.00  0.00    -0.203 F 
ATOM     96  F   UNL A   1      36.962  31.840  38.531  1.00  0.00    -0.200 F 
ATOM     97  C   UNL A   1      38.461  33.570  37.956  1.00  0.00     0.200 A 
ATOM     98  F   UNL A   1      39.968  35.278  37.336  1.00  0.00    -0.200 F 
ATOM     99  F   UNL A   1      38.059  34.289  39.013  1.00  0.00    -0.200 F 
ENDBRANCH  66  89
ENDBRANCH  40  41
ENDBRANCH  33  35
ENDBRANCH  32  33
ENDBRANCH  31  32
ENDBRANCH  30  31
ENDBRANCH  29  30
ENDBRANCH  28  29
ENDBRANCH   1  28
TORSDOF 19
ENDMDL
MODEL 2
REMARK VINA RESULT:     -11.3      3.700      9.088
REMARK SMILES CC1(C)CCCC[C@H]1NC(=O)Nc1ccccc1C(=O)OCCOCCOCCOC(=O)c1ccc(-c2c3nc(c(-c4c(F)c(F)c(F)c(F)c4F)c4ccc([nH]4)c(-c4c(F)c(F)c(F)c(F)c4F)c4nc(c(-c5c(F)c(F)c(F)c(F)c5F)c5ccc2[nH]5)C=C4)C=C3)cc1
REMARK SMILES IDX 25 1 24 2 23 3 22 4 21 5 19 6 20 7 18 8 13 9 14 10 15 11
REMARK SMILES IDX 17 12 16 13 12 14 9 15 10 16 11 18 8 20 1 21 2 22 3 23 4 24
REMARK SMILES IDX 5 25 7 26 6 27 26 28 27 29 28 30 29 31 30 32 31 33 32 34
REMARK SMILES IDX 33 35 34 36 95 37 35 38 94 39 36 40 37 41 38 42 88 43 39 44
REMARK SMILES IDX 93 45 87 46 89 47 40 48 92 49 86 50 85 51 41 53 73 54 53 55
REMARK SMILES IDX 72 56 54 57 57 58 71 59 90 60 55 61 56 62 70 64 91 65 58 66
REMARK SMILES IDX 42 67 43 68 51 69 44 70 45 71 49 72 52 73 46 74 47 75 50 76
REMARK SMILES IDX 48 77 74 78 75 79 83 80 76 81 77 82 81 83 84 84 78 85 79 86
REMARK SMILES IDX 82 87 80 88 59 89 60 90 68 91 61 92 62 93 66 94 69 95 63 96
REMARK SMILES IDX 64 97 67 98 65 99
REMARK H PARENT 9 17 12 19 89 52 57 63
REMARK Flexibility Score: inf
ROOT
ATOM      1  C   UNL A   1      35.406  31.869  28.557  1.00  0.00     0.188 C 
ENDROOT
BRANCH   1   2
ATOM      2  O   UNL A   1      35.423  30.799  27.624  1.00  0.00    -0.376 OA
BRANCH   2   3
ATOM      3  C   UNL A   1      34.390  29.846  27.786  1.00  0.00     0.202 C 
BRANCH   3   4
ATOM      4  C   UNL A   1      33.903  29.262  26.469  1.00  0.00     0.261 C 
BRANCH   4   5
ATOM      5  O   UNL A   1      33.294  27.952  26.443  1.00  0.00    -0.460 OA
BRANCH   5   6
ATOM      6  C   UNL A   1      32.037  27.689  26.849  1.00  0.00     0.340 C 
ATOM      7  O   UNL A   1      31.603  27.740  27.988  1.00  0.00    -0.246 OA
BRANCH   6   8
ATOM      8  C   UNL A   1      31.160  27.401  25.689  1.00  0.00     0.083 A 
ATOM      9  C   UNL A   1      30.379  26.240  25.560  1.00  0.00     0.057 A 
ATOM     10  C   UNL A   1      29.714  26.023  24.340  1.00  0.00     0.027 A 
ATOM     11  C   UNL A   1      29.685  27.004  23.344  1.00  0.00     0.002 A 
ATOM     12  C   UNL A   1      31.111  28.395  24.687  1.00  0.00     0.018 A 
ATOM     13  C   UNL A   1      30.358  28.205  23.531  1.00  0.00     0.001 A 
BRANCH   9  14
ATOM     14  N   UNL A   1      30.161  25.250  26.543  1.00  0.00    -0.307 N 
ATOM     15  N   UNL A   1      31.310  23.246  25.916  1.00  0.00    -0.335 N 
ATOM     16  C   UNL A   1      30.371  23.917  26.626  1.00  0.00     0.319 C 
ATOM     17  H   UNL A   1      31.225  22.267  25.968  1.00  0.00     0.165 HD
ATOM     18  O   UNL A   1      29.724  23.274  27.457  1.00  0.00    -0.248 OA
ATOM     19  H   UNL A   1      29.762  25.619  27.363  1.00  0.00     0.171 HD
BRANCH  15  20
ATOM     20  C   UNL A   1      32.418  23.699  25.091  1.00  0.00     0.089 C 
ATOM     21  C   UNL A   1      33.959  21.648  25.017  1.00  0.00     0.013 C 
ATOM     22  C   UNL A   1      33.801  23.114  25.462  1.00  0.00    -0.015 C 
ATOM     23  C   UNL A   1      34.028  23.177  26.982  1.00  0.00     0.013 C 
ATOM     24  C   UNL A   1      34.833  24.024  24.740  1.00  0.00     0.008 C 
ATOM     25  C   UNL A   1      34.608  24.145  23.223  1.00  0.00     0.001 C 
ATOM     26  C   UNL A   1      32.158  23.529  23.587  1.00  0.00     0.025 C 
ATOM     27  C   UNL A   1      33.156  24.392  22.811  1.00  0.00     0.002 C 
ENDBRANCH  15  20
ENDBRANCH   9  14
ENDBRANCH   6   8
ENDBRANCH   5   6
ENDBRANCH   4   5
ENDBRANCH   3   4
ENDBRANCH   2   3
ENDBRANCH   1   2
BRANCH   1  28
ATOM     28  C   UNL A   1      35.043  33.240  27.947  1.00  0.00     0.188 C 
BRANCH  28  29
ATOM     29  O   UNL A   1      33.907  33.932  28.436  1.00  0.00    -0.376 OA
BRANCH  29  30
ATOM     30  C   UNL A   1      33.981  35.347  28.459  1.00  0.00     0.202 C 
BRANCH  30  31
ATOM     31  C   UNL A   1      33.038  36.079  29.433  1.00  0.00     0.261 C 
BRANCH  31  32
ATOM     32  O   UNL A   1      32.494  35.257  30.496  1.00  0.00    -0.460 OA
BRANCH  32  33
ATOM     33  C   UNL A   1      32.638  35.715  31.767  1.00  0.00     0.338 C 
ATOM     34  O   UNL A   1      31.865  36.447  32.367  1.00  0.00    -0.246 OA
BRANCH  33  35
ATOM     35  C   UNL A   1      33.761  35.015  32.460  1.00  0.00     0.060 A 
ATOM     36  C   UNL A   1      35.037  35.609  32.437  1.00  0.00     0.016 A 
ATOM     37  C   UNL A   1      33.594  33.784  33.094  1.00  0.00     0.016 A 
ATOM     38  C   UNL A   1      36.144  34.970  33.008  1.00  0.00     0.010 A 
ATOM     39  C   UNL A   1      34.714  33.122  33.630  1.00  0.00     0.010 A 
ATOM     40  C   UNL A   1      36.002  33.692  33.560  1.00  0.00    -0.014 A 
BRANCH  40  41
ATOM     41  C   UNL A   1      37.209  32.857  33.829  1.00  0.00     0.031 A 
ATOM     42  C   UNL A   1      37.978  33.114  35.102  1.00  0.00     0.074 A 
ATOM     43  C   UNL A   1      37.632  31.887  32.996  1.00  0.00     0.049 A 
ATOM     44  N   UNL A   1      39.118  32.613  35.509  1.00  0.00    -0.248 NA
ATOM     45  C   UNL A   1      37.375  34.073  36.041  1.00  0.00     0.031 C 
ATOM     46  C   UNL A   1      36.965  31.471  31.766  1.00  0.00     0.029 A 
ATOM     47  N   UNL A   1      38.753  31.088  33.059  1.00  0.00    -0.354 N 
ATOM     48  C   UNL A   1      39.376  33.210  36.736  1.00  0.00     0.074 A 
ATOM     49  C   UNL A   1      38.282  34.120  37.003  1.00  0.00     0.031 C 
ATOM     50  C   UNL A   1      37.707  30.518  31.170  1.00  0.00     0.029 A 
ATOM     51  C   UNL A   1      38.919  30.283  31.957  1.00  0.00     0.049 A 
ATOM     52  H   UNL A   1      39.376  31.093  33.821  1.00  0.00     0.167 HD
ATOM     53  C   UNL A   1      40.428  33.023  37.569  1.00  0.00     0.037 A 
ATOM     54  C   UNL A   1      39.946  29.480  31.607  1.00  0.00     0.037 A 
ATOM     55  C   UNL A   1      41.517  32.115  37.324  1.00  0.00     0.049 A 
ATOM     56  C   UNL A   1      41.151  29.350  32.512  1.00  0.00     0.074 A 
ATOM     57  C   UNL A   1      42.606  31.840  38.133  1.00  0.00     0.029 A 
ATOM     58  N   UNL A   1      41.661  31.344  36.181  1.00  0.00    -0.354 N 
ATOM     59  N   UNL A   1      41.378  29.902  33.679  1.00  0.00    -0.248 NA
ATOM     60  C   UNL A   1      42.247  28.486  32.043  1.00  0.00     0.031 C 
ATOM     61  C   UNL A   1      43.440  30.946  37.454  1.00  0.00     0.029 A 
ATOM     62  C   UNL A   1      42.840  30.619  36.250  1.00  0.00     0.049 A 
ATOM     63  H   UNL A   1      41.021  31.315  35.434  1.00  0.00     0.167 HD
ATOM     64  C   UNL A   1      42.620  29.433  34.093  1.00  0.00     0.074 A 
ATOM     65  C   UNL A   1      43.094  28.536  33.061  1.00  0.00     0.031 C 
ATOM     66  C   UNL A   1      43.307  29.720  35.226  1.00  0.00     0.037 A 
BRANCH  53  67
ATOM     67  C   UNL A   1      40.477  33.847  38.821  1.00  0.00     0.064 A 
ATOM     68  C   UNL A   1      39.827  33.446  39.997  1.00  0.00     0.173 A 
ATOM     69  C   UNL A   1      41.235  35.028  38.857  1.00  0.00     0.173 A 
ATOM     70  F   UNL A   1      39.079  32.333  40.009  1.00  0.00    -0.203 F 
ATOM     71  C   UNL A   1      39.918  34.209  41.159  1.00  0.00     0.198 A 
ATOM     72  C   UNL A   1      41.348  35.771  40.027  1.00  0.00     0.198 A 
ATOM     73  F   UNL A   1      41.880  35.451  37.759  1.00  0.00    -0.203 F 
ATOM     74  F   UNL A   1      39.259  33.828  42.261  1.00  0.00    -0.200 F 
ATOM     75  C   UNL A   1      40.686  35.364  41.176  1.00  0.00     0.200 A 
ATOM     76  F   UNL A   1      42.102  36.880  40.046  1.00  0.00    -0.200 F 
ATOM     77  F   UNL A   1      40.785  36.088  42.299  1.00  0.00    -0.200 F 
ENDBRANCH  53  67
BRANCH  54  78
ATOM     78  C   UNL A   1      39.921  28.756  30.305  1.00  0.00     0.064 A 
ATOM     79  C   UNL A   1      39.352  27.479  30.193  1.00  0.00     0.173 A 
ATOM     80  C   UNL A   1      40.526  29.300  29.162  1.00  0.00     0.173 A 
ATOM     81  F   UNL A   1      38.797  26.897  31.266  1.00  0.00    -0.203 F 
ATOM     82  C   UNL A   1      39.408  26.767  28.996  1.00  0.00     0.198 A 
ATOM     83  C   UNL A   1      40.554  28.600  27.957  1.00  0.00     0.198 A 
ATOM     84  F   UNL A   1      41.100  30.511  29.216  1.00  0.00    -0.203 F 
ATOM     85  F   UNL A   1      38.913  25.523  28.934  1.00  0.00    -0.200 F 
ATOM     86  C   UNL A   1      40.005  27.331  27.877  1.00  0.00     0.200 A 
ATOM     87  F   UNL A   1      41.126  29.151  26.877  1.00  0.00    -0.200 F 
ATOM     88  F   UNL A   1      40.063  26.643  26.728  1.00  0.00    -0.200 F 
ENDBRANCH  54  78
BRANCH  66  89
ATOM     89  C   UNL A   1      44.630  29.038  35.439  1.00  0.00     0.064 A 
ATOM     90  C   UNL A   1      45.831  29.592  34.971  1.00  0.00     0.173 A 
ATOM     91  C   UNL A   1      44.703  27.840  36.167  1.00  0.00     0.173 A 
ATOM     92  F   UNL A   1      45.817  30.729  34.260  1.00  0.00    -0.203 F 
ATOM     93  C   UNL A   1      47.050  28.959  35.202  1.00  0.00     0.198 A 
ATOM     94  C   UNL A   1      45.927  27.227  36.423  1.00  0.00     0.198 A 
ATOM     95  F   UNL A   1      43.587  27.270  36.647  1.00  0.00    -0.203 F 
ATOM     96  F   UNL A   1      48.180  29.484  34.705  1.00  0.00    -0.200 F 
ATOM     97  C   UNL A   1      47.098  27.782  35.934  1.00  0.00     0.200 A 
ATOM     98  F   UNL A   1      45.972  26.098  37.145  1.00  0.00    -0.200 F 
ATOM     99  F   UNL A   1      48.274  27.181  36.163  1.00  0.00    -0.200 F 
ENDBRANCH  66  89
ENDBRANCH  40  41
ENDBRANCH  33  35
ENDBRANCH  32  33
ENDBRANCH  31  32
ENDBRANCH  30  31
ENDBRANCH  29  30
ENDBRANCH  28  29
ENDBRANCH   1  28
TORSDOF 19
ENDMDL
MODEL 3
REMARK VINA RESULT:     -10.9      5.116      7.412
REMARK SMILES CC1(C)CCCC[C@H]1NC(=O)Nc1ccccc1C(=O)OCCOCCOCCOC(=O)c1ccc(-c2c3nc(c(-c4c(F)c(F)c(F)c(F)c4F)c4ccc([nH]4)c(-c4c(F)c(F)c(F)c(F)c4F)c4nc(c(-c5c(F)c(F)c(F)c(F)c5F)c5ccc2[nH]5)C=C4)C=C3)cc1
REMARK SMILES IDX 25 1 24 2 23 3 22 4 21 5 19 6 20 7 18 8 13 9 14 10 15 11
REMARK SMILES IDX 17 12 16 13 12 14 9 15 10 16 11 18 8 20 1 21 2 22 3 23 4 24
REMARK SMILES IDX 5 25 7 26 6 27 26 28 27 29 28 30 29 31 30 32 31 33 32 34
REMARK SMILES IDX 33 35 34 36 95 37 35 38 94 39 36 40 37 41 38 42 88 43 39 44
REMARK SMILES IDX 93 45 87 46 89 47 40 48 92 49 86 50 85 51 41 53 73 54 53 55
REMARK SMILES IDX 72 56 54 57 57 58 71 59 90 60 55 61 56 62 70 64 91 65 58 66
REMARK SMILES IDX 42 67 43 68 51 69 44 70 45 71 49 72 52 73 46 74 47 75 50 76
REMARK SMILES IDX 48 77 74 78 75 79 83 80 76 81 77 82 81 83 84 84 78 85 79 86
REMARK SMILES IDX 82 87 80 88 59 89 60 90 68 91 61 92 62 93 66 94 69 95 63 96
REMARK SMILES IDX 64 97 67 98 65 99
REMARK H PARENT 9 17 12 19 89 52 57 63
REMARK Flexibility Score: inf
ROOT
ATOM      1  C   UNL A   1      39.814  22.428  26.516  1.00  0.00     0.188 C 
ENDROOT
BRANCH   1   2
ATOM      2  O   UNL A   1      39.085  21.475  25.758  1.00  0.00    -0.376 OA
BRANCH   2   3
ATOM      3  C   UNL A   1      37.877  21.953  25.195  1.00  0.00     0.202 C 
BRANCH   3   4
ATOM      4  C   UNL A   1      36.638  21.354  25.843  1.00  0.00     0.261 C 
BRANCH   4   5
ATOM      5  O   UNL A   1      35.445  22.155  25.992  1.00  0.00    -0.460 OA
BRANCH   5   6
ATOM      6  C   UNL A   1      34.191  21.685  25.862  1.00  0.00     0.340 C 
ATOM      7  O   UNL A   1      33.588  20.961  26.638  1.00  0.00    -0.246 OA
BRANCH   6   8
ATOM      8  C   UNL A   1      33.544  22.241  24.649  1.00  0.00     0.083 A 
ATOM      9  C   UNL A   1      32.183  22.583  24.567  1.00  0.00     0.057 A 
ATOM     10  C   UNL A   1      31.669  22.955  23.312  1.00  0.00     0.027 A 
ATOM     11  C   UNL A   1      32.509  23.146  22.211  1.00  0.00     0.002 A 
ATOM     12  C   UNL A   1      34.389  22.454  23.538  1.00  0.00     0.018 A 
ATOM     13  C   UNL A   1      33.876  22.927  22.332  1.00  0.00     0.001 A 
BRANCH   9  14
ATOM     14  N   UNL A   1      31.252  22.618  25.628  1.00  0.00    -0.307 N 
ATOM     15  N   UNL A   1      31.480  24.685  26.813  1.00  0.00    -0.335 N 
ATOM     16  C   UNL A   1      31.065  23.400  26.716  1.00  0.00     0.319 C 
ATOM     17  H   UNL A   1      31.413  25.058  27.720  1.00  0.00     0.165 HD
ATOM     18  O   UNL A   1      30.405  22.946  27.655  1.00  0.00    -0.248 OA
ATOM     19  H   UNL A   1      30.578  21.904  25.559  1.00  0.00     0.171 HD
BRANCH  15  20
ATOM     20  C   UNL A   1      32.006  25.617  25.829  1.00  0.00     0.089 C 
ATOM     21  C   UNL A   1      31.133  27.885  26.656  1.00  0.00     0.013 C 
ATOM     22  C   UNL A   1      31.107  26.838  25.526  1.00  0.00    -0.015 C 
ATOM     23  C   UNL A   1      29.646  26.399  25.319  1.00  0.00     0.013 C 
ATOM     24  C   UNL A   1      31.665  27.437  24.206  1.00  0.00     0.008 C 
ATOM     25  C   UNL A   1      33.164  27.782  24.260  1.00  0.00     0.001 C 
ATOM     26  C   UNL A   1      33.437  26.080  26.143  1.00  0.00     0.025 C 
ATOM     27  C   UNL A   1      34.046  26.697  24.882  1.00  0.00     0.002 C 
ENDBRANCH  15  20
ENDBRANCH   9  14
ENDBRANCH   6   8
ENDBRANCH   5   6
ENDBRANCH   4   5
ENDBRANCH   3   4
ENDBRANCH   2   3
ENDBRANCH   1   2
BRANCH   1  28
ATOM     28  C   UNL A   1      40.953  21.828  27.367  1.00  0.00     0.188 C 
BRANCH  28  29
ATOM     29  O   UNL A   1      41.943  21.036  26.733  1.00  0.00    -0.376 OA
BRANCH  29  30
ATOM     30  C   UNL A   1      41.842  19.632  26.898  1.00  0.00     0.202 C 
BRANCH  30  31
ATOM     31  C   UNL A   1      42.798  18.761  26.061  1.00  0.00     0.261 C 
BRANCH  31  32
ATOM     32  O   UNL A   1      43.107  19.281  24.744  1.00  0.00    -0.460 OA
BRANCH  32  33
ATOM     33  C   UNL A   1      44.421  19.447  24.438  1.00  0.00     0.338 C 
ATOM     34  O   UNL A   1      45.142  18.641  23.870  1.00  0.00    -0.246 OA
BRANCH  33  35
ATOM     35  C   UNL A   1      44.845  20.862  24.665  1.00  0.00     0.060 A 
ATOM     36  C   UNL A   1      45.454  21.189  25.891  1.00  0.00     0.016 A 
ATOM     37  C   UNL A   1      44.624  21.867  23.724  1.00  0.00     0.016 A 
ATOM     38  C   UNL A   1      45.811  22.510  26.193  1.00  0.00     0.010 A 
ATOM     39  C   UNL A   1      44.943  23.199  24.044  1.00  0.00     0.010 A 
ATOM     40  C   UNL A   1      45.505  23.536  25.292  1.00  0.00    -0.014 A 
BRANCH  40  41
ATOM     41  C   UNL A   1      45.535  24.958  25.744  1.00  0.00     0.031 A 
ATOM     42  C   UNL A   1      46.858  25.683  25.712  1.00  0.00     0.074 A 
ATOM     43  C   UNL A   1      44.439  25.618  26.166  1.00  0.00     0.049 A 
ATOM     44  N   UNL A   1      47.173  26.873  26.159  1.00  0.00    -0.248 NA
ATOM     45  C   UNL A   1      47.979  24.959  25.093  1.00  0.00     0.031 C 
ATOM     46  C   UNL A   1      43.081  25.084  26.193  1.00  0.00     0.029 A 
ATOM     47  N   UNL A   1      44.311  26.890  26.680  1.00  0.00    -0.354 N 
ATOM     48  C   UNL A   1      48.528  27.030  25.895  1.00  0.00     0.074 A 
ATOM     49  C   UNL A   1      48.979  25.810  25.259  1.00  0.00     0.031 C 
ATOM     50  C   UNL A   1      42.261  26.007  26.729  1.00  0.00     0.029 A 
ATOM     51  C   UNL A   1      43.042  27.184  27.118  1.00  0.00     0.049 A 
ATOM     52  H   UNL A   1      45.058  27.529  26.728  1.00  0.00     0.167 HD
ATOM     53  C   UNL A   1      49.329  28.091  26.155  1.00  0.00     0.037 A 
ATOM     54  C   UNL A   1      42.573  28.257  27.788  1.00  0.00     0.037 A 
ATOM     55  C   UNL A   1      48.893  29.314  26.775  1.00  0.00     0.049 A 
ATOM     56  C   UNL A   1      43.504  29.395  28.145  1.00  0.00     0.074 A 
ATOM     57  C   UNL A   1      49.634  30.452  27.045  1.00  0.00     0.029 A 
ATOM     58  N   UNL A   1      47.608  29.555  27.232  1.00  0.00    -0.354 N 
ATOM     59  N   UNL A   1      44.777  29.543  27.873  1.00  0.00    -0.248 NA
ATOM     60  C   UNL A   1      42.928  30.513  28.909  1.00  0.00     0.031 C 
ATOM     61  C   UNL A   1      48.812  31.361  27.718  1.00  0.00     0.029 A 
ATOM     62  C   UNL A   1      47.544  30.812  27.813  1.00  0.00     0.049 A 
ATOM     63  H   UNL A   1      46.853  28.929  27.153  1.00  0.00     0.167 HD
ATOM     64  C   UNL A   1      45.144  30.776  28.404  1.00  0.00     0.074 A 
ATOM     65  C   UNL A   1      43.956  31.345  29.001  1.00  0.00     0.031 C 
ATOM     66  C   UNL A   1      46.357  31.380  28.399  1.00  0.00     0.037 A 
BRANCH  53  67
ATOM     67  C   UNL A   1      50.781  27.966  25.802  1.00  0.00     0.064 A 
ATOM     68  C   UNL A   1      51.251  28.214  24.504  1.00  0.00     0.173 A 
ATOM     69  C   UNL A   1      51.722  27.651  26.795  1.00  0.00     0.173 A 
ATOM     70  F   UNL A   1      50.390  28.506  23.519  1.00  0.00    -0.203 F 
ATOM     71  C   UNL A   1      52.610  28.130  24.209  1.00  0.00     0.198 A 
ATOM     72  C   UNL A   1      53.081  27.597  26.503  1.00  0.00     0.198 A 
ATOM     73  F   UNL A   1      51.323  27.411  28.053  1.00  0.00    -0.203 F 
ATOM     74  F   UNL A   1      53.034  28.333  22.955  1.00  0.00    -0.200 F 
ATOM     75  C   UNL A   1      53.524  27.831  25.210  1.00  0.00     0.200 A 
ATOM     76  F   UNL A   1      53.964  27.323  27.474  1.00  0.00    -0.200 F 
ATOM     77  F   UNL A   1      54.832  27.766  24.927  1.00  0.00    -0.200 F 
ENDBRANCH  53  67
BRANCH  54  78
ATOM     78  C   UNL A   1      41.149  28.307  28.223  1.00  0.00     0.064 A 
ATOM     79  C   UNL A   1      40.161  28.892  27.417  1.00  0.00     0.173 A 
ATOM     80  C   UNL A   1      40.759  27.830  29.483  1.00  0.00     0.173 A 
ATOM     81  F   UNL A   1      40.489  29.400  26.219  1.00  0.00    -0.203 F 
ATOM     82  C   UNL A   1      38.847  29.016  27.863  1.00  0.00     0.198 A 
ATOM     83  C   UNL A   1      39.438  27.926  29.915  1.00  0.00     0.198 A 
ATOM     84  F   UNL A   1      41.666  27.275  30.302  1.00  0.00    -0.203 F 
ATOM     85  F   UNL A   1      37.938  29.637  27.098  1.00  0.00    -0.200 F 
ATOM     86  C   UNL A   1      38.485  28.528  29.110  1.00  0.00     0.200 A 
ATOM     87  F   UNL A   1      39.092  27.448  31.119  1.00  0.00    -0.200 F 
ATOM     88  F   UNL A   1      37.222  28.653  29.540  1.00  0.00    -0.200 F 
ENDBRANCH  54  78
BRANCH  66  89
ATOM     89  C   UNL A   1      46.468  32.744  29.024  1.00  0.00     0.064 A 
ATOM     90  C   UNL A   1      46.838  32.914  30.366  1.00  0.00     0.173 A 
ATOM     91  C   UNL A   1      46.249  33.898  28.255  1.00  0.00     0.173 A 
ATOM     92  F   UNL A   1      47.048  31.844  31.149  1.00  0.00    -0.203 F 
ATOM     93  C   UNL A   1      46.961  34.186  30.921  1.00  0.00     0.198 A 
ATOM     94  C   UNL A   1      46.403  35.169  28.805  1.00  0.00     0.198 A 
ATOM     95  F   UNL A   1      45.901  33.796  26.964  1.00  0.00    -0.203 F 
ATOM     96  F   UNL A   1      47.272  34.322  32.218  1.00  0.00    -0.200 F 
ATOM     97  C   UNL A   1      46.752  35.311  30.138  1.00  0.00     0.200 A 
ATOM     98  F   UNL A   1      46.216  36.254  28.042  1.00  0.00    -0.200 F 
ATOM     99  F   UNL A   1      46.880  36.534  30.672  1.00  0.00    -0.200 F 
ENDBRANCH  66  89
ENDBRANCH  40  41
ENDBRANCH  33  35
ENDBRANCH  32  33
ENDBRANCH  31  32
ENDBRANCH  30  31
ENDBRANCH  29  30
ENDBRANCH  28  29
ENDBRANCH   1  28
TORSDOF 19
ENDMDL
