MODEL 1
REMARK VINA RESULT:     -12.3      0.000      0.000
REMARK SMILES Cc1ccccc1-c1nn(-c2ccccc2)cc1/C=C(\C#N)C(=O)OCCOCCOCCOC(=O)c1ccc(-c2c3nc(c(-c4c(F)c(F)c(F)c(F)c4F)c4ccc([nH]4)c(-c4c(F)c(F)c(F)c(F)c4F)c4nc(c(-c5c(F)c(F)c(F)c(F)c5F)c5ccc2[nH]5)C=C4)C=C3)cc1
REMARK SMILES IDX 29 1 28 2 27 3 26 4 25 5 23 6 24 7 20 8 19 9 18 10 8 11 9 12
REMARK SMILES IDX 10 13 17 14 7 15 1 16 2 17 3 18 4 19 6 20 5 21 11 22 12 23
REMARK SMILES IDX 16 24 13 25 15 26 14 27 21 28 22 29 30 30 31 31 32 32 33 33
REMARK SMILES IDX 34 34 35 35 36 36 37 37 38 38 99 39 39 40 98 41 40 42 41 43
REMARK SMILES IDX 42 44 92 45 43 46 97 47 91 48 93 49 44 50 96 51 90 52 89 53
REMARK SMILES IDX 45 55 77 56 57 57 76 58 58 59 61 60 75 61 94 62 59 63 60 64
REMARK SMILES IDX 74 66 95 67 62 68 46 69 47 70 55 71 48 72 49 73 53 74 56 75
REMARK SMILES IDX 50 76 51 77 54 78 52 79 78 80 79 81 87 82 80 83 81 84 85 85
REMARK SMILES IDX 88 86 82 87 83 88 86 89 84 90 63 91 64 92 72 93 65 94 66 95
REMARK SMILES IDX 70 96 73 97 67 98 68 99 71 100 69 101
REMARK H PARENT 93 54 61 65
REMARK Flexibility Score: inf
ROOT
ATOM      1  C   UNL A   1      31.858  28.621  25.984  1.00  0.00     0.188 C 
ENDROOT
BRANCH   1   2
ATOM      2  O   UNL A   1      30.942  27.940  25.116  1.00  0.00    -0.376 OA
BRANCH   2   3
ATOM      3  C   UNL A   1      30.701  28.467  23.809  1.00  0.00     0.202 C 
BRANCH   3   4
ATOM      4  C   UNL A   1      30.930  27.700  22.427  1.00  0.00     0.261 C 
BRANCH   4   5
ATOM      5  O   UNL A   1      31.338  26.277  22.168  1.00  0.00    -0.459 OA
BRANCH   5   6
ATOM      6  C   UNL A   1      32.644  26.020  22.489  1.00  0.00     0.348 C 
ATOM      7  O   UNL A   1      33.382  26.974  22.290  1.00  0.00    -0.245 OA
BRANCH   6   8
ATOM      8  C   UNL A   1      33.185  24.335  22.925  1.00  0.00     0.138 C 
ATOM      9  C   UNL A   1      33.987  23.222  22.784  1.00  0.00     0.039 C 
BRANCH   9  10
ATOM     10  C   UNL A   1      34.321  22.107  23.721  1.00  0.00     0.023 A 
ATOM     11  C   UNL A   1      35.287  21.762  24.763  1.00  0.00     0.100 A 
ATOM     12  N   UNL A   1      34.930  20.624  25.372  1.00  0.00    -0.167 NA
ATOM     13  N   UNL A   1      34.053  20.033  24.564  1.00  0.00    -0.240 N 
ATOM     14  C   UNL A   1      33.623  20.902  23.585  1.00  0.00     0.123 A 
BRANCH  11  15
ATOM     15  C   UNL A   1      36.526  22.312  25.322  1.00  0.00     0.006 A 
ATOM     16  C   UNL A   1      35.437  24.602  25.813  1.00  0.00     0.045 C 
ATOM     17  C   UNL A   1      36.614  23.664  25.765  1.00  0.00    -0.042 A 
ATOM     18  C   UNL A   1      37.823  24.122  26.332  1.00  0.00     0.004 A 
ATOM     19  C   UNL A   1      38.935  23.284  26.415  1.00  0.00     0.000 A 
ATOM     20  C   UNL A   1      37.679  21.508  25.346  1.00  0.00     0.011 A 
ATOM     21  C   UNL A   1      38.869  21.988  25.906  1.00  0.00     0.001 A 
ENDBRANCH  11  15
BRANCH  13  22
ATOM     22  C   UNL A   1      33.759  18.662  24.783  1.00  0.00     0.065 A 
ATOM     23  C   UNL A   1      34.669  17.696  24.311  1.00  0.00     0.028 A 
ATOM     24  C   UNL A   1      32.560  18.256  25.373  1.00  0.00     0.028 A 
ATOM     25  C   UNL A   1      34.395  16.337  24.451  1.00  0.00     0.002 A 
ATOM     26  C   UNL A   1      32.276  16.888  25.471  1.00  0.00     0.002 A 
ATOM     27  C   UNL A   1      33.192  15.933  25.023  1.00  0.00     0.000 A 
ENDBRANCH  13  22
ENDBRANCH   9  10
BRANCH   8  28
ATOM     28  C   UNL A   1      32.382  24.185  24.207  1.00  0.00     0.107 C 
ATOM     29  N   UNL A   1      31.717  24.061  25.270  1.00  0.00    -0.192 NA
ENDBRANCH   8  28
ENDBRANCH   6   8
ENDBRANCH   5   6
ENDBRANCH   4   5
ENDBRANCH   3   4
ENDBRANCH   2   3
ENDBRANCH   1   2
BRANCH   1  30
ATOM     30  C   UNL A   1      33.116  29.186  25.342  1.00  0.00     0.188 C 
BRANCH  30  31
ATOM     31  O   UNL A   1      34.222  28.807  26.162  1.00  0.00    -0.376 OA
BRANCH  31  32
ATOM     32  C   UNL A   1      34.513  29.716  27.216  1.00  0.00     0.202 C 
BRANCH  32  33
ATOM     33  C   UNL A   1      33.784  31.043  27.008  1.00  0.00     0.261 C 
BRANCH  33  34
ATOM     34  O   UNL A   1      33.571  31.660  28.299  1.00  0.00    -0.460 OA
BRANCH  34  35
ATOM     35  C   UNL A   1      34.027  32.949  28.416  1.00  0.00     0.338 C 
ATOM     36  O   UNL A   1      33.522  33.919  27.898  1.00  0.00    -0.246 OA
BRANCH  35  37
ATOM     37  C   UNL A   1      35.386  32.951  29.046  1.00  0.00     0.060 A 
ATOM     38  C   UNL A   1      36.579  33.209  28.363  1.00  0.00     0.016 A 
ATOM     39  C   UNL A   1      35.528  32.495  30.312  1.00  0.00     0.016 A 
ATOM     40  C   UNL A   1      37.879  32.720  28.820  1.00  0.00     0.010 A 
ATOM     41  C   UNL A   1      36.811  32.104  30.735  1.00  0.00     0.010 A 
ATOM     42  C   UNL A   1      38.087  31.963  29.980  1.00  0.00    -0.014 A 
BRANCH  42  43
ATOM     43  C   UNL A   1      39.577  30.901  30.227  1.00  0.00     0.031 A 
ATOM     44  C   UNL A   1      40.188  29.257  29.643  1.00  0.00     0.074 A 
ATOM     45  C   UNL A   1      40.688  31.626  30.440  1.00  0.00     0.049 A 
ATOM     46  N   UNL A   1      40.713  28.228  30.314  1.00  0.00    -0.248 NA
ATOM     47  C   UNL A   1      40.163  28.722  28.213  1.00  0.00     0.031 C 
ATOM     48  C   UNL A   1      42.076  31.227  30.245  1.00  0.00     0.029 A 
ATOM     49  N   UNL A   1      40.780  32.847  31.096  1.00  0.00    -0.354 N 
ATOM     50  C   UNL A   1      40.991  27.165  29.344  1.00  0.00     0.074 A 
ATOM     51  C   UNL A   1      40.122  27.399  28.267  1.00  0.00     0.031 C 
ATOM     52  C   UNL A   1      42.821  31.949  31.099  1.00  0.00     0.029 A 
ATOM     53  C   UNL A   1      41.880  32.666  31.948  1.00  0.00     0.049 A 
ATOM     54  H   UNL A   1      40.212  33.644  30.990  1.00  0.00     0.167 HD
ATOM     55  C   UNL A   1      42.200  26.542  29.049  1.00  0.00     0.037 A 
ATOM     56  C   UNL A   1      41.637  32.404  33.268  1.00  0.00     0.037 A 
ATOM     57  C   UNL A   1      43.203  27.137  29.864  1.00  0.00     0.049 A 
ATOM     58  C   UNL A   1      42.259  31.120  33.778  1.00  0.00     0.074 A 
ATOM     59  C   UNL A   1      44.169  28.099  29.649  1.00  0.00     0.029 A 
ATOM     60  N   UNL A   1      43.053  26.978  31.207  1.00  0.00    -0.354 N 
ATOM     61  N   UNL A   1      42.734  30.165  33.025  1.00  0.00    -0.248 NA
ATOM     62  C   UNL A   1      42.387  30.812  35.198  1.00  0.00     0.031 C 
ATOM     63  C   UNL A   1      44.522  28.612  30.924  1.00  0.00     0.029 A 
ATOM     64  C   UNL A   1      43.781  27.926  31.871  1.00  0.00     0.049 A 
ATOM     65  H   UNL A   1      42.502  26.284  31.635  1.00  0.00     0.167 HD
ATOM     66  C   UNL A   1      43.166  29.129  33.816  1.00  0.00     0.074 A 
ATOM     67  C   UNL A   1      42.962  29.598  35.166  1.00  0.00     0.031 C 
ATOM     68  C   UNL A   1      43.618  27.950  33.301  1.00  0.00     0.037 A 
BRANCH  55  69
ATOM     69  C   UNL A   1      42.592  25.694  27.782  1.00  0.00     0.064 A 
ATOM     70  C   UNL A   1      42.239  24.321  27.680  1.00  0.00     0.173 A 
ATOM     71  C   UNL A   1      43.294  26.162  26.645  1.00  0.00     0.173 A 
ATOM     72  F   UNL A   1      41.428  23.742  28.575  1.00  0.00    -0.203 F 
ATOM     73  C   UNL A   1      42.671  23.478  26.638  1.00  0.00     0.198 A 
ATOM     74  C   UNL A   1      43.776  25.308  25.627  1.00  0.00     0.198 A 
ATOM     75  F   UNL A   1      43.494  27.473  26.447  1.00  0.00    -0.203 F 
ATOM     76  F   UNL A   1      42.296  22.190  26.621  1.00  0.00    -0.200 F 
ATOM     77  C   UNL A   1      43.478  23.962  25.633  1.00  0.00     0.200 A 
ATOM     78  F   UNL A   1      44.527  25.806  24.633  1.00  0.00    -0.200 F 
ATOM     79  F   UNL A   1      43.925  23.151  24.663  1.00  0.00    -0.200 F 
ENDBRANCH  55  69
BRANCH  56  80
ATOM     80  C   UNL A   1      40.351  33.019  33.760  1.00  0.00     0.064 A 
ATOM     81  C   UNL A   1      39.234  32.170  33.954  1.00  0.00     0.173 A 
ATOM     82  C   UNL A   1      40.301  34.273  34.391  1.00  0.00     0.173 A 
ATOM     83  F   UNL A   1      39.242  30.929  33.443  1.00  0.00    -0.203 F 
ATOM     84  C   UNL A   1      38.180  32.517  34.804  1.00  0.00     0.198 A 
ATOM     85  C   UNL A   1      39.227  34.630  35.221  1.00  0.00     0.198 A 
ATOM     86  F   UNL A   1      41.339  35.118  34.305  1.00  0.00    -0.203 F 
ATOM     87  F   UNL A   1      37.236  31.611  35.100  1.00  0.00    -0.200 F 
ATOM     88  C   UNL A   1      38.182  33.744  35.445  1.00  0.00     0.200 A 
ATOM     89  F   UNL A   1      39.253  35.793  35.890  1.00  0.00    -0.200 F 
ATOM     90  F   UNL A   1      37.231  34.030  36.347  1.00  0.00    -0.200 F 
ENDBRANCH  56  80
BRANCH  68  91
ATOM     91  C   UNL A   1      43.833  26.635  34.025  1.00  0.00     0.064 A 
ATOM     92  C   UNL A   1      42.795  25.894  34.605  1.00  0.00     0.173 A 
ATOM     93  C   UNL A   1      45.079  25.956  33.905  1.00  0.00     0.173 A 
ATOM     94  F   UNL A   1      41.549  26.377  34.667  1.00  0.00    -0.203 F 
ATOM     95  C   UNL A   1      42.993  24.589  35.065  1.00  0.00     0.198 A 
ATOM     96  C   UNL A   1      45.248  24.626  34.289  1.00  0.00     0.198 A 
ATOM     97  F   UNL A   1      46.145  26.545  33.342  1.00  0.00    -0.203 F 
ATOM     98  F   UNL A   1      41.978  23.934  35.645  1.00  0.00    -0.200 F 
ATOM     99  C   UNL A   1      44.207  23.949  34.887  1.00  0.00     0.200 A 
ATOM    100  F   UNL A   1      46.405  23.999  34.038  1.00  0.00    -0.200 F 
ATOM    101  F   UNL A   1      44.365  22.674  35.269  1.00  0.00    -0.200 F 
ENDBRANCH  68  91
ENDBRANCH  42  43
ENDBRANCH  35  37
ENDBRANCH  34  35
ENDBRANCH  33  34
ENDBRANCH  32  33
ENDBRANCH  31  32
ENDBRANCH  30  31
ENDBRANCH   1  30
TORSDOF 21
ENDMDL
MODEL 2
REMARK VINA RESULT:     -12.3      3.517     10.024
REMARK SMILES Cc1ccccc1-c1nn(-c2ccccc2)cc1/C=C(\C#N)C(=O)OCCOCCOCCOC(=O)c1ccc(-c2c3nc(c(-c4c(F)c(F)c(F)c(F)c4F)c4ccc([nH]4)c(-c4c(F)c(F)c(F)c(F)c4F)c4nc(c(-c5c(F)c(F)c(F)c(F)c5F)c5ccc2[nH]5)C=C4)C=C3)cc1
REMARK SMILES IDX 29 1 28 2 27 3 26 4 25 5 23 6 24 7 20 8 19 9 18 10 8 11 9 12
REMARK SMILES IDX 10 13 17 14 7 15 1 16 2 17 3 18 4 19 6 20 5 21 11 22 12 23
REMARK SMILES IDX 16 24 13 25 15 26 14 27 21 28 22 29 30 30 31 31 32 32 33 33
REMARK SMILES IDX 34 34 35 35 36 36 37 37 38 38 99 39 39 40 98 41 40 42 41 43
REMARK SMILES IDX 42 44 92 45 43 46 97 47 91 48 93 49 44 50 96 51 90 52 89 53
REMARK SMILES IDX 45 55 77 56 57 57 76 58 58 59 61 60 75 61 94 62 59 63 60 64
REMARK SMILES IDX 74 66 95 67 62 68 46 69 47 70 55 71 48 72 49 73 53 74 56 75
REMARK SMILES IDX 50 76 51 77 54 78 52 79 78 80 79 81 87 82 80 83 81 84 85 85
REMARK SMILES IDX 88 86 82 87 83 88 86 89 84 90 63 91 64 92 72 93 65 94 66 95
REMARK SMILES IDX 70 96 73 97 67 98 68 99 71 100 69 101
REMARK H PARENT 93 54 61 65
REMARK Flexibility Score: inf
ROOT
ATOM      1  C   UNL A   1      35.378  20.883  24.887  1.00  0.00     0.188 C 
ENDROOT
BRANCH   1   2
ATOM      2  O   UNL A   1      34.462  19.819  25.176  1.00  0.00    -0.376 OA
BRANCH   2   3
ATOM      3  C   UNL A   1      33.302  19.658  24.355  1.00  0.00     0.202 C 
BRANCH   3   4
ATOM      4  C   UNL A   1      32.219  20.783  24.023  1.00  0.00     0.261 C 
BRANCH   4   5
ATOM      5  O   UNL A   1      32.268  22.267  24.251  1.00  0.00    -0.459 OA
BRANCH   5   6
ATOM      6  C   UNL A   1      32.137  22.998  23.101  1.00  0.00     0.348 C 
ATOM      7  O   UNL A   1      32.679  22.475  22.138  1.00  0.00    -0.245 OA
BRANCH   6   8
ATOM      8  C   UNL A   1      31.432  24.678  23.137  1.00  0.00     0.138 C 
ATOM      9  C   UNL A   1      30.543  25.633  23.583  1.00  0.00     0.039 C 
BRANCH   9  10
ATOM     10  C   UNL A   1      30.601  27.127  23.590  1.00  0.00     0.023 A 
ATOM     11  C   UNL A   1      31.314  28.223  24.244  1.00  0.00     0.100 A 
ATOM     12  N   UNL A   1      31.012  29.390  23.661  1.00  0.00    -0.167 NA
ATOM     13  N   UNL A   1      29.900  29.175  22.962  1.00  0.00    -0.240 N 
ATOM     14  C   UNL A   1      29.641  27.826  22.852  1.00  0.00     0.123 A 
BRANCH  11  15
ATOM     15  C   UNL A   1      32.261  28.397  25.351  1.00  0.00     0.006 A 
ATOM     16  C   UNL A   1      34.285  28.590  23.758  1.00  0.00     0.045 C 
ATOM     17  C   UNL A   1      33.664  28.515  25.127  1.00  0.00    -0.042 A 
ATOM     18  C   UNL A   1      34.518  28.722  26.231  1.00  0.00     0.004 A 
ATOM     19  C   UNL A   1      34.010  28.763  27.529  1.00  0.00     0.000 A 
ATOM     20  C   UNL A   1      31.779  28.367  26.671  1.00  0.00     0.011 A 
ATOM     21  C   UNL A   1      32.648  28.567  27.750  1.00  0.00     0.001 A 
ENDBRANCH  11  15
BRANCH  13  22
ATOM     22  C   UNL A   1      29.161  30.301  22.515  1.00  0.00     0.065 A 
ATOM     23  C   UNL A   1      28.647  30.290  21.204  1.00  0.00     0.028 A 
ATOM     24  C   UNL A   1      29.009  31.440  23.310  1.00  0.00     0.028 A 
ATOM     25  C   UNL A   1      27.964  31.396  20.701  1.00  0.00     0.002 A 
ATOM     26  C   UNL A   1      28.359  32.561  22.780  1.00  0.00     0.002 A 
ATOM     27  C   UNL A   1      27.829  32.536  21.487  1.00  0.00     0.000 A 
ENDBRANCH  13  22
ENDBRANCH   9  10
BRANCH   8  28
ATOM     28  C   UNL A   1      32.520  25.376  22.337  1.00  0.00     0.107 C 
ATOM     29  N   UNL A   1      33.422  25.955  21.674  1.00  0.00    -0.192 NA
ENDBRANCH   8  28
ENDBRANCH   6   8
ENDBRANCH   5   6
ENDBRANCH   4   5
ENDBRANCH   3   4
ENDBRANCH   2   3
ENDBRANCH   1   2
BRANCH   1  30
ATOM     30  C   UNL A   1      35.668  21.861  26.015  1.00  0.00     0.188 C 
BRANCH  30  31
ATOM     31  O   UNL A   1      36.864  22.563  25.678  1.00  0.00    -0.376 OA
BRANCH  31  32
ATOM     32  C   UNL A   1      37.843  21.774  25.013  1.00  0.00     0.202 C 
BRANCH  32  33
ATOM     33  C   UNL A   1      38.906  21.283  25.995  1.00  0.00     0.261 C 
BRANCH  33  34
ATOM     34  O   UNL A   1      40.149  21.965  25.709  1.00  0.00    -0.460 OA
BRANCH  34  35
ATOM     35  C   UNL A   1      40.717  22.620  26.772  1.00  0.00     0.338 C 
ATOM     36  O   UNL A   1      41.395  22.103  27.631  1.00  0.00    -0.246 OA
BRANCH  35  37
ATOM     37  C   UNL A   1      40.158  24.007  26.870  1.00  0.00     0.060 A 
ATOM     38  C   UNL A   1      40.759  25.146  26.322  1.00  0.00     0.016 A 
ATOM     39  C   UNL A   1      39.108  24.240  27.688  1.00  0.00     0.016 A 
ATOM     40  C   UNL A   1      40.518  26.494  26.833  1.00  0.00     0.010 A 
ATOM     41  C   UNL A   1      38.868  25.564  28.097  1.00  0.00     0.010 A 
ATOM     42  C   UNL A   1      39.665  26.806  27.899  1.00  0.00    -0.014 A 
BRANCH  42  43
ATOM     43  C   UNL A   1      39.811  28.368  28.873  1.00  0.00     0.031 A 
ATOM     44  C   UNL A   1      38.779  29.865  29.206  1.00  0.00     0.074 A 
ATOM     45  C   UNL A   1      40.554  28.209  29.981  1.00  0.00     0.049 A 
ATOM     46  N   UNL A   1      39.084  31.165  29.171  1.00  0.00    -0.248 NA
ATOM     47  C   UNL A   1      37.294  29.898  29.558  1.00  0.00     0.031 C 
ATOM     48  C   UNL A   1      40.551  29.017  31.193  1.00  0.00     0.029 A 
ATOM     49  N   UNL A   1      41.647  27.366  30.143  1.00  0.00    -0.354 N 
ATOM     50  C   UNL A   1      37.865  31.913  29.494  1.00  0.00     0.074 A 
ATOM     51  C   UNL A   1      36.800  31.061  29.161  1.00  0.00     0.031 C 
ATOM     52  C   UNL A   1      41.774  28.916  31.742  1.00  0.00     0.029 A 
ATOM     53  C   UNL A   1      42.589  28.190  30.779  1.00  0.00     0.049 A 
ATOM     54  H   UNL A   1      41.739  26.423  29.878  1.00  0.00     0.167 HD
ATOM     55  C   UNL A   1      37.641  32.821  30.523  1.00  0.00     0.037 A 
ATOM     56  C   UNL A   1      43.593  28.724  30.020  1.00  0.00     0.037 A 
ATOM     57  C   UNL A   1      38.839  32.916  31.285  1.00  0.00     0.049 A 
ATOM     58  C   UNL A   1      43.676  30.237  30.065  1.00  0.00     0.074 A 
ATOM     59  C   UNL A   1      39.265  32.366  32.478  1.00  0.00     0.029 A 
ATOM     60  N   UNL A   1      39.927  33.402  30.628  1.00  0.00    -0.354 N 
ATOM     61  N   UNL A   1      42.740  31.027  30.513  1.00  0.00    -0.248 NA
ATOM     62  C   UNL A   1      44.839  30.980  29.591  1.00  0.00     0.031 C 
ATOM     63  C   UNL A   1      40.682  32.429  32.470  1.00  0.00     0.029 A 
ATOM     64  C   UNL A   1      41.068  33.039  31.289  1.00  0.00     0.049 A 
ATOM     65  H   UNL A   1      39.896  33.935  29.801  1.00  0.00     0.167 HD
ATOM     66  C   UNL A   1      43.126  32.335  30.351  1.00  0.00     0.074 A 
ATOM     67  C   UNL A   1      44.460  32.251  29.805  1.00  0.00     0.031 C 
ATOM     68  C   UNL A   1      42.303  33.385  30.636  1.00  0.00     0.037 A 
BRANCH  55  69
ATOM     69  C   UNL A   1      36.273  33.334  31.110  1.00  0.00     0.064 A 
ATOM     70  C   UNL A   1      35.439  34.215  30.368  1.00  0.00     0.173 A 
ATOM     71  C   UNL A   1      35.723  32.996  32.370  1.00  0.00     0.173 A 
ATOM     72  F   UNL A   1      35.705  34.512  29.090  1.00  0.00    -0.203 F 
ATOM     73  C   UNL A   1      34.273  34.809  30.886  1.00  0.00     0.198 A 
ATOM     74  C   UNL A   1      34.585  33.633  32.914  1.00  0.00     0.198 A 
ATOM     75  F   UNL A   1      36.235  31.998  33.103  1.00  0.00    -0.203 F 
ATOM     76  F   UNL A   1      33.546  35.635  30.118  1.00  0.00    -0.200 F 
ATOM     77  C   UNL A   1      33.869  34.553  32.176  1.00  0.00     0.200 A 
ATOM     78  F   UNL A   1      34.181  33.340  34.160  1.00  0.00    -0.200 F 
ATOM     79  F   UNL A   1      32.781  35.151  32.686  1.00  0.00    -0.200 F 
ENDBRANCH  55  69
BRANCH  56  80
ATOM     80  C   UNL A   1      43.971  27.853  28.849  1.00  0.00     0.064 A 
ATOM     81  C   UNL A   1      43.491  28.211  27.565  1.00  0.00     0.173 A 
ATOM     82  C   UNL A   1      45.052  26.957  28.886  1.00  0.00     0.173 A 
ATOM     83  F   UNL A   1      42.508  29.119  27.449  1.00  0.00    -0.203 F 
ATOM     84  C   UNL A   1      44.118  27.777  26.394  1.00  0.00     0.198 A 
ATOM     85  C   UNL A   1      45.661  26.500  27.706  1.00  0.00     0.198 A 
ATOM     86  F   UNL A   1      45.603  26.606  30.056  1.00  0.00    -0.203 F 
ATOM     87  F   UNL A   1      43.745  28.286  25.210  1.00  0.00    -0.200 F 
ATOM     88  C   UNL A   1      45.209  26.929  26.465  1.00  0.00     0.200 A 
ATOM     89  F   UNL A   1      46.754  25.725  27.772  1.00  0.00    -0.200 F 
ATOM     90  F   UNL A   1      45.880  26.604  25.350  1.00  0.00    -0.200 F 
ENDBRANCH  56  80
BRANCH  68  91
ATOM     91  C   UNL A   1      42.467  34.837  30.231  1.00  0.00     0.064 A 
ATOM     92  C   UNL A   1      43.291  35.741  30.914  1.00  0.00     0.173 A 
ATOM     93  C   UNL A   1      41.995  35.275  28.961  1.00  0.00     0.173 A 
ATOM     94  F   UNL A   1      43.891  35.403  32.061  1.00  0.00    -0.203 F 
ATOM     95  C   UNL A   1      43.592  37.001  30.388  1.00  0.00     0.198 A 
ATOM     96  C   UNL A   1      42.366  36.499  28.405  1.00  0.00     0.198 A 
ATOM     97  F   UNL A   1      41.220  34.492  28.195  1.00  0.00    -0.203 F 
ATOM     98  F   UNL A   1      44.356  37.844  31.095  1.00  0.00    -0.200 F 
ATOM     99  C   UNL A   1      43.151  37.370  29.129  1.00  0.00     0.200 A 
ATOM    100  F   UNL A   1      41.995  36.806  27.155  1.00  0.00    -0.200 F 
ATOM    101  F   UNL A   1      43.503  38.553  28.607  1.00  0.00    -0.200 F 
ENDBRANCH  68  91
ENDBRANCH  42  43
ENDBRANCH  35  37
ENDBRANCH  34  35
ENDBRANCH  33  34
ENDBRANCH  32  33
ENDBRANCH  31  32
ENDBRANCH  30  31
ENDBRANCH   1  30
TORSDOF 21
ENDMDL
MODEL 3
REMARK VINA RESULT:     -12.1      3.696     10.279
REMARK SMILES Cc1ccccc1-c1nn(-c2ccccc2)cc1/C=C(\C#N)C(=O)OCCOCCOCCOC(=O)c1ccc(-c2c3nc(c(-c4c(F)c(F)c(F)c(F)c4F)c4ccc([nH]4)c(-c4c(F)c(F)c(F)c(F)c4F)c4nc(c(-c5c(F)c(F)c(F)c(F)c5F)c5ccc2[nH]5)C=C4)C=C3)cc1
REMARK SMILES IDX 29 1 28 2 27 3 26 4 25 5 23 6 24 7 20 8 19 9 18 10 8 11 9 12
REMARK SMILES IDX 10 13 17 14 7 15 1 16 2 17 3 18 4 19 6 20 5 21 11 22 12 23
REMARK SMILES IDX 16 24 13 25 15 26 14 27 21 28 22 29 30 30 31 31 32 32 33 33
REMARK SMILES IDX 34 34 35 35 36 36 37 37 38 38 99 39 39 40 98 41 40 42 41 43
REMARK SMILES IDX 42 44 92 45 43 46 97 47 91 48 93 49 44 50 96 51 90 52 89 53
REMARK SMILES IDX 45 55 77 56 57 57 76 58 58 59 61 60 75 61 94 62 59 63 60 64
REMARK SMILES IDX 74 66 95 67 62 68 46 69 47 70 55 71 48 72 49 73 53 74 56 75
REMARK SMILES IDX 50 76 51 77 54 78 52 79 78 80 79 81 87 82 80 83 81 84 85 85
REMARK SMILES IDX 88 86 82 87 83 88 86 89 84 90 63 91 64 92 72 93 65 94 66 95
REMARK SMILES IDX 70 96 73 97 67 98 68 99 71 100 69 101
REMARK H PARENT 93 54 61 65
REMARK Flexibility Score: inf
ROOT
ATOM      1  C   UNL A   1      35.800  20.722  25.318  1.00  0.00     0.188 C 
ENDROOT
BRANCH   1   2
ATOM      2  O   UNL A   1      34.496  21.110  25.772  1.00  0.00    -0.376 OA
BRANCH   2   3
ATOM      3  C   UNL A   1      33.344  20.543  25.143  1.00  0.00     0.202 C 
BRANCH   3   4
ATOM      4  C   UNL A   1      31.876  21.173  25.120  1.00  0.00     0.261 C 
BRANCH   4   5
ATOM      5  O   UNL A   1      31.435  22.599  25.293  1.00  0.00    -0.459 OA
BRANCH   5   6
ATOM      6  C   UNL A   1      31.201  23.242  24.107  1.00  0.00     0.348 C 
ATOM      7  O   UNL A   1      31.476  22.561  23.131  1.00  0.00    -0.245 OA
BRANCH   6   8
ATOM      8  C   UNL A   1      30.760  25.011  24.076  1.00  0.00     0.138 C 
ATOM      9  C   UNL A   1      30.275  26.171  24.642  1.00  0.00     0.039 C 
BRANCH   9  10
ATOM     10  C   UNL A   1      30.477  27.611  24.296  1.00  0.00     0.023 A 
ATOM     11  C   UNL A   1      31.338  28.742  24.638  1.00  0.00     0.100 A 
ATOM     12  N   UNL A   1      31.107  29.771  23.813  1.00  0.00    -0.167 NA
ATOM     13  N   UNL A   1      29.930  29.527  23.241  1.00  0.00    -0.240 N 
ATOM     14  C   UNL A   1      29.535  28.225  23.464  1.00  0.00     0.123 A 
BRANCH  11  15
ATOM     15  C   UNL A   1      32.378  29.058  25.623  1.00  0.00     0.006 A 
ATOM     16  C   UNL A   1      33.751  26.950  25.040  1.00  0.00     0.045 C 
ATOM     17  C   UNL A   1      33.484  28.189  25.852  1.00  0.00    -0.042 A 
ATOM     18  C   UNL A   1      34.472  28.570  26.785  1.00  0.00     0.004 A 
ATOM     19  C   UNL A   1      34.350  29.755  27.511  1.00  0.00     0.000 A 
ATOM     20  C   UNL A   1      32.236  30.209  26.418  1.00  0.00     0.011 A 
ATOM     21  C   UNL A   1      33.226  30.561  27.342  1.00  0.00     0.001 A 
ENDBRANCH  11  15
BRANCH  13  22
ATOM     22  C   UNL A   1      29.271  30.596  22.581  1.00  0.00     0.065 A 
ATOM     23  C   UNL A   1      29.022  31.780  23.302  1.00  0.00     0.028 A 
ATOM     24  C   UNL A   1      28.796  30.468  21.274  1.00  0.00     0.028 A 
ATOM     25  C   UNL A   1      28.328  32.835  22.715  1.00  0.00     0.002 A 
ATOM     26  C   UNL A   1      28.062  31.518  20.707  1.00  0.00     0.002 A 
ATOM     27  C   UNL A   1      27.839  32.700  21.419  1.00  0.00     0.000 A 
ENDBRANCH  13  22
ENDBRANCH   9  10
BRANCH   8  28
ATOM     28  C   UNL A   1      31.420  25.364  22.753  1.00  0.00     0.107 C 
ATOM     29  N   UNL A   1      31.966  25.657  21.655  1.00  0.00    -0.192 NA
ENDBRANCH   8  28
ENDBRANCH   6   8
ENDBRANCH   5   6
ENDBRANCH   4   5
ENDBRANCH   3   4
ENDBRANCH   2   3
ENDBRANCH   1   2
BRANCH   1  30
ATOM     30  C   UNL A   1      36.693  21.829  24.778  1.00  0.00     0.188 C 
BRANCH  30  31
ATOM     31  O   UNL A   1      38.046  21.435  25.002  1.00  0.00    -0.376 OA
BRANCH  31  32
ATOM     32  C   UNL A   1      38.247  20.029  25.066  1.00  0.00     0.202 C 
BRANCH  32  33
ATOM     33  C   UNL A   1      39.650  19.701  25.577  1.00  0.00     0.261 C 
BRANCH  33  34
ATOM     34  O   UNL A   1      40.215  20.892  26.172  1.00  0.00    -0.460 OA
BRANCH  34  35
ATOM     35  C   UNL A   1      41.045  20.676  27.243  1.00  0.00     0.338 C 
ATOM     36  O   UNL A   1      40.960  19.751  28.018  1.00  0.00    -0.246 OA
BRANCH  35  37
ATOM     37  C   UNL A   1      41.896  21.887  27.475  1.00  0.00     0.060 A 
ATOM     38  C   UNL A   1      42.417  22.266  28.718  1.00  0.00     0.016 A 
ATOM     39  C   UNL A   1      42.038  22.796  26.484  1.00  0.00     0.016 A 
ATOM     40  C   UNL A   1      42.780  23.645  29.039  1.00  0.00     0.010 A 
ATOM     41  C   UNL A   1      42.461  24.093  26.829  1.00  0.00     0.010 A 
ATOM     42  C   UNL A   1      42.669  24.728  28.159  1.00  0.00    -0.014 A 
BRANCH  42  43
ATOM     43  C   UNL A   1      42.580  26.481  28.736  1.00  0.00     0.031 A 
ATOM     44  C   UNL A   1      41.287  27.789  28.917  1.00  0.00     0.074 A 
ATOM     45  C   UNL A   1      43.473  26.743  29.705  1.00  0.00     0.049 A 
ATOM     46  N   UNL A   1      41.283  29.074  28.551  1.00  0.00    -0.248 NA
ATOM     47  C   UNL A   1      39.889  27.625  29.508  1.00  0.00     0.031 C 
ATOM     48  C   UNL A   1      43.440  27.809  30.697  1.00  0.00     0.029 A 
ATOM     49  N   UNL A   1      44.740  26.190  29.849  1.00  0.00    -0.354 N 
ATOM     50  C   UNL A   1      39.978  29.633  28.916  1.00  0.00     0.074 A 
ATOM     51  C   UNL A   1      39.099  28.538  28.964  1.00  0.00     0.031 C 
ATOM     52  C   UNL A   1      44.713  28.080  31.032  1.00  0.00     0.029 A 
ATOM     53  C   UNL A   1      45.543  27.308  30.119  1.00  0.00     0.049 A 
ATOM     54  H   UNL A   1      45.008  25.245  29.780  1.00  0.00     0.167 HD
ATOM     55  C   UNL A   1      39.686  30.707  29.749  1.00  0.00     0.037 A 
ATOM     56  C   UNL A   1      46.298  27.820  29.100  1.00  0.00     0.037 A 
ATOM     57  C   UNL A   1      40.917  31.212  30.252  1.00  0.00     0.049 A 
ATOM     58  C   UNL A   1      46.042  29.285  28.805  1.00  0.00     0.074 A 
ATOM     59  C   UNL A   1      41.603  31.064  31.441  1.00  0.00     0.029 A 
ATOM     60  N   UNL A   1      41.776  31.719  29.326  1.00  0.00    -0.354 N 
ATOM     61  N   UNL A   1      45.015  29.968  29.231  1.00  0.00    -0.248 NA
ATOM     62  C   UNL A   1      46.938  30.095  27.987  1.00  0.00     0.031 C 
ATOM     63  C   UNL A   1      42.957  31.391  31.171  1.00  0.00     0.029 A 
ATOM     64  C   UNL A   1      43.043  31.753  29.839  1.00  0.00     0.049 A 
ATOM     65  H   UNL A   1      41.522  32.016  28.423  1.00  0.00     0.167 HD
ATOM     66  C   UNL A   1      45.072  31.244  28.728  1.00  0.00     0.074 A 
ATOM     67  C   UNL A   1      46.311  31.284  27.987  1.00  0.00     0.031 C 
ATOM     68  C   UNL A   1      44.077  32.156  28.921  1.00  0.00     0.037 A 
BRANCH  55  69
ATOM     69  C   UNL A   1      38.322  31.078  30.443  1.00  0.00     0.064 A 
ATOM     70  C   UNL A   1      37.236  31.604  29.693  1.00  0.00     0.173 A 
ATOM     71  C   UNL A   1      38.015  30.935  31.818  1.00  0.00     0.173 A 
ATOM     72  F   UNL A   1      37.273  31.654  28.355  1.00  0.00    -0.203 F 
ATOM     73  C   UNL A   1      36.042  32.076  30.271  1.00  0.00     0.198 A 
ATOM     74  C   UNL A   1      36.843  31.457  32.409  1.00  0.00     0.198 A 
ATOM     75  F   UNL A   1      38.815  30.234  32.636  1.00  0.00    -0.203 F 
ATOM     76  F   UNL A   1      35.067  32.563  29.489  1.00  0.00    -0.200 F 
ATOM     77  C   UNL A   1      35.863  32.044  31.635  1.00  0.00     0.200 A 
ATOM     78  F   UNL A   1      36.667  31.380  33.736  1.00  0.00    -0.200 F 
ATOM     79  F   UNL A   1      34.743  32.531  32.191  1.00  0.00    -0.200 F 
ENDBRANCH  55  69
BRANCH  56  80
ATOM     80  C   UNL A   1      46.711  26.775  28.094  1.00  0.00     0.064 A 
ATOM     81  C   UNL A   1      46.027  26.730  26.855  1.00  0.00     0.173 A 
ATOM     82  C   UNL A   1      47.951  26.117  28.150  1.00  0.00     0.173 A 
ATOM     83  F   UNL A   1      44.872  27.398  26.706  1.00  0.00    -0.203 F 
ATOM     84  C   UNL A   1      46.593  26.146  25.719  1.00  0.00     0.198 A 
ATOM     85  C   UNL A   1      48.504  25.507  27.013  1.00  0.00     0.198 A 
ATOM     86  F   UNL A   1      48.691  26.155  29.267  1.00  0.00    -0.203 F 
ATOM     87  F   UNL A   1      45.992  26.287  24.527  1.00  0.00    -0.200 F 
ATOM     88  C   UNL A   1      47.837  25.544  25.796  1.00  0.00     0.200 A 
ATOM     89  F   UNL A   1      49.734  24.972  27.069  1.00  0.00    -0.200 F 
ATOM     90  F   UNL A   1      48.430  25.085  24.683  1.00  0.00    -0.200 F 
ENDBRANCH  56  80
BRANCH  68  91
ATOM     91  C   UNL A   1      43.856  33.468  28.192  1.00  0.00     0.064 A 
ATOM     92  C   UNL A   1      43.682  33.560  26.806  1.00  0.00     0.173 A 
ATOM     93  C   UNL A   1      43.539  34.643  28.930  1.00  0.00     0.173 A 
ATOM     94  F   UNL A   1      43.833  32.491  26.014  1.00  0.00    -0.203 F 
ATOM     95  C   UNL A   1      43.260  34.745  26.196  1.00  0.00     0.198 A 
ATOM     96  C   UNL A   1      43.040  35.796  28.325  1.00  0.00     0.198 A 
ATOM     97  F   UNL A   1      43.637  34.677  30.268  1.00  0.00    -0.203 F 
ATOM     98  F   UNL A   1      43.143  34.794  24.862  1.00  0.00    -0.200 F 
ATOM     99  C   UNL A   1      42.918  35.852  26.954  1.00  0.00     0.200 A 
ATOM    100  F   UNL A   1      42.640  36.829  29.080  1.00  0.00    -0.200 F 
ATOM    101  F   UNL A   1      42.450  36.960  26.363  1.00  0.00    -0.200 F 
ENDBRANCH  68  91
ENDBRANCH  42  43
ENDBRANCH  35  37
ENDBRANCH  34  35
ENDBRANCH  33  34
ENDBRANCH  32  33
ENDBRANCH  31  32
ENDBRANCH  30  31
ENDBRANCH   1  30
TORSDOF 21
ENDMDL
