MODEL 1
REMARK VINA RESULT:     -10.8      0.000      0.000
REMARK SMILES CC[C@](C(=O)OCCOCCOCCOC(=O)c1ccc(-c2c3nc(c(-c4c(F)c(F)c(F)c(F)c4F)c4ccc([nH]4)c(-c4c(F)c(F)c(F)c(F)c4F)c4nc(c(-c5c(F)c(F)c(F)c(F)c5F)c5ccc2[nH]5)C=C4)C=C3)cc1)(C(=O)OC(C)(C)C)c1ccc(N)c(O)c1
REMARK SMILES IDX 10 1 9 2 8 3 7 4 6 5 4 6 5 7 3 8 2 9 1 10 81 11 82 12 83 13
REMARK SMILES IDX 84 14 85 15 86 16 87 17 88 18 89 19 95 20 90 21 93 22 91 23
REMARK SMILES IDX 94 24 92 26 11 29 12 30 13 31 14 32 15 33 16 34 17 35 18 36
REMARK SMILES IDX 19 37 80 38 20 39 79 40 21 41 22 42 23 43 73 44 24 45 78 46
REMARK SMILES IDX 72 47 74 48 25 49 77 50 71 51 70 52 26 54 58 55 38 56 57 57
REMARK SMILES IDX 39 58 42 59 56 60 75 61 40 62 41 63 55 65 76 66 43 67 27 68
REMARK SMILES IDX 28 69 36 70 29 71 30 72 34 73 37 74 31 75 32 76 35 77 33 78
REMARK SMILES IDX 59 79 60 80 68 81 61 82 62 83 66 84 69 85 63 86 64 87 67 88
REMARK SMILES IDX 65 89 44 90 45 91 53 92 46 93 47 94 51 95 54 96 48 97 49 98
REMARK SMILES IDX 52 99 50 100
REMARK H PARENT 94 25 92 27 92 28 74 53 42 64
REMARK Flexibility Score: inf
ROOT
ATOM      1  C   UNL A   1      32.729  22.811  27.457  1.00  0.00     0.188 C 
ENDROOT
BRANCH   1   2
ATOM      2  O   UNL A   1      31.687  23.770  27.347  1.00  0.00    -0.376 OA
BRANCH   2   3
ATOM      3  C   UNL A   1      31.220  24.186  26.068  1.00  0.00     0.202 C 
BRANCH   3   4
ATOM      4  C   UNL A   1      30.146  25.284  25.988  1.00  0.00     0.261 C 
BRANCH   4   5
ATOM      5  O   UNL A   1      30.590  26.612  25.621  1.00  0.00    -0.462 OA
BRANCH   5   6
ATOM      6  C   UNL A   1      30.274  27.036  24.362  1.00  0.00     0.328 C 
ATOM      7  O   UNL A   1      29.344  26.543  23.732  1.00  0.00    -0.251 OA
BRANCH   6   8
ATOM      8  C   UNL A   1      31.193  28.158  23.798  1.00  0.00     0.189 C 
BRANCH   8   9
ATOM      9  C   UNL A   1      32.280  27.436  22.920  1.00  0.00     0.032 C 
ATOM     10  C   UNL A   1      32.261  25.906  22.842  1.00  0.00     0.006 C 
ENDBRANCH   8   9
BRANCH   8  11
ATOM     11  C   UNL A   1      30.406  29.098  22.844  1.00  0.00     0.328 C 
ATOM     12  O   UNL A   1      30.541  29.122  21.625  1.00  0.00    -0.250 OA
BRANCH  11  13
ATOM     13  O   UNL A   1      29.490  29.870  23.490  1.00  0.00    -0.459 OA
BRANCH  13  14
ATOM     14  C   UNL A   1      28.191  30.146  22.901  1.00  0.00     0.104 C 
ATOM     15  C   UNL A   1      28.363  30.620  21.465  1.00  0.00     0.056 C 
ATOM     16  C   UNL A   1      27.238  28.946  22.975  1.00  0.00     0.056 C 
ATOM     17  C   UNL A   1      27.598  31.292  23.732  1.00  0.00     0.056 C 
ENDBRANCH  13  14
ENDBRANCH  11  13
ENDBRANCH   8  11
BRANCH   8  18
ATOM     18  C   UNL A   1      31.913  28.998  24.932  1.00  0.00    -0.016 A 
ATOM     19  C   UNL A   1      31.314  30.135  25.510  1.00  0.00     0.008 A 
ATOM     20  C   UNL A   1      33.191  28.653  25.430  1.00  0.00     0.054 A 
ATOM     21  C   UNL A   1      31.928  30.842  26.560  1.00  0.00     0.030 A 
ATOM     22  C   UNL A   1      33.811  29.385  26.449  1.00  0.00     0.138 A 
ATOM     23  C   UNL A   1      33.166  30.457  27.063  1.00  0.00     0.074 A 
BRANCH  22  24
ATOM     24  O   UNL A   1      35.065  29.045  26.894  1.00  0.00    -0.506 OA
ATOM     25  H   UNL A   1      35.443  28.224  26.646  1.00  0.00     0.293 HD
ENDBRANCH  22  24
BRANCH  23  26
ATOM     26  N   UNL A   1      33.811  31.201  28.044  1.00  0.00    -0.396 N 
ATOM     27  H   UNL A   1      33.338  31.939  28.493  1.00  0.00     0.156 HD
ATOM     28  H   UNL A   1      34.741  30.989  28.292  1.00  0.00     0.156 HD
ENDBRANCH  23  26
ENDBRANCH   8  18
ENDBRANCH   6   8
ENDBRANCH   5   6
ENDBRANCH   4   5
ENDBRANCH   3   4
ENDBRANCH   2   3
ENDBRANCH   1   2
BRANCH   1  29
ATOM     29  C   UNL A   1      32.938  21.775  26.351  1.00  0.00     0.188 C 
BRANCH  29  30
ATOM     30  O   UNL A   1      34.050  22.014  25.520  1.00  0.00    -0.376 OA
BRANCH  30  31
ATOM     31  C   UNL A   1      34.816  20.914  25.065  1.00  0.00     0.202 C 
BRANCH  31  32
ATOM     32  C   UNL A   1      36.284  21.219  24.742  1.00  0.00     0.261 C 
BRANCH  32  33
ATOM     33  O   UNL A   1      37.067  21.700  25.849  1.00  0.00    -0.460 OA
BRANCH  33  34
ATOM     34  C   UNL A   1      38.337  21.242  25.963  1.00  0.00     0.338 C 
ATOM     35  O   UNL A   1      38.748  20.141  25.636  1.00  0.00    -0.246 OA
BRANCH  34  36
ATOM     36  C   UNL A   1      39.205  22.406  26.278  1.00  0.00     0.060 A 
ATOM     37  C   UNL A   1      38.796  23.672  25.845  1.00  0.00     0.016 A 
ATOM     38  C   UNL A   1      40.344  22.282  27.082  1.00  0.00     0.016 A 
ATOM     39  C   UNL A   1      39.512  24.805  26.236  1.00  0.00     0.010 A 
ATOM     40  C   UNL A   1      41.065  23.421  27.463  1.00  0.00     0.010 A 
ATOM     41  C   UNL A   1      40.648  24.697  27.055  1.00  0.00    -0.014 A 
BRANCH  41  42
ATOM     42  C   UNL A   1      41.451  25.904  27.392  1.00  0.00     0.031 A 
ATOM     43  C   UNL A   1      40.842  26.956  28.274  1.00  0.00     0.074 A 
ATOM     44  C   UNL A   1      42.715  26.067  26.952  1.00  0.00     0.049 A 
ATOM     45  N   UNL A   1      41.329  28.113  28.649  1.00  0.00    -0.248 NA
ATOM     46  C   UNL A   1      39.506  26.661  28.815  1.00  0.00     0.031 C 
ATOM     47  C   UNL A   1      43.472  25.095  26.168  1.00  0.00     0.029 A 
ATOM     48  N   UNL A   1      43.596  27.111  27.123  1.00  0.00    -0.354 N 
ATOM     49  C   UNL A   1      40.359  28.683  29.460  1.00  0.00     0.074 A 
ATOM     50  C   UNL A   1      39.264  27.740  29.541  1.00  0.00     0.031 C 
ATOM     51  C   UNL A   1      44.711  25.572  25.955  1.00  0.00     0.029 A 
ATOM     52  C   UNL A   1      44.815  26.917  26.518  1.00  0.00     0.049 A 
ATOM     53  H   UNL A   1      43.372  27.924  27.634  1.00  0.00     0.167 HD
ATOM     54  C   UNL A   1      40.358  29.897  30.059  1.00  0.00     0.037 A 
ATOM     55  C   UNL A   1      45.876  27.745  26.399  1.00  0.00     0.037 A 
ATOM     56  C   UNL A   1      41.406  30.871  29.930  1.00  0.00     0.049 A 
ATOM     57  C   UNL A   1      45.786  29.151  26.947  1.00  0.00     0.074 A 
ATOM     58  C   UNL A   1      41.458  32.154  30.447  1.00  0.00     0.029 A 
ATOM     59  N   UNL A   1      42.576  30.682  29.210  1.00  0.00    -0.354 N 
ATOM     60  N   UNL A   1      44.852  29.698  27.686  1.00  0.00    -0.248 NA
ATOM     61  C   UNL A   1      46.886  30.069  26.606  1.00  0.00     0.031 C 
ATOM     62  C   UNL A   1      42.630  32.762  29.988  1.00  0.00     0.029 A 
ATOM     63  C   UNL A   1      43.338  31.838  29.238  1.00  0.00     0.049 A 
ATOM     64  H   UNL A   1      42.828  29.849  28.751  1.00  0.00     0.167 HD
ATOM     65  C   UNL A   1      45.252  31.012  27.903  1.00  0.00     0.074 A 
ATOM     66  C   UNL A   1      46.528  31.176  27.242  1.00  0.00     0.031 C 
ATOM     67  C   UNL A   1      44.611  31.996  28.579  1.00  0.00     0.037 A 
BRANCH  54  68
ATOM     68  C   UNL A   1      39.125  30.264  30.827  1.00  0.00     0.064 A 
ATOM     69  C   UNL A   1      38.045  30.921  30.222  1.00  0.00     0.173 A 
ATOM     70  C   UNL A   1      39.043  29.982  32.199  1.00  0.00     0.173 A 
ATOM     71  F   UNL A   1      38.091  31.237  28.919  1.00  0.00    -0.203 F 
ATOM     72  C   UNL A   1      36.941  31.317  30.972  1.00  0.00     0.198 A 
ATOM     73  C   UNL A   1      37.924  30.351  32.938  1.00  0.00     0.198 A 
ATOM     74  F   UNL A   1      40.053  29.358  32.823  1.00  0.00    -0.203 F 
ATOM     75  F   UNL A   1      35.949  32.004  30.388  1.00  0.00    -0.200 F 
ATOM     76  C   UNL A   1      36.880  31.029  32.328  1.00  0.00     0.200 A 
ATOM     77  F   UNL A   1      37.866  30.068  34.246  1.00  0.00    -0.200 F 
ATOM     78  F   UNL A   1      35.822  31.419  33.049  1.00  0.00    -0.200 F 
ENDBRANCH  54  68
BRANCH  55  79
ATOM     79  C   UNL A   1      47.107  27.312  25.677  1.00  0.00     0.064 A 
ATOM     80  C   UNL A   1      48.162  26.688  26.360  1.00  0.00     0.173 A 
ATOM     81  C   UNL A   1      47.289  27.575  24.310  1.00  0.00     0.173 A 
ATOM     82  F   UNL A   1      48.059  26.451  27.676  1.00  0.00    -0.203 F 
ATOM     83  C   UNL A   1      49.352  26.361  25.711  1.00  0.00     0.198 A 
ATOM     84  C   UNL A   1      48.465  27.215  23.653  1.00  0.00     0.198 A 
ATOM     85  F   UNL A   1      46.325  28.191  23.610  1.00  0.00    -0.203 F 
ATOM     86  F   UNL A   1      50.365  25.823  26.403  1.00  0.00    -0.200 F 
ATOM     87  C   UNL A   1      49.500  26.618  24.356  1.00  0.00     0.200 A 
ATOM     88  F   UNL A   1      48.601  27.464  22.344  1.00  0.00    -0.200 F 
ATOM     89  F   UNL A   1      50.645  26.308  23.733  1.00  0.00    -0.200 F 
ENDBRANCH  55  79
BRANCH  67  90
ATOM     90  C   UNL A   1      45.270  33.344  28.658  1.00  0.00     0.064 A 
ATOM     91  C   UNL A   1      46.234  33.635  29.634  1.00  0.00     0.173 A 
ATOM     92  C   UNL A   1      44.998  34.328  27.694  1.00  0.00     0.173 A 
ATOM     93  F   UNL A   1      46.523  32.735  30.587  1.00  0.00    -0.203 F 
ATOM     94  C   UNL A   1      46.895  34.861  29.647  1.00  0.00     0.198 A 
ATOM     95  C   UNL A   1      45.681  35.541  27.691  1.00  0.00     0.198 A 
ATOM     96  F   UNL A   1      44.089  34.100  26.734  1.00  0.00    -0.203 F 
ATOM     97  F   UNL A   1      47.793  35.126  30.606  1.00  0.00    -0.200 F 
ATOM     98  C   UNL A   1      46.628  35.808  28.669  1.00  0.00     0.200 A 
ATOM     99  F   UNL A   1      45.432  36.447  26.737  1.00  0.00    -0.200 F 
ATOM    100  F   UNL A   1      47.281  36.978  28.670  1.00  0.00    -0.200 F 
ENDBRANCH  67  90
ENDBRANCH  41  42
ENDBRANCH  34  36
ENDBRANCH  33  34
ENDBRANCH  32  33
ENDBRANCH  31  32
ENDBRANCH  30  31
ENDBRANCH  29  30
ENDBRANCH   1  29
TORSDOF 24
ENDMDL
MODEL 2
REMARK VINA RESULT:     -10.5      2.783      8.290
REMARK SMILES CC[C@](C(=O)OCCOCCOCCOC(=O)c1ccc(-c2c3nc(c(-c4c(F)c(F)c(F)c(F)c4F)c4ccc([nH]4)c(-c4c(F)c(F)c(F)c(F)c4F)c4nc(c(-c5c(F)c(F)c(F)c(F)c5F)c5ccc2[nH]5)C=C4)C=C3)cc1)(C(=O)OC(C)(C)C)c1ccc(N)c(O)c1
REMARK SMILES IDX 10 1 9 2 8 3 7 4 6 5 4 6 5 7 3 8 2 9 1 10 81 11 82 12 83 13
REMARK SMILES IDX 84 14 85 15 86 16 87 17 88 18 89 19 95 20 90 21 93 22 91 23
REMARK SMILES IDX 94 24 92 26 11 29 12 30 13 31 14 32 15 33 16 34 17 35 18 36
REMARK SMILES IDX 19 37 80 38 20 39 79 40 21 41 22 42 23 43 73 44 24 45 78 46
REMARK SMILES IDX 72 47 74 48 25 49 77 50 71 51 70 52 26 54 58 55 38 56 57 57
REMARK SMILES IDX 39 58 42 59 56 60 75 61 40 62 41 63 55 65 76 66 43 67 27 68
REMARK SMILES IDX 28 69 36 70 29 71 30 72 34 73 37 74 31 75 32 76 35 77 33 78
REMARK SMILES IDX 59 79 60 80 68 81 61 82 62 83 66 84 69 85 63 86 64 87 67 88
REMARK SMILES IDX 65 89 44 90 45 91 53 92 46 93 47 94 51 95 54 96 48 97 49 98
REMARK SMILES IDX 52 99 50 100
REMARK H PARENT 94 25 92 27 92 28 74 53 42 64
REMARK Flexibility Score: inf
ROOT
ATOM      1  C   UNL A   1      34.091  31.964  27.826  1.00  0.00     0.188 C 
ENDROOT
BRANCH   1   2
ATOM      2  O   UNL A   1      34.147  30.692  27.198  1.00  0.00    -0.376 OA
BRANCH   2   3
ATOM      3  C   UNL A   1      32.968  30.094  26.670  1.00  0.00     0.202 C 
BRANCH   3   4
ATOM      4  C   UNL A   1      32.602  28.663  27.099  1.00  0.00     0.261 C 
BRANCH   4   5
ATOM      5  O   UNL A   1      32.016  27.805  26.090  1.00  0.00    -0.462 OA
BRANCH   5   6
ATOM      6  C   UNL A   1      32.885  27.120  25.291  1.00  0.00     0.328 C 
ATOM      7  O   UNL A   1      34.019  26.839  25.666  1.00  0.00    -0.251 OA
BRANCH   6   8
ATOM      8  C   UNL A   1      32.333  26.757  23.882  1.00  0.00     0.189 C 
BRANCH   8   9
ATOM      9  C   UNL A   1      33.283  27.458  22.842  1.00  0.00     0.032 C 
ATOM     10  C   UNL A   1      33.985  28.756  23.251  1.00  0.00     0.006 C 
ENDBRANCH   8   9
BRANCH   8  11
ATOM     11  C   UNL A   1      32.438  25.230  23.617  1.00  0.00     0.328 C 
ATOM     12  O   UNL A   1      32.397  24.712  22.507  1.00  0.00    -0.250 OA
BRANCH  11  13
ATOM     13  O   UNL A   1      32.643  24.504  24.751  1.00  0.00    -0.459 OA
BRANCH  13  14
ATOM     14  C   UNL A   1      33.705  23.515  24.828  1.00  0.00     0.104 C 
ATOM     15  C   UNL A   1      33.207  22.178  24.295  1.00  0.00     0.056 C 
ATOM     16  C   UNL A   1      34.982  23.956  24.102  1.00  0.00     0.056 C 
ATOM     17  C   UNL A   1      34.020  23.365  26.322  1.00  0.00     0.056 C 
ENDBRANCH  13  14
ENDBRANCH  11  13
ENDBRANCH   8  11
BRANCH   8  18
ATOM     18  C   UNL A   1      30.848  27.258  23.650  1.00  0.00    -0.016 A 
ATOM     19  C   UNL A   1      30.567  28.494  23.036  1.00  0.00     0.008 A 
ATOM     20  C   UNL A   1      29.724  26.492  24.039  1.00  0.00     0.054 A 
ATOM     21  C   UNL A   1      29.248  28.908  22.774  1.00  0.00     0.030 A 
ATOM     22  C   UNL A   1      28.415  26.929  23.808  1.00  0.00     0.138 A 
ATOM     23  C   UNL A   1      28.160  28.118  23.127  1.00  0.00     0.074 A 
BRANCH  22  24
ATOM     24  O   UNL A   1      27.342  26.179  24.222  1.00  0.00    -0.506 OA
ATOM     25  H   UNL A   1      26.489  26.350  23.875  1.00  0.00     0.293 HD
ENDBRANCH  22  24
BRANCH  23  26
ATOM     26  N   UNL A   1      26.855  28.559  22.941  1.00  0.00    -0.396 N 
ATOM     27  H   UNL A   1      26.286  28.140  22.256  1.00  0.00     0.156 HD
ATOM     28  H   UNL A   1      26.499  29.292  23.496  1.00  0.00     0.156 HD
ENDBRANCH  23  26
ENDBRANCH   8  18
ENDBRANCH   6   8
ENDBRANCH   5   6
ENDBRANCH   4   5
ENDBRANCH   3   4
ENDBRANCH   2   3
ENDBRANCH   1   2
BRANCH   1  29
ATOM     29  C   UNL A   1      34.612  32.138  29.255  1.00  0.00     0.188 C 
BRANCH  29  30
ATOM     30  O   UNL A   1      34.194  33.320  29.897  1.00  0.00    -0.376 OA
BRANCH  30  31
ATOM     31  C   UNL A   1      34.789  33.678  31.130  1.00  0.00     0.202 C 
BRANCH  31  32
ATOM     32  C   UNL A   1      34.559  32.695  32.285  1.00  0.00     0.261 C 
BRANCH  32  33
ATOM     33  O   UNL A   1      35.578  31.692  32.447  1.00  0.00    -0.460 OA
BRANCH  33  34
ATOM     34  C   UNL A   1      36.686  32.033  33.147  1.00  0.00     0.338 C 
ATOM     35  O   UNL A   1      36.738  32.349  34.324  1.00  0.00    -0.246 OA
BRANCH  34  36
ATOM     36  C   UNL A   1      37.866  31.670  32.320  1.00  0.00     0.060 A 
ATOM     37  C   UNL A   1      38.895  30.939  32.922  1.00  0.00     0.016 A 
ATOM     38  C   UNL A   1      37.918  31.940  30.947  1.00  0.00     0.016 A 
ATOM     39  C   UNL A   1      39.956  30.464  32.148  1.00  0.00     0.010 A 
ATOM     40  C   UNL A   1      38.989  31.469  30.177  1.00  0.00     0.010 A 
ATOM     41  C   UNL A   1      40.013  30.714  30.766  1.00  0.00    -0.014 A 
BRANCH  41  42
ATOM     42  C   UNL A   1      41.192  30.276  29.970  1.00  0.00     0.031 A 
ATOM     43  C   UNL A   1      41.171  28.915  29.334  1.00  0.00     0.074 A 
ATOM     44  C   UNL A   1      42.262  31.073  29.782  1.00  0.00     0.049 A 
ATOM     45  N   UNL A   1      42.104  28.302  28.650  1.00  0.00    -0.248 NA
ATOM     46  C   UNL A   1      39.926  28.145  29.480  1.00  0.00     0.031 C 
ATOM     47  C   UNL A   1      42.389  32.448  30.255  1.00  0.00     0.029 A 
ATOM     48  N   UNL A   1      43.446  30.842  29.116  1.00  0.00    -0.354 N 
ATOM     49  C   UNL A   1      41.563  27.076  28.293  1.00  0.00     0.074 A 
ATOM     50  C   UNL A   1      40.214  27.038  28.817  1.00  0.00     0.031 C 
ATOM     51  C   UNL A   1      43.566  32.950  29.839  1.00  0.00     0.029 A 
ATOM     52  C   UNL A   1      44.314  31.908  29.136  1.00  0.00     0.049 A 
ATOM     53  H   UNL A   1      43.651  29.990  28.667  1.00  0.00     0.167 HD
ATOM     54  C   UNL A   1      42.142  26.054  27.620  1.00  0.00     0.037 A 
ATOM     55  C   UNL A   1      45.579  32.017  28.675  1.00  0.00     0.037 A 
ATOM     56  C   UNL A   1      43.502  26.050  27.155  1.00  0.00     0.049 A 
ATOM     57  C   UNL A   1      46.252  30.810  28.063  1.00  0.00     0.074 A 
ATOM     58  C   UNL A   1      44.194  25.032  26.524  1.00  0.00     0.029 A 
ATOM     59  N   UNL A   1      44.388  27.107  27.298  1.00  0.00    -0.354 N 
ATOM     60  N   UNL A   1      45.746  29.640  27.758  1.00  0.00    -0.248 NA
ATOM     61  C   UNL A   1      47.691  30.928  27.771  1.00  0.00     0.031 C 
ATOM     62  C   UNL A   1      45.515  25.449  26.341  1.00  0.00     0.029 A 
ATOM     63  C   UNL A   1      45.631  26.750  26.801  1.00  0.00     0.049 A 
ATOM     64  H   UNL A   1      44.166  27.982  27.692  1.00  0.00     0.167 HD
ATOM     65  C   UNL A   1      46.795  28.892  27.234  1.00  0.00     0.074 A 
ATOM     66  C   UNL A   1      47.961  29.746  27.236  1.00  0.00     0.031 C 
ATOM     67  C   UNL A   1      46.790  27.607  26.803  1.00  0.00     0.037 A 
BRANCH  54  68
ATOM     68  C   UNL A   1      41.318  24.816  27.441  1.00  0.00     0.064 A 
ATOM     69  C   UNL A   1      41.572  23.647  28.171  1.00  0.00     0.173 A 
ATOM     70  C   UNL A   1      40.278  24.794  26.499  1.00  0.00     0.173 A 
ATOM     71  F   UNL A   1      42.574  23.612  29.063  1.00  0.00    -0.203 F 
ATOM     72  C   UNL A   1      40.839  22.486  27.936  1.00  0.00     0.198 A 
ATOM     73  C   UNL A   1      39.528  23.642  26.289  1.00  0.00     0.198 A 
ATOM     74  F   UNL A   1      40.000  25.888  25.773  1.00  0.00    -0.203 F 
ATOM     75  F   UNL A   1      41.143  21.360  28.596  1.00  0.00    -0.200 F 
ATOM     76  C   UNL A   1      39.817  22.486  26.999  1.00  0.00     0.200 A 
ATOM     77  F   UNL A   1      38.538  23.646  25.387  1.00  0.00    -0.200 F 
ATOM     78  F   UNL A   1      39.119  21.367  26.767  1.00  0.00    -0.200 F 
ENDBRANCH  54  68
BRANCH  55  79
ATOM     79  C   UNL A   1      46.339  33.291  28.821  1.00  0.00     0.064 A 
ATOM     80  C   UNL A   1      46.357  34.243  27.789  1.00  0.00     0.173 A 
ATOM     81  C   UNL A   1      47.120  33.556  29.956  1.00  0.00     0.173 A 
ATOM     82  F   UNL A   1      45.663  34.021  26.663  1.00  0.00    -0.203 F 
ATOM     83  C   UNL A   1      47.137  35.395  27.880  1.00  0.00     0.198 A 
ATOM     84  C   UNL A   1      47.872  34.726  30.062  1.00  0.00     0.198 A 
ATOM     85  F   UNL A   1      47.162  32.672  30.964  1.00  0.00    -0.203 F 
ATOM     86  F   UNL A   1      47.183  36.255  26.853  1.00  0.00    -0.200 F 
ATOM     87  C   UNL A   1      47.888  35.639  29.020  1.00  0.00     0.200 A 
ATOM     88  F   UNL A   1      48.594  34.957  31.167  1.00  0.00    -0.200 F 
ATOM     89  F   UNL A   1      48.641  36.744  29.106  1.00  0.00    -0.200 F 
ENDBRANCH  55  79
BRANCH  67  90
ATOM     90  C   UNL A   1      48.078  27.031  26.284  1.00  0.00     0.064 A 
ATOM     91  C   UNL A   1      48.440  27.142  24.933  1.00  0.00     0.173 A 
ATOM     92  C   UNL A   1      49.000  26.440  27.161  1.00  0.00     0.173 A 
ATOM     93  F   UNL A   1      47.590  27.687  24.048  1.00  0.00    -0.203 F 
ATOM     94  C   UNL A   1      49.671  26.675  24.480  1.00  0.00     0.198 A 
ATOM     95  C   UNL A   1      50.242  26.001  26.711  1.00  0.00     0.198 A 
ATOM     96  F   UNL A   1      48.708  26.315  28.465  1.00  0.00    -0.203 F 
ATOM     97  F   UNL A   1      49.984  26.766  23.179  1.00  0.00    -0.200 F 
ATOM     98  C   UNL A   1      50.577  26.117  25.370  1.00  0.00     0.200 A 
ATOM     99  F   UNL A   1      51.121  25.477  27.576  1.00  0.00    -0.200 F 
ATOM    100  F   UNL A   1      51.770  25.688  24.936  1.00  0.00    -0.200 F 
ENDBRANCH  67  90
ENDBRANCH  41  42
ENDBRANCH  34  36
ENDBRANCH  33  34
ENDBRANCH  32  33
ENDBRANCH  31  32
ENDBRANCH  30  31
ENDBRANCH  29  30
ENDBRANCH   1  29
TORSDOF 24
ENDMDL
MODEL 3
REMARK VINA RESULT:     -10.2      4.588      9.319
REMARK SMILES CC[C@](C(=O)OCCOCCOCCOC(=O)c1ccc(-c2c3nc(c(-c4c(F)c(F)c(F)c(F)c4F)c4ccc([nH]4)c(-c4c(F)c(F)c(F)c(F)c4F)c4nc(c(-c5c(F)c(F)c(F)c(F)c5F)c5ccc2[nH]5)C=C4)C=C3)cc1)(C(=O)OC(C)(C)C)c1ccc(N)c(O)c1
REMARK SMILES IDX 10 1 9 2 8 3 7 4 6 5 4 6 5 7 3 8 2 9 1 10 81 11 82 12 83 13
REMARK SMILES IDX 84 14 85 15 86 16 87 17 88 18 89 19 95 20 90 21 93 22 91 23
REMARK SMILES IDX 94 24 92 26 11 29 12 30 13 31 14 32 15 33 16 34 17 35 18 36
REMARK SMILES IDX 19 37 80 38 20 39 79 40 21 41 22 42 23 43 73 44 24 45 78 46
REMARK SMILES IDX 72 47 74 48 25 49 77 50 71 51 70 52 26 54 58 55 38 56 57 57
REMARK SMILES IDX 39 58 42 59 56 60 75 61 40 62 41 63 55 65 76 66 43 67 27 68
REMARK SMILES IDX 28 69 36 70 29 71 30 72 34 73 37 74 31 75 32 76 35 77 33 78
REMARK SMILES IDX 59 79 60 80 68 81 61 82 62 83 66 84 69 85 63 86 64 87 67 88
REMARK SMILES IDX 65 89 44 90 45 91 53 92 46 93 47 94 51 95 54 96 48 97 49 98
REMARK SMILES IDX 52 99 50 100
REMARK H PARENT 94 25 92 27 92 28 74 53 42 64
REMARK Flexibility Score: inf
ROOT
ATOM      1  C   UNL A   1      39.155  21.829  25.905  1.00  0.00     0.188 C 
ENDROOT
BRANCH   1   2
ATOM      2  O   UNL A   1      37.922  21.389  25.356  1.00  0.00    -0.376 OA
BRANCH   2   3
ATOM      3  C   UNL A   1      37.030  22.316  24.748  1.00  0.00     0.202 C 
BRANCH   3   4
ATOM      4  C   UNL A   1      36.485  23.486  25.585  1.00  0.00     0.261 C 
BRANCH   4   5
ATOM      5  O   UNL A   1      35.247  24.091  25.141  1.00  0.00    -0.462 OA
BRANCH   5   6
ATOM      6  C   UNL A   1      34.094  23.572  25.656  1.00  0.00     0.328 C 
ATOM      7  O   UNL A   1      33.976  23.330  26.853  1.00  0.00    -0.251 OA
BRANCH   6   8
ATOM      8  C   UNL A   1      32.976  23.295  24.610  1.00  0.00     0.189 C 
BRANCH   8   9
ATOM      9  C   UNL A   1      31.645  23.863  25.227  1.00  0.00     0.032 C 
ATOM     10  C   UNL A   1      30.658  22.883  25.867  1.00  0.00     0.006 C 
ENDBRANCH   8   9
BRANCH   8  11
ATOM     11  C   UNL A   1      33.230  24.088  23.298  1.00  0.00     0.328 C 
ATOM     12  O   UNL A   1      34.228  23.970  22.597  1.00  0.00    -0.250 OA
BRANCH  11  13
ATOM     13  O   UNL A   1      32.193  24.902  22.958  1.00  0.00    -0.459 OA
BRANCH  13  14
ATOM     14  C   UNL A   1      32.405  26.089  22.147  1.00  0.00     0.104 C 
ATOM     15  C   UNL A   1      31.185  26.997  22.229  1.00  0.00     0.056 C 
ATOM     16  C   UNL A   1      33.683  26.847  22.526  1.00  0.00     0.056 C 
ATOM     17  C   UNL A   1      32.548  25.581  20.705  1.00  0.00     0.056 C 
ENDBRANCH  13  14
ENDBRANCH  11  13
ENDBRANCH   8  11
BRANCH   8  18
ATOM     18  C   UNL A   1      32.788  21.754  24.297  1.00  0.00    -0.016 A 
ATOM     19  C   UNL A   1      32.269  21.302  23.066  1.00  0.00     0.008 A 
ATOM     20  C   UNL A   1      33.135  20.746  25.227  1.00  0.00     0.054 A 
ATOM     21  C   UNL A   1      32.161  19.932  22.766  1.00  0.00     0.030 A 
ATOM     22  C   UNL A   1      32.989  19.386  24.933  1.00  0.00     0.138 A 
ATOM     23  C   UNL A   1      32.549  18.960  23.681  1.00  0.00     0.074 A 
BRANCH  22  24
ATOM     24  O   UNL A   1      33.306  18.429  25.867  1.00  0.00    -0.506 OA
ATOM     25  H   UNL A   1      32.643  17.848  26.184  1.00  0.00     0.293 HD
ENDBRANCH  22  24
BRANCH  23  26
ATOM     26  N   UNL A   1      32.370  17.607  23.418  1.00  0.00    -0.396 N 
ATOM     27  H   UNL A   1      32.850  16.933  23.954  1.00  0.00     0.156 HD
ATOM     28  H   UNL A   1      31.763  17.321  22.697  1.00  0.00     0.156 HD
ENDBRANCH  23  26
ENDBRANCH   8  18
ENDBRANCH   6   8
ENDBRANCH   5   6
ENDBRANCH   4   5
ENDBRANCH   3   4
ENDBRANCH   2   3
ENDBRANCH   1   2
BRANCH   1  29
ATOM     29  C   UNL A   1      40.137  20.814  26.497  1.00  0.00     0.188 C 
BRANCH  29  30
ATOM     30  O   UNL A   1      41.434  20.859  25.949  1.00  0.00    -0.376 OA
BRANCH  30  31
ATOM     31  C   UNL A   1      42.515  21.246  26.777  1.00  0.00     0.202 C 
BRANCH  31  32
ATOM     32  C   UNL A   1      43.580  22.122  26.105  1.00  0.00     0.261 C 
BRANCH  32  33
ATOM     33  O   UNL A   1      43.069  23.241  25.360  1.00  0.00    -0.460 OA
BRANCH  33  34
ATOM     34  C   UNL A   1      43.815  24.372  25.338  1.00  0.00     0.338 C 
ATOM     35  O   UNL A   1      44.551  24.744  24.439  1.00  0.00    -0.246 OA
BRANCH  34  36
ATOM     36  C   UNL A   1      43.361  25.229  26.463  1.00  0.00     0.060 A 
ATOM     37  C   UNL A   1      43.711  26.583  26.445  1.00  0.00     0.016 A 
ATOM     38  C   UNL A   1      42.509  24.746  27.463  1.00  0.00     0.016 A 
ATOM     39  C   UNL A   1      43.192  27.449  27.410  1.00  0.00     0.010 A 
ATOM     40  C   UNL A   1      41.999  25.616  28.435  1.00  0.00     0.010 A 
ATOM     41  C   UNL A   1      42.324  26.980  28.411  1.00  0.00    -0.014 A 
BRANCH  41  42
ATOM     42  C   UNL A   1      41.848  27.896  29.483  1.00  0.00     0.031 A 
ATOM     43  C   UNL A   1      42.644  28.001  30.753  1.00  0.00     0.074 A 
ATOM     44  C   UNL A   1      40.742  28.652  29.338  1.00  0.00     0.049 A 
ATOM     45  N   UNL A   1      42.390  28.685  31.841  1.00  0.00    -0.248 NA
ATOM     46  C   UNL A   1      43.902  27.240  30.799  1.00  0.00     0.031 C 
ATOM     47  C   UNL A   1      39.920  28.729  28.133  1.00  0.00     0.029 A 
ATOM     48  N   UNL A   1      40.129  29.522  30.212  1.00  0.00    -0.354 N 
ATOM     49  C   UNL A   1      43.449  28.430  32.699  1.00  0.00     0.074 A 
ATOM     50  C   UNL A   1      44.359  27.546  32.002  1.00  0.00     0.031 C 
ATOM     51  C   UNL A   1      38.933  29.622  28.330  1.00  0.00     0.029 A 
ATOM     52  C   UNL A   1      39.001  30.122  29.702  1.00  0.00     0.049 A 
ATOM     53  H   UNL A   1      40.469  29.699  31.119  1.00  0.00     0.167 HD
ATOM     54  C   UNL A   1      43.638  28.861  33.968  1.00  0.00     0.037 A 
ATOM     55  C   UNL A   1      38.108  30.949  30.288  1.00  0.00     0.037 A 
ATOM     56  C   UNL A   1      42.709  29.681  34.698  1.00  0.00     0.049 A 
ATOM     57  C   UNL A   1      38.262  31.291  31.753  1.00  0.00     0.074 A 
ATOM     58  C   UNL A   1      42.786  30.109  36.011  1.00  0.00     0.029 A 
ATOM     59  N   UNL A   1      41.519  30.173  34.185  1.00  0.00    -0.354 N 
ATOM     60  N   UNL A   1      39.249  31.019  32.571  1.00  0.00    -0.248 NA
ATOM     61  C   UNL A   1      37.151  32.021  32.386  1.00  0.00     0.031 C 
ATOM     62  C   UNL A   1      41.613  30.808  36.312  1.00  0.00     0.029 A 
ATOM     63  C   UNL A   1      40.835  30.869  35.168  1.00  0.00     0.049 A 
ATOM     64  H   UNL A   1      41.208  30.049  33.259  1.00  0.00     0.167 HD
ATOM     65  C   UNL A   1      38.884  31.549  33.804  1.00  0.00     0.074 A 
ATOM     66  C   UNL A   1      37.597  32.183  33.624  1.00  0.00     0.031 C 
ATOM     67  C   UNL A   1      39.553  31.501  34.982  1.00  0.00     0.037 A 
BRANCH  54  68
ATOM     68  C   UNL A   1      44.860  28.358  34.673  1.00  0.00     0.064 A 
ATOM     69  C   UNL A   1      46.068  29.070  34.659  1.00  0.00     0.173 A 
ATOM     70  C   UNL A   1      44.827  27.126  35.344  1.00  0.00     0.173 A 
ATOM     71  F   UNL A   1      46.154  30.239  34.007  1.00  0.00    -0.203 F 
ATOM     72  C   UNL A   1      47.210  28.548  35.260  1.00  0.00     0.198 A 
ATOM     73  C   UNL A   1      45.963  26.622  35.969  1.00  0.00     0.198 A 
ATOM     74  F   UNL A   1      43.696  26.406  35.380  1.00  0.00    -0.203 F 
ATOM     75  F   UNL A   1      48.371  29.213  35.177  1.00  0.00    -0.200 F 
ATOM     76  C   UNL A   1      47.156  27.327  35.916  1.00  0.00     0.200 A 
ATOM     77  F   UNL A   1      45.906  25.446  36.606  1.00  0.00    -0.200 F 
ATOM     78  F   UNL A   1      48.258  26.822  36.485  1.00  0.00    -0.200 F 
ENDBRANCH  54  68
BRANCH  55  79
ATOM     79  C   UNL A   1      36.938  31.474  29.528  1.00  0.00     0.064 A 
ATOM     80  C   UNL A   1      35.889  30.625  29.142  1.00  0.00     0.173 A 
ATOM     81  C   UNL A   1      36.874  32.812  29.107  1.00  0.00     0.173 A 
ATOM     82  F   UNL A   1      35.920  29.328  29.481  1.00  0.00    -0.203 F 
ATOM     83  C   UNL A   1      34.835  31.088  28.355  1.00  0.00     0.198 A 
ATOM     84  C   UNL A   1      35.802  33.282  28.349  1.00  0.00     0.198 A 
ATOM     85  F   UNL A   1      37.860  33.664  29.424  1.00  0.00    -0.203 F 
ATOM     86  F   UNL A   1      33.880  30.240  27.950  1.00  0.00    -0.200 F 
ATOM     87  C   UNL A   1      34.789  32.417  27.965  1.00  0.00     0.200 A 
ATOM     88  F   UNL A   1      35.761  34.568  27.977  1.00  0.00    -0.200 F 
ATOM     89  F   UNL A   1      33.779  32.862  27.204  1.00  0.00    -0.200 F 
ENDBRANCH  55  79
BRANCH  67  90
ATOM     90  C   UNL A   1      38.922  32.156  36.179  1.00  0.00     0.064 A 
ATOM     91  C   UNL A   1      38.117  31.435  37.072  1.00  0.00     0.173 A 
ATOM     92  C   UNL A   1      39.197  33.499  36.484  1.00  0.00     0.173 A 
ATOM     93  F   UNL A   1      37.812  30.152  36.822  1.00  0.00    -0.203 F 
ATOM     94  C   UNL A   1      37.604  32.034  38.221  1.00  0.00     0.198 A 
ATOM     95  C   UNL A   1      38.708  34.086  37.648  1.00  0.00     0.198 A 
ATOM     96  F   UNL A   1      39.967  34.233  35.667  1.00  0.00    -0.203 F 
ATOM     97  F   UNL A   1      36.814  31.332  39.045  1.00  0.00    -0.200 F 
ATOM     98  C   UNL A   1      37.910  33.355  38.514  1.00  0.00     0.200 A 
ATOM     99  F   UNL A   1      39.018  35.358  37.936  1.00  0.00    -0.200 F 
ATOM    100  F   UNL A   1      37.434  33.923  39.630  1.00  0.00    -0.200 F 
ENDBRANCH  67  90
ENDBRANCH  41  42
ENDBRANCH  34  36
ENDBRANCH  33  34
ENDBRANCH  32  33
ENDBRANCH  31  32
ENDBRANCH  30  31
ENDBRANCH  29  30
ENDBRANCH   1  29
TORSDOF 24
ENDMDL
