MODEL 1
REMARK VINA RESULT:     -12.3      0.000      0.000
REMARK SMILES C[C@H]1CC[C@H]([NH2+]Cc2c(C(=O)OCCOCCOCCOC(=O)c3ccc(-c4c5nc(c(-c6c(F)c(F)c(F)c(F)c6F)c6ccc([nH]6)c(-c6c(F)c(F)c(F)c(F)c6F)c6nc(c(-c7c(F)c(F)c(F)c(F)c7F)c7ccc4[nH]7)C=C6)C=C5)cc3)n(Cc3ccccc3F)c3ccccc23)CC1
REMARK SMILES IDX 16 1 15 2 14 3 13 4 12 5 10 6 11 7 9 8 8 9 101 10 87 11
REMARK SMILES IDX 96 12 100 13 97 14 99 15 98 16 7 17 6 18 5 21 1 22 2 23 3 24
REMARK SMILES IDX 103 25 4 26 102 27 88 28 89 29 90 30 94 31 91 32 93 33 95 34
REMARK SMILES IDX 92 35 17 36 18 37 19 38 20 39 21 40 22 41 23 42 24 43 25 44
REMARK SMILES IDX 86 45 26 46 85 47 27 48 28 49 29 50 79 51 30 52 84 53 78 54
REMARK SMILES IDX 80 55 31 56 83 57 77 58 76 59 32 61 64 62 44 63 63 64 45 65
REMARK SMILES IDX 48 66 62 67 81 68 46 69 47 70 61 72 82 73 49 74 33 75 34 76
REMARK SMILES IDX 42 77 35 78 36 79 40 80 43 81 37 82 38 83 41 84 39 85 65 86
REMARK SMILES IDX 66 87 74 88 67 89 68 90 72 91 75 92 69 93 70 94 73 95 71 96
REMARK SMILES IDX 50 97 51 98 59 99 52 100 53 101 57 102 60 103 54 104 55 105
REMARK SMILES IDX 58 106 56 107
REMARK H PARENT 6 19 6 20 80 60 48 71
REMARK Flexibility Score: inf
ROOT
ATOM      1  C   UNL A   1      40.574  21.036  26.839  1.00  0.00     0.188 C 
ENDROOT
BRANCH   1   2
ATOM      2  O   UNL A   1      40.021  21.823  25.805  1.00  0.00    -0.376 OA
BRANCH   2   3
ATOM      3  C   UNL A   1      39.159  22.784  26.319  1.00  0.00     0.202 C 
BRANCH   3   4
ATOM      4  C   UNL A   1      37.754  22.610  25.780  1.00  0.00     0.261 C 
BRANCH   4   5
ATOM      5  O   UNL A   1      37.386  21.993  24.524  1.00  0.00    -0.459 OA
BRANCH   5   6
ATOM      6  C   UNL A   1      36.381  22.572  23.808  1.00  0.00     0.355 C 
ATOM      7  O   UNL A   1      36.478  22.795  22.619  1.00  0.00    -0.244 OA
BRANCH   6   8
ATOM      8  C   UNL A   1      35.215  22.903  24.610  1.00  0.00     0.137 A 
ATOM      9  C   UNL A   1      34.486  24.101  24.606  1.00  0.00     0.047 A 
ATOM     10  C   UNL A   1      33.409  23.909  25.563  1.00  0.00     0.009 A 
ATOM     11  N   UNL A   1      34.473  21.969  25.371  1.00  0.00    -0.330 N 
ATOM     12  C   UNL A   1      33.311  22.546  25.831  1.00  0.00     0.050 A 
ATOM     13  C   UNL A   1      32.411  24.748  26.107  1.00  0.00     0.011 A 
ATOM     14  C   UNL A   1      32.156  21.983  26.409  1.00  0.00     0.027 A 
ATOM     15  C   UNL A   1      31.325  24.197  26.807  1.00  0.00     0.001 A 
ATOM     16  C   UNL A   1      31.167  22.824  26.898  1.00  0.00     0.002 A 
BRANCH   9  17
ATOM     17  C   UNL A   1      34.592  25.372  23.752  1.00  0.00     0.300 C 
BRANCH  17  18
ATOM     18  N   UNL A   1      33.466  25.746  22.897  1.00  0.00    -0.340 N 
ATOM     19  H   UNL A   1      33.852  26.334  22.159  1.00  0.00     0.346 HD
ATOM     20  H   UNL A   1      33.072  24.835  22.656  1.00  0.00     0.346 HD
BRANCH  18  21
ATOM     21  C   UNL A   1      32.279  26.465  23.419  1.00  0.00     0.182 C 
ATOM     22  C   UNL A   1      29.745  30.146  22.742  1.00  0.00     0.007 C 
ATOM     23  C   UNL A   1      30.776  29.013  22.702  1.00  0.00    -0.014 C 
ATOM     24  C   UNL A   1      30.103  27.650  22.625  1.00  0.00     0.009 C 
ATOM     25  C   UNL A   1      31.690  29.025  23.927  1.00  0.00     0.009 C 
ATOM     26  C   UNL A   1      31.123  26.537  22.422  1.00  0.00     0.065 C 
ATOM     27  C   UNL A   1      32.687  27.849  24.023  1.00  0.00     0.065 C 
ENDBRANCH  18  21
ENDBRANCH  17  18
ENDBRANCH   9  17
BRANCH  11  28
ATOM     28  C   UNL A   1      34.692  20.517  25.385  1.00  0.00     0.161 C 
BRANCH  28  29
ATOM     29  C   UNL A   1      33.828  19.551  24.586  1.00  0.00     0.008 A 
ATOM     30  C   UNL A   1      32.716  20.020  23.842  1.00  0.00     0.008 A 
ATOM     31  C   UNL A   1      34.294  18.269  24.293  1.00  0.00     0.128 A 
ATOM     32  C   UNL A   1      32.119  19.242  22.844  1.00  0.00     0.001 A 
ATOM     33  C   UNL A   1      33.732  17.507  23.263  1.00  0.00     0.039 A 
ATOM     34  F   UNL A   1      35.411  17.824  24.881  1.00  0.00    -0.207 F 
ATOM     35  C   UNL A   1      32.648  17.994  22.533  1.00  0.00     0.003 A 
ENDBRANCH  28  29
ENDBRANCH  11  28
ENDBRANCH   6   8
ENDBRANCH   5   6
ENDBRANCH   4   5
ENDBRANCH   3   4
ENDBRANCH   2   3
ENDBRANCH   1   2
BRANCH   1  36
ATOM     36  C   UNL A   1      40.815  19.587  26.392  1.00  0.00     0.188 C 
BRANCH  36  37
ATOM     37  O   UNL A   1      41.888  19.398  25.480  1.00  0.00    -0.376 OA
BRANCH  37  38
ATOM     38  C   UNL A   1      42.807  18.368  25.834  1.00  0.00     0.202 C 
BRANCH  38  39
ATOM     39  C   UNL A   1      44.285  18.816  25.972  1.00  0.00     0.261 C 
BRANCH  39  40
ATOM     40  O   UNL A   1      45.047  18.732  24.724  1.00  0.00    -0.460 OA
BRANCH  40  41
ATOM     41  C   UNL A   1      44.965  19.758  23.828  1.00  0.00     0.338 C 
ATOM     42  O   UNL A   1      44.531  19.637  22.692  1.00  0.00    -0.246 OA
BRANCH  41  43
ATOM     43  C   UNL A   1      45.093  21.122  24.503  1.00  0.00     0.060 A 
ATOM     44  C   UNL A   1      46.161  21.651  25.255  1.00  0.00     0.016 A 
ATOM     45  C   UNL A   1      43.919  21.860  24.514  1.00  0.00     0.016 A 
ATOM     46  C   UNL A   1      46.001  22.823  26.096  1.00  0.00     0.010 A 
ATOM     47  C   UNL A   1      43.784  22.989  25.340  1.00  0.00     0.010 A 
ATOM     48  C   UNL A   1      44.772  23.490  26.208  1.00  0.00    -0.014 A 
BRANCH  48  49
ATOM     49  C   UNL A   1      44.454  24.795  26.950  1.00  0.00     0.031 A 
ATOM     50  C   UNL A   1      45.438  25.869  26.664  1.00  0.00     0.074 A 
ATOM     51  C   UNL A   1      43.396  25.267  27.704  1.00  0.00     0.049 A 
ATOM     52  N   UNL A   1      46.210  26.373  27.567  1.00  0.00    -0.248 NA
ATOM     53  C   UNL A   1      45.641  26.440  25.328  1.00  0.00     0.031 C 
ATOM     54  C   UNL A   1      42.226  24.540  28.161  1.00  0.00     0.029 A 
ATOM     55  N   UNL A   1      43.043  26.568  28.113  1.00  0.00    -0.354 N 
ATOM     56  C   UNL A   1      46.842  27.442  26.968  1.00  0.00     0.074 A 
ATOM     57  C   UNL A   1      46.586  27.350  25.560  1.00  0.00     0.031 C 
ATOM     58  C   UNL A   1      41.192  25.373  28.430  1.00  0.00     0.029 A 
ATOM     59  C   UNL A   1      41.683  26.736  28.480  1.00  0.00     0.049 A 
ATOM     60  H   UNL A   1      43.693  27.307  28.142  1.00  0.00     0.167 HD
ATOM     61  C   UNL A   1      47.308  28.468  27.718  1.00  0.00     0.037 A 
ATOM     62  C   UNL A   1      40.983  27.793  29.012  1.00  0.00     0.037 A 
ATOM     63  C   UNL A   1      47.274  28.162  29.122  1.00  0.00     0.049 A 
ATOM     64  C   UNL A   1      41.951  28.511  29.850  1.00  0.00     0.074 A 
ATOM     65  C   UNL A   1      47.936  27.276  29.940  1.00  0.00     0.029 A 
ATOM     66  N   UNL A   1      46.134  28.543  29.776  1.00  0.00    -0.354 N 
ATOM     67  N   UNL A   1      42.315  28.076  31.021  1.00  0.00    -0.248 NA
ATOM     68  C   UNL A   1      42.644  29.699  29.377  1.00  0.00     0.031 C 
ATOM     69  C   UNL A   1      47.056  26.994  31.023  1.00  0.00     0.029 A 
ATOM     70  C   UNL A   1      45.902  27.758  30.882  1.00  0.00     0.049 A 
ATOM     71  H   UNL A   1      45.554  29.286  29.490  1.00  0.00     0.167 HD
ATOM     72  C   UNL A   1      43.591  28.548  31.133  1.00  0.00     0.074 A 
ATOM     73  C   UNL A   1      43.616  29.738  30.292  1.00  0.00     0.031 C 
ATOM     74  C   UNL A   1      44.583  27.685  31.493  1.00  0.00     0.037 A 
BRANCH  61  75
ATOM     75  C   UNL A   1      47.444  29.863  27.206  1.00  0.00     0.064 A 
ATOM     76  C   UNL A   1      48.688  30.506  27.276  1.00  0.00     0.173 A 
ATOM     77  C   UNL A   1      46.337  30.665  26.859  1.00  0.00     0.173 A 
ATOM     78  F   UNL A   1      49.780  29.828  27.659  1.00  0.00    -0.203 F 
ATOM     79  C   UNL A   1      48.816  31.869  27.011  1.00  0.00     0.198 A 
ATOM     80  C   UNL A   1      46.476  32.012  26.542  1.00  0.00     0.198 A 
ATOM     81  F   UNL A   1      45.084  30.186  26.910  1.00  0.00    -0.203 F 
ATOM     82  F   UNL A   1      50.005  32.467  27.163  1.00  0.00    -0.200 F 
ATOM     83  C   UNL A   1      47.713  32.618  26.634  1.00  0.00     0.200 A 
ATOM     84  F   UNL A   1      45.394  32.728  26.208  1.00  0.00    -0.200 F 
ATOM     85  F   UNL A   1      47.834  33.931  26.401  1.00  0.00    -0.200 F 
ENDBRANCH  61  75
BRANCH  62  86
ATOM     86  C   UNL A   1      39.532  28.174  29.202  1.00  0.00     0.064 A 
ATOM     87  C   UNL A   1      38.879  28.052  30.455  1.00  0.00     0.173 A 
ATOM     88  C   UNL A   1      38.835  28.933  28.258  1.00  0.00     0.173 A 
ATOM     89  F   UNL A   1      39.402  27.306  31.436  1.00  0.00    -0.203 F 
ATOM     90  C   UNL A   1      37.698  28.740  30.767  1.00  0.00     0.198 A 
ATOM     91  C   UNL A   1      37.661  29.643  28.573  1.00  0.00     0.198 A 
ATOM     92  F   UNL A   1      39.313  29.019  27.019  1.00  0.00    -0.203 F 
ATOM     93  F   UNL A   1      37.166  28.636  31.994  1.00  0.00    -0.200 F 
ATOM     94  C   UNL A   1      37.115  29.573  29.840  1.00  0.00     0.200 A 
ATOM     95  F   UNL A   1      37.073  30.433  27.667  1.00  0.00    -0.200 F 
ATOM     96  F   UNL A   1      36.048  30.317  30.164  1.00  0.00    -0.200 F 
ENDBRANCH  62  86
BRANCH  74  97
ATOM     97  C   UNL A   1      44.238  26.507  32.394  1.00  0.00     0.064 A 
ATOM     98  C   UNL A   1      44.190  25.143  32.032  1.00  0.00     0.173 A 
ATOM     99  C   UNL A   1      43.983  26.784  33.749  1.00  0.00     0.173 A 
ATOM    100  F   UNL A   1      44.474  24.716  30.797  1.00  0.00    -0.203 F 
ATOM    101  C   UNL A   1      43.881  24.146  32.961  1.00  0.00     0.198 A 
ATOM    102  C   UNL A   1      43.770  25.776  34.690  1.00  0.00     0.198 A 
ATOM    103  F   UNL A   1      43.959  28.054  34.186  1.00  0.00    -0.203 F 
ATOM    104  F   UNL A   1      43.756  22.873  32.566  1.00  0.00    -0.200 F 
ATOM    105  C   UNL A   1      43.710  24.457  34.293  1.00  0.00     0.200 A 
ATOM    106  F   UNL A   1      43.633  26.091  35.984  1.00  0.00    -0.200 F 
ATOM    107  F   UNL A   1      43.495  23.484  35.190  1.00  0.00    -0.200 F 
ENDBRANCH  74  97
ENDBRANCH  48  49
ENDBRANCH  41  43
ENDBRANCH  40  41
ENDBRANCH  39  40
ENDBRANCH  38  39
ENDBRANCH  37  38
ENDBRANCH  36  37
ENDBRANCH   1  36
TORSDOF 22
ENDMDL
MODEL 2
REMARK VINA RESULT:     -12.2      3.196      5.775
REMARK SMILES C[C@H]1CC[C@H]([NH2+]Cc2c(C(=O)OCCOCCOCCOC(=O)c3ccc(-c4c5nc(c(-c6c(F)c(F)c(F)c(F)c6F)c6ccc([nH]6)c(-c6c(F)c(F)c(F)c(F)c6F)c6nc(c(-c7c(F)c(F)c(F)c(F)c7F)c7ccc4[nH]7)C=C6)C=C5)cc3)n(Cc3ccccc3F)c3ccccc23)CC1
REMARK SMILES IDX 16 1 15 2 14 3 13 4 12 5 10 6 11 7 9 8 8 9 101 10 87 11
REMARK SMILES IDX 96 12 100 13 97 14 99 15 98 16 7 17 6 18 5 21 1 22 2 23 3 24
REMARK SMILES IDX 103 25 4 26 102 27 88 28 89 29 90 30 94 31 91 32 93 33 95 34
REMARK SMILES IDX 92 35 17 36 18 37 19 38 20 39 21 40 22 41 23 42 24 43 25 44
REMARK SMILES IDX 86 45 26 46 85 47 27 48 28 49 29 50 79 51 30 52 84 53 78 54
REMARK SMILES IDX 80 55 31 56 83 57 77 58 76 59 32 61 64 62 44 63 63 64 45 65
REMARK SMILES IDX 48 66 62 67 81 68 46 69 47 70 61 72 82 73 49 74 33 75 34 76
REMARK SMILES IDX 42 77 35 78 36 79 40 80 43 81 37 82 38 83 41 84 39 85 65 86
REMARK SMILES IDX 66 87 74 88 67 89 68 90 72 91 75 92 69 93 70 94 73 95 71 96
REMARK SMILES IDX 50 97 51 98 59 99 52 100 53 101 57 102 60 103 54 104 55 105
REMARK SMILES IDX 58 106 56 107
REMARK H PARENT 6 19 6 20 80 60 48 71
REMARK Flexibility Score: inf
ROOT
ATOM      1  C   UNL A   1      34.527  21.699  26.885  1.00  0.00     0.188 C 
ENDROOT
BRANCH   1   2
ATOM      2  O   UNL A   1      34.410  23.091  27.092  1.00  0.00    -0.376 OA
BRANCH   2   3
ATOM      3  C   UNL A   1      33.332  23.610  26.386  1.00  0.00     0.202 C 
BRANCH   3   4
ATOM      4  C   UNL A   1      33.660  24.963  25.792  1.00  0.00     0.261 C 
BRANCH   4   5
ATOM      5  O   UNL A   1      32.726  26.042  25.545  1.00  0.00    -0.459 OA
BRANCH   5   6
ATOM      6  C   UNL A   1      33.171  27.105  24.816  1.00  0.00     0.355 C 
ATOM      7  O   UNL A   1      34.344  27.256  24.542  1.00  0.00    -0.244 OA
BRANCH   6   8
ATOM      8  C   UNL A   1      32.115  28.026  24.430  1.00  0.00     0.137 A 
ATOM      9  C   UNL A   1      31.783  29.248  25.033  1.00  0.00     0.047 A 
ATOM     10  C   UNL A   1      30.680  29.783  24.253  1.00  0.00     0.009 A 
ATOM     11  N   UNL A   1      31.388  27.950  23.219  1.00  0.00    -0.330 N 
ATOM     12  C   UNL A   1      30.624  29.082  23.052  1.00  0.00     0.050 A 
ATOM     13  C   UNL A   1      29.823  30.898  24.392  1.00  0.00     0.011 A 
ATOM     14  C   UNL A   1      29.931  29.582  21.931  1.00  0.00     0.027 A 
ATOM     15  C   UNL A   1      29.025  31.318  23.315  1.00  0.00     0.001 A 
ATOM     16  C   UNL A   1      29.130  30.705  22.077  1.00  0.00     0.002 A 
BRANCH   9  17
ATOM     17  C   UNL A   1      32.423  30.042  26.180  1.00  0.00     0.300 C 
BRANCH  17  18
ATOM     18  N   UNL A   1      33.873  29.983  26.358  1.00  0.00    -0.340 N 
ATOM     19  H   UNL A   1      34.148  29.025  26.139  1.00  0.00     0.346 HD
ATOM     20  H   UNL A   1      34.191  30.744  25.757  1.00  0.00     0.346 HD
BRANCH  18  21
ATOM     21  C   UNL A   1      34.527  30.315  27.647  1.00  0.00     0.182 C 
ATOM     22  C   UNL A   1      37.928  32.708  29.419  1.00  0.00     0.007 C 
ATOM     23  C   UNL A   1      36.884  32.029  28.525  1.00  0.00    -0.014 C 
ATOM     24  C   UNL A   1      35.468  32.332  28.993  1.00  0.00     0.009 C 
ATOM     25  C   UNL A   1      37.060  30.511  28.488  1.00  0.00     0.009 C 
ATOM     26  C   UNL A   1      34.432  31.795  28.015  1.00  0.00     0.065 C 
ATOM     27  C   UNL A   1      35.980  29.737  27.699  1.00  0.00     0.065 C 
ENDBRANCH  18  21
ENDBRANCH  17  18
ENDBRANCH   9  17
BRANCH  11  28
ATOM     28  C   UNL A   1      31.652  27.008  22.125  1.00  0.00     0.161 C 
BRANCH  28  29
ATOM     29  C   UNL A   1      31.600  25.497  22.314  1.00  0.00     0.008 A 
ATOM     30  C   UNL A   1      32.719  24.690  21.991  1.00  0.00     0.008 A 
ATOM     31  C   UNL A   1      30.608  24.923  23.108  1.00  0.00     0.128 A 
ATOM     32  C   UNL A   1      32.837  23.376  22.462  1.00  0.00     0.001 A 
ATOM     33  C   UNL A   1      30.744  23.628  23.621  1.00  0.00     0.039 A 
ATOM     34  F   UNL A   1      29.590  25.678  23.540  1.00  0.00    -0.207 F 
ATOM     35  C   UNL A   1      31.861  22.855  23.304  1.00  0.00     0.003 A 
ENDBRANCH  28  29
ENDBRANCH  11  28
ENDBRANCH   6   8
ENDBRANCH   5   6
ENDBRANCH   4   5
ENDBRANCH   3   4
ENDBRANCH   2   3
ENDBRANCH   1   2
BRANCH   1  36
ATOM     36  C   UNL A   1      34.492  21.335  25.394  1.00  0.00     0.188 C 
BRANCH  36  37
ATOM     37  O   UNL A   1      35.672  21.631  24.663  1.00  0.00    -0.376 OA
BRANCH  37  38
ATOM     38  C   UNL A   1      36.883  21.175  25.258  1.00  0.00     0.202 C 
BRANCH  38  39
ATOM     39  C   UNL A   1      37.799  22.284  25.836  1.00  0.00     0.261 C 
BRANCH  39  40
ATOM     40  O   UNL A   1      39.210  22.135  25.470  1.00  0.00    -0.460 OA
BRANCH  40  41
ATOM     41  C   UNL A   1      40.160  22.229  26.445  1.00  0.00     0.338 C 
ATOM     42  O   UNL A   1      41.197  21.582  26.450  1.00  0.00    -0.246 OA
BRANCH  41  43
ATOM     43  C   UNL A   1      39.989  23.486  27.295  1.00  0.00     0.060 A 
ATOM     44  C   UNL A   1      38.923  24.407  27.325  1.00  0.00     0.016 A 
ATOM     45  C   UNL A   1      41.126  23.851  28.000  1.00  0.00     0.016 A 
ATOM     46  C   UNL A   1      39.055  25.713  27.944  1.00  0.00     0.010 A 
ATOM     47  C   UNL A   1      41.234  25.124  28.587  1.00  0.00     0.010 A 
ATOM     48  C   UNL A   1      40.253  26.131  28.542  1.00  0.00    -0.014 A 
BRANCH  48  49
ATOM     49  C   UNL A   1      40.533  27.415  29.333  1.00  0.00     0.031 A 
ATOM     50  C   UNL A   1      41.567  28.267  28.694  1.00  0.00     0.074 A 
ATOM     51  C   UNL A   1      39.956  28.050  30.416  1.00  0.00     0.049 A 
ATOM     52  N   UNL A   1      42.706  28.521  29.245  1.00  0.00    -0.248 NA
ATOM     53  C   UNL A   1      41.402  28.877  27.370  1.00  0.00     0.031 C 
ATOM     54  C   UNL A   1      38.895  27.566  31.279  1.00  0.00     0.029 A 
ATOM     55  N   UNL A   1      40.083  29.364  30.911  1.00  0.00    -0.354 N 
ATOM     56  C   UNL A   1      43.309  29.468  28.443  1.00  0.00     0.074 A 
ATOM     57  C   UNL A   1      42.550  29.538  27.227  1.00  0.00     0.031 C 
ATOM     58  C   UNL A   1      38.248  28.582  31.899  1.00  0.00     0.029 A 
ATOM     59  C   UNL A   1      39.024  29.797  31.749  1.00  0.00     0.049 A 
ATOM     60  H   UNL A   1      40.852  29.939  30.692  1.00  0.00     0.167 HD
ATOM     61  C   UNL A   1      44.236  30.308  28.958  1.00  0.00     0.037 A 
ATOM     62  C   UNL A   1      38.825  30.940  32.488  1.00  0.00     0.037 A 
ATOM     63  C   UNL A   1      44.639  29.915  30.280  1.00  0.00     0.049 A 
ATOM     64  C   UNL A   1      40.168  31.364  32.904  1.00  0.00     0.074 A 
ATOM     65  C   UNL A   1      45.328  28.847  30.809  1.00  0.00     0.029 A 
ATOM     66  N   UNL A   1      43.931  30.487  31.302  1.00  0.00    -0.354 N 
ATOM     67  N   UNL A   1      40.817  30.776  33.866  1.00  0.00    -0.248 NA
ATOM     68  C   UNL A   1      40.898  32.404  32.196  1.00  0.00     0.031 C 
ATOM     69  C   UNL A   1      44.856  28.686  32.142  1.00  0.00     0.029 A 
ATOM     70  C   UNL A   1      43.938  29.692  32.425  1.00  0.00     0.049 A 
ATOM     71  H   UNL A   1      43.475  31.357  31.240  1.00  0.00     0.167 HD
ATOM     72  C   UNL A   1      42.121  30.948  33.496  1.00  0.00     0.074 A 
ATOM     73  C   UNL A   1      42.115  32.162  32.691  1.00  0.00     0.031 C 
ATOM     74  C   UNL A   1      42.948  29.864  33.478  1.00  0.00     0.037 A 
BRANCH  61  75
ATOM     75  C   UNL A   1      44.497  31.674  28.415  1.00  0.00     0.064 A 
ATOM     76  C   UNL A   1      43.547  32.687  28.607  1.00  0.00     0.173 A 
ATOM     77  C   UNL A   1      45.545  31.954  27.514  1.00  0.00     0.173 A 
ATOM     78  F   UNL A   1      42.487  32.478  29.400  1.00  0.00    -0.203 F 
ATOM     79  C   UNL A   1      43.644  33.909  27.943  1.00  0.00     0.198 A 
ATOM     80  C   UNL A   1      45.670  33.193  26.893  1.00  0.00     0.198 A 
ATOM     81  F   UNL A   1      46.420  31.006  27.141  1.00  0.00    -0.203 F 
ATOM     82  F   UNL A   1      42.679  34.825  28.091  1.00  0.00    -0.200 F 
ATOM     83  C   UNL A   1      44.710  34.165  27.095  1.00  0.00     0.200 A 
ATOM     84  F   UNL A   1      46.691  33.413  26.054  1.00  0.00    -0.200 F 
ATOM     85  F   UNL A   1      44.791  35.330  26.440  1.00  0.00    -0.200 F 
ENDBRANCH  61  75
BRANCH  62  86
ATOM     86  C   UNL A   1      37.669  31.614  33.192  1.00  0.00     0.064 A 
ATOM     87  C   UNL A   1      37.865  32.503  34.279  1.00  0.00     0.173 A 
ATOM     88  C   UNL A   1      36.383  31.641  32.647  1.00  0.00     0.173 A 
ATOM     89  F   UNL A   1      39.031  32.544  34.937  1.00  0.00    -0.203 F 
ATOM     90  C   UNL A   1      36.893  33.426  34.690  1.00  0.00     0.198 A 
ATOM     91  C   UNL A   1      35.412  32.579  33.041  1.00  0.00     0.198 A 
ATOM     92  F   UNL A   1      36.069  30.768  31.693  1.00  0.00    -0.203 F 
ATOM     93  F   UNL A   1      37.165  34.289  35.681  1.00  0.00    -0.200 F 
ATOM     94  C   UNL A   1      35.683  33.495  34.038  1.00  0.00     0.200 A 
ATOM     95  F   UNL A   1      34.222  32.633  32.431  1.00  0.00    -0.200 F 
ATOM     96  F   UNL A   1      34.790  34.445  34.354  1.00  0.00    -0.200 F 
ENDBRANCH  62  86
BRANCH  74  97
ATOM     97  C   UNL A   1      42.688  28.727  34.457  1.00  0.00     0.064 A 
ATOM     98  C   UNL A   1      41.852  27.607  34.258  1.00  0.00     0.173 A 
ATOM     99  C   UNL A   1      43.385  28.755  35.678  1.00  0.00     0.173 A 
ATOM    100  F   UNL A   1      41.176  27.406  33.122  1.00  0.00    -0.203 F 
ATOM    101  C   UNL A   1      41.713  26.612  35.230  1.00  0.00     0.198 A 
ATOM    102  C   UNL A   1      43.316  27.711  36.600  1.00  0.00     0.198 A 
ATOM    103  F   UNL A   1      44.172  29.800  35.983  1.00  0.00    -0.203 F 
ATOM    104  F   UNL A   1      40.844  25.610  35.048  1.00  0.00    -0.200 F 
ATOM    105  C   UNL A   1      42.471  26.643  36.380  1.00  0.00     0.200 A 
ATOM    106  F   UNL A   1      44.080  27.743  37.700  1.00  0.00    -0.200 F 
ATOM    107  F   UNL A   1      42.391  25.643  37.268  1.00  0.00    -0.200 F 
ENDBRANCH  74  97
ENDBRANCH  48  49
ENDBRANCH  41  43
ENDBRANCH  40  41
ENDBRANCH  39  40
ENDBRANCH  38  39
ENDBRANCH  37  38
ENDBRANCH  36  37
ENDBRANCH   1  36
TORSDOF 22
ENDMDL
MODEL 3
REMARK VINA RESULT:     -12.0      3.122      5.907
REMARK SMILES C[C@H]1CC[C@H]([NH2+]Cc2c(C(=O)OCCOCCOCCOC(=O)c3ccc(-c4c5nc(c(-c6c(F)c(F)c(F)c(F)c6F)c6ccc([nH]6)c(-c6c(F)c(F)c(F)c(F)c6F)c6nc(c(-c7c(F)c(F)c(F)c(F)c7F)c7ccc4[nH]7)C=C6)C=C5)cc3)n(Cc3ccccc3F)c3ccccc23)CC1
REMARK SMILES IDX 16 1 15 2 14 3 13 4 12 5 10 6 11 7 9 8 8 9 101 10 87 11
REMARK SMILES IDX 96 12 100 13 97 14 99 15 98 16 7 17 6 18 5 21 1 22 2 23 3 24
REMARK SMILES IDX 103 25 4 26 102 27 88 28 89 29 90 30 94 31 91 32 93 33 95 34
REMARK SMILES IDX 92 35 17 36 18 37 19 38 20 39 21 40 22 41 23 42 24 43 25 44
REMARK SMILES IDX 86 45 26 46 85 47 27 48 28 49 29 50 79 51 30 52 84 53 78 54
REMARK SMILES IDX 80 55 31 56 83 57 77 58 76 59 32 61 64 62 44 63 63 64 45 65
REMARK SMILES IDX 48 66 62 67 81 68 46 69 47 70 61 72 82 73 49 74 33 75 34 76
REMARK SMILES IDX 42 77 35 78 36 79 40 80 43 81 37 82 38 83 41 84 39 85 65 86
REMARK SMILES IDX 66 87 74 88 67 89 68 90 72 91 75 92 69 93 70 94 73 95 71 96
REMARK SMILES IDX 50 97 51 98 59 99 52 100 53 101 57 102 60 103 54 104 55 105
REMARK SMILES IDX 58 106 56 107
REMARK H PARENT 6 19 6 20 80 60 48 71
REMARK Flexibility Score: inf
ROOT
ATOM      1  C   UNL A   1      39.167  22.006  26.125  1.00  0.00     0.188 C 
ENDROOT
BRANCH   1   2
ATOM      2  O   UNL A   1      37.824  22.168  25.720  1.00  0.00    -0.376 OA
BRANCH   2   3
ATOM      3  C   UNL A   1      37.403  23.479  25.907  1.00  0.00     0.202 C 
BRANCH   3   4
ATOM      4  C   UNL A   1      35.928  23.634  25.605  1.00  0.00     0.261 C 
BRANCH   4   5
ATOM      5  O   UNL A   1      35.188  24.877  25.551  1.00  0.00    -0.459 OA
BRANCH   5   6
ATOM      6  C   UNL A   1      33.847  24.823  25.795  1.00  0.00     0.355 C 
ATOM      7  O   UNL A   1      33.369  24.063  26.611  1.00  0.00    -0.244 OA
BRANCH   6   8
ATOM      8  C   UNL A   1      33.072  25.739  24.976  1.00  0.00     0.137 A 
ATOM      9  C   UNL A   1      32.547  25.508  23.697  1.00  0.00     0.047 A 
ATOM     10  C   UNL A   1      31.837  26.724  23.337  1.00  0.00     0.009 A 
ATOM     11  N   UNL A   1      32.511  26.952  25.441  1.00  0.00    -0.330 N 
ATOM     12  C   UNL A   1      31.657  27.474  24.496  1.00  0.00     0.050 A 
ATOM     13  C   UNL A   1      31.198  27.184  22.164  1.00  0.00     0.011 A 
ATOM     14  C   UNL A   1      30.700  28.505  24.574  1.00  0.00     0.027 A 
ATOM     15  C   UNL A   1      30.347  28.300  22.210  1.00  0.00     0.001 A 
ATOM     16  C   UNL A   1      30.050  28.912  23.417  1.00  0.00     0.002 A 
BRANCH   9  17
ATOM     17  C   UNL A   1      32.526  24.264  22.798  1.00  0.00     0.300 C 
BRANCH  17  18
ATOM     18  N   UNL A   1      33.234  23.062  23.237  1.00  0.00    -0.340 N 
ATOM     19  H   UNL A   1      33.797  22.758  22.442  1.00  0.00     0.346 HD
ATOM     20  H   UNL A   1      33.700  23.389  24.084  1.00  0.00     0.346 HD
BRANCH  18  21
ATOM     21  C   UNL A   1      32.522  21.856  23.724  1.00  0.00     0.182 C 
ATOM     22  C   UNL A   1      32.947  17.374  24.134  1.00  0.00     0.007 C 
ATOM     23  C   UNL A   1      33.116  18.874  23.863  1.00  0.00    -0.014 C 
ATOM     24  C   UNL A   1      32.897  19.697  25.125  1.00  0.00     0.009 C 
ATOM     25  C   UNL A   1      32.146  19.376  22.793  1.00  0.00     0.009 C 
ATOM     26  C   UNL A   1      33.222  21.166  24.894  1.00  0.00     0.065 C 
ATOM     27  C   UNL A   1      32.171  20.899  22.537  1.00  0.00     0.065 C 
ENDBRANCH  18  21
ENDBRANCH  17  18
ENDBRANCH   9  17
BRANCH  11  28
ATOM     28  C   UNL A   1      32.531  27.422  26.832  1.00  0.00     0.161 C 
BRANCH  28  29
ATOM     29  C   UNL A   1      33.337  28.636  27.275  1.00  0.00     0.008 A 
ATOM     30  C   UNL A   1      34.754  28.610  27.253  1.00  0.00     0.008 A 
ATOM     31  C   UNL A   1      32.725  29.884  27.383  1.00  0.00     0.128 A 
ATOM     32  C   UNL A   1      35.512  29.786  27.319  1.00  0.00     0.001 A 
ATOM     33  C   UNL A   1      33.476  31.065  27.400  1.00  0.00     0.039 A 
ATOM     34  F   UNL A   1      31.393  29.975  27.289  1.00  0.00    -0.207 F 
ATOM     35  C   UNL A   1      34.869  31.018  27.361  1.00  0.00     0.003 A 
ENDBRANCH  28  29
ENDBRANCH  11  28
ENDBRANCH   6   8
ENDBRANCH   5   6
ENDBRANCH   4   5
ENDBRANCH   3   4
ENDBRANCH   2   3
ENDBRANCH   1   2
BRANCH   1  36
ATOM     36  C   UNL A   1      39.598  20.532  26.109  1.00  0.00     0.188 C 
BRANCH  36  37
ATOM     37  O   UNL A   1      40.673  20.198  26.975  1.00  0.00    -0.376 OA
BRANCH  37  38
ATOM     38  C   UNL A   1      41.954  20.655  26.553  1.00  0.00     0.202 C 
BRANCH  38  39
ATOM     39  C   UNL A   1      42.651  21.657  27.509  1.00  0.00     0.261 C 
BRANCH  39  40
ATOM     40  O   UNL A   1      43.733  22.418  26.881  1.00  0.00    -0.460 OA
BRANCH  40  41
ATOM     41  C   UNL A   1      43.420  23.402  25.990  1.00  0.00     0.338 C 
ATOM     42  O   UNL A   1      43.372  23.236  24.780  1.00  0.00    -0.246 OA
BRANCH  41  43
ATOM     43  C   UNL A   1      42.758  24.601  26.666  1.00  0.00     0.060 A 
ATOM     44  C   UNL A   1      41.463  25.127  26.485  1.00  0.00     0.016 A 
ATOM     45  C   UNL A   1      43.624  25.370  27.429  1.00  0.00     0.016 A 
ATOM     46  C   UNL A   1      41.100  26.451  26.955  1.00  0.00     0.010 A 
ATOM     47  C   UNL A   1      43.252  26.652  27.869  1.00  0.00     0.010 A 
ATOM     48  C   UNL A   1      42.021  27.281  27.611  1.00  0.00    -0.014 A 
BRANCH  48  49
ATOM     49  C   UNL A   1      41.781  28.646  28.269  1.00  0.00     0.031 A 
ATOM     50  C   UNL A   1      42.774  29.666  27.846  1.00  0.00     0.074 A 
ATOM     51  C   UNL A   1      40.783  29.204  29.045  1.00  0.00     0.049 A 
ATOM     52  N   UNL A   1      43.612  30.211  28.663  1.00  0.00    -0.248 NA
ATOM     53  C   UNL A   1      42.912  30.129  26.461  1.00  0.00     0.031 C 
ATOM     54  C   UNL A   1      39.624  28.550  29.622  1.00  0.00     0.029 A 
ATOM     55  N   UNL A   1      40.489  30.543  29.373  1.00  0.00    -0.354 N 
ATOM     56  C   UNL A   1      44.234  31.214  27.949  1.00  0.00     0.074 A 
ATOM     57  C   UNL A   1      43.893  31.024  26.568  1.00  0.00     0.031 C 
ATOM     58  C   UNL A   1      38.630  29.432  29.886  1.00  0.00     0.029 A 
ATOM     59  C   UNL A   1      39.158  30.779  29.804  1.00  0.00     0.049 A 
ATOM     60  H   UNL A   1      41.158  31.262  29.309  1.00  0.00     0.167 HD
ATOM     61  C   UNL A   1      44.771  32.277  28.591  1.00  0.00     0.037 A 
ATOM     62  C   UNL A   1      38.519  31.893  30.293  1.00  0.00     0.037 A 
ATOM     63  C   UNL A   1      44.813  32.078  30.013  1.00  0.00     0.049 A 
ATOM     64  C   UNL A   1      39.554  32.642  31.017  1.00  0.00     0.074 A 
ATOM     65  C   UNL A   1      45.499  31.235  30.857  1.00  0.00     0.029 A 
ATOM     66  N   UNL A   1      43.724  32.541  30.701  1.00  0.00    -0.354 N 
ATOM     67  N   UNL A   1      39.975  32.284  32.195  1.00  0.00    -0.248 NA
ATOM     68  C   UNL A   1      40.248  33.770  30.416  1.00  0.00     0.031 C 
ATOM     69  C   UNL A   1      44.678  31.062  32.007  1.00  0.00     0.029 A 
ATOM     70  C   UNL A   1      43.538  31.848  31.875  1.00  0.00     0.049 A 
ATOM     71  H   UNL A   1      43.147  33.278  30.393  1.00  0.00     0.167 HD
ATOM     72  C   UNL A   1      41.268  32.725  32.197  1.00  0.00     0.074 A 
ATOM     73  C   UNL A   1      41.273  33.847  31.269  1.00  0.00     0.031 C 
ATOM     74  C   UNL A   1      42.256  31.861  32.564  1.00  0.00     0.037 A 
BRANCH  61  75
ATOM     75  C   UNL A   1      44.913  33.625  27.967  1.00  0.00     0.064 A 
ATOM     76  C   UNL A   1      46.193  34.139  27.715  1.00  0.00     0.173 A 
ATOM     77  C   UNL A   1      43.833  34.521  27.820  1.00  0.00     0.173 A 
ATOM     78  F   UNL A   1      47.277  33.371  27.891  1.00  0.00    -0.203 F 
ATOM     79  C   UNL A   1      46.380  35.468  27.335  1.00  0.00     0.198 A 
ATOM     80  C   UNL A   1      44.017  35.831  27.389  1.00  0.00     0.198 A 
ATOM     81  F   UNL A   1      42.586  34.178  28.181  1.00  0.00    -0.203 F 
ATOM     82  F   UNL A   1      47.621  35.946  27.179  1.00  0.00    -0.200 F 
ATOM     83  C   UNL A   1      45.292  36.309  27.162  1.00  0.00     0.200 A 
ATOM     84  F   UNL A   1      42.956  36.639  27.255  1.00  0.00    -0.200 F 
ATOM     85  F   UNL A   1      45.475  37.590  26.819  1.00  0.00    -0.200 F 
ENDBRANCH  61  75
BRANCH  62  86
ATOM     86  C   UNL A   1      37.092  32.332  30.537  1.00  0.00     0.064 A 
ATOM     87  C   UNL A   1      36.439  32.117  31.778  1.00  0.00     0.173 A 
ATOM     88  C   UNL A   1      36.433  33.221  29.683  1.00  0.00     0.173 A 
ATOM     89  F   UNL A   1      36.926  31.247  32.672  1.00  0.00    -0.203 F 
ATOM     90  C   UNL A   1      35.301  32.833  32.172  1.00  0.00     0.198 A 
ATOM     91  C   UNL A   1      35.302  33.957  30.082  1.00  0.00     0.198 A 
ATOM     92  F   UNL A   1      36.909  33.407  28.455  1.00  0.00    -0.203 F 
ATOM     93  F   UNL A   1      34.770  32.633  33.387  1.00  0.00    -0.200 F 
ATOM     94  C   UNL A   1      34.760  33.788  31.340  1.00  0.00     0.200 A 
ATOM     95  F   UNL A   1      34.754  34.867  29.267  1.00  0.00    -0.200 F 
ATOM     96  F   UNL A   1      33.737  34.551  31.751  1.00  0.00    -0.200 F 
ENDBRANCH  62  86
BRANCH  74  97
ATOM     97  C   UNL A   1      41.935  30.764  33.571  1.00  0.00     0.064 A 
ATOM     98  C   UNL A   1      41.626  29.416  33.291  1.00  0.00     0.173 A 
ATOM     99  C   UNL A   1      41.995  31.102  34.935  1.00  0.00     0.173 A 
ATOM    100  F   UNL A   1      41.597  28.927  32.046  1.00  0.00    -0.203 F 
ATOM    101  C   UNL A   1      41.370  28.493  34.309  1.00  0.00     0.198 A 
ATOM    102  C   UNL A   1      41.834  30.155  35.946  1.00  0.00     0.198 A 
ATOM    103  F   UNL A   1      42.236  32.370  35.306  1.00  0.00    -0.203 F 
ATOM    104  F   UNL A   1      40.993  27.245  34.008  1.00  0.00    -0.200 F 
ATOM    105  C   UNL A   1      41.512  28.851  35.633  1.00  0.00     0.200 A 
ATOM    106  F   UNL A   1      42.001  30.512  37.226  1.00  0.00    -0.200 F 
ATOM    107  F   UNL A   1      41.344  27.939  36.600  1.00  0.00    -0.200 F 
ENDBRANCH  74  97
ENDBRANCH  48  49
ENDBRANCH  41  43
ENDBRANCH  40  41
ENDBRANCH  39  40
ENDBRANCH  38  39
ENDBRANCH  37  38
ENDBRANCH  36  37
ENDBRANCH   1  36
TORSDOF 22
ENDMDL
