MODEL 1
REMARK VINA RESULT:     -11.5      0.000      0.000
REMARK SMILES Cc1nn(Cc2ccc(Cl)cc2Cl)c(C)c1NC(=O)c1c(C(=O)OCCOCCOCCOC(=O)c2ccc(-c3c4nc(c(-c5c(F)c(F)c(F)c(F)c5F)c5ccc([nH]5)c(-c5c(F)c(F)c(F)c(F)c5F)c5nc(c(-c6c(F)c(F)c(F)c(F)c6F)c6ccc3[nH]6)C=C5)C=C4)cc2)cnn1C
REMARK SMILES IDX 28 1 27 2 26 3 25 4 24 5 22 6 23 7 21 8 20 9 101 10 99 11
REMARK SMILES IDX 100 12 102 13 18 14 17 15 19 17 16 18 1 19 2 20 3 21 4 22
REMARK SMILES IDX 14 23 15 24 5 25 6 26 7 27 12 28 8 29 11 30 13 31 9 32 10 33
REMARK SMILES IDX 29 34 30 35 31 36 32 37 33 38 34 39 35 40 36 41 37 42 98 43
REMARK SMILES IDX 38 44 97 45 39 46 40 47 41 48 91 49 42 50 96 51 90 52 92 53
REMARK SMILES IDX 43 54 95 55 89 56 88 57 44 59 76 60 56 61 75 62 57 63 60 64
REMARK SMILES IDX 74 65 93 66 58 67 59 68 73 70 94 71 61 72 45 73 46 74 54 75
REMARK SMILES IDX 47 76 48 77 52 78 55 79 49 80 50 81 53 82 51 83 77 84 78 85
REMARK SMILES IDX 86 86 79 87 80 88 84 89 87 90 81 91 82 92 85 93 83 94 62 95
REMARK SMILES IDX 63 96 71 97 64 98 65 99 69 100 72 101 66 102 67 103 70 104
REMARK SMILES IDX 68 105
REMARK H PARENT 17 16 92 58 60 69
REMARK Flexibility Score: inf
ROOT
ATOM      1  C   UNL A   1      33.316  33.053  28.017  1.00  0.00     0.188 C 
ENDROOT
BRANCH   1   2
ATOM      2  O   UNL A   1      34.266  32.288  27.278  1.00  0.00    -0.376 OA
BRANCH   2   3
ATOM      3  C   UNL A   1      34.301  30.886  27.488  1.00  0.00     0.202 C 
BRANCH   3   4
ATOM      4  C   UNL A   1      33.148  30.093  26.872  1.00  0.00     0.261 C 
BRANCH   4   5
ATOM      5  O   UNL A   1      33.442  29.406  25.641  1.00  0.00    -0.460 OA
BRANCH   5   6
ATOM      6  C   UNL A   1      32.488  29.481  24.676  1.00  0.00     0.342 C 
ATOM      7  O   UNL A   1      31.408  30.083  24.806  1.00  0.00    -0.246 OA
BRANCH   6   8
ATOM      8  C   UNL A   1      32.805  28.729  23.486  1.00  0.00     0.111 A 
ATOM      9  C   UNL A   1      31.986  27.846  22.793  1.00  0.00     0.140 A 
ATOM     10  N   UNL A   1      32.805  27.187  21.919  1.00  0.00    -0.262 N 
ATOM     11  C   UNL A   1      34.036  28.659  22.794  1.00  0.00     0.151 A 
ATOM     12  N   UNL A   1      34.033  27.736  21.829  1.00  0.00    -0.180 NA
ATOM     13  C   UNL A   1      32.443  26.088  21.050  1.00  0.00     0.174 C 
BRANCH   9  14
ATOM     14  C   UNL A   1      30.590  27.558  22.937  1.00  0.00     0.274 C 
ATOM     15  N   UNL A   1      30.211  26.497  23.724  1.00  0.00    -0.317 N 
ATOM     16  H   UNL A   1      29.244  26.314  23.739  1.00  0.00     0.170 HD
ATOM     17  O   UNL A   1      29.720  28.223  22.378  1.00  0.00    -0.267 OA
BRANCH  15  18
ATOM     18  C   UNL A   1      30.980  25.647  24.499  1.00  0.00     0.085 A 
ATOM     19  C   UNL A   1      30.624  23.526  23.058  1.00  0.00     0.071 C 
ATOM     20  C   UNL A   1      31.208  24.288  24.194  1.00  0.00     0.083 A 
ATOM     21  N   UNL A   1      32.130  23.753  25.006  1.00  0.00    -0.175 NA
ATOM     22  N   UNL A   1      32.445  24.738  25.875  1.00  0.00    -0.263 N 
ATOM     23  C   UNL A   1      31.595  25.816  25.725  1.00  0.00     0.060 A 
ATOM     24  C   UNL A   1      31.406  26.785  26.820  1.00  0.00     0.069 C 
BRANCH  22  25
ATOM     25  C   UNL A   1      33.776  24.763  26.515  1.00  0.00     0.181 C 
BRANCH  25  26
ATOM     26  C   UNL A   1      34.761  23.688  26.105  1.00  0.00    -0.008 A 
ATOM     27  C   UNL A   1      35.830  24.042  25.268  1.00  0.00     0.009 A 
ATOM     28  C   UNL A   1      34.751  22.370  26.579  1.00  0.00     0.047 A 
ATOM     29  C   UNL A   1      36.753  23.106  24.789  1.00  0.00     0.021 A 
ATOM     30  C   UNL A   1      35.677  21.422  26.115  1.00  0.00     0.041 A 
ATOM     31  Cl  UNL A   1      33.718  21.864  27.862  1.00  0.00    -0.084 Cl
ATOM     32  C   UNL A   1      36.656  21.787  25.199  1.00  0.00     0.042 A 
ATOM     33  Cl  UNL A   1      37.777  20.620  24.622  1.00  0.00    -0.084 Cl
ENDBRANCH  25  26
ENDBRANCH  22  25
ENDBRANCH  15  18
ENDBRANCH   9  14
ENDBRANCH   6   8
ENDBRANCH   5   6
ENDBRANCH   4   5
ENDBRANCH   3   4
ENDBRANCH   2   3
ENDBRANCH   1   2
BRANCH   1  34
ATOM     34  C   UNL A   1      33.845  34.079  29.019  1.00  0.00     0.188 C 
BRANCH  34  35
ATOM     35  O   UNL A   1      34.085  33.490  30.300  1.00  0.00    -0.376 OA
BRANCH  35  36
ATOM     36  C   UNL A   1      35.408  32.955  30.426  1.00  0.00     0.202 C 
BRANCH  36  37
ATOM     37  C   UNL A   1      35.537  32.192  31.735  1.00  0.00     0.261 C 
BRANCH  37  38
ATOM     38  O   UNL A   1      36.026  30.893  31.414  1.00  0.00    -0.460 OA
BRANCH  38  39
ATOM     39  C   UNL A   1      37.333  30.663  31.479  1.00  0.00     0.338 C 
ATOM     40  O   UNL A   1      38.223  31.425  31.886  1.00  0.00    -0.246 OA
BRANCH  39  41
ATOM     41  C   UNL A   1      37.569  29.382  30.843  1.00  0.00     0.060 A 
ATOM     42  C   UNL A   1      37.945  28.256  31.588  1.00  0.00     0.016 A 
ATOM     43  C   UNL A   1      37.705  29.439  29.451  1.00  0.00     0.016 A 
ATOM     44  C   UNL A   1      38.680  27.273  30.954  1.00  0.00     0.010 A 
ATOM     45  C   UNL A   1      38.427  28.466  28.823  1.00  0.00     0.010 A 
ATOM     46  C   UNL A   1      39.069  27.528  29.633  1.00  0.00    -0.014 A 
BRANCH  46  47
ATOM     47  C   UNL A   1      40.492  27.371  29.347  1.00  0.00     0.031 A 
ATOM     48  C   UNL A   1      40.917  26.145  28.650  1.00  0.00     0.074 A 
ATOM     49  C   UNL A   1      41.289  28.461  29.465  1.00  0.00     0.049 A 
ATOM     50  N   UNL A   1      41.629  25.176  29.124  1.00  0.00    -0.248 NA
ATOM     51  C   UNL A   1      40.406  25.900  27.293  1.00  0.00     0.031 C 
ATOM     52  C   UNL A   1      40.903  29.847  29.774  1.00  0.00     0.029 A 
ATOM     53  N   UNL A   1      42.623  28.580  29.238  1.00  0.00    -0.354 N 
ATOM     54  C   UNL A   1      41.808  24.302  28.060  1.00  0.00     0.074 A 
ATOM     55  C   UNL A   1      40.830  24.657  27.070  1.00  0.00     0.031 C 
ATOM     56  C   UNL A   1      41.928  30.685  29.535  1.00  0.00     0.029 A 
ATOM     57  C   UNL A   1      43.077  29.891  29.174  1.00  0.00     0.049 A 
ATOM     58  H   UNL A   1      43.218  27.803  29.130  1.00  0.00     0.167 HD
ATOM     59  C   UNL A   1      42.938  23.558  27.929  1.00  0.00     0.037 A 
ATOM     60  C   UNL A   1      44.305  30.306  28.792  1.00  0.00     0.037 A 
ATOM     61  C   UNL A   1      43.691  23.526  29.157  1.00  0.00     0.049 A 
ATOM     62  C   UNL A   1      45.207  29.132  28.881  1.00  0.00     0.074 A 
ATOM     63  C   UNL A   1      43.417  23.118  30.448  1.00  0.00     0.029 A 
ATOM     64  N   UNL A   1      44.810  24.317  29.246  1.00  0.00    -0.354 N 
ATOM     65  N   UNL A   1      45.545  28.560  30.005  1.00  0.00    -0.248 NA
ATOM     66  C   UNL A   1      45.352  28.301  27.694  1.00  0.00     0.031 C 
ATOM     67  C   UNL A   1      44.099  24.046  31.289  1.00  0.00     0.029 A 
ATOM     68  C   UNL A   1      44.786  24.943  30.468  1.00  0.00     0.049 A 
ATOM     69  H   UNL A   1      45.507  24.418  28.558  1.00  0.00     0.167 HD
ATOM     70  C   UNL A   1      45.554  27.199  29.728  1.00  0.00     0.074 A 
ATOM     71  C   UNL A   1      45.531  27.109  28.271  1.00  0.00     0.031 C 
ATOM     72  C   UNL A   1      45.282  26.281  30.703  1.00  0.00     0.037 A 
BRANCH  59  73
ATOM     73  C   UNL A   1      43.529  23.154  26.600  1.00  0.00     0.064 A 
ATOM     74  C   UNL A   1      43.355  21.834  26.149  1.00  0.00     0.173 A 
ATOM     75  C   UNL A   1      44.458  23.928  25.867  1.00  0.00     0.173 A 
ATOM     76  F   UNL A   1      42.525  20.999  26.791  1.00  0.00    -0.203 F 
ATOM     77  C   UNL A   1      44.089  21.318  25.077  1.00  0.00     0.198 A 
ATOM     78  C   UNL A   1      45.137  23.432  24.756  1.00  0.00     0.198 A 
ATOM     79  F   UNL A   1      44.836  25.152  26.254  1.00  0.00    -0.203 F 
ATOM     80  F   UNL A   1      43.976  20.022  24.758  1.00  0.00    -0.200 F 
ATOM     81  C   UNL A   1      44.976  22.118  24.379  1.00  0.00     0.200 A 
ATOM     82  F   UNL A   1      46.004  24.222  24.107  1.00  0.00    -0.200 F 
ATOM     83  F   UNL A   1      45.713  21.613  23.382  1.00  0.00    -0.200 F 
ENDBRANCH  59  73
BRANCH  60  84
ATOM     84  C   UNL A   1      44.624  31.566  28.085  1.00  0.00     0.064 A 
ATOM     85  C   UNL A   1      45.556  32.476  28.597  1.00  0.00     0.173 A 
ATOM     86  C   UNL A   1      44.171  31.806  26.769  1.00  0.00     0.173 A 
ATOM     87  F   UNL A   1      46.069  32.294  29.821  1.00  0.00    -0.203 F 
ATOM     88  C   UNL A   1      46.014  33.558  27.836  1.00  0.00     0.198 A 
ATOM     89  C   UNL A   1      44.615  32.893  26.018  1.00  0.00     0.198 A 
ATOM     90  F   UNL A   1      43.348  30.944  26.153  1.00  0.00    -0.203 F 
ATOM     91  F   UNL A   1      46.946  34.381  28.339  1.00  0.00    -0.200 F 
ATOM     92  C   UNL A   1      45.547  33.762  26.547  1.00  0.00     0.200 A 
ATOM     93  F   UNL A   1      44.175  33.057  24.762  1.00  0.00    -0.200 F 
ATOM     94  F   UNL A   1      46.021  34.772  25.803  1.00  0.00    -0.200 F 
ENDBRANCH  60  84
BRANCH  72  95
ATOM     95  C   UNL A   1      45.241  26.776  32.122  1.00  0.00     0.064 A 
ATOM     96  C   UNL A   1      44.080  27.282  32.733  1.00  0.00     0.173 A 
ATOM     97  C   UNL A   1      46.369  26.606  32.934  1.00  0.00     0.173 A 
ATOM     98  F   UNL A   1      42.931  27.371  32.053  1.00  0.00    -0.203 F 
ATOM     99  C   UNL A   1      44.064  27.646  34.079  1.00  0.00     0.198 A 
ATOM    100  C   UNL A   1      46.342  26.938  34.287  1.00  0.00     0.198 A 
ATOM    101  F   UNL A   1      47.486  26.066  32.423  1.00  0.00    -0.203 F 
ATOM    102  F   UNL A   1      42.943  28.134  34.630  1.00  0.00    -0.200 F 
ATOM    103  C   UNL A   1      45.195  27.468  34.855  1.00  0.00     0.200 A 
ATOM    104  F   UNL A   1      47.422  26.716  35.048  1.00  0.00    -0.200 F 
ATOM    105  F   UNL A   1      45.171  27.780  36.159  1.00  0.00    -0.200 F 
ENDBRANCH  72  95
ENDBRANCH  46  47
ENDBRANCH  39  41
ENDBRANCH  38  39
ENDBRANCH  37  38
ENDBRANCH  36  37
ENDBRANCH  35  36
ENDBRANCH  34  35
ENDBRANCH   1  34
TORSDOF 21
ENDMDL
MODEL 2
REMARK VINA RESULT:     -11.4      2.435      4.211
REMARK SMILES Cc1nn(Cc2ccc(Cl)cc2Cl)c(C)c1NC(=O)c1c(C(=O)OCCOCCOCCOC(=O)c2ccc(-c3c4nc(c(-c5c(F)c(F)c(F)c(F)c5F)c5ccc([nH]5)c(-c5c(F)c(F)c(F)c(F)c5F)c5nc(c(-c6c(F)c(F)c(F)c(F)c6F)c6ccc3[nH]6)C=C5)C=C4)cc2)cnn1C
REMARK SMILES IDX 28 1 27 2 26 3 25 4 24 5 22 6 23 7 21 8 20 9 101 10 99 11
REMARK SMILES IDX 100 12 102 13 18 14 17 15 19 17 16 18 1 19 2 20 3 21 4 22
REMARK SMILES IDX 14 23 15 24 5 25 6 26 7 27 12 28 8 29 11 30 13 31 9 32 10 33
REMARK SMILES IDX 29 34 30 35 31 36 32 37 33 38 34 39 35 40 36 41 37 42 98 43
REMARK SMILES IDX 38 44 97 45 39 46 40 47 41 48 91 49 42 50 96 51 90 52 92 53
REMARK SMILES IDX 43 54 95 55 89 56 88 57 44 59 76 60 56 61 75 62 57 63 60 64
REMARK SMILES IDX 74 65 93 66 58 67 59 68 73 70 94 71 61 72 45 73 46 74 54 75
REMARK SMILES IDX 47 76 48 77 52 78 55 79 49 80 50 81 53 82 51 83 77 84 78 85
REMARK SMILES IDX 86 86 79 87 80 88 84 89 87 90 81 91 82 92 85 93 83 94 62 95
REMARK SMILES IDX 63 96 71 97 64 98 65 99 69 100 72 101 66 102 67 103 70 104
REMARK SMILES IDX 68 105
REMARK H PARENT 17 16 92 58 60 69
REMARK Flexibility Score: inf
ROOT
ATOM      1  C   UNL A   1      34.400  31.129  27.261  1.00  0.00     0.188 C 
ENDROOT
BRANCH   1   2
ATOM      2  O   UNL A   1      33.433  30.149  27.630  1.00  0.00    -0.376 OA
BRANCH   2   3
ATOM      3  C   UNL A   1      33.746  28.785  27.403  1.00  0.00     0.202 C 
BRANCH   3   4
ATOM      4  C   UNL A   1      32.553  27.829  27.350  1.00  0.00     0.261 C 
BRANCH   4   5
ATOM      5  O   UNL A   1      32.810  26.531  26.783  1.00  0.00    -0.460 OA
BRANCH   5   6
ATOM      6  C   UNL A   1      31.714  25.805  26.438  1.00  0.00     0.342 C 
ATOM      7  O   UNL A   1      30.542  26.185  26.608  1.00  0.00    -0.246 OA
BRANCH   6   8
ATOM      8  C   UNL A   1      32.025  24.498  25.910  1.00  0.00     0.111 A 
ATOM      9  C   UNL A   1      33.087  24.143  25.089  1.00  0.00     0.140 A 
ATOM     10  N   UNL A   1      32.805  22.882  24.642  1.00  0.00    -0.262 N 
ATOM     11  C   UNL A   1      31.288  23.300  26.046  1.00  0.00     0.151 A 
ATOM     12  N   UNL A   1      31.771  22.309  25.290  1.00  0.00    -0.180 NA
ATOM     13  C   UNL A   1      33.557  22.116  23.671  1.00  0.00     0.174 C 
BRANCH   9  14
ATOM     14  C   UNL A   1      34.239  24.887  24.676  1.00  0.00     0.274 C 
ATOM     15  N   UNL A   1      34.082  25.888  23.747  1.00  0.00    -0.317 N 
ATOM     16  H   UNL A   1      34.915  26.325  23.461  1.00  0.00     0.170 HD
ATOM     17  O   UNL A   1      35.363  24.660  25.119  1.00  0.00    -0.267 OA
BRANCH  15  18
ATOM     18  C   UNL A   1      32.931  26.375  23.153  1.00  0.00     0.085 A 
ATOM     19  C   UNL A   1      32.895  24.714  21.168  1.00  0.00     0.071 C 
ATOM     20  C   UNL A   1      32.352  25.831  21.986  1.00  0.00     0.083 A 
ATOM     21  N   UNL A   1      31.153  26.375  21.736  1.00  0.00    -0.175 NA
ATOM     22  N   UNL A   1      30.989  27.313  22.693  1.00  0.00    -0.263 N 
ATOM     23  C   UNL A   1      32.150  27.483  23.420  1.00  0.00     0.060 A 
ATOM     24  C   UNL A   1      32.395  28.729  24.169  1.00  0.00     0.069 C 
BRANCH  22  25
ATOM     25  C   UNL A   1      29.630  27.703  23.123  1.00  0.00     0.181 C 
BRANCH  25  26
ATOM     26  C   UNL A   1      29.077  29.001  22.574  1.00  0.00    -0.008 A 
ATOM     27  C   UNL A   1      29.888  29.769  21.725  1.00  0.00     0.009 A 
ATOM     28  C   UNL A   1      27.767  29.459  22.765  1.00  0.00     0.047 A 
ATOM     29  C   UNL A   1      29.487  31.011  21.220  1.00  0.00     0.021 A 
ATOM     30  C   UNL A   1      27.347  30.698  22.256  1.00  0.00     0.041 A 
ATOM     31  Cl  UNL A   1      26.550  28.480  23.493  1.00  0.00    -0.084 Cl
ATOM     32  C   UNL A   1      28.218  31.483  21.510  1.00  0.00     0.042 A 
ATOM     33  Cl  UNL A   1      27.705  33.005  20.902  1.00  0.00    -0.084 Cl
ENDBRANCH  25  26
ENDBRANCH  22  25
ENDBRANCH  15  18
ENDBRANCH   9  14
ENDBRANCH   6   8
ENDBRANCH   5   6
ENDBRANCH   4   5
ENDBRANCH   3   4
ENDBRANCH   2   3
ENDBRANCH   1   2
BRANCH   1  34
ATOM     34  C   UNL A   1      34.373  32.473  27.990  1.00  0.00     0.188 C 
BRANCH  34  35
ATOM     35  O   UNL A   1      35.557  33.234  27.735  1.00  0.00    -0.376 OA
BRANCH  35  36
ATOM     36  C   UNL A   1      36.144  33.764  28.930  1.00  0.00     0.202 C 
BRANCH  36  37
ATOM     37  C   UNL A   1      37.567  33.249  29.082  1.00  0.00     0.261 C 
BRANCH  37  38
ATOM     38  O   UNL A   1      37.526  31.841  28.872  1.00  0.00    -0.460 OA
BRANCH  38  39
ATOM     39  C   UNL A   1      37.566  31.032  29.925  1.00  0.00     0.338 C 
ATOM     40  O   UNL A   1      37.484  31.335  31.125  1.00  0.00    -0.246 OA
BRANCH  39  41
ATOM     41  C   UNL A   1      37.871  29.705  29.427  1.00  0.00     0.060 A 
ATOM     42  C   UNL A   1      38.038  28.619  30.298  1.00  0.00     0.016 A 
ATOM     43  C   UNL A   1      38.292  29.667  28.092  1.00  0.00     0.016 A 
ATOM     44  C   UNL A   1      38.843  27.575  29.887  1.00  0.00     0.010 A 
ATOM     45  C   UNL A   1      39.084  28.633  27.684  1.00  0.00     0.010 A 
ATOM     46  C   UNL A   1      39.505  27.731  28.663  1.00  0.00    -0.014 A 
BRANCH  46  47
ATOM     47  C   UNL A   1      40.949  27.512  28.687  1.00  0.00     0.031 A 
ATOM     48  C   UNL A   1      41.469  26.315  28.003  1.00  0.00     0.074 A 
ATOM     49  C   UNL A   1      41.742  28.543  29.068  1.00  0.00     0.049 A 
ATOM     50  N   UNL A   1      42.016  25.276  28.542  1.00  0.00    -0.248 NA
ATOM     51  C   UNL A   1      41.268  26.198  26.551  1.00  0.00     0.031 C 
ATOM     52  C   UNL A   1      41.353  29.923  29.397  1.00  0.00     0.029 A 
ATOM     53  N   UNL A   1      43.097  28.600  29.153  1.00  0.00    -0.354 N 
ATOM     54  C   UNL A   1      42.394  24.471  27.475  1.00  0.00     0.074 A 
ATOM     55  C   UNL A   1      41.680  24.952  26.326  1.00  0.00     0.031 C 
ATOM     56  C   UNL A   1      42.440  30.715  29.461  1.00  0.00     0.029 A 
ATOM     57  C   UNL A   1      43.607  29.883  29.299  1.00  0.00     0.049 A 
ATOM     58  H   UNL A   1      43.668  27.799  29.115  1.00  0.00     0.167 HD
ATOM     59  C   UNL A   1      43.494  23.673  27.537  1.00  0.00     0.037 A 
ATOM     60  C   UNL A   1      44.905  30.252  29.234  1.00  0.00     0.037 A 
ATOM     61  C   UNL A   1      43.948  23.510  28.895  1.00  0.00     0.049 A 
ATOM     62  C   UNL A   1      45.715  29.024  29.423  1.00  0.00     0.074 A 
ATOM     63  C   UNL A   1      43.374  23.028  30.055  1.00  0.00     0.029 A 
ATOM     64  N   UNL A   1      45.050  24.226  29.295  1.00  0.00    -0.354 N 
ATOM     65  N   UNL A   1      45.767  28.355  30.544  1.00  0.00    -0.248 NA
ATOM     66  C   UNL A   1      46.090  28.272  28.234  1.00  0.00     0.031 C 
ATOM     67  C   UNL A   1      43.887  23.853  31.099  1.00  0.00     0.029 A 
ATOM     68  C   UNL A   1      44.776  24.764  30.528  1.00  0.00     0.049 A 
ATOM     69  H   UNL A   1      45.888  24.335  28.788  1.00  0.00     0.167 HD
ATOM     70  C   UNL A   1      45.783  27.019  30.165  1.00  0.00     0.074 A 
ATOM     71  C   UNL A   1      46.085  27.034  28.736  1.00  0.00     0.031 C 
ATOM     72  C   UNL A   1      45.261  26.052  30.976  1.00  0.00     0.037 A 
BRANCH  59  73
ATOM     73  C   UNL A   1      44.351  23.331  26.344  1.00  0.00     0.064 A 
ATOM     74  C   UNL A   1      44.361  22.009  25.866  1.00  0.00     0.173 A 
ATOM     75  C   UNL A   1      45.344  24.179  25.800  1.00  0.00     0.173 A 
ATOM     76  F   UNL A   1      43.487  21.109  26.339  1.00  0.00    -0.203 F 
ATOM     77  C   UNL A   1      45.319  21.561  24.952  1.00  0.00     0.198 A 
ATOM     78  C   UNL A   1      46.254  23.748  24.837  1.00  0.00     0.198 A 
ATOM     79  F   UNL A   1      45.554  25.421  26.253  1.00  0.00    -0.203 F 
ATOM     80  F   UNL A   1      45.362  20.265  24.617  1.00  0.00    -0.200 F 
ATOM     81  C   UNL A   1      46.262  22.431  24.435  1.00  0.00     0.200 A 
ATOM     82  F   UNL A   1      47.169  24.606  24.364  1.00  0.00    -0.200 F 
ATOM     83  F   UNL A   1      47.207  21.994  23.595  1.00  0.00    -0.200 F 
ENDBRANCH  59  73
BRANCH  60  84
ATOM     84  C   UNL A   1      45.427  31.538  28.721  1.00  0.00     0.064 A 
ATOM     85  C   UNL A   1      45.276  31.906  27.380  1.00  0.00     0.173 A 
ATOM     86  C   UNL A   1      45.905  32.538  29.597  1.00  0.00     0.173 A 
ATOM     87  F   UNL A   1      44.786  31.029  26.493  1.00  0.00    -0.203 F 
ATOM     88  C   UNL A   1      45.579  33.200  26.939  1.00  0.00     0.198 A 
ATOM     89  C   UNL A   1      46.221  33.822  29.154  1.00  0.00     0.198 A 
ATOM     90  F   UNL A   1      45.998  32.316  30.916  1.00  0.00    -0.203 F 
ATOM     91  F   UNL A   1      45.373  33.534  25.657  1.00  0.00    -0.200 F 
ATOM     92  C   UNL A   1      46.045  34.157  27.827  1.00  0.00     0.200 A 
ATOM     93  F   UNL A   1      46.642  34.743  30.033  1.00  0.00    -0.200 F 
ATOM     94  F   UNL A   1      46.289  35.408  27.413  1.00  0.00    -0.200 F 
ENDBRANCH  60  84
BRANCH  72  95
ATOM     95  C   UNL A   1      44.921  26.446  32.387  1.00  0.00     0.064 A 
ATOM     96  C   UNL A   1      43.685  27.002  32.759  1.00  0.00     0.173 A 
ATOM     97  C   UNL A   1      45.815  26.125  33.415  1.00  0.00     0.173 A 
ATOM     98  F   UNL A   1      42.735  27.234  31.846  1.00  0.00    -0.203 F 
ATOM     99  C   UNL A   1      43.378  27.270  34.093  1.00  0.00     0.198 A 
ATOM    100  C   UNL A   1      45.494  26.361  34.751  1.00  0.00     0.198 A 
ATOM    101  F   UNL A   1      46.984  25.531  33.127  1.00  0.00    -0.203 F 
ATOM    102  F   UNL A   1      42.194  27.809  34.416  1.00  0.00    -0.200 F 
ATOM    103  C   UNL A   1      44.282  26.943  35.088  1.00  0.00     0.200 A 
ATOM    104  F   UNL A   1      46.350  25.996  35.716  1.00  0.00    -0.200 F 
ATOM    105  F   UNL A   1      43.975  27.162  36.374  1.00  0.00    -0.200 F 
ENDBRANCH  72  95
ENDBRANCH  46  47
ENDBRANCH  39  41
ENDBRANCH  38  39
ENDBRANCH  37  38
ENDBRANCH  36  37
ENDBRANCH  35  36
ENDBRANCH  34  35
ENDBRANCH   1  34
TORSDOF 21
ENDMDL
MODEL 3
REMARK VINA RESULT:     -11.4      2.745      7.365
REMARK SMILES Cc1nn(Cc2ccc(Cl)cc2Cl)c(C)c1NC(=O)c1c(C(=O)OCCOCCOCCOC(=O)c2ccc(-c3c4nc(c(-c5c(F)c(F)c(F)c(F)c5F)c5ccc([nH]5)c(-c5c(F)c(F)c(F)c(F)c5F)c5nc(c(-c6c(F)c(F)c(F)c(F)c6F)c6ccc3[nH]6)C=C5)C=C4)cc2)cnn1C
REMARK SMILES IDX 28 1 27 2 26 3 25 4 24 5 22 6 23 7 21 8 20 9 101 10 99 11
REMARK SMILES IDX 100 12 102 13 18 14 17 15 19 17 16 18 1 19 2 20 3 21 4 22
REMARK SMILES IDX 14 23 15 24 5 25 6 26 7 27 12 28 8 29 11 30 13 31 9 32 10 33
REMARK SMILES IDX 29 34 30 35 31 36 32 37 33 38 34 39 35 40 36 41 37 42 98 43
REMARK SMILES IDX 38 44 97 45 39 46 40 47 41 48 91 49 42 50 96 51 90 52 92 53
REMARK SMILES IDX 43 54 95 55 89 56 88 57 44 59 76 60 56 61 75 62 57 63 60 64
REMARK SMILES IDX 74 65 93 66 58 67 59 68 73 70 94 71 61 72 45 73 46 74 54 75
REMARK SMILES IDX 47 76 48 77 52 78 55 79 49 80 50 81 53 82 51 83 77 84 78 85
REMARK SMILES IDX 86 86 79 87 80 88 84 89 87 90 81 91 82 92 85 93 83 94 62 95
REMARK SMILES IDX 63 96 71 97 64 98 65 99 69 100 72 101 66 102 67 103 70 104
REMARK SMILES IDX 68 105
REMARK H PARENT 17 16 92 58 60 69
REMARK Flexibility Score: inf
ROOT
ATOM      1  C   UNL A   1      33.269  31.372  27.386  1.00  0.00     0.188 C 
ENDROOT
BRANCH   1   2
ATOM      2  O   UNL A   1      33.678  30.311  26.526  1.00  0.00    -0.376 OA
BRANCH   2   3
ATOM      3  C   UNL A   1      33.799  29.012  27.080  1.00  0.00     0.202 C 
BRANCH   3   4
ATOM      4  C   UNL A   1      32.491  28.357  27.529  1.00  0.00     0.261 C 
BRANCH   4   5
ATOM      5  O   UNL A   1      31.617  27.910  26.475  1.00  0.00    -0.460 OA
BRANCH   5   6
ATOM      6  C   UNL A   1      31.496  26.563  26.335  1.00  0.00     0.342 C 
ATOM      7  O   UNL A   1      31.652  25.747  27.260  1.00  0.00    -0.246 OA
BRANCH   6   8
ATOM      8  C   UNL A   1      31.237  26.141  24.980  1.00  0.00     0.111 A 
ATOM      9  C   UNL A   1      32.104  26.181  23.895  1.00  0.00     0.140 A 
ATOM     10  N   UNL A   1      31.331  25.941  22.793  1.00  0.00    -0.262 N 
ATOM     11  C   UNL A   1      30.028  25.660  24.427  1.00  0.00     0.151 A 
ATOM     12  N   UNL A   1      30.088  25.519  23.100  1.00  0.00    -0.180 NA
ATOM     13  C   UNL A   1      31.753  25.986  21.410  1.00  0.00     0.174 C 
BRANCH   9  14
ATOM     14  C   UNL A   1      33.504  26.475  23.829  1.00  0.00     0.274 C 
ATOM     15  N   UNL A   1      34.402  25.438  23.910  1.00  0.00    -0.317 N 
ATOM     16  H   UNL A   1      35.349  25.706  23.917  1.00  0.00     0.170 HD
ATOM     17  O   UNL A   1      33.931  27.621  23.706  1.00  0.00    -0.267 OA
BRANCH  15  18
ATOM     18  C   UNL A   1      34.179  24.074  23.986  1.00  0.00     0.085 A 
ATOM     19  C   UNL A   1      35.388  23.699  26.243  1.00  0.00     0.071 C 
ATOM     20  C   UNL A   1      34.596  23.263  25.062  1.00  0.00     0.083 A 
ATOM     21  N   UNL A   1      34.093  22.025  24.964  1.00  0.00    -0.175 NA
ATOM     22  N   UNL A   1      33.414  22.014  23.797  1.00  0.00    -0.263 N 
ATOM     23  C   UNL A   1      33.645  23.174  23.084  1.00  0.00     0.060 A 
ATOM     24  C   UNL A   1      33.432  23.217  21.626  1.00  0.00     0.069 C 
BRANCH  22  25
ATOM     25  C   UNL A   1      32.275  21.092  23.611  1.00  0.00     0.181 C 
BRANCH  25  26
ATOM     26  C   UNL A   1      32.499  19.637  23.965  1.00  0.00    -0.008 A 
ATOM     27  C   UNL A   1      32.505  19.270  25.320  1.00  0.00     0.009 A 
ATOM     28  C   UNL A   1      32.603  18.593  23.038  1.00  0.00     0.047 A 
ATOM     29  C   UNL A   1      32.765  17.963  25.745  1.00  0.00     0.021 A 
ATOM     30  C   UNL A   1      32.854  17.274  23.450  1.00  0.00     0.041 A 
ATOM     31  Cl  UNL A   1      32.281  18.820  21.360  1.00  0.00    -0.084 Cl
ATOM     32  C   UNL A   1      32.963  16.970  24.801  1.00  0.00     0.042 A 
ATOM     33  Cl  UNL A   1      33.285  15.358  25.300  1.00  0.00    -0.084 Cl
ENDBRANCH  25  26
ENDBRANCH  22  25
ENDBRANCH  15  18
ENDBRANCH   9  14
ENDBRANCH   6   8
ENDBRANCH   5   6
ENDBRANCH   4   5
ENDBRANCH   3   4
ENDBRANCH   2   3
ENDBRANCH   1   2
BRANCH   1  34
ATOM     34  C   UNL A   1      34.269  31.878  28.425  1.00  0.00     0.188 C 
BRANCH  34  35
ATOM     35  O   UNL A   1      35.542  32.163  27.838  1.00  0.00    -0.376 OA
BRANCH  35  36
ATOM     36  C   UNL A   1      36.337  33.046  28.637  1.00  0.00     0.202 C 
BRANCH  36  37
ATOM     37  C   UNL A   1      37.040  32.263  29.735  1.00  0.00     0.261 C 
BRANCH  37  38
ATOM     38  O   UNL A   1      37.275  30.953  29.227  1.00  0.00    -0.460 OA
BRANCH  38  39
ATOM     39  C   UNL A   1      38.276  30.239  29.730  1.00  0.00     0.338 C 
ATOM     40  O   UNL A   1      38.586  30.089  30.921  1.00  0.00    -0.246 OA
BRANCH  39  41
ATOM     41  C   UNL A   1      39.058  29.759  28.606  1.00  0.00     0.060 A 
ATOM     42  C   UNL A   1      38.774  28.532  27.990  1.00  0.00     0.016 A 
ATOM     43  C   UNL A   1      40.268  30.434  28.409  1.00  0.00     0.016 A 
ATOM     44  C   UNL A   1      39.808  27.869  27.358  1.00  0.00     0.010 A 
ATOM     45  C   UNL A   1      41.289  29.781  27.781  1.00  0.00     0.010 A 
ATOM     46  C   UNL A   1      41.083  28.437  27.465  1.00  0.00    -0.014 A 
BRANCH  46  47
ATOM     47  C   UNL A   1      42.139  27.547  27.939  1.00  0.00     0.031 A 
ATOM     48  C   UNL A   1      42.603  27.716  29.327  1.00  0.00     0.074 A 
ATOM     49  C   UNL A   1      42.423  26.448  27.199  1.00  0.00     0.049 A 
ATOM     50  N   UNL A   1      43.758  28.140  29.725  1.00  0.00    -0.248 NA
ATOM     51  C   UNL A   1      41.642  27.491  30.417  1.00  0.00     0.031 C 
ATOM     52  C   UNL A   1      41.747  25.961  25.986  1.00  0.00     0.029 A 
ATOM     53  N   UNL A   1      43.334  25.467  27.431  1.00  0.00    -0.354 N 
ATOM     54  C   UNL A   1      43.719  28.049  31.111  1.00  0.00     0.074 A 
ATOM     55  C   UNL A   1      42.337  27.909  31.474  1.00  0.00     0.031 C 
ATOM     56  C   UNL A   1      42.137  24.704  25.702  1.00  0.00     0.029 A 
ATOM     57  C   UNL A   1      43.177  24.341  26.634  1.00  0.00     0.049 A 
ATOM     58  H   UNL A   1      44.046  25.548  28.106  1.00  0.00     0.167 HD
ATOM     59  C   UNL A   1      44.835  27.780  31.840  1.00  0.00     0.037 A 
ATOM     60  C   UNL A   1      43.818  23.159  26.764  1.00  0.00     0.037 A 
ATOM     61  C   UNL A   1      46.031  27.969  31.059  1.00  0.00     0.049 A 
ATOM     62  C   UNL A   1      45.017  23.406  27.602  1.00  0.00     0.074 A 
ATOM     63  C   UNL A   1      46.578  29.037  30.374  1.00  0.00     0.029 A 
ATOM     64  N   UNL A   1      46.670  26.852  30.580  1.00  0.00    -0.354 N 
ATOM     65  N   UNL A   1      46.034  24.129  27.217  1.00  0.00    -0.248 NA
ATOM     66  C   UNL A   1      44.878  23.246  29.042  1.00  0.00     0.031 C 
ATOM     67  C   UNL A   1      47.176  28.470  29.210  1.00  0.00     0.029 A 
ATOM     68  C   UNL A   1      46.999  27.086  29.267  1.00  0.00     0.049 A 
ATOM     69  H   UNL A   1      46.860  26.029  31.087  1.00  0.00     0.167 HD
ATOM     70  C   UNL A   1      46.417  24.841  28.348  1.00  0.00     0.074 A 
ATOM     71  C   UNL A   1      45.739  24.179  29.459  1.00  0.00     0.031 C 
ATOM     72  C   UNL A   1      47.006  26.068  28.240  1.00  0.00     0.037 A 
BRANCH  59  73
ATOM     73  C   UNL A   1      44.824  27.016  33.141  1.00  0.00     0.064 A 
ATOM     74  C   UNL A   1      44.393  25.678  33.143  1.00  0.00     0.173 A 
ATOM     75  C   UNL A   1      44.983  27.603  34.418  1.00  0.00     0.173 A 
ATOM     76  F   UNL A   1      44.173  25.032  31.989  1.00  0.00    -0.203 F 
ATOM     77  C   UNL A   1      44.101  24.998  34.330  1.00  0.00     0.198 A 
ATOM     78  C   UNL A   1      44.759  26.901  35.600  1.00  0.00     0.198 A 
ATOM     79  F   UNL A   1      45.252  28.904  34.581  1.00  0.00    -0.203 F 
ATOM     80  F   UNL A   1      43.582  23.765  34.277  1.00  0.00    -0.200 F 
ATOM     81  C   UNL A   1      44.288  25.608  35.556  1.00  0.00     0.200 A 
ATOM     82  F   UNL A   1      44.931  27.520  36.776  1.00  0.00    -0.200 F 
ATOM     83  F   UNL A   1      43.967  24.975  36.691  1.00  0.00    -0.200 F 
ENDBRANCH  59  73
BRANCH  60  84
ATOM     84  C   UNL A   1      43.267  21.822  26.450  1.00  0.00     0.064 A 
ATOM     85  C   UNL A   1      43.886  20.974  25.525  1.00  0.00     0.173 A 
ATOM     86  C   UNL A   1      42.225  21.258  27.220  1.00  0.00     0.173 A 
ATOM     87  F   UNL A   1      44.913  21.419  24.788  1.00  0.00    -0.203 F 
ATOM     88  C   UNL A   1      43.492  19.639  25.381  1.00  0.00     0.198 A 
ATOM     89  C   UNL A   1      41.822  19.932  27.064  1.00  0.00     0.198 A 
ATOM     90  F   UNL A   1      41.630  21.958  28.196  1.00  0.00    -0.203 F 
ATOM     91  F   UNL A   1      44.141  18.840  24.521  1.00  0.00    -0.200 F 
ATOM     92  C   UNL A   1      42.465  19.118  26.153  1.00  0.00     0.200 A 
ATOM     93  F   UNL A   1      40.848  19.438  27.841  1.00  0.00    -0.200 F 
ATOM     94  F   UNL A   1      42.121  17.827  26.048  1.00  0.00    -0.200 F 
ENDBRANCH  60  84
BRANCH  72  95
ATOM     95  C   UNL A   1      47.465  26.494  26.872  1.00  0.00     0.064 A 
ATOM     96  C   UNL A   1      48.699  26.115  26.316  1.00  0.00     0.173 A 
ATOM     97  C   UNL A   1      46.574  27.186  26.043  1.00  0.00     0.173 A 
ATOM     98  F   UNL A   1      49.558  25.357  27.008  1.00  0.00    -0.203 F 
ATOM     99  C   UNL A   1      49.046  26.458  25.010  1.00  0.00     0.198 A 
ATOM    100  C   UNL A   1      46.908  27.498  24.726  1.00  0.00     0.198 A 
ATOM    101  F   UNL A   1      45.355  27.517  26.496  1.00  0.00    -0.203 F 
ATOM    102  F   UNL A   1      50.235  26.090  24.511  1.00  0.00    -0.200 F 
ATOM    103  C   UNL A   1      48.147  27.145  24.215  1.00  0.00     0.200 A 
ATOM    104  F   UNL A   1      46.015  28.118  23.942  1.00  0.00    -0.200 F 
ATOM    105  F   UNL A   1      48.461  27.441  22.946  1.00  0.00    -0.200 F 
ENDBRANCH  72  95
ENDBRANCH  46  47
ENDBRANCH  39  41
ENDBRANCH  38  39
ENDBRANCH  37  38
ENDBRANCH  36  37
ENDBRANCH  35  36
ENDBRANCH  34  35
ENDBRANCH   1  34
TORSDOF 21
ENDMDL
