MODEL 1
REMARK VINA RESULT:     -10.8      0.000      0.000
REMARK SMILES C[C@@H](C(=O)OCCOCCOCCOC(=O)c1ccc(-c2c3nc(c(-c4c(F)c(F)c(F)c(F)c4F)c4ccc([nH]4)c(-c4c(F)c(F)c(F)c(F)c4F)c4nc(c(-c5c(F)c(F)c(F)c(F)c5F)c5ccc2[nH]5)C=C4)C=C3)cc1)c1ccc(C[C@@H]2CCC[C@@H]2O)cc1F
REMARK SMILES IDX 9 1 8 2 7 3 6 4 5 5 3 6 4 7 2 8 1 9 80 10 81 11 92 12 82 13
REMARK SMILES IDX 91 14 93 15 83 16 84 17 85 18 86 19 89 20 87 21 88 22 90 23
REMARK SMILES IDX 10 25 11 26 12 27 13 28 14 29 15 30 16 31 17 32 18 33 79 34
REMARK SMILES IDX 19 35 78 36 20 37 21 38 22 39 72 40 23 41 77 42 71 43 73 44
REMARK SMILES IDX 24 45 76 46 70 47 69 48 25 50 57 51 37 52 56 53 38 54 41 55
REMARK SMILES IDX 55 56 74 57 39 58 40 59 54 61 75 62 42 63 26 64 27 65 35 66
REMARK SMILES IDX 28 67 29 68 33 69 36 70 30 71 31 72 34 73 32 74 58 75 59 76
REMARK SMILES IDX 67 77 60 78 61 79 65 80 68 81 62 82 63 83 66 84 64 85 43 86
REMARK SMILES IDX 44 87 52 88 45 89 46 90 50 91 53 92 47 93 48 94 51 95 49 96
REMARK H PARENT 90 24 73 49 41 60
REMARK Flexibility Score: inf
ROOT
ATOM      1  C   UNL A   1      35.954  22.748  24.464  1.00  0.00     0.188 C 
ENDROOT
BRANCH   1   2
ATOM      2  O   UNL A   1      34.807  23.408  24.986  1.00  0.00    -0.376 OA
BRANCH   2   3
ATOM      3  C   UNL A   1      34.534  24.740  24.548  1.00  0.00     0.202 C 
BRANCH   3   4
ATOM      4  C   UNL A   1      34.141  25.809  25.588  1.00  0.00     0.261 C 
BRANCH   4   5
ATOM      5  O   UNL A   1      32.814  25.645  26.133  1.00  0.00    -0.463 OA
BRANCH   5   6
ATOM      6  C   UNL A   1      31.786  26.186  25.427  1.00  0.00     0.313 C 
ATOM      7  O   UNL A   1      31.817  27.308  24.932  1.00  0.00    -0.252 OA
BRANCH   6   8
ATOM      8  C   UNL A   1      30.610  25.217  25.204  1.00  0.00     0.129 C 
ATOM      9  C   UNL A   1      29.535  25.315  26.299  1.00  0.00     0.025 C 
BRANCH   8  10
ATOM     10  C   UNL A   1      31.026  23.803  24.768  1.00  0.00     0.002 A 
ATOM     11  C   UNL A   1      31.224  22.782  25.716  1.00  0.00     0.008 A 
ATOM     12  C   UNL A   1      31.379  23.498  23.445  1.00  0.00     0.127 A 
ATOM     13  C   UNL A   1      31.791  21.550  25.368  1.00  0.00     0.004 A 
ATOM     14  C   UNL A   1      31.977  22.282  23.098  1.00  0.00     0.043 A 
ATOM     15  F   UNL A   1      31.209  24.399  22.468  1.00  0.00    -0.207 F 
ATOM     16  C   UNL A   1      32.247  21.316  24.071  1.00  0.00    -0.045 A 
BRANCH  16  17
ATOM     17  C   UNL A   1      33.086  20.104  23.742  1.00  0.00     0.041 C 
BRANCH  17  18
ATOM     18  C   UNL A   1      32.538  18.710  24.141  1.00  0.00     0.022 C 
ATOM     19  C   UNL A   1      33.302  17.999  25.267  1.00  0.00     0.007 C 
ATOM     20  C   UNL A   1      32.496  17.643  23.044  1.00  0.00     0.117 C 
ATOM     21  C   UNL A   1      34.232  16.985  24.594  1.00  0.00     0.003 C 
ATOM     22  C   UNL A   1      33.854  16.957  23.116  1.00  0.00     0.032 C 
BRANCH  20  23
ATOM     23  O   UNL A   1      32.222  18.178  21.767  1.00  0.00    -0.393 OA
ATOM     24  H   UNL A   1      32.958  17.978  21.168  1.00  0.00     0.210 HD
ENDBRANCH  20  23
ENDBRANCH  17  18
ENDBRANCH  16  17
ENDBRANCH   8  10
ENDBRANCH   6   8
ENDBRANCH   5   6
ENDBRANCH   4   5
ENDBRANCH   3   4
ENDBRANCH   2   3
ENDBRANCH   1   2
BRANCH   1  25
ATOM     25  C   UNL A   1      36.743  21.801  25.382  1.00  0.00     0.188 C 
BRANCH  25  26
ATOM     26  O   UNL A   1      36.698  20.447  25.003  1.00  0.00    -0.376 OA
BRANCH  26  27
ATOM     27  C   UNL A   1      37.902  19.775  24.682  1.00  0.00     0.202 C 
BRANCH  27  28
ATOM     28  C   UNL A   1      38.968  19.455  25.750  1.00  0.00     0.261 C 
BRANCH  28  29
ATOM     29  O   UNL A   1      40.117  20.312  25.826  1.00  0.00    -0.460 OA
BRANCH  29  30
ATOM     30  C   UNL A   1      40.773  20.370  27.007  1.00  0.00     0.338 C 
ATOM     31  O   UNL A   1      41.266  19.435  27.624  1.00  0.00    -0.246 OA
BRANCH  30  32
ATOM     32  C   UNL A   1      41.005  21.799  27.318  1.00  0.00     0.060 A 
ATOM     33  C   UNL A   1      40.313  22.780  26.590  1.00  0.00     0.016 A 
ATOM     34  C   UNL A   1      41.878  22.167  28.343  1.00  0.00     0.016 A 
ATOM     35  C   UNL A   1      40.508  24.132  26.875  1.00  0.00     0.010 A 
ATOM     36  C   UNL A   1      42.096  23.523  28.605  1.00  0.00     0.010 A 
ATOM     37  C   UNL A   1      41.433  24.512  27.856  1.00  0.00    -0.014 A 
BRANCH  37  38
ATOM     38  C   UNL A   1      41.855  25.930  27.968  1.00  0.00     0.031 A 
ATOM     39  C   UNL A   1      43.180  26.327  27.377  1.00  0.00     0.074 A 
ATOM     40  C   UNL A   1      41.090  26.849  28.583  1.00  0.00     0.049 A 
ATOM     41  N   UNL A   1      43.800  27.478  27.417  1.00  0.00    -0.248 NA
ATOM     42  C   UNL A   1      43.909  25.273  26.655  1.00  0.00     0.031 C 
ATOM     43  C   UNL A   1      39.779  26.597  29.171  1.00  0.00     0.029 A 
ATOM     44  N   UNL A   1      41.315  28.184  28.816  1.00  0.00    -0.354 N 
ATOM     45  C   UNL A   1      45.002  27.280  26.751  1.00  0.00     0.074 A 
ATOM     46  C   UNL A   1      45.032  25.896  26.330  1.00  0.00     0.031 C 
ATOM     47  C   UNL A   1      39.311  27.743  29.696  1.00  0.00     0.029 A 
ATOM     48  C   UNL A   1      40.304  28.801  29.510  1.00  0.00     0.049 A 
ATOM     49  H   UNL A   1      42.126  28.654  28.513  1.00  0.00     0.167 HD
ATOM     50  C   UNL A   1      45.994  28.171  26.514  1.00  0.00     0.037 A 
ATOM     51  C   UNL A   1      40.203  30.070  29.954  1.00  0.00     0.037 A 
ATOM     52  C   UNL A   1      45.961  29.548  26.932  1.00  0.00     0.049 A 
ATOM     53  C   UNL A   1      41.344  31.031  29.717  1.00  0.00     0.074 A 
ATOM     54  C   UNL A   1      46.910  30.533  26.723  1.00  0.00     0.029 A 
ATOM     55  N   UNL A   1      44.929  30.132  27.649  1.00  0.00    -0.354 N 
ATOM     56  N   UNL A   1      42.469  30.844  29.070  1.00  0.00    -0.248 NA
ATOM     57  C   UNL A   1      41.205  32.380  30.290  1.00  0.00     0.031 C 
ATOM     58  C   UNL A   1      46.482  31.696  27.371  1.00  0.00     0.029 A 
ATOM     59  C   UNL A   1      45.232  31.457  27.920  1.00  0.00     0.049 A 
ATOM     60  H   UNL A   1      44.102  29.674  27.925  1.00  0.00     0.167 HD
ATOM     61  C   UNL A   1      43.156  32.051  29.135  1.00  0.00     0.074 A 
ATOM     62  C   UNL A   1      42.312  32.972  29.866  1.00  0.00     0.031 C 
ATOM     63  C   UNL A   1      44.378  32.368  28.638  1.00  0.00     0.037 A 
BRANCH  50  64
ATOM     64  C   UNL A   1      47.223  27.670  25.810  1.00  0.00     0.064 A 
ATOM     65  C   UNL A   1      47.356  27.730  24.415  1.00  0.00     0.173 A 
ATOM     66  C   UNL A   1      48.296  27.150  26.550  1.00  0.00     0.173 A 
ATOM     67  F   UNL A   1      46.353  28.204  23.659  1.00  0.00    -0.203 F 
ATOM     68  C   UNL A   1      48.508  27.264  23.786  1.00  0.00     0.198 A 
ATOM     69  C   UNL A   1      49.458  26.717  25.921  1.00  0.00     0.198 A 
ATOM     70  F   UNL A   1      48.221  27.073  27.887  1.00  0.00    -0.203 F 
ATOM     71  F   UNL A   1      48.593  27.283  22.449  1.00  0.00    -0.200 F 
ATOM     72  C   UNL A   1      49.560  26.766  24.540  1.00  0.00     0.200 A 
ATOM     73  F   UNL A   1      50.480  26.251  26.652  1.00  0.00    -0.200 F 
ATOM     74  F   UNL A   1      50.672  26.326  23.933  1.00  0.00    -0.200 F 
ENDBRANCH  50  64
BRANCH  51  75
ATOM     75  C   UNL A   1      38.984  30.517  30.684  1.00  0.00     0.064 A 
ATOM     76  C   UNL A   1      38.900  30.409  32.080  1.00  0.00     0.173 A 
ATOM     77  C   UNL A   1      37.866  31.020  30.004  1.00  0.00     0.173 A 
ATOM     78  F   UNL A   1      39.931  29.909  32.778  1.00  0.00    -0.203 F 
ATOM     79  C   UNL A   1      37.738  30.764  32.763  1.00  0.00     0.198 A 
ATOM     80  C   UNL A   1      36.718  31.410  30.692  1.00  0.00     0.198 A 
ATOM     81  F   UNL A   1      37.889  31.140  28.668  1.00  0.00    -0.203 F 
ATOM     82  F   UNL A   1      37.664  30.593  34.090  1.00  0.00    -0.200 F 
ATOM     83  C   UNL A   1      36.650  31.270  32.069  1.00  0.00     0.200 A 
ATOM     84  F   UNL A   1      35.674  31.913  30.017  1.00  0.00    -0.200 F 
ATOM     85  F   UNL A   1      35.533  31.612  32.725  1.00  0.00    -0.200 F 
ENDBRANCH  51  75
BRANCH  63  86
ATOM     86  C   UNL A   1      44.864  33.778  28.827  1.00  0.00     0.064 A 
ATOM     87  C   UNL A   1      45.663  34.149  29.920  1.00  0.00     0.173 A 
ATOM     88  C   UNL A   1      44.565  34.764  27.873  1.00  0.00     0.173 A 
ATOM     89  F   UNL A   1      45.970  33.251  30.867  1.00  0.00    -0.203 F 
ATOM     90  C   UNL A   1      46.119  35.458  30.065  1.00  0.00     0.198 A 
ATOM     91  C   UNL A   1      45.052  36.062  28.002  1.00  0.00     0.198 A 
ATOM     92  F   UNL A   1      43.814  34.464  26.802  1.00  0.00    -0.203 F 
ATOM     93  F   UNL A   1      46.836  35.800  31.144  1.00  0.00    -0.200 F 
ATOM     94  C   UNL A   1      45.820  36.411  29.102  1.00  0.00     0.200 A 
ATOM     95  F   UNL A   1      44.778  36.977  27.061  1.00  0.00    -0.200 F 
ATOM     96  F   UNL A   1      46.267  37.667  29.238  1.00  0.00    -0.200 F 
ENDBRANCH  63  86
ENDBRANCH  37  38
ENDBRANCH  30  32
ENDBRANCH  29  30
ENDBRANCH  28  29
ENDBRANCH  27  28
ENDBRANCH  26  27
ENDBRANCH  25  26
ENDBRANCH   1  25
TORSDOF 21
ENDMDL
MODEL 2
REMARK VINA RESULT:     -10.6      1.538      3.749
REMARK SMILES C[C@@H](C(=O)OCCOCCOCCOC(=O)c1ccc(-c2c3nc(c(-c4c(F)c(F)c(F)c(F)c4F)c4ccc([nH]4)c(-c4c(F)c(F)c(F)c(F)c4F)c4nc(c(-c5c(F)c(F)c(F)c(F)c5F)c5ccc2[nH]5)C=C4)C=C3)cc1)c1ccc(C[C@@H]2CCC[C@@H]2O)cc1F
REMARK SMILES IDX 9 1 8 2 7 3 6 4 5 5 3 6 4 7 2 8 1 9 80 10 81 11 92 12 82 13
REMARK SMILES IDX 91 14 93 15 83 16 84 17 85 18 86 19 89 20 87 21 88 22 90 23
REMARK SMILES IDX 10 25 11 26 12 27 13 28 14 29 15 30 16 31 17 32 18 33 79 34
REMARK SMILES IDX 19 35 78 36 20 37 21 38 22 39 72 40 23 41 77 42 71 43 73 44
REMARK SMILES IDX 24 45 76 46 70 47 69 48 25 50 57 51 37 52 56 53 38 54 41 55
REMARK SMILES IDX 55 56 74 57 39 58 40 59 54 61 75 62 42 63 26 64 27 65 35 66
REMARK SMILES IDX 28 67 29 68 33 69 36 70 30 71 31 72 34 73 32 74 58 75 59 76
REMARK SMILES IDX 67 77 60 78 61 79 65 80 68 81 62 82 63 83 66 84 64 85 43 86
REMARK SMILES IDX 44 87 52 88 45 89 46 90 50 91 53 92 47 93 48 94 51 95 49 96
REMARK H PARENT 90 24 73 49 41 60
REMARK Flexibility Score: inf
ROOT
ATOM      1  C   UNL A   1      35.761  22.281  25.571  1.00  0.00     0.188 C 
ENDROOT
BRANCH   1   2
ATOM      2  O   UNL A   1      34.873  21.417  26.269  1.00  0.00    -0.376 OA
BRANCH   2   3
ATOM      3  C   UNL A   1      34.402  21.825  27.554  1.00  0.00     0.202 C 
BRANCH   3   4
ATOM      4  C   UNL A   1      32.961  22.357  27.694  1.00  0.00     0.261 C 
BRANCH   4   5
ATOM      5  O   UNL A   1      32.161  22.220  26.500  1.00  0.00    -0.463 OA
BRANCH   5   6
ATOM      6  C   UNL A   1      31.237  23.188  26.262  1.00  0.00     0.313 C 
ATOM      7  O   UNL A   1      30.614  23.766  27.148  1.00  0.00    -0.252 OA
BRANCH   6   8
ATOM      8  C   UNL A   1      31.118  23.580  24.778  1.00  0.00     0.129 C 
ATOM      9  C   UNL A   1      31.411  22.411  23.823  1.00  0.00     0.025 C 
BRANCH   8  10
ATOM     10  C   UNL A   1      31.751  24.936  24.427  1.00  0.00     0.002 A 
ATOM     11  C   UNL A   1      33.104  25.198  24.708  1.00  0.00     0.008 A 
ATOM     12  C   UNL A   1      30.992  26.021  23.964  1.00  0.00     0.127 A 
ATOM     13  C   UNL A   1      33.651  26.481  24.583  1.00  0.00     0.004 A 
ATOM     14  C   UNL A   1      31.524  27.312  23.869  1.00  0.00     0.043 A 
ATOM     15  F   UNL A   1      29.698  25.867  23.651  1.00  0.00    -0.207 F 
ATOM     16  C   UNL A   1      32.848  27.567  24.238  1.00  0.00    -0.045 A 
BRANCH  16  17
ATOM     17  C   UNL A   1      33.357  28.985  24.348  1.00  0.00     0.041 C 
BRANCH  17  18
ATOM     18  C   UNL A   1      33.471  29.610  25.761  1.00  0.00     0.022 C 
ATOM     19  C   UNL A   1      33.927  28.652  26.871  1.00  0.00     0.007 C 
ATOM     20  C   UNL A   1      32.198  30.221  26.353  1.00  0.00     0.117 C 
ATOM     21  C   UNL A   1      32.664  28.212  27.617  1.00  0.00     0.003 C 
ATOM     22  C   UNL A   1      31.520  29.071  27.087  1.00  0.00     0.032 C 
BRANCH  20  23
ATOM     23  O   UNL A   1      31.367  30.812  25.377  1.00  0.00    -0.393 OA
ATOM     24  H   UNL A   1      30.871  30.119  24.912  1.00  0.00     0.210 HD
ENDBRANCH  20  23
ENDBRANCH  17  18
ENDBRANCH  16  17
ENDBRANCH   8  10
ENDBRANCH   6   8
ENDBRANCH   5   6
ENDBRANCH   4   5
ENDBRANCH   3   4
ENDBRANCH   2   3
ENDBRANCH   1   2
BRANCH   1  25
ATOM     25  C   UNL A   1      37.270  21.989  25.621  1.00  0.00     0.188 C 
BRANCH  25  26
ATOM     26  O   UNL A   1      37.724  21.088  24.641  1.00  0.00    -0.376 OA
BRANCH  26  27
ATOM     27  C   UNL A   1      37.980  19.743  25.001  1.00  0.00     0.202 C 
BRANCH  27  28
ATOM     28  C   UNL A   1      39.265  19.326  25.745  1.00  0.00     0.261 C 
BRANCH  28  29
ATOM     29  O   UNL A   1      40.325  20.291  25.840  1.00  0.00    -0.460 OA
BRANCH  29  30
ATOM     30  C   UNL A   1      40.988  20.371  27.015  1.00  0.00     0.338 C 
ATOM     31  O   UNL A   1      41.501  19.451  27.638  1.00  0.00    -0.246 OA
BRANCH  30  32
ATOM     32  C   UNL A   1      41.199  21.807  27.310  1.00  0.00     0.060 A 
ATOM     33  C   UNL A   1      40.569  22.771  26.508  1.00  0.00     0.016 A 
ATOM     34  C   UNL A   1      41.992  22.199  28.390  1.00  0.00     0.016 A 
ATOM     35  C   UNL A   1      40.745  24.129  26.776  1.00  0.00     0.010 A 
ATOM     36  C   UNL A   1      42.193  23.560  28.636  1.00  0.00     0.010 A 
ATOM     37  C   UNL A   1      41.592  24.532  27.815  1.00  0.00    -0.014 A 
BRANCH  37  38
ATOM     38  C   UNL A   1      42.009  25.952  27.926  1.00  0.00     0.031 A 
ATOM     39  C   UNL A   1      43.322  26.357  27.316  1.00  0.00     0.074 A 
ATOM     40  C   UNL A   1      41.248  26.864  28.557  1.00  0.00     0.049 A 
ATOM     41  N   UNL A   1      43.937  27.512  27.351  1.00  0.00    -0.248 NA
ATOM     42  C   UNL A   1      44.045  25.311  26.579  1.00  0.00     0.031 C 
ATOM     43  C   UNL A   1      39.947  26.603  29.164  1.00  0.00     0.029 A 
ATOM     44  N   UNL A   1      41.470  28.199  28.791  1.00  0.00    -0.354 N 
ATOM     45  C   UNL A   1      45.129  27.323  26.666  1.00  0.00     0.074 A 
ATOM     46  C   UNL A   1      45.160  25.941  26.239  1.00  0.00     0.031 C 
ATOM     47  C   UNL A   1      39.482  27.744  29.700  1.00  0.00     0.029 A 
ATOM     48  C   UNL A   1      40.466  28.809  29.503  1.00  0.00     0.049 A 
ATOM     49  H   UNL A   1      42.274  28.674  28.478  1.00  0.00     0.167 HD
ATOM     50  C   UNL A   1      46.112  28.220  26.418  1.00  0.00     0.037 A 
ATOM     51  C   UNL A   1      40.366  30.075  29.953  1.00  0.00     0.037 A 
ATOM     52  C   UNL A   1      46.079  29.596  26.840  1.00  0.00     0.049 A 
ATOM     53  C   UNL A   1      41.497  31.043  29.703  1.00  0.00     0.074 A 
ATOM     54  C   UNL A   1      47.019  30.586  26.621  1.00  0.00     0.029 A 
ATOM     55  N   UNL A   1      45.054  30.172  27.576  1.00  0.00    -0.354 N 
ATOM     56  N   UNL A   1      42.613  30.865  29.038  1.00  0.00    -0.248 NA
ATOM     57  C   UNL A   1      41.359  32.389  30.283  1.00  0.00     0.031 C 
ATOM     58  C   UNL A   1      46.595  31.745  27.280  1.00  0.00     0.029 A 
ATOM     59  C   UNL A   1      45.354  31.497  27.847  1.00  0.00     0.049 A 
ATOM     60  H   UNL A   1      44.235  29.708  27.863  1.00  0.00     0.167 HD
ATOM     61  C   UNL A   1      43.294  32.075  29.097  1.00  0.00     0.074 A 
ATOM     62  C   UNL A   1      42.456  32.989  29.844  1.00  0.00     0.031 C 
ATOM     63  C   UNL A   1      44.507  32.401  28.582  1.00  0.00     0.037 A 
BRANCH  50  64
ATOM     64  C   UNL A   1      47.333  27.729  25.693  1.00  0.00     0.064 A 
ATOM     65  C   UNL A   1      47.431  27.765  24.293  1.00  0.00     0.173 A 
ATOM     66  C   UNL A   1      48.433  27.243  26.415  1.00  0.00     0.173 A 
ATOM     67  F   UNL A   1      46.401  28.205  23.554  1.00  0.00    -0.203 F 
ATOM     68  C   UNL A   1      48.575  27.308  23.645  1.00  0.00     0.198 A 
ATOM     69  C   UNL A   1      49.588  26.820  25.765  1.00  0.00     0.198 A 
ATOM     70  F   UNL A   1      48.393  27.191  27.755  1.00  0.00    -0.203 F 
ATOM     71  F   UNL A   1      48.627  27.302  22.306  1.00  0.00    -0.200 F 
ATOM     72  C   UNL A   1      49.655  26.844  24.381  1.00  0.00     0.200 A 
ATOM     73  F   UNL A   1      50.636  26.387  26.479  1.00  0.00    -0.200 F 
ATOM     74  F   UNL A   1      50.760  26.414  23.755  1.00  0.00    -0.200 F 
ENDBRANCH  50  64
BRANCH  51  75
ATOM     75  C   UNL A   1      39.155  30.512  30.704  1.00  0.00     0.064 A 
ATOM     76  C   UNL A   1      39.060  30.323  32.091  1.00  0.00     0.173 A 
ATOM     77  C   UNL A   1      38.056  31.089  30.051  1.00  0.00     0.173 A 
ATOM     78  F   UNL A   1      40.071  29.752  32.761  1.00  0.00    -0.203 F 
ATOM     79  C   UNL A   1      37.904  30.669  32.789  1.00  0.00     0.198 A 
ATOM     80  C   UNL A   1      36.916  31.469  30.756  1.00  0.00     0.198 A 
ATOM     81  F   UNL A   1      38.091  31.289  28.725  1.00  0.00    -0.203 F 
ATOM     82  F   UNL A   1      37.817  30.421  34.103  1.00  0.00    -0.200 F 
ATOM     83  C   UNL A   1      36.835  31.248  32.122  1.00  0.00     0.200 A 
ATOM     84  F   UNL A   1      35.892  32.043  30.109  1.00  0.00    -0.200 F 
ATOM     85  F   UNL A   1      35.725  31.583  32.793  1.00  0.00    -0.200 F 
ENDBRANCH  51  75
BRANCH  63  86
ATOM     86  C   UNL A   1      44.988  33.813  28.769  1.00  0.00     0.064 A 
ATOM     87  C   UNL A   1      44.661  34.836  27.865  1.00  0.00     0.173 A 
ATOM     88  C   UNL A   1      45.750  34.158  29.898  1.00  0.00     0.173 A 
ATOM     89  F   UNL A   1      43.946  34.560  26.765  1.00  0.00    -0.203 F 
ATOM     90  C   UNL A   1      45.102  36.141  28.069  1.00  0.00     0.198 A 
ATOM     91  C   UNL A   1      46.158  35.470  30.117  1.00  0.00     0.198 A 
ATOM     92  F   UNL A   1      46.083  33.223  30.801  1.00  0.00    -0.203 F 
ATOM     93  F   UNL A   1      44.821  37.090  27.165  1.00  0.00    -0.200 F 
ATOM     94  C   UNL A   1      45.843  36.459  29.198  1.00  0.00     0.200 A 
ATOM     95  F   UNL A   1      46.858  35.779  31.218  1.00  0.00    -0.200 F 
ATOM     96  F   UNL A   1      46.257  37.718  29.397  1.00  0.00    -0.200 F 
ENDBRANCH  63  86
ENDBRANCH  37  38
ENDBRANCH  30  32
ENDBRANCH  29  30
ENDBRANCH  28  29
ENDBRANCH  27  28
ENDBRANCH  26  27
ENDBRANCH  25  26
ENDBRANCH   1  25
TORSDOF 21
ENDMDL
MODEL 3
REMARK VINA RESULT:     -10.6      5.507     10.980
REMARK SMILES C[C@@H](C(=O)OCCOCCOCCOC(=O)c1ccc(-c2c3nc(c(-c4c(F)c(F)c(F)c(F)c4F)c4ccc([nH]4)c(-c4c(F)c(F)c(F)c(F)c4F)c4nc(c(-c5c(F)c(F)c(F)c(F)c5F)c5ccc2[nH]5)C=C4)C=C3)cc1)c1ccc(C[C@@H]2CCC[C@@H]2O)cc1F
REMARK SMILES IDX 9 1 8 2 7 3 6 4 5 5 3 6 4 7 2 8 1 9 80 10 81 11 92 12 82 13
REMARK SMILES IDX 91 14 93 15 83 16 84 17 85 18 86 19 89 20 87 21 88 22 90 23
REMARK SMILES IDX 10 25 11 26 12 27 13 28 14 29 15 30 16 31 17 32 18 33 79 34
REMARK SMILES IDX 19 35 78 36 20 37 21 38 22 39 72 40 23 41 77 42 71 43 73 44
REMARK SMILES IDX 24 45 76 46 70 47 69 48 25 50 57 51 37 52 56 53 38 54 41 55
REMARK SMILES IDX 55 56 74 57 39 58 40 59 54 61 75 62 42 63 26 64 27 65 35 66
REMARK SMILES IDX 28 67 29 68 33 69 36 70 30 71 31 72 34 73 32 74 58 75 59 76
REMARK SMILES IDX 67 77 60 78 61 79 65 80 68 81 62 82 63 83 66 84 64 85 43 86
REMARK SMILES IDX 44 87 52 88 45 89 46 90 50 91 53 92 47 93 48 94 51 95 49 96
REMARK H PARENT 90 24 73 49 41 60
REMARK Flexibility Score: inf
ROOT
ATOM      1  C   UNL A   1      35.368  32.381  28.534  1.00  0.00     0.188 C 
ENDROOT
BRANCH   1   2
ATOM      2  O   UNL A   1      34.555  32.033  27.420  1.00  0.00    -0.376 OA
BRANCH   2   3
ATOM      3  C   UNL A   1      33.514  31.075  27.614  1.00  0.00     0.202 C 
BRANCH   3   4
ATOM      4  C   UNL A   1      33.080  30.186  26.431  1.00  0.00     0.261 C 
BRANCH   4   5
ATOM      5  O   UNL A   1      31.758  29.622  26.568  1.00  0.00    -0.463 OA
BRANCH   5   6
ATOM      6  C   UNL A   1      31.680  28.298  26.864  1.00  0.00     0.313 C 
ATOM      7  O   UNL A   1      31.361  27.865  27.968  1.00  0.00    -0.252 OA
BRANCH   6   8
ATOM      8  C   UNL A   1      31.919  27.376  25.654  1.00  0.00     0.129 C 
ATOM      9  C   UNL A   1      31.151  27.823  24.398  1.00  0.00     0.025 C 
BRANCH   8  10
ATOM     10  C   UNL A   1      31.891  25.875  25.984  1.00  0.00     0.002 A 
ATOM     11  C   UNL A   1      33.081  25.130  26.069  1.00  0.00     0.008 A 
ATOM     12  C   UNL A   1      30.696  25.145  26.058  1.00  0.00     0.127 A 
ATOM     13  C   UNL A   1      33.074  23.734  26.170  1.00  0.00     0.004 A 
ATOM     14  C   UNL A   1      30.682  23.747  26.124  1.00  0.00     0.043 A 
ATOM     15  F   UNL A   1      29.510  25.767  26.005  1.00  0.00    -0.207 F 
ATOM     16  C   UNL A   1      31.877  23.021  26.118  1.00  0.00    -0.045 A 
BRANCH  16  17
ATOM     17  C   UNL A   1      31.864  21.518  25.967  1.00  0.00     0.041 C 
BRANCH  17  18
ATOM     18  C   UNL A   1      33.016  20.858  25.168  1.00  0.00     0.022 C 
ATOM     19  C   UNL A   1      32.920  20.989  23.641  1.00  0.00     0.007 C 
ATOM     20  C   UNL A   1      33.216  19.352  25.359  1.00  0.00     0.117 C 
ATOM     21  C   UNL A   1      32.351  19.666  23.122  1.00  0.00     0.003 C 
ATOM     22  C   UNL A   1      32.324  18.705  24.307  1.00  0.00     0.032 C 
BRANCH  20  23
ATOM     23  O   UNL A   1      32.917  18.920  26.668  1.00  0.00    -0.393 OA
ATOM     24  H   UNL A   1      32.776  19.691  27.240  1.00  0.00     0.210 HD
ENDBRANCH  20  23
ENDBRANCH  17  18
ENDBRANCH  16  17
ENDBRANCH   8  10
ENDBRANCH   6   8
ENDBRANCH   5   6
ENDBRANCH   4   5
ENDBRANCH   3   4
ENDBRANCH   2   3
ENDBRANCH   1   2
BRANCH   1  25
ATOM     25  C   UNL A   1      35.589  33.869  28.852  1.00  0.00     0.188 C 
BRANCH  25  26
ATOM     26  O   UNL A   1      34.793  34.752  28.100  1.00  0.00    -0.376 OA
BRANCH  26  27
ATOM     27  C   UNL A   1      33.436  34.936  28.456  1.00  0.00     0.202 C 
BRANCH  27  28
ATOM     28  C   UNL A   1      33.017  35.804  29.660  1.00  0.00     0.261 C 
BRANCH  28  29
ATOM     29  O   UNL A   1      32.513  35.134  30.826  1.00  0.00    -0.460 OA
BRANCH  29  30
ATOM     30  C   UNL A   1      32.800  35.679  32.029  1.00  0.00     0.338 C 
ATOM     31  O   UNL A   1      32.107  36.457  32.671  1.00  0.00    -0.246 OA
BRANCH  30  32
ATOM     32  C   UNL A   1      33.998  34.989  32.557  1.00  0.00     0.060 A 
ATOM     33  C   UNL A   1      35.258  35.591  32.407  1.00  0.00     0.016 A 
ATOM     34  C   UNL A   1      33.877  33.767  33.221  1.00  0.00     0.016 A 
ATOM     35  C   UNL A   1      36.399  34.964  32.908  1.00  0.00     0.010 A 
ATOM     36  C   UNL A   1      35.026  33.125  33.693  1.00  0.00     0.010 A 
ATOM     37  C   UNL A   1      36.294  33.706  33.516  1.00  0.00    -0.014 A 
BRANCH  37  38
ATOM     38  C   UNL A   1      37.516  32.910  33.790  1.00  0.00     0.031 A 
ATOM     39  C   UNL A   1      38.240  33.142  35.087  1.00  0.00     0.074 A 
ATOM     40  C   UNL A   1      37.981  32.004  32.912  1.00  0.00     0.049 A 
ATOM     41  N   UNL A   1      39.367  32.633  35.517  1.00  0.00    -0.248 NA
ATOM     42  C   UNL A   1      37.614  34.093  36.018  1.00  0.00     0.031 C 
ATOM     43  C   UNL A   1      37.356  31.669  31.636  1.00  0.00     0.029 A 
ATOM     44  N   UNL A   1      39.095  31.203  32.965  1.00  0.00    -0.354 N 
ATOM     45  C   UNL A   1      39.596  33.220  36.754  1.00  0.00     0.074 A 
ATOM     46  C   UNL A   1      38.503  34.135  36.999  1.00  0.00     0.031 C 
ATOM     47  C   UNL A   1      38.095  30.725  31.026  1.00  0.00     0.029 A 
ATOM     48  C   UNL A   1      39.262  30.414  31.853  1.00  0.00     0.049 A 
ATOM     49  H   UNL A   1      39.716  31.194  33.729  1.00  0.00     0.167 HD
ATOM     50  C   UNL A   1      40.628  33.017  37.606  1.00  0.00     0.037 A 
ATOM     51  C   UNL A   1      40.251  29.555  31.537  1.00  0.00     0.037 A 
ATOM     52  C   UNL A   1      41.713  32.104  37.361  1.00  0.00     0.049 A 
ATOM     53  C   UNL A   1      41.414  29.382  32.485  1.00  0.00     0.074 A 
ATOM     54  C   UNL A   1      42.796  31.817  38.174  1.00  0.00     0.029 A 
ATOM     55  N   UNL A   1      41.858  31.338  36.215  1.00  0.00    -0.354 N 
ATOM     56  N   UNL A   1      41.616  29.925  33.661  1.00  0.00    -0.248 NA
ATOM     57  C   UNL A   1      42.497  28.485  32.049  1.00  0.00     0.031 C 
ATOM     58  C   UNL A   1      43.630  30.925  37.491  1.00  0.00     0.029 A 
ATOM     59  C   UNL A   1      43.029  30.601  36.284  1.00  0.00     0.049 A 
ATOM     60  H   UNL A   1      41.223  31.319  35.463  1.00  0.00     0.167 HD
ATOM     61  C   UNL A   1      42.829  29.419  34.116  1.00  0.00     0.074 A 
ATOM     62  C   UNL A   1      43.307  28.507  33.098  1.00  0.00     0.031 C 
ATOM     63  C   UNL A   1      43.490  29.687  35.270  1.00  0.00     0.037 A 
BRANCH  50  64
ATOM     64  C   UNL A   1      40.658  33.834  38.866  1.00  0.00     0.064 A 
ATOM     65  C   UNL A   1      40.005  33.419  40.037  1.00  0.00     0.173 A 
ATOM     66  C   UNL A   1      41.378  35.038  38.908  1.00  0.00     0.173 A 
ATOM     67  F   UNL A   1      39.289  32.284  40.046  1.00  0.00    -0.203 F 
ATOM     68  C   UNL A   1      40.051  34.193  41.194  1.00  0.00     0.198 A 
ATOM     69  C   UNL A   1      41.449  35.791  40.076  1.00  0.00     0.198 A 
ATOM     70  F   UNL A   1      42.022  35.479  37.818  1.00  0.00    -0.203 F 
ATOM     71  F   UNL A   1      39.377  33.803  42.285  1.00  0.00    -0.200 F 
ATOM     72  C   UNL A   1      40.780  35.373  41.215  1.00  0.00     0.200 A 
ATOM     73  F   UNL A   1      42.167  36.922  40.098  1.00  0.00    -0.200 F 
ATOM     74  F   UNL A   1      40.831  36.111  42.333  1.00  0.00    -0.200 F 
ENDBRANCH  50  64
BRANCH  51  75
ATOM     75  C   UNL A   1      40.205  28.793  30.258  1.00  0.00     0.064 A 
ATOM     76  C   UNL A   1      40.785  29.309  29.090  1.00  0.00     0.173 A 
ATOM     77  C   UNL A   1      39.549  27.557  30.164  1.00  0.00     0.173 A 
ATOM     78  F   UNL A   1      41.402  30.500  29.117  1.00  0.00    -0.203 F 
ATOM     79  C   UNL A   1      40.688  28.633  27.875  1.00  0.00     0.198 A 
ATOM     80  C   UNL A   1      39.485  26.863  28.957  1.00  0.00     0.198 A 
ATOM     81  F   UNL A   1      38.972  27.018  31.249  1.00  0.00    -0.203 F 
ATOM     82  F   UNL A   1      41.198  29.179  26.763  1.00  0.00    -0.200 F 
ATOM     83  C   UNL A   1      40.044  27.407  27.811  1.00  0.00     0.200 A 
ATOM     84  F   UNL A   1      38.875  25.671  28.904  1.00  0.00    -0.200 F 
ATOM     85  F   UNL A   1      39.952  26.754  26.644  1.00  0.00    -0.200 F 
ENDBRANCH  51  75
BRANCH  63  86
ATOM     86  C   UNL A   1      44.781  28.959  35.520  1.00  0.00     0.064 A 
ATOM     87  C   UNL A   1      46.021  29.489  35.131  1.00  0.00     0.173 A 
ATOM     88  C   UNL A   1      44.781  27.732  36.203  1.00  0.00     0.173 A 
ATOM     89  F   UNL A   1      46.079  30.652  34.466  1.00  0.00    -0.203 F 
ATOM     90  C   UNL A   1      47.207  28.806  35.392  1.00  0.00     0.198 A 
ATOM     91  C   UNL A   1      45.970  27.069  36.493  1.00  0.00     0.198 A 
ATOM     92  F   UNL A   1      43.625  27.182  36.608  1.00  0.00    -0.203 F 
ATOM     93  F   UNL A   1      48.374  29.307  34.964  1.00  0.00    -0.200 F 
ATOM     94  C   UNL A   1      47.181  27.601  36.079  1.00  0.00     0.200 A 
ATOM     95  F   UNL A   1      45.945  25.915  37.175  1.00  0.00    -0.200 F 
ATOM     96  F   UNL A   1      48.324  26.950  36.337  1.00  0.00    -0.200 F 
ENDBRANCH  63  86
ENDBRANCH  37  38
ENDBRANCH  30  32
ENDBRANCH  29  30
ENDBRANCH  28  29
ENDBRANCH  27  28
ENDBRANCH  26  27
ENDBRANCH  25  26
ENDBRANCH   1  25
TORSDOF 21
ENDMDL
