MODEL 1
REMARK VINA RESULT:     -11.0      0.000      0.000
REMARK SMILES O=C(OCCOCCOCCOC(=O)[C@H]1CCCN(C(=O)c2cccnc2Cl)C1)c1ccc(-c2c3nc(c(-c4c(F)c(F)c(F)c(F)c4F)c4ccc([nH]4)c(-c4c(F)c(F)c(F)c(F)c4F)c4nc(c(-c5c(F)c(F)c(F)c(F)c5F)c5ccc2[nH]5)C=C4)C=C3)cc1
REMARK SMILES IDX 7 1 6 2 5 3 4 4 3 5 2 6 1 7 30 8 31 9 92 10 32 11 91 12
REMARK SMILES IDX 33 13 34 14 35 15 85 16 36 17 90 18 84 19 86 20 37 21 89 22
REMARK SMILES IDX 83 23 82 24 38 26 70 27 50 28 69 29 51 30 54 31 68 32 87 33
REMARK SMILES IDX 52 34 53 35 67 37 88 38 55 39 39 40 40 41 48 42 41 43 42 44
REMARK SMILES IDX 46 45 49 46 43 47 44 48 47 49 45 50 71 51 72 52 80 53 73 54
REMARK SMILES IDX 74 55 78 56 81 57 75 58 76 59 79 60 77 61 56 62 57 63 65 64
REMARK SMILES IDX 58 65 59 66 63 67 66 68 60 69 61 70 64 71 62 72 8 73 9 74
REMARK SMILES IDX 10 75 11 76 12 77 13 78 14 79 15 80 16 81 29 82 17 83 19 84
REMARK SMILES IDX 18 85 20 86 21 87 22 88 23 89 27 90 24 91 26 92 28 93 25 94
REMARK H PARENT 86 25 54 36
REMARK Flexibility Score: inf
ROOT
ATOM      1  C   UNL A   1      32.236  30.026  26.124  1.00  0.00     0.188 C 
ENDROOT
BRANCH   1   2
ATOM      2  O   UNL A   1      31.610  30.836  27.129  1.00  0.00    -0.376 OA
BRANCH   2   3
ATOM      3  C   UNL A   1      31.406  32.194  26.728  1.00  0.00     0.202 C 
BRANCH   3   4
ATOM      4  C   UNL A   1      32.571  33.136  27.057  1.00  0.00     0.261 C 
BRANCH   4   5
ATOM      5  O   UNL A   1      32.157  34.242  27.873  1.00  0.00    -0.460 OA
BRANCH   5   6
ATOM      6  C   UNL A   1      32.915  34.959  28.742  1.00  0.00     0.338 C 
ATOM      7  O   UNL A   1      32.527  36.076  29.082  1.00  0.00    -0.246 OA
BRANCH   6   8
ATOM      8  C   UNL A   1      34.162  34.426  29.368  1.00  0.00     0.060 A 
ATOM      9  C   UNL A   1      35.458  34.654  28.896  1.00  0.00     0.016 A 
ATOM     10  C   UNL A   1      34.014  33.684  30.549  1.00  0.00     0.016 A 
ATOM     11  C   UNL A   1      36.564  34.049  29.483  1.00  0.00     0.010 A 
ATOM     12  C   UNL A   1      35.128  33.138  31.192  1.00  0.00     0.010 A 
ATOM     13  C   UNL A   1      36.410  33.281  30.635  1.00  0.00    -0.014 A 
BRANCH  13  14
ATOM     14  C   UNL A   1      37.569  32.528  31.164  1.00  0.00     0.031 A 
ATOM     15  C   UNL A   1      38.001  32.830  32.568  1.00  0.00     0.074 A 
ATOM     16  C   UNL A   1      38.159  31.549  30.449  1.00  0.00     0.049 A 
ATOM     17  N   UNL A   1      39.004  32.352  33.256  1.00  0.00    -0.248 NA
ATOM     18  C   UNL A   1      37.191  33.818  33.300  1.00  0.00     0.031 C 
ATOM     19  C   UNL A   1      37.766  31.120  29.106  1.00  0.00     0.029 A 
ATOM     20  N   UNL A   1      39.200  30.713  30.766  1.00  0.00    -0.354 N 
ATOM     21  C   UNL A   1      38.967  33.017  34.475  1.00  0.00     0.074 A 
ATOM     22  C   UNL A   1      37.874  33.958  34.421  1.00  0.00     0.031 C 
ATOM     23  C   UNL A   1      38.535  30.088  28.724  1.00  0.00     0.029 A 
ATOM     24  C   UNL A   1      39.497  29.800  29.782  1.00  0.00     0.049 A 
ATOM     25  H   UNL A   1      39.689  30.762  31.619  1.00  0.00     0.167 HD
ATOM     26  C   UNL A   1      39.762  32.841  35.554  1.00  0.00     0.037 A 
ATOM     27  C   UNL A   1      40.439  28.839  29.751  1.00  0.00     0.037 A 
ATOM     28  C   UNL A   1      40.812  31.864  35.608  1.00  0.00     0.049 A 
ATOM     29  C   UNL A   1      41.325  28.674  30.958  1.00  0.00     0.074 A 
ATOM     30  C   UNL A   1      41.705  31.605  36.628  1.00  0.00     0.029 A 
ATOM     31  N   UNL A   1      41.090  30.968  34.583  1.00  0.00    -0.354 N 
ATOM     32  N   UNL A   1      41.307  29.331  32.095  1.00  0.00    -0.248 NA
ATOM     33  C   UNL A   1      42.359  27.634  30.883  1.00  0.00     0.031 C 
ATOM     34  C   UNL A   1      42.544  30.564  36.209  1.00  0.00     0.029 A 
ATOM     35  C   UNL A   1      42.144  30.151  34.947  1.00  0.00     0.049 A 
ATOM     36  H   UNL A   1      40.609  30.922  33.726  1.00  0.00     0.167 HD
ATOM     37  C   UNL A   1      42.296  28.762  32.883  1.00  0.00     0.074 A 
ATOM     38  C   UNL A   1      42.892  27.699  32.096  1.00  0.00     0.031 C 
ATOM     39  C   UNL A   1      42.683  29.084  34.142  1.00  0.00     0.037 A 
BRANCH  26  40
ATOM     40  C   UNL A   1      39.532  33.763  36.714  1.00  0.00     0.064 A 
ATOM     41  C   UNL A   1      40.199  34.993  36.828  1.00  0.00     0.173 A 
ATOM     42  C   UNL A   1      38.703  33.365  37.773  1.00  0.00     0.173 A 
ATOM     43  F   UNL A   1      41.030  35.403  35.858  1.00  0.00    -0.203 F 
ATOM     44  C   UNL A   1      40.086  35.763  37.983  1.00  0.00     0.198 A 
ATOM     45  C   UNL A   1      38.568  34.154  38.912  1.00  0.00     0.198 A 
ATOM     46  F   UNL A   1      38.048  32.196  37.717  1.00  0.00    -0.203 F 
ATOM     47  F   UNL A   1      40.803  36.890  38.107  1.00  0.00    -0.200 F 
ATOM     48  C   UNL A   1      39.272  35.343  39.024  1.00  0.00     0.200 A 
ATOM     49  F   UNL A   1      37.778  33.747  39.916  1.00  0.00    -0.200 F 
ATOM     50  F   UNL A   1      39.182  36.074  40.143  1.00  0.00    -0.200 F 
ENDBRANCH  26  40
BRANCH  27  51
ATOM     51  C   UNL A   1      40.581  27.950  28.566  1.00  0.00     0.064 A 
ATOM     52  C   UNL A   1      41.370  28.328  27.468  1.00  0.00     0.173 A 
ATOM     53  C   UNL A   1      39.915  26.717  28.490  1.00  0.00     0.173 A 
ATOM     54  F   UNL A   1      42.013  29.504  27.480  1.00  0.00    -0.203 F 
ATOM     55  C   UNL A   1      41.465  27.521  26.334  1.00  0.00     0.198 A 
ATOM     56  C   UNL A   1      40.034  25.899  27.367  1.00  0.00     0.198 A 
ATOM     57  F   UNL A   1      39.151  26.303  29.512  1.00  0.00    -0.203 F 
ATOM     58  F   UNL A   1      42.186  27.931  25.282  1.00  0.00    -0.200 F 
ATOM     59  C   UNL A   1      40.800  26.306  26.286  1.00  0.00     0.200 A 
ATOM     60  F   UNL A   1      39.398  24.720  27.331  1.00  0.00    -0.200 F 
ATOM     61  F   UNL A   1      40.889  25.533  25.195  1.00  0.00    -0.200 F 
ENDBRANCH  27  51
BRANCH  39  62
ATOM     62  C   UNL A   1      43.757  28.243  34.760  1.00  0.00     0.064 A 
ATOM     63  C   UNL A   1      45.102  28.638  34.740  1.00  0.00     0.173 A 
ATOM     64  C   UNL A   1      43.422  27.057  35.430  1.00  0.00     0.173 A 
ATOM     65  F   UNL A   1      45.468  29.757  34.097  1.00  0.00    -0.203 F 
ATOM     66  C   UNL A   1      46.078  27.862  35.354  1.00  0.00     0.198 A 
ATOM     67  C   UNL A   1      44.398  26.299  36.067  1.00  0.00     0.198 A 
ATOM     68  F   UNL A   1      42.147  26.646  35.479  1.00  0.00    -0.203 F 
ATOM     69  F   UNL A   1      47.365  28.234  35.291  1.00  0.00    -0.200 F 
ATOM     70  C   UNL A   1      45.725  26.699  36.025  1.00  0.00     0.200 A 
ATOM     71  F   UNL A   1      44.054  25.183  36.725  1.00  0.00    -0.200 F 
ATOM     72  F   UNL A   1      46.667  25.958  36.625  1.00  0.00    -0.200 F 
ENDBRANCH  39  62
ENDBRANCH  13  14
ENDBRANCH   6   8
ENDBRANCH   5   6
ENDBRANCH   4   5
ENDBRANCH   3   4
ENDBRANCH   2   3
ENDBRANCH   1   2
BRANCH   1  73
ATOM     73  C   UNL A   1      31.679  28.599  26.149  1.00  0.00     0.188 C 
BRANCH  73  74
ATOM     74  O   UNL A   1      31.584  27.943  24.884  1.00  0.00    -0.376 OA
BRANCH  74  75
ATOM     75  C   UNL A   1      31.563  28.769  23.727  1.00  0.00     0.202 C 
BRANCH  75  76
ATOM     76  C   UNL A   1      32.752  28.672  22.759  1.00  0.00     0.261 C 
BRANCH  76  77
ATOM     77  O   UNL A   1      33.731  27.650  23.034  1.00  0.00    -0.463 OA
BRANCH  77  78
ATOM     78  C   UNL A   1      33.506  26.468  22.392  1.00  0.00     0.310 C 
ATOM     79  O   UNL A   1      33.599  26.319  21.178  1.00  0.00    -0.252 OA
BRANCH  78  80
ATOM     80  C   UNL A   1      33.022  25.369  23.333  1.00  0.00     0.119 C 
ATOM     81  C   UNL A   1      31.629  24.902  22.853  1.00  0.00     0.019 C 
ATOM     82  C   UNL A   1      33.986  24.181  23.404  1.00  0.00     0.135 C 
ATOM     83  C   UNL A   1      31.108  23.690  23.620  1.00  0.00     0.022 C 
ATOM     84  N   UNL A   1      33.385  23.037  24.119  1.00  0.00    -0.338 N 
ATOM     85  C   UNL A   1      32.121  22.556  23.579  1.00  0.00     0.120 C 
BRANCH  84  86
ATOM     86  C   UNL A   1      33.960  22.595  25.302  1.00  0.00     0.257 C 
ATOM     87  O   UNL A   1      33.343  22.599  26.357  1.00  0.00    -0.269 OA
BRANCH  86  88
ATOM     88  C   UNL A   1      35.316  22.027  25.349  1.00  0.00     0.077 A 
ATOM     89  C   UNL A   1      36.394  22.896  25.559  1.00  0.00     0.018 A 
ATOM     90  C   UNL A   1      35.602  20.709  25.037  1.00  0.00     0.141 A 
ATOM     91  C   UNL A   1      37.696  22.403  25.508  1.00  0.00     0.021 A 
ATOM     92  N   UNL A   1      36.860  20.198  25.002  1.00  0.00    -0.244 NA
ATOM     93  Cl  UNL A   1      34.408  19.550  24.601  1.00  0.00    -0.061 Cl
ATOM     94  C   UNL A   1      37.876  21.057  25.236  1.00  0.00     0.113 A 
ENDBRANCH  86  88
ENDBRANCH  84  86
ENDBRANCH  78  80
ENDBRANCH  77  78
ENDBRANCH  76  77
ENDBRANCH  75  76
ENDBRANCH  74  75
ENDBRANCH  73  74
ENDBRANCH   1  73
TORSDOF 19
ENDMDL
MODEL 2
REMARK VINA RESULT:     -11.0      1.739      2.817
REMARK SMILES O=C(OCCOCCOCCOC(=O)[C@H]1CCCN(C(=O)c2cccnc2Cl)C1)c1ccc(-c2c3nc(c(-c4c(F)c(F)c(F)c(F)c4F)c4ccc([nH]4)c(-c4c(F)c(F)c(F)c(F)c4F)c4nc(c(-c5c(F)c(F)c(F)c(F)c5F)c5ccc2[nH]5)C=C4)C=C3)cc1
REMARK SMILES IDX 7 1 6 2 5 3 4 4 3 5 2 6 1 7 30 8 31 9 92 10 32 11 91 12
REMARK SMILES IDX 33 13 34 14 35 15 85 16 36 17 90 18 84 19 86 20 37 21 89 22
REMARK SMILES IDX 83 23 82 24 38 26 70 27 50 28 69 29 51 30 54 31 68 32 87 33
REMARK SMILES IDX 52 34 53 35 67 37 88 38 55 39 39 40 40 41 48 42 41 43 42 44
REMARK SMILES IDX 46 45 49 46 43 47 44 48 47 49 45 50 71 51 72 52 80 53 73 54
REMARK SMILES IDX 74 55 78 56 81 57 75 58 76 59 79 60 77 61 56 62 57 63 65 64
REMARK SMILES IDX 58 65 59 66 63 67 66 68 60 69 61 70 64 71 62 72 8 73 9 74
REMARK SMILES IDX 10 75 11 76 12 77 13 78 14 79 15 80 16 81 29 82 17 83 19 84
REMARK SMILES IDX 18 85 20 86 21 87 22 88 23 89 27 90 24 91 26 92 28 93 25 94
REMARK H PARENT 86 25 54 36
REMARK Flexibility Score: inf
ROOT
ATOM      1  C   UNL A   1      35.056  34.026  28.496  1.00  0.00     0.188 C 
ENDROOT
BRANCH   1   2
ATOM      2  O   UNL A   1      33.766  34.032  29.123  1.00  0.00    -0.376 OA
BRANCH   2   3
ATOM      3  C   UNL A   1      32.987  35.194  28.825  1.00  0.00     0.202 C 
BRANCH   3   4
ATOM      4  C   UNL A   1      33.258  36.394  29.742  1.00  0.00     0.261 C 
BRANCH   4   5
ATOM      5  O   UNL A   1      32.405  36.393  30.897  1.00  0.00    -0.460 OA
BRANCH   5   6
ATOM      6  C   UNL A   1      32.493  35.591  31.989  1.00  0.00     0.338 C 
ATOM      7  O   UNL A   1      31.458  35.278  32.576  1.00  0.00    -0.246 OA
BRANCH   6   8
ATOM      8  C   UNL A   1      33.779  35.004  32.470  1.00  0.00     0.060 A 
ATOM      9  C   UNL A   1      34.996  35.688  32.542  1.00  0.00     0.016 A 
ATOM     10  C   UNL A   1      33.741  33.680  32.930  1.00  0.00     0.016 A 
ATOM     11  C   UNL A   1      36.171  35.046  32.917  1.00  0.00     0.010 A 
ATOM     12  C   UNL A   1      34.902  33.050  33.385  1.00  0.00     0.010 A 
ATOM     13  C   UNL A   1      36.137  33.719  33.338  1.00  0.00    -0.014 A 
BRANCH  13  14
ATOM     14  C   UNL A   1      37.410  33.008  33.596  1.00  0.00     0.031 A 
ATOM     15  C   UNL A   1      38.069  33.237  34.923  1.00  0.00     0.074 A 
ATOM     16  C   UNL A   1      37.913  32.122  32.713  1.00  0.00     0.049 A 
ATOM     17  N   UNL A   1      39.202  32.779  35.386  1.00  0.00    -0.248 NA
ATOM     18  C   UNL A   1      37.352  34.117  35.862  1.00  0.00     0.031 C 
ATOM     19  C   UNL A   1      37.309  31.764  31.427  1.00  0.00     0.029 A 
ATOM     20  N   UNL A   1      39.036  31.335  32.775  1.00  0.00    -0.354 N 
ATOM     21  C   UNL A   1      39.347  33.352  36.642  1.00  0.00     0.074 A 
ATOM     22  C   UNL A   1      38.215  34.221  36.855  1.00  0.00     0.031 C 
ATOM     23  C   UNL A   1      38.051  30.813  30.836  1.00  0.00     0.029 A 
ATOM     24  C   UNL A   1      39.199  30.515  31.684  1.00  0.00     0.049 A 
ATOM     25  H   UNL A   1      39.665  31.356  33.531  1.00  0.00     0.167 HD
ATOM     26  C   UNL A   1      40.330  33.153  37.548  1.00  0.00     0.037 A 
ATOM     27  C   UNL A   1      40.169  29.622  31.413  1.00  0.00     0.037 A 
ATOM     28  C   UNL A   1      41.422  32.245  37.341  1.00  0.00     0.049 A 
ATOM     29  C   UNL A   1      41.263  29.430  32.430  1.00  0.00     0.074 A 
ATOM     30  C   UNL A   1      42.495  31.973  38.166  1.00  0.00     0.029 A 
ATOM     31  N   UNL A   1      41.559  31.444  36.214  1.00  0.00    -0.354 N 
ATOM     32  N   UNL A   1      41.414  30.003  33.602  1.00  0.00    -0.248 NA
ATOM     33  C   UNL A   1      42.320  28.468  32.093  1.00  0.00     0.031 C 
ATOM     34  C   UNL A   1      43.298  31.022  37.525  1.00  0.00     0.029 A 
ATOM     35  C   UNL A   1      42.702  30.673  36.322  1.00  0.00     0.049 A 
ATOM     36  H   UNL A   1      40.936  31.426  35.453  1.00  0.00     0.167 HD
ATOM     37  C   UNL A   1      42.556  29.446  34.158  1.00  0.00     0.074 A 
ATOM     38  C   UNL A   1      43.056  28.482  33.196  1.00  0.00     0.031 C 
ATOM     39  C   UNL A   1      43.144  29.703  35.352  1.00  0.00     0.037 A 
BRANCH  26  40
ATOM     40  C   UNL A   1      40.263  33.974  38.802  1.00  0.00     0.064 A 
ATOM     41  C   UNL A   1      40.947  35.194  38.927  1.00  0.00     0.173 A 
ATOM     42  C   UNL A   1      39.582  33.485  39.925  1.00  0.00     0.173 A 
ATOM     43  F   UNL A   1      41.643  35.688  37.892  1.00  0.00    -0.203 F 
ATOM     44  C   UNL A   1      40.995  35.865  40.147  1.00  0.00     0.198 A 
ATOM     45  C   UNL A   1      39.605  34.176  41.134  1.00  0.00     0.198 A 
ATOM     46  F   UNL A   1      38.918  32.321  39.860  1.00  0.00    -0.203 F 
ATOM     47  F   UNL A   1      41.728  36.981  40.267  1.00  0.00    -0.200 F 
ATOM     48  C   UNL A   1      40.324  35.355  41.249  1.00  0.00     0.200 A 
ATOM     49  F   UNL A   1      38.954  33.683  42.197  1.00  0.00    -0.200 F 
ATOM     50  F   UNL A   1      40.390  35.990  42.427  1.00  0.00    -0.200 F 
ENDBRANCH  26  40
BRANCH  27  51
ATOM     51  C   UNL A   1      40.143  28.830  30.152  1.00  0.00     0.064 A 
ATOM     52  C   UNL A   1      40.726  29.324  28.975  1.00  0.00     0.173 A 
ATOM     53  C   UNL A   1      39.517  27.575  30.088  1.00  0.00     0.173 A 
ATOM     54  F   UNL A   1      41.321  30.525  28.976  1.00  0.00    -0.203 F 
ATOM     55  C   UNL A   1      40.659  28.608  27.780  1.00  0.00     0.198 A 
ATOM     56  C   UNL A   1      39.477  26.848  28.899  1.00  0.00     0.198 A 
ATOM     57  F   UNL A   1      38.949  27.051  31.184  1.00  0.00    -0.203 F 
ATOM     58  F   UNL A   1      41.181  29.127  26.661  1.00  0.00    -0.200 F 
ATOM     59  C   UNL A   1      40.038  27.369  27.744  1.00  0.00     0.200 A 
ATOM     60  F   UNL A   1      38.886  25.646  28.873  1.00  0.00    -0.200 F 
ATOM     61  F   UNL A   1      39.972  26.683  26.594  1.00  0.00    -0.200 F 
ENDBRANCH  27  51
BRANCH  39  62
ATOM     62  C   UNL A   1      44.353  28.893  35.704  1.00  0.00     0.064 A 
ATOM     63  C   UNL A   1      45.642  29.299  35.337  1.00  0.00     0.173 A 
ATOM     64  C   UNL A   1      44.217  27.725  36.469  1.00  0.00     0.173 A 
ATOM     65  F   UNL A   1      45.817  30.401  34.592  1.00  0.00    -0.203 F 
ATOM     66  C   UNL A   1      46.755  28.552  35.708  1.00  0.00     0.198 A 
ATOM     67  C   UNL A   1      45.334  26.997  36.862  1.00  0.00     0.198 A 
ATOM     68  F   UNL A   1      43.001  27.302  36.848  1.00  0.00    -0.203 F 
ATOM     69  F   UNL A   1      47.978  28.935  35.313  1.00  0.00    -0.200 F 
ATOM     70  C   UNL A   1      46.601  27.408  36.478  1.00  0.00     0.200 A 
ATOM     71  F   UNL A   1      45.184  25.898  37.616  1.00  0.00    -0.200 F 
ATOM     72  F   UNL A   1      47.676  26.696  36.843  1.00  0.00    -0.200 F 
ENDBRANCH  39  62
ENDBRANCH  13  14
ENDBRANCH   6   8
ENDBRANCH   5   6
ENDBRANCH   4   5
ENDBRANCH   3   4
ENDBRANCH   2   3
ENDBRANCH   1   2
BRANCH   1  73
ATOM     73  C   UNL A   1      35.427  32.617  28.023  1.00  0.00     0.188 C 
BRANCH  73  74
ATOM     74  O   UNL A   1      34.569  31.564  28.464  1.00  0.00    -0.376 OA
BRANCH  74  75
ATOM     75  C   UNL A   1      33.807  30.892  27.471  1.00  0.00     0.202 C 
BRANCH  75  76
ATOM     76  C   UNL A   1      33.786  29.356  27.504  1.00  0.00     0.261 C 
BRANCH  76  77
ATOM     77  O   UNL A   1      33.056  28.694  26.451  1.00  0.00    -0.463 OA
BRANCH  77  78
ATOM     78  C   UNL A   1      32.163  27.760  26.887  1.00  0.00     0.310 C 
ATOM     79  O   UNL A   1      31.529  27.852  27.932  1.00  0.00    -0.252 OA
BRANCH  78  80
ATOM     80  C   UNL A   1      32.112  26.529  25.986  1.00  0.00     0.119 C 
ATOM     81  C   UNL A   1      30.631  26.133  25.793  1.00  0.00     0.019 C 
ATOM     82  C   UNL A   1      32.783  26.758  24.628  1.00  0.00     0.135 C 
ATOM     83  C   UNL A   1      30.439  25.010  24.778  1.00  0.00     0.022 C 
ATOM     84  N   UNL A   1      32.507  25.649  23.693  1.00  0.00    -0.338 N 
ATOM     85  C   UNL A   1      31.098  25.369  23.455  1.00  0.00     0.120 C 
BRANCH  84  86
ATOM     86  C   UNL A   1      33.559  24.876  23.225  1.00  0.00     0.257 C 
ATOM     87  O   UNL A   1      34.058  25.068  22.126  1.00  0.00    -0.269 OA
BRANCH  86  88
ATOM     88  C   UNL A   1      34.185  23.827  24.044  1.00  0.00     0.077 A 
ATOM     89  C   UNL A   1      35.313  24.161  24.804  1.00  0.00     0.018 A 
ATOM     90  C   UNL A   1      33.821  22.492  23.982  1.00  0.00     0.141 A 
ATOM     91  C   UNL A   1      35.987  23.166  25.509  1.00  0.00     0.021 A 
ATOM     92  N   UNL A   1      34.447  21.507  24.677  1.00  0.00    -0.244 NA
ATOM     93  Cl  UNL A   1      32.560  21.892  22.977  1.00  0.00    -0.061 Cl
ATOM     94  C   UNL A   1      35.515  21.867  25.421  1.00  0.00     0.113 A 
ENDBRANCH  86  88
ENDBRANCH  84  86
ENDBRANCH  78  80
ENDBRANCH  77  78
ENDBRANCH  76  77
ENDBRANCH  75  76
ENDBRANCH  74  75
ENDBRANCH  73  74
ENDBRANCH   1  73
TORSDOF 19
ENDMDL
MODEL 3
REMARK VINA RESULT:     -11.0      4.651      7.370
REMARK SMILES O=C(OCCOCCOCCOC(=O)[C@H]1CCCN(C(=O)c2cccnc2Cl)C1)c1ccc(-c2c3nc(c(-c4c(F)c(F)c(F)c(F)c4F)c4ccc([nH]4)c(-c4c(F)c(F)c(F)c(F)c4F)c4nc(c(-c5c(F)c(F)c(F)c(F)c5F)c5ccc2[nH]5)C=C4)C=C3)cc1
REMARK SMILES IDX 7 1 6 2 5 3 4 4 3 5 2 6 1 7 30 8 31 9 92 10 32 11 91 12
REMARK SMILES IDX 33 13 34 14 35 15 85 16 36 17 90 18 84 19 86 20 37 21 89 22
REMARK SMILES IDX 83 23 82 24 38 26 70 27 50 28 69 29 51 30 54 31 68 32 87 33
REMARK SMILES IDX 52 34 53 35 67 37 88 38 55 39 39 40 40 41 48 42 41 43 42 44
REMARK SMILES IDX 46 45 49 46 43 47 44 48 47 49 45 50 71 51 72 52 80 53 73 54
REMARK SMILES IDX 74 55 78 56 81 57 75 58 76 59 79 60 77 61 56 62 57 63 65 64
REMARK SMILES IDX 58 65 59 66 63 67 66 68 60 69 61 70 64 71 62 72 8 73 9 74
REMARK SMILES IDX 10 75 11 76 12 77 13 78 14 79 15 80 16 81 29 82 17 83 19 84
REMARK SMILES IDX 18 85 20 86 21 87 22 88 23 89 27 90 24 91 26 92 28 93 25 94
REMARK H PARENT 86 25 54 36
REMARK Flexibility Score: inf
ROOT
ATOM      1  C   UNL A   1      34.043  33.614  28.774  1.00  0.00     0.188 C 
ENDROOT
BRANCH   1   2
ATOM      2  O   UNL A   1      34.107  33.380  30.188  1.00  0.00    -0.376 OA
BRANCH   2   3
ATOM      3  C   UNL A   1      34.089  34.577  30.971  1.00  0.00     0.202 C 
BRANCH   3   4
ATOM      4  C   UNL A   1      34.495  34.385  32.438  1.00  0.00     0.261 C 
BRANCH   4   5
ATOM      5  O   UNL A   1      35.884  34.044  32.572  1.00  0.00    -0.460 OA
BRANCH   5   6
ATOM      6  C   UNL A   1      36.408  32.860  32.982  1.00  0.00     0.338 C 
ATOM      7  O   UNL A   1      35.958  32.336  34.000  1.00  0.00    -0.246 OA
BRANCH   6   8
ATOM      8  C   UNL A   1      37.455  32.122  32.214  1.00  0.00     0.060 A 
ATOM      9  C   UNL A   1      38.456  31.328  32.780  1.00  0.00     0.016 A 
ATOM     10  C   UNL A   1      37.387  32.196  30.815  1.00  0.00     0.016 A 
ATOM     11  C   UNL A   1      39.449  30.744  32.002  1.00  0.00     0.010 A 
ATOM     12  C   UNL A   1      38.335  31.546  30.020  1.00  0.00     0.010 A 
ATOM     13  C   UNL A   1      39.402  30.850  30.614  1.00  0.00    -0.014 A 
BRANCH  13  14
ATOM     14  C   UNL A   1      40.538  30.348  29.810  1.00  0.00     0.031 A 
ATOM     15  C   UNL A   1      41.694  31.281  29.595  1.00  0.00     0.074 A 
ATOM     16  C   UNL A   1      40.578  29.077  29.362  1.00  0.00     0.049 A 
ATOM     17  N   UNL A   1      42.787  31.113  28.900  1.00  0.00    -0.248 NA
ATOM     18  C   UNL A   1      41.599  32.595  30.253  1.00  0.00     0.031 C 
ATOM     19  C   UNL A   1      39.544  28.064  29.583  1.00  0.00     0.029 A 
ATOM     20  N   UNL A   1      41.541  28.409  28.649  1.00  0.00    -0.354 N 
ATOM     21  C   UNL A   1      43.478  32.313  29.002  1.00  0.00     0.074 A 
ATOM     22  C   UNL A   1      42.669  33.214  29.788  1.00  0.00     0.031 C 
ATOM     23  C   UNL A   1      39.938  26.900  29.043  1.00  0.00     0.029 A 
ATOM     24  C   UNL A   1      41.238  27.090  28.410  1.00  0.00     0.049 A 
ATOM     25  H   UNL A   1      42.372  28.835  28.338  1.00  0.00     0.167 HD
ATOM     26  C   UNL A   1      44.693  32.629  28.502  1.00  0.00     0.037 A 
ATOM     27  C   UNL A   1      41.943  26.147  27.755  1.00  0.00     0.037 A 
ATOM     28  C   UNL A   1      45.508  31.705  27.766  1.00  0.00     0.049 A 
ATOM     29  C   UNL A   1      43.287  26.528  27.191  1.00  0.00     0.074 A 
ATOM     30  C   UNL A   1      46.742  31.907  27.183  1.00  0.00     0.029 A 
ATOM     31  N   UNL A   1      45.157  30.380  27.532  1.00  0.00    -0.354 N 
ATOM     32  N   UNL A   1      43.919  27.676  27.261  1.00  0.00    -0.248 NA
ATOM     33  C   UNL A   1      44.018  25.484  26.461  1.00  0.00     0.031 C 
ATOM     34  C   UNL A   1      47.130  30.708  26.572  1.00  0.00     0.029 A 
ATOM     35  C   UNL A   1      46.155  29.751  26.811  1.00  0.00     0.049 A 
ATOM     36  H   UNL A   1      44.324  29.954  27.834  1.00  0.00     0.167 HD
ATOM     37  C   UNL A   1      45.134  27.485  26.621  1.00  0.00     0.074 A 
ATOM     38  C   UNL A   1      45.154  26.105  26.175  1.00  0.00     0.031 C 
ATOM     39  C   UNL A   1      46.145  28.365  26.416  1.00  0.00     0.037 A 
BRANCH  26  40
ATOM     40  C   UNL A   1      45.159  34.040  28.710  1.00  0.00     0.064 A 
ATOM     41  C   UNL A   1      44.915  35.048  27.764  1.00  0.00     0.173 A 
ATOM     42  C   UNL A   1      45.940  34.363  29.828  1.00  0.00     0.173 A 
ATOM     43  F   UNL A   1      44.203  34.781  26.659  1.00  0.00    -0.203 F 
ATOM     44  C   UNL A   1      45.484  36.312  27.904  1.00  0.00     0.198 A 
ATOM     45  C   UNL A   1      46.480  35.638  29.981  1.00  0.00     0.198 A 
ATOM     46  F   UNL A   1      46.207  33.435  30.758  1.00  0.00    -0.203 F 
ATOM     47  F   UNL A   1      45.313  37.232  26.943  1.00  0.00    -0.200 F 
ATOM     48  C   UNL A   1      46.266  36.606  29.011  1.00  0.00     0.200 A 
ATOM     49  F   UNL A   1      47.232  35.920  31.053  1.00  0.00    -0.200 F 
ATOM     50  F   UNL A   1      46.830  37.814  29.133  1.00  0.00    -0.200 F 
ENDBRANCH  26  40
BRANCH  27  51
ATOM     51  C   UNL A   1      41.415  24.762  27.618  1.00  0.00     0.064 A 
ATOM     52  C   UNL A   1      42.014  23.689  28.295  1.00  0.00     0.173 A 
ATOM     53  C   UNL A   1      40.317  24.474  26.792  1.00  0.00     0.173 A 
ATOM     54  F   UNL A   1      43.077  23.905  29.083  1.00  0.00    -0.203 F 
ATOM     55  C   UNL A   1      41.555  22.382  28.130  1.00  0.00     0.198 A 
ATOM     56  C   UNL A   1      39.842  23.171  26.650  1.00  0.00     0.198 A 
ATOM     57  F   UNL A   1      39.702  25.461  26.125  1.00  0.00    -0.203 F 
ATOM     58  F   UNL A   1      42.179  21.372  28.751  1.00  0.00    -0.200 F 
ATOM     59  C   UNL A   1      40.467  22.125  27.311  1.00  0.00     0.200 A 
ATOM     60  F   UNL A   1      38.782  22.929  25.866  1.00  0.00    -0.200 F 
ATOM     61  F   UNL A   1      40.028  20.868  27.150  1.00  0.00    -0.200 F 
ENDBRANCH  27  51
BRANCH  39  62
ATOM     62  C   UNL A   1      47.371  27.845  25.732  1.00  0.00     0.064 A 
ATOM     63  C   UNL A   1      48.473  27.372  26.457  1.00  0.00     0.173 A 
ATOM     64  C   UNL A   1      47.415  27.768  24.332  1.00  0.00     0.173 A 
ATOM     65  F   UNL A   1      48.479  27.441  27.797  1.00  0.00    -0.203 F 
ATOM     66  C   UNL A   1      49.586  26.857  25.803  1.00  0.00     0.198 A 
ATOM     67  C   UNL A   1      48.519  27.226  23.683  1.00  0.00     0.198 A 
ATOM     68  F   UNL A   1      46.380  28.204  23.598  1.00  0.00    -0.203 F 
ATOM     69  F   UNL A   1      50.647  26.446  26.512  1.00  0.00    -0.200 F 
ATOM     70  C   UNL A   1      49.605  26.775  24.417  1.00  0.00     0.200 A 
ATOM     71  F   UNL A   1      48.529  27.137  22.345  1.00  0.00    -0.200 F 
ATOM     72  F   UNL A   1      50.675  26.269  23.789  1.00  0.00    -0.200 F 
ENDBRANCH  39  62
ENDBRANCH  13  14
ENDBRANCH   6   8
ENDBRANCH   5   6
ENDBRANCH   4   5
ENDBRANCH   3   4
ENDBRANCH   2   3
ENDBRANCH   1   2
BRANCH   1  73
ATOM     73  C   UNL A   1      33.993  32.292  28.003  1.00  0.00     0.188 C 
BRANCH  73  74
ATOM     74  O   UNL A   1      34.912  31.285  28.428  1.00  0.00    -0.376 OA
BRANCH  74  75
ATOM     75  C   UNL A   1      35.002  30.112  27.631  1.00  0.00     0.202 C 
BRANCH  75  76
ATOM     76  C   UNL A   1      33.702  29.557  27.028  1.00  0.00     0.261 C 
BRANCH  76  77
ATOM     77  O   UNL A   1      33.593  28.123  26.932  1.00  0.00    -0.463 OA
BRANCH  77  78
ATOM     78  C   UNL A   1      32.312  27.654  26.942  1.00  0.00     0.310 C 
ATOM     79  O   UNL A   1      31.474  27.967  27.781  1.00  0.00    -0.252 OA
BRANCH  78  80
ATOM     80  C   UNL A   1      32.057  26.611  25.858  1.00  0.00     0.119 C 
ATOM     81  C   UNL A   1      30.535  26.544  25.601  1.00  0.00     0.019 C 
ATOM     82  C   UNL A   1      32.803  26.915  24.555  1.00  0.00     0.135 C 
ATOM     83  C   UNL A   1      30.166  25.651  24.420  1.00  0.00     0.022 C 
ATOM     84  N   UNL A   1      32.352  26.040  23.455  1.00  0.00    -0.338 N 
ATOM     85  C   UNL A   1      30.924  26.077  23.172  1.00  0.00     0.120 C 
BRANCH  84  86
ATOM     86  C   UNL A   1      33.252  25.160  22.872  1.00  0.00     0.257 C 
ATOM     87  O   UNL A   1      34.028  25.519  21.999  1.00  0.00    -0.269 OA
BRANCH  86  88
ATOM     88  C   UNL A   1      33.379  23.763  23.313  1.00  0.00     0.077 A 
ATOM     89  C   UNL A   1      32.497  22.813  22.783  1.00  0.00     0.018 A 
ATOM     90  C   UNL A   1      34.216  23.362  24.341  1.00  0.00     0.141 A 
ATOM     91  C   UNL A   1      32.527  21.504  23.258  1.00  0.00     0.021 A 
ATOM     92  N   UNL A   1      34.281  22.088  24.807  1.00  0.00    -0.244 NA
ATOM     93  Cl  UNL A   1      35.249  24.433  25.204  1.00  0.00    -0.061 Cl
ATOM     94  C   UNL A   1      33.435  21.191  24.256  1.00  0.00     0.113 A 
ENDBRANCH  86  88
ENDBRANCH  84  86
ENDBRANCH  78  80
ENDBRANCH  77  78
ENDBRANCH  76  77
ENDBRANCH  75  76
ENDBRANCH  74  75
ENDBRANCH  73  74
ENDBRANCH   1  73
TORSDOF 19
ENDMDL
