MODEL 1
REMARK VINA RESULT:     -11.9      0.000      0.000
REMARK SMILES Cc1ccccc1CSCC(=O)Nc1ccc(C)c(C(=O)OCCOCCOCCOC(=O)c2ccc(-c3c4nc(c(-c5c(F)c(F)c(F)c(F)c5F)c5ccc([nH]5)c(-c5c(F)c(F)c(F)c(F)c5F)c5nc(c(-c6c(F)c(F)c(F)c(F)c6F)c6ccc3[nH]6)C=C5)C=C4)cc2)c1
REMARK SMILES IDX 25 1 24 2 23 3 22 4 20 5 21 6 19 7 14 8 15 9 97 10 16 11
REMARK SMILES IDX 17 12 18 13 13 14 11 15 12 16 10 18 9 19 8 20 7 21 1 22 2 23
REMARK SMILES IDX 3 24 4 25 6 26 5 27 26 28 27 29 28 30 29 31 30 32 31 33
REMARK SMILES IDX 32 34 33 35 34 36 35 37 96 38 36 39 95 40 37 41 38 42 39 43
REMARK SMILES IDX 89 44 40 45 94 46 88 47 90 48 41 49 93 50 87 51 86 52 42 54
REMARK SMILES IDX 74 55 54 56 73 57 55 58 58 59 72 60 91 61 56 62 57 63 71 65
REMARK SMILES IDX 92 66 59 67 43 68 44 69 52 70 45 71 46 72 50 73 53 74 47 75
REMARK SMILES IDX 48 76 51 77 49 78 75 79 76 80 84 81 77 82 78 83 82 84 85 85
REMARK SMILES IDX 79 86 80 87 83 88 81 89 60 90 61 91 69 92 62 93 63 94 67 95
REMARK SMILES IDX 70 96 64 97 65 98 68 99 66 100
REMARK H PARENT 13 17 90 53 58 64
REMARK Flexibility Score: inf
ROOT
ATOM      1  O   UNL A   1      35.504  32.593  27.560  1.00  0.00    -0.376 OA
ENDROOT
BRANCH   1   2
ATOM      2  C   UNL A   1      36.058  31.338  27.978  1.00  0.00     0.202 C 
BRANCH   2   3
ATOM      3  C   UNL A   1      35.209  29.999  28.012  1.00  0.00     0.261 C 
BRANCH   3   4
ATOM      4  O   UNL A   1      34.625  29.480  26.755  1.00  0.00    -0.460 OA
BRANCH   4   5
ATOM      5  C   UNL A   1      33.354  29.700  26.240  1.00  0.00     0.338 C 
ATOM      6  O   UNL A   1      32.852  30.815  26.304  1.00  0.00    -0.246 OA
BRANCH   5   7
ATOM      7  C   UNL A   1      32.494  28.429  25.592  1.00  0.00     0.065 A 
ATOM      8  C   UNL A   1      31.721  26.894  23.662  1.00  0.00     0.042 A 
ATOM      9  C   UNL A   1      30.827  26.278  24.488  1.00  0.00     0.026 A 
ATOM     10  C   UNL A   1      32.525  27.884  24.258  1.00  0.00     0.042 A 
ATOM     11  C   UNL A   1      30.762  26.704  25.829  1.00  0.00     0.006 A 
ATOM     12  C   UNL A   1      31.565  27.762  26.380  1.00  0.00    -0.036 A 
ATOM     13  C   UNL A   1      31.476  28.007  27.853  1.00  0.00     0.045 C 
BRANCH   8  14
ATOM     14  N   UNL A   1      32.039  26.446  22.352  1.00  0.00    -0.325 N 
ATOM     15  C   UNL A   1      33.020  25.631  21.843  1.00  0.00     0.234 C 
ATOM     16  O   UNL A   1      33.134  25.575  20.610  1.00  0.00    -0.274 OA
ATOM     17  H   UNL A   1      31.428  26.794  21.663  1.00  0.00     0.169 HD
BRANCH  15  18
ATOM     18  C   UNL A   1      33.807  24.652  22.696  1.00  0.00     0.170 C 
BRANCH  18  19
ATOM     19  S   UNL A   1      32.861  23.263  23.333  1.00  0.00    -0.147 SA
BRANCH  19  20
ATOM     20  C   UNL A   1      33.397  23.317  25.081  1.00  0.00     0.105 C 
BRANCH  20  21
ATOM     21  C   UNL A   1      34.855  22.964  25.251  1.00  0.00    -0.035 A 
ATOM     22  C   UNL A   1      34.555  20.426  24.862  1.00  0.00     0.044 C 
ATOM     23  C   UNL A   1      35.371  21.654  25.165  1.00  0.00    -0.047 A 
ATOM     24  C   UNL A   1      36.749  21.453  25.381  1.00  0.00     0.004 A 
ATOM     25  C   UNL A   1      37.610  22.518  25.647  1.00  0.00     0.000 A 
ATOM     26  C   UNL A   1      35.754  24.029  25.480  1.00  0.00     0.005 A 
ATOM     27  C   UNL A   1      37.112  23.811  25.686  1.00  0.00     0.000 A 
ENDBRANCH  20  21
ENDBRANCH  19  20
ENDBRANCH  18  19
ENDBRANCH  15  18
ENDBRANCH   8  14
ENDBRANCH   5   7
ENDBRANCH   4   5
ENDBRANCH   3   4
ENDBRANCH   2   3
ENDBRANCH   1   2
BRANCH   1  28
ATOM     28  C   UNL A   1      34.731  33.351  28.481  1.00  0.00     0.188 C 
BRANCH  28  29
ATOM     29  C   UNL A   1      33.328  33.827  28.139  1.00  0.00     0.188 C 
BRANCH  29  30
ATOM     30  O   UNL A   1      32.792  34.574  29.222  1.00  0.00    -0.376 OA
BRANCH  30  31
ATOM     31  C   UNL A   1      33.004  35.980  29.127  1.00  0.00     0.202 C 
BRANCH  31  32
ATOM     32  C   UNL A   1      32.772  36.750  30.447  1.00  0.00     0.261 C 
BRANCH  32  33
ATOM     33  O   UNL A   1      33.827  36.463  31.398  1.00  0.00    -0.460 OA
BRANCH  33  34
ATOM     34  C   UNL A   1      33.463  36.093  32.672  1.00  0.00     0.338 C 
ATOM     35  O   UNL A   1      32.754  36.741  33.407  1.00  0.00    -0.246 OA
BRANCH  34  36
ATOM     36  C   UNL A   1      34.287  34.905  33.107  1.00  0.00     0.060 A 
ATOM     37  C   UNL A   1      35.257  34.897  34.121  1.00  0.00     0.016 A 
ATOM     38  C   UNL A   1      34.348  33.878  32.225  1.00  0.00     0.016 A 
ATOM     39  C   UNL A   1      36.398  33.995  34.077  1.00  0.00     0.010 A 
ATOM     40  C   UNL A   1      35.575  33.238  32.083  1.00  0.00     0.010 A 
ATOM     41  C   UNL A   1      36.689  33.203  32.963  1.00  0.00    -0.014 A 
BRANCH  41  42
ATOM     42  C   UNL A   1      38.111  32.449  32.642  1.00  0.00     0.031 A 
ATOM     43  C   UNL A   1      38.478  31.003  31.957  1.00  0.00     0.074 A 
ATOM     44  C   UNL A   1      39.192  33.258  32.659  1.00  0.00     0.049 A 
ATOM     45  N   UNL A   1      39.220  30.883  30.883  1.00  0.00    -0.248 NA
ATOM     46  C   UNL A   1      38.031  29.624  32.350  1.00  0.00     0.031 C 
ATOM     47  C   UNL A   1      40.491  33.083  32.011  1.00  0.00     0.029 A 
ATOM     48  N   UNL A   1      39.397  34.372  33.477  1.00  0.00    -0.354 N 
ATOM     49  C   UNL A   1      39.179  29.592  30.384  1.00  0.00     0.074 A 
ATOM     50  C   UNL A   1      38.312  28.864  31.278  1.00  0.00     0.031 C 
ATOM     51  C   UNL A   1      41.415  33.769  32.694  1.00  0.00     0.029 A 
ATOM     52  C   UNL A   1      40.755  34.279  33.873  1.00  0.00     0.049 A 
ATOM     53  H   UNL A   1      38.745  35.065  33.724  1.00  0.00     0.167 HD
ATOM     54  C   UNL A   1      40.232  29.021  29.732  1.00  0.00     0.037 A 
ATOM     55  C   UNL A   1      41.012  33.938  35.167  1.00  0.00     0.037 A 
ATOM     56  C   UNL A   1      41.461  29.455  30.352  1.00  0.00     0.049 A 
ATOM     57  C   UNL A   1      41.586  32.533  35.276  1.00  0.00     0.074 A 
ATOM     58  C   UNL A   1      42.378  30.467  30.180  1.00  0.00     0.029 A 
ATOM     59  N   UNL A   1      41.693  28.932  31.604  1.00  0.00    -0.354 N 
ATOM     60  N   UNL A   1      41.869  31.772  34.248  1.00  0.00    -0.248 NA
ATOM     61  C   UNL A   1      41.847  31.849  36.538  1.00  0.00     0.031 C 
ATOM     62  C   UNL A   1      43.000  30.677  31.461  1.00  0.00     0.029 A 
ATOM     63  C   UNL A   1      42.491  29.754  32.367  1.00  0.00     0.049 A 
ATOM     64  H   UNL A   1      41.330  28.072  31.917  1.00  0.00     0.167 HD
ATOM     65  C   UNL A   1      42.273  30.538  34.665  1.00  0.00     0.074 A 
ATOM     66  C   UNL A   1      42.246  30.635  36.116  1.00  0.00     0.031 C 
ATOM     67  C   UNL A   1      42.570  29.512  33.809  1.00  0.00     0.037 A 
BRANCH  54  68
ATOM     68  C   UNL A   1      40.121  27.956  28.663  1.00  0.00     0.064 A 
ATOM     69  C   UNL A   1      39.511  26.715  28.953  1.00  0.00     0.173 A 
ATOM     70  C   UNL A   1      40.742  28.034  27.396  1.00  0.00     0.173 A 
ATOM     71  F   UNL A   1      38.879  26.515  30.119  1.00  0.00    -0.203 F 
ATOM     72  C   UNL A   1      39.556  25.628  28.070  1.00  0.00     0.198 A 
ATOM     73  C   UNL A   1      40.773  26.947  26.507  1.00  0.00     0.198 A 
ATOM     74  F   UNL A   1      41.343  29.159  26.988  1.00  0.00    -0.203 F 
ATOM     75  F   UNL A   1      38.997  24.459  28.420  1.00  0.00    -0.200 F 
ATOM     76  C   UNL A   1      40.195  25.740  26.851  1.00  0.00     0.200 A 
ATOM     77  F   UNL A   1      41.382  27.069  25.318  1.00  0.00    -0.200 F 
ATOM     78  F   UNL A   1      40.260  24.690  26.018  1.00  0.00    -0.200 F 
ENDBRANCH  54  68
BRANCH  55  79
ATOM     79  C   UNL A   1      40.056  34.681  36.062  1.00  0.00     0.064 A 
ATOM     80  C   UNL A   1      39.065  33.882  36.699  1.00  0.00     0.173 A 
ATOM     81  C   UNL A   1      40.361  35.901  36.674  1.00  0.00     0.173 A 
ATOM     82  F   UNL A   1      38.723  32.697  36.168  1.00  0.00    -0.203 F 
ATOM     83  C   UNL A   1      38.593  34.175  37.978  1.00  0.00     0.198 A 
ATOM     84  C   UNL A   1      39.798  36.239  37.917  1.00  0.00     0.198 A 
ATOM     85  F   UNL A   1      41.329  36.686  36.181  1.00  0.00    -0.203 F 
ATOM     86  F   UNL A   1      37.869  33.266  38.648  1.00  0.00    -0.200 F 
ATOM     87  C   UNL A   1      38.979  35.344  38.596  1.00  0.00     0.200 A 
ATOM     88  F   UNL A   1      40.203  37.352  38.547  1.00  0.00    -0.200 F 
ATOM     89  F   UNL A   1      38.639  35.574  39.873  1.00  0.00    -0.200 F 
ENDBRANCH  55  79
BRANCH  67  90
ATOM     90  C   UNL A   1      42.944  28.153  34.335  1.00  0.00     0.064 A 
ATOM     91  C   UNL A   1      41.972  27.166  34.551  1.00  0.00     0.173 A 
ATOM     92  C   UNL A   1      44.261  27.823  34.715  1.00  0.00     0.173 A 
ATOM     93  F   UNL A   1      40.688  27.398  34.242  1.00  0.00    -0.203 F 
ATOM     94  C   UNL A   1      42.305  25.918  35.079  1.00  0.00     0.198 A 
ATOM     95  C   UNL A   1      44.577  26.609  35.320  1.00  0.00     0.198 A 
ATOM     96  F   UNL A   1      45.286  28.657  34.481  1.00  0.00    -0.203 F 
ATOM     97  F   UNL A   1      41.362  24.973  35.189  1.00  0.00    -0.200 F 
ATOM     98  C   UNL A   1      43.601  25.648  35.484  1.00  0.00     0.200 A 
ATOM     99  F   UNL A   1      45.833  26.377  35.727  1.00  0.00    -0.200 F 
ATOM    100  F   UNL A   1      43.913  24.460  36.017  1.00  0.00    -0.200 F 
ENDBRANCH  67  90
ENDBRANCH  41  42
ENDBRANCH  34  36
ENDBRANCH  33  34
ENDBRANCH  32  33
ENDBRANCH  31  32
ENDBRANCH  30  31
ENDBRANCH  29  30
ENDBRANCH  28  29
ENDBRANCH   1  28
TORSDOF 22
ENDMDL
MODEL 2
REMARK VINA RESULT:     -11.8      1.589      2.184
REMARK SMILES Cc1ccccc1CSCC(=O)Nc1ccc(C)c(C(=O)OCCOCCOCCOC(=O)c2ccc(-c3c4nc(c(-c5c(F)c(F)c(F)c(F)c5F)c5ccc([nH]5)c(-c5c(F)c(F)c(F)c(F)c5F)c5nc(c(-c6c(F)c(F)c(F)c(F)c6F)c6ccc3[nH]6)C=C5)C=C4)cc2)c1
REMARK SMILES IDX 25 1 24 2 23 3 22 4 20 5 21 6 19 7 14 8 15 9 97 10 16 11
REMARK SMILES IDX 17 12 18 13 13 14 11 15 12 16 10 18 9 19 8 20 7 21 1 22 2 23
REMARK SMILES IDX 3 24 4 25 6 26 5 27 26 28 27 29 28 30 29 31 30 32 31 33
REMARK SMILES IDX 32 34 33 35 34 36 35 37 96 38 36 39 95 40 37 41 38 42 39 43
REMARK SMILES IDX 89 44 40 45 94 46 88 47 90 48 41 49 93 50 87 51 86 52 42 54
REMARK SMILES IDX 74 55 54 56 73 57 55 58 58 59 72 60 91 61 56 62 57 63 71 65
REMARK SMILES IDX 92 66 59 67 43 68 44 69 52 70 45 71 46 72 50 73 53 74 47 75
REMARK SMILES IDX 48 76 51 77 49 78 75 79 76 80 84 81 77 82 78 83 82 84 85 85
REMARK SMILES IDX 79 86 80 87 83 88 81 89 60 90 61 91 69 92 62 93 63 94 67 95
REMARK SMILES IDX 70 96 64 97 65 98 68 99 66 100
REMARK H PARENT 13 17 90 53 58 64
REMARK Flexibility Score: inf
ROOT
ATOM      1  O   UNL A   1      35.385  32.670  27.470  1.00  0.00    -0.376 OA
ENDROOT
BRANCH   1   2
ATOM      2  C   UNL A   1      35.379  31.360  28.055  1.00  0.00     0.202 C 
BRANCH   2   3
ATOM      3  C   UNL A   1      34.345  30.238  27.625  1.00  0.00     0.261 C 
BRANCH   3   4
ATOM      4  O   UNL A   1      34.325  29.773  26.219  1.00  0.00    -0.460 OA
BRANCH   4   5
ATOM      5  C   UNL A   1      33.267  29.217  25.512  1.00  0.00     0.338 C 
ATOM      6  O   UNL A   1      32.466  29.943  24.937  1.00  0.00    -0.246 OA
BRANCH   5   7
ATOM      7  C   UNL A   1      33.058  27.564  25.499  1.00  0.00     0.065 A 
ATOM      8  C   UNL A   1      33.394  25.189  24.537  1.00  0.00     0.042 A 
ATOM      9  C   UNL A   1      32.517  24.678  25.449  1.00  0.00     0.026 A 
ATOM     10  C   UNL A   1      33.650  26.570  24.640  1.00  0.00     0.042 A 
ATOM     11  C   UNL A   1      31.928  25.566  26.370  1.00  0.00     0.006 A 
ATOM     12  C   UNL A   1      32.176  26.981  26.401  1.00  0.00    -0.036 A 
ATOM     13  C   UNL A   1      31.579  27.768  27.524  1.00  0.00     0.045 C 
BRANCH   8  14
ATOM     14  N   UNL A   1      34.210  24.400  23.683  1.00  0.00    -0.325 N 
ATOM     15  C   UNL A   1      35.341  23.649  23.885  1.00  0.00     0.234 C 
ATOM     16  O   UNL A   1      35.924  23.213  22.882  1.00  0.00    -0.274 OA
ATOM     17  H   UNL A   1      33.899  24.390  22.749  1.00  0.00     0.169 HD
BRANCH  15  18
ATOM     18  C   UNL A   1      35.774  23.157  25.255  1.00  0.00     0.170 C 
BRANCH  18  19
ATOM     19  S   UNL A   1      35.598  21.389  25.522  1.00  0.00    -0.147 SA
BRANCH  19  20
ATOM     20  C   UNL A   1      33.803  21.219  25.209  1.00  0.00     0.105 C 
BRANCH  20  21
ATOM     21  C   UNL A   1      33.469  19.978  24.418  1.00  0.00    -0.035 A 
ATOM     22  C   UNL A   1      31.940  21.166  22.705  1.00  0.00     0.044 C 
ATOM     23  C   UNL A   1      32.615  19.957  23.296  1.00  0.00    -0.047 A 
ATOM     24  C   UNL A   1      32.352  18.724  22.665  1.00  0.00     0.004 A 
ATOM     25  C   UNL A   1      32.939  17.539  23.108  1.00  0.00     0.000 A 
ATOM     26  C   UNL A   1      34.082  18.770  24.820  1.00  0.00     0.005 A 
ATOM     27  C   UNL A   1      33.815  17.564  24.182  1.00  0.00     0.000 A 
ENDBRANCH  20  21
ENDBRANCH  19  20
ENDBRANCH  18  19
ENDBRANCH  15  18
ENDBRANCH   8  14
ENDBRANCH   5   7
ENDBRANCH   4   5
ENDBRANCH   3   4
ENDBRANCH   2   3
ENDBRANCH   1   2
BRANCH   1  28
ATOM     28  C   UNL A   1      34.629  33.706  28.083  1.00  0.00     0.188 C 
BRANCH  28  29
ATOM     29  C   UNL A   1      33.114  33.758  27.971  1.00  0.00     0.188 C 
BRANCH  29  30
ATOM     30  O   UNL A   1      32.580  34.572  29.006  1.00  0.00    -0.376 OA
BRANCH  30  31
ATOM     31  C   UNL A   1      33.137  35.882  29.069  1.00  0.00     0.202 C 
BRANCH  31  32
ATOM     32  C   UNL A   1      33.450  36.373  30.501  1.00  0.00     0.261 C 
BRANCH  32  33
ATOM     33  O   UNL A   1      34.205  35.374  31.230  1.00  0.00    -0.460 OA
BRANCH  33  34
ATOM     34  C   UNL A   1      33.564  34.692  32.239  1.00  0.00     0.338 C 
ATOM     35  O   UNL A   1      32.625  35.113  32.872  1.00  0.00    -0.246 OA
BRANCH  34  36
ATOM     36  C   UNL A   1      34.370  33.471  32.613  1.00  0.00     0.060 A 
ATOM     37  C   UNL A   1      35.203  33.340  33.735  1.00  0.00     0.016 A 
ATOM     38  C   UNL A   1      34.581  32.578  31.615  1.00  0.00     0.016 A 
ATOM     39  C   UNL A   1      36.374  32.476  33.719  1.00  0.00     0.010 A 
ATOM     40  C   UNL A   1      35.839  31.988  31.550  1.00  0.00     0.010 A 
ATOM     41  C   UNL A   1      36.833  31.852  32.556  1.00  0.00    -0.014 A 
BRANCH  41  42
ATOM     42  C   UNL A   1      38.311  31.177  32.324  1.00  0.00     0.031 A 
ATOM     43  C   UNL A   1      38.793  29.708  31.773  1.00  0.00     0.074 A 
ATOM     44  C   UNL A   1      39.332  32.060  32.288  1.00  0.00     0.049 A 
ATOM     45  N   UNL A   1      39.566  29.551  30.725  1.00  0.00    -0.248 NA
ATOM     46  C   UNL A   1      38.436  28.340  32.275  1.00  0.00     0.031 C 
ATOM     47  C   UNL A   1      40.654  31.924  31.680  1.00  0.00     0.029 A 
ATOM     48  N   UNL A   1      39.440  33.251  33.011  1.00  0.00    -0.354 N 
ATOM     49  C   UNL A   1      39.626  28.223  30.338  1.00  0.00     0.074 A 
ATOM     50  C   UNL A   1      38.793  27.513  31.278  1.00  0.00     0.031 C 
ATOM     51  C   UNL A   1      41.512  32.731  32.316  1.00  0.00     0.029 A 
ATOM     52  C   UNL A   1      40.792  33.290  33.435  1.00  0.00     0.049 A 
ATOM     53  H   UNL A   1      38.735  33.915  33.186  1.00  0.00     0.167 HD
ATOM     54  C   UNL A   1      40.731  27.676  29.756  1.00  0.00     0.037 A 
ATOM     55  C   UNL A   1      41.043  33.080  34.757  1.00  0.00     0.037 A 
ATOM     56  C   UNL A   1      41.913  28.248  30.356  1.00  0.00     0.049 A 
ATOM     57  C   UNL A   1      41.711  31.734  34.997  1.00  0.00     0.074 A 
ATOM     58  C   UNL A   1      42.760  29.305  30.112  1.00  0.00     0.029 A 
ATOM     59  N   UNL A   1      42.153  27.851  31.652  1.00  0.00    -0.354 N 
ATOM     60  N   UNL A   1      42.070  30.910  34.043  1.00  0.00    -0.248 NA
ATOM     61  C   UNL A   1      41.991  31.180  36.317  1.00  0.00     0.031 C 
ATOM     62  C   UNL A   1      43.337  29.666  31.380  1.00  0.00     0.029 A 
ATOM     63  C   UNL A   1      42.874  28.790  32.354  1.00  0.00     0.049 A 
ATOM     64  H   UNL A   1      41.844  26.997  32.032  1.00  0.00     0.167 HD
ATOM     65  C   UNL A   1      42.550  29.748  34.571  1.00  0.00     0.074 A 
ATOM     66  C   UNL A   1      42.484  29.966  36.008  1.00  0.00     0.031 C 
ATOM     67  C   UNL A   1      42.937  28.677  33.813  1.00  0.00     0.037 A 
BRANCH  54  68
ATOM     68  C   UNL A   1      40.720  26.518  28.781  1.00  0.00     0.064 A 
ATOM     69  C   UNL A   1      39.582  26.272  27.979  1.00  0.00     0.173 A 
ATOM     70  C   UNL A   1      41.723  25.526  28.713  1.00  0.00     0.173 A 
ATOM     71  F   UNL A   1      38.562  27.143  27.947  1.00  0.00    -0.203 F 
ATOM     72  C   UNL A   1      39.439  25.110  27.210  1.00  0.00     0.198 A 
ATOM     73  C   UNL A   1      41.583  24.369  27.928  1.00  0.00     0.198 A 
ATOM     74  F   UNL A   1      42.861  25.644  29.409  1.00  0.00    -0.203 F 
ATOM     75  F   UNL A   1      38.315  24.910  26.504  1.00  0.00    -0.200 F 
ATOM     76  C   UNL A   1      40.435  24.154  27.191  1.00  0.00     0.200 A 
ATOM     77  F   UNL A   1      42.562  23.452  27.904  1.00  0.00    -0.200 F 
ATOM     78  F   UNL A   1      40.284  23.030  26.475  1.00  0.00    -0.200 F 
ENDBRANCH  54  68
BRANCH  55  79
ATOM     79  C   UNL A   1      40.018  33.825  35.570  1.00  0.00     0.064 A 
ATOM     80  C   UNL A   1      39.073  33.015  36.259  1.00  0.00     0.173 A 
ATOM     81  C   UNL A   1      40.221  35.112  36.077  1.00  0.00     0.173 A 
ATOM     82  F   UNL A   1      38.827  31.766  35.828  1.00  0.00    -0.203 F 
ATOM     83  C   UNL A   1      38.554  33.381  37.500  1.00  0.00     0.198 A 
ATOM     84  C   UNL A   1      39.609  35.514  37.277  1.00  0.00     0.198 A 
ATOM     85  F   UNL A   1      41.142  35.921  35.533  1.00  0.00    -0.203 F 
ATOM     86  F   UNL A   1      37.882  32.483  38.236  1.00  0.00    -0.200 F 
ATOM     87  C   UNL A   1      38.842  34.625  38.019  1.00  0.00     0.200 A 
ATOM     88  F   UNL A   1      39.921  36.705  37.814  1.00  0.00    -0.200 F 
ATOM     89  F   UNL A   1      38.459  34.938  39.266  1.00  0.00    -0.200 F 
ENDBRANCH  55  79
BRANCH  67  90
ATOM     90  C   UNL A   1      43.394  27.399  34.460  1.00  0.00     0.064 A 
ATOM     91  C   UNL A   1      42.474  26.419  34.860  1.00  0.00     0.173 A 
ATOM     92  C   UNL A   1      44.745  27.147  34.774  1.00  0.00     0.173 A 
ATOM     93  F   UNL A   1      41.163  26.582  34.625  1.00  0.00    -0.203 F 
ATOM     94  C   UNL A   1      42.886  25.250  35.500  1.00  0.00     0.198 A 
ATOM     95  C   UNL A   1      45.145  26.020  35.487  1.00  0.00     0.198 A 
ATOM     96  F   UNL A   1      45.722  27.974  34.369  1.00  0.00    -0.203 F 
ATOM     97  F   UNL A   1      41.986  24.300  35.787  1.00  0.00    -0.200 F 
ATOM     98  C   UNL A   1      44.216  25.061  35.834  1.00  0.00     0.200 A 
ATOM     99  F   UNL A   1      46.434  25.869  35.822  1.00  0.00    -0.200 F 
ATOM    100  F   UNL A   1      44.605  23.951  36.473  1.00  0.00    -0.200 F 
ENDBRANCH  67  90
ENDBRANCH  41  42
ENDBRANCH  34  36
ENDBRANCH  33  34
ENDBRANCH  32  33
ENDBRANCH  31  32
ENDBRANCH  30  31
ENDBRANCH  29  30
ENDBRANCH  28  29
ENDBRANCH   1  28
TORSDOF 22
ENDMDL
MODEL 3
REMARK VINA RESULT:     -11.7      1.754      3.043
REMARK SMILES Cc1ccccc1CSCC(=O)Nc1ccc(C)c(C(=O)OCCOCCOCCOC(=O)c2ccc(-c3c4nc(c(-c5c(F)c(F)c(F)c(F)c5F)c5ccc([nH]5)c(-c5c(F)c(F)c(F)c(F)c5F)c5nc(c(-c6c(F)c(F)c(F)c(F)c6F)c6ccc3[nH]6)C=C5)C=C4)cc2)c1
REMARK SMILES IDX 25 1 24 2 23 3 22 4 20 5 21 6 19 7 14 8 15 9 97 10 16 11
REMARK SMILES IDX 17 12 18 13 13 14 11 15 12 16 10 18 9 19 8 20 7 21 1 22 2 23
REMARK SMILES IDX 3 24 4 25 6 26 5 27 26 28 27 29 28 30 29 31 30 32 31 33
REMARK SMILES IDX 32 34 33 35 34 36 35 37 96 38 36 39 95 40 37 41 38 42 39 43
REMARK SMILES IDX 89 44 40 45 94 46 88 47 90 48 41 49 93 50 87 51 86 52 42 54
REMARK SMILES IDX 74 55 54 56 73 57 55 58 58 59 72 60 91 61 56 62 57 63 71 65
REMARK SMILES IDX 92 66 59 67 43 68 44 69 52 70 45 71 46 72 50 73 53 74 47 75
REMARK SMILES IDX 48 76 51 77 49 78 75 79 76 80 84 81 77 82 78 83 82 84 85 85
REMARK SMILES IDX 79 86 80 87 83 88 81 89 60 90 61 91 69 92 62 93 63 94 67 95
REMARK SMILES IDX 70 96 64 97 65 98 68 99 66 100
REMARK H PARENT 13 17 90 53 58 64
REMARK Flexibility Score: inf
ROOT
ATOM      1  O   UNL A   1      35.256  33.612  27.495  1.00  0.00    -0.376 OA
ENDROOT
BRANCH   1   2
ATOM      2  C   UNL A   1      35.268  32.208  27.789  1.00  0.00     0.202 C 
BRANCH   2   3
ATOM      3  C   UNL A   1      33.938  31.353  27.919  1.00  0.00     0.261 C 
BRANCH   3   4
ATOM      4  O   UNL A   1      33.913  29.969  27.395  1.00  0.00    -0.460 OA
BRANCH   4   5
ATOM      5  C   UNL A   1      33.001  29.398  26.516  1.00  0.00     0.338 C 
ATOM      6  O   UNL A   1      31.908  29.921  26.342  1.00  0.00    -0.246 OA
BRANCH   5   7
ATOM      7  C   UNL A   1      33.377  27.967  25.750  1.00  0.00     0.065 A 
ATOM      8  C   UNL A   1      33.813  25.421  25.671  1.00  0.00     0.042 A 
ATOM      9  C   UNL A   1      34.201  25.512  24.366  1.00  0.00     0.026 A 
ATOM     10  C   UNL A   1      33.384  26.622  26.268  1.00  0.00     0.042 A 
ATOM     11  C   UNL A   1      34.175  26.780  23.754  1.00  0.00     0.006 A 
ATOM     12  C   UNL A   1      33.783  27.991  24.421  1.00  0.00    -0.036 A 
ATOM     13  C   UNL A   1      33.678  29.236  23.599  1.00  0.00     0.045 C 
BRANCH   8  14
ATOM     14  N   UNL A   1      33.599  24.197  26.358  1.00  0.00    -0.325 N 
ATOM     15  C   UNL A   1      33.329  22.915  25.945  1.00  0.00     0.234 C 
ATOM     16  O   UNL A   1      33.017  22.089  26.815  1.00  0.00    -0.274 OA
ATOM     17  H   UNL A   1      33.654  24.286  27.337  1.00  0.00     0.169 HD
BRANCH  15  18
ATOM     18  C   UNL A   1      33.604  22.425  24.535  1.00  0.00     0.170 C 
BRANCH  18  19
ATOM     19  S   UNL A   1      32.163  22.331  23.465  1.00  0.00    -0.147 SA
BRANCH  19  20
ATOM     20  C   UNL A   1      30.995  23.334  24.453  1.00  0.00     0.105 C 
BRANCH  20  21
ATOM     21  C   UNL A   1      30.829  24.733  23.908  1.00  0.00    -0.035 A 
ATOM     22  C   UNL A   1      29.813  25.732  26.064  1.00  0.00     0.044 C 
ATOM     23  C   UNL A   1      30.281  25.809  24.636  1.00  0.00    -0.047 A 
ATOM     24  C   UNL A   1      30.145  27.059  23.999  1.00  0.00     0.004 A 
ATOM     25  C   UNL A   1      30.565  27.258  22.684  1.00  0.00     0.000 A 
ATOM     26  C   UNL A   1      31.284  24.971  22.592  1.00  0.00     0.005 A 
ATOM     27  C   UNL A   1      31.146  26.214  21.982  1.00  0.00     0.000 A 
ENDBRANCH  20  21
ENDBRANCH  19  20
ENDBRANCH  18  19
ENDBRANCH  15  18
ENDBRANCH   8  14
ENDBRANCH   5   7
ENDBRANCH   4   5
ENDBRANCH   3   4
ENDBRANCH   2   3
ENDBRANCH   1   2
BRANCH   1  28
ATOM     28  C   UNL A   1      34.267  34.438  28.093  1.00  0.00     0.188 C 
BRANCH  28  29
ATOM     29  C   UNL A   1      34.350  35.955  28.027  1.00  0.00     0.188 C 
BRANCH  29  30
ATOM     30  O   UNL A   1      33.512  36.530  29.020  1.00  0.00    -0.376 OA
BRANCH  30  31
ATOM     31  C   UNL A   1      32.891  35.583  29.884  1.00  0.00     0.202 C 
BRANCH  31  32
ATOM     32  C   UNL A   1      32.654  36.093  31.324  1.00  0.00     0.261 C 
BRANCH  32  33
ATOM     33  O   UNL A   1      33.107  35.115  32.293  1.00  0.00    -0.460 OA
BRANCH  33  34
ATOM     34  C   UNL A   1      34.438  35.127  32.645  1.00  0.00     0.338 C 
ATOM     35  O   UNL A   1      35.070  36.115  32.933  1.00  0.00    -0.246 OA
BRANCH  34  36
ATOM     36  C   UNL A   1      35.046  33.775  32.358  1.00  0.00     0.060 A 
ATOM     37  C   UNL A   1      35.300  32.765  33.299  1.00  0.00     0.016 A 
ATOM     38  C   UNL A   1      35.715  33.668  31.184  1.00  0.00     0.016 A 
ATOM     39  C   UNL A   1      36.392  31.818  33.126  1.00  0.00     0.010 A 
ATOM     40  C   UNL A   1      36.895  32.932  31.193  1.00  0.00     0.010 A 
ATOM     41  C   UNL A   1      37.345  31.947  32.112  1.00  0.00    -0.014 A 
BRANCH  41  42
ATOM     42  C   UNL A   1      38.800  31.191  32.034  1.00  0.00     0.031 A 
ATOM     43  C   UNL A   1      39.260  29.707  31.503  1.00  0.00     0.074 A 
ATOM     44  C   UNL A   1      39.866  32.013  32.139  1.00  0.00     0.049 A 
ATOM     45  N   UNL A   1      40.139  29.526  30.547  1.00  0.00    -0.248 NA
ATOM     46  C   UNL A   1      38.770  28.352  31.924  1.00  0.00     0.031 C 
ATOM     47  C   UNL A   1      41.240  31.811  31.683  1.00  0.00     0.029 A 
ATOM     48  N   UNL A   1      39.956  33.180  32.901  1.00  0.00    -0.354 N 
ATOM     49  C   UNL A   1      40.169  28.204  30.134  1.00  0.00     0.074 A 
ATOM     50  C   UNL A   1      39.194  27.526  30.953  1.00  0.00     0.031 C 
ATOM     51  C   UNL A   1      42.062  32.553  32.435  1.00  0.00     0.029 A 
ATOM     52  C   UNL A   1      41.250  33.132  33.478  1.00  0.00     0.049 A 
ATOM     53  H   UNL A   1      39.274  33.881  33.011  1.00  0.00     0.167 HD
ATOM     54  C   UNL A   1      41.302  27.605  29.668  1.00  0.00     0.037 A 
ATOM     55  C   UNL A   1      41.333  32.880  34.815  1.00  0.00     0.037 A 
ATOM     56  C   UNL A   1      42.436  28.094  30.415  1.00  0.00     0.049 A 
ATOM     57  C   UNL A   1      41.892  31.493  35.094  1.00  0.00     0.074 A 
ATOM     58  C   UNL A   1      43.364  29.104  30.299  1.00  0.00     0.029 A 
ATOM     59  N   UNL A   1      42.500  27.658  31.719  1.00  0.00    -0.354 N 
ATOM     60  N   UNL A   1      42.313  30.669  34.166  1.00  0.00    -0.248 NA
ATOM     61  C   UNL A   1      41.985  30.897  36.422  1.00  0.00     0.031 C 
ATOM     62  C   UNL A   1      43.808  29.406  31.633  1.00  0.00     0.029 A 
ATOM     63  C   UNL A   1      43.187  28.539  32.524  1.00  0.00     0.049 A 
ATOM     64  H   UNL A   1      42.103  26.816  32.038  1.00  0.00     0.167 HD
ATOM     65  C   UNL A   1      42.662  29.470  34.715  1.00  0.00     0.074 A 
ATOM     66  C   UNL A   1      42.442  29.663  36.140  1.00  0.00     0.031 C 
ATOM     67  C   UNL A   1      43.074  28.393  33.977  1.00  0.00     0.037 A 
BRANCH  54  68
ATOM     68  C   UNL A   1      41.339  26.470  28.668  1.00  0.00     0.064 A 
ATOM     69  C   UNL A   1      40.282  26.298  27.745  1.00  0.00     0.173 A 
ATOM     70  C   UNL A   1      42.294  25.430  28.680  1.00  0.00     0.173 A 
ATOM     71  F   UNL A   1      39.315  27.220  27.628  1.00  0.00    -0.203 F 
ATOM     72  C   UNL A   1      40.166  25.161  26.935  1.00  0.00     0.198 A 
ATOM     73  C   UNL A   1      42.184  24.298  27.856  1.00  0.00     0.198 A 
ATOM     74  F   UNL A   1      43.357  25.476  29.496  1.00  0.00    -0.203 F 
ATOM     75  F   UNL A   1      39.115  25.032  26.110  1.00  0.00    -0.200 F 
ATOM     76  C   UNL A   1      41.111  24.156  26.997  1.00  0.00     0.200 A 
ATOM     77  F   UNL A   1      43.115  23.334  27.911  1.00  0.00    -0.200 F 
ATOM     78  F   UNL A   1      40.985  23.056  26.239  1.00  0.00    -0.200 F 
ENDBRANCH  54  68
BRANCH  55  79
ATOM     79  C   UNL A   1      40.264  33.668  35.524  1.00  0.00     0.064 A 
ATOM     80  C   UNL A   1      39.171  32.907  36.027  1.00  0.00     0.173 A 
ATOM     81  C   UNL A   1      40.492  34.907  36.132  1.00  0.00     0.173 A 
ATOM     82  F   UNL A   1      38.894  31.707  35.490  1.00  0.00    -0.203 F 
ATOM     83  C   UNL A   1      38.512  33.254  37.205  1.00  0.00     0.198 A 
ATOM     84  C   UNL A   1      39.750  35.298  37.259  1.00  0.00     0.198 A 
ATOM     85  F   UNL A   1      41.540  35.660  35.769  1.00  0.00    -0.203 F 
ATOM     86  F   UNL A   1      37.676  32.381  37.786  1.00  0.00    -0.200 F 
ATOM     87  C   UNL A   1      38.819  34.441  37.834  1.00  0.00     0.200 A 
ATOM     88  F   UNL A   1      40.073  36.430  37.905  1.00  0.00    -0.200 F 
ATOM     89  F   UNL A   1      38.289  34.723  39.033  1.00  0.00    -0.200 F 
ENDBRANCH  55  79
BRANCH  67  90
ATOM     90  C   UNL A   1      43.379  27.078  34.638  1.00  0.00     0.064 A 
ATOM     91  C   UNL A   1      44.694  26.716  34.961  1.00  0.00     0.173 A 
ATOM     92  C   UNL A   1      42.387  26.108  34.894  1.00  0.00     0.173 A 
ATOM     93  F   UNL A   1      45.708  27.564  34.731  1.00  0.00    -0.203 F 
ATOM     94  C   UNL A   1      44.991  25.479  35.535  1.00  0.00     0.198 A 
ATOM     95  C   UNL A   1      42.695  24.843  35.387  1.00  0.00     0.198 A 
ATOM     96  F   UNL A   1      41.086  26.373  34.701  1.00  0.00    -0.203 F 
ATOM     97  F   UNL A   1      46.248  25.207  35.908  1.00  0.00    -0.200 F 
ATOM     98  C   UNL A   1      43.996  24.535  35.727  1.00  0.00     0.200 A 
ATOM     99  F   UNL A   1      41.721  23.936  35.542  1.00  0.00    -0.200 F 
ATOM    100  F   UNL A   1      44.287  23.338  36.251  1.00  0.00    -0.200 F 
ENDBRANCH  67  90
ENDBRANCH  41  42
ENDBRANCH  34  36
ENDBRANCH  33  34
ENDBRANCH  32  33
ENDBRANCH  31  32
ENDBRANCH  30  31
ENDBRANCH  29  30
ENDBRANCH  28  29
ENDBRANCH   1  28
TORSDOF 22
ENDMDL
