MODEL 1
REMARK VINA RESULT:     -10.2      0.000      0.000
REMARK SMILES CC(C)C[C@H](NC(=O)[C@H]1N2C(=O)c3ccccc3[C@@H]2SC1(C)C)C(=O)N[C@@H](C)C(=O)OCCOCCOCCOC(=O)c1ccc(-c2c3nc(c(-c4c(F)c(F)c(F)c(F)c4F)c4ccc([nH]4)c(-c4c(F)c(F)c(F)c(F)c4F)c4nc(c(-c5c(F)c(F)c(F)c(F)c5F)c5ccc2[nH]5)C=C4)C=C3)cc1
REMARK SMILES IDX 35 1 34 2 33 3 32 4 31 5 29 6 30 7 27 8 28 9 26 10 24 11
REMARK SMILES IDX 25 12 5 14 4 15 2 16 1 17 3 18 6 19 7 20 8 22 9 23 10 24
REMARK SMILES IDX 21 25 11 26 19 27 20 28 22 29 23 30 12 31 13 32 18 33 14 34
REMARK SMILES IDX 17 35 15 36 16 37 36 38 37 39 38 40 39 41 40 42 41 43 42 44
REMARK SMILES IDX 43 45 44 46 105 47 45 48 104 49 46 50 47 51 48 52 98 53
REMARK SMILES IDX 49 54 103 55 97 56 99 57 50 58 102 59 96 60 95 61 51 63
REMARK SMILES IDX 83 64 63 65 82 66 64 67 67 68 81 69 100 70 65 71 66 72 80 74
REMARK SMILES IDX 101 75 68 76 52 77 53 78 61 79 54 80 55 81 59 82 62 83 56 84
REMARK SMILES IDX 57 85 60 86 58 87 84 88 85 89 93 90 86 91 87 92 91 93 94 94
REMARK SMILES IDX 88 95 89 96 92 97 90 98 69 99 70 100 78 101 71 102 72 103
REMARK SMILES IDX 76 104 79 105 73 106 74 107 77 108 75 109
REMARK H PARENT 26 13 6 21 99 62 67 73
REMARK Flexibility Score: inf
ROOT
ATOM      1  C   UNL A   1      37.366  33.592  29.566  1.00  0.00     0.188 C 
ENDROOT
BRANCH   1   2
ATOM      2  O   UNL A   1      36.120  34.071  29.066  1.00  0.00    -0.376 OA
BRANCH   2   3
ATOM      3  C   UNL A   1      35.046  33.146  29.232  1.00  0.00     0.202 C 
BRANCH   3   4
ATOM      4  C   UNL A   1      35.338  31.641  29.018  1.00  0.00     0.261 C 
BRANCH   4   5
ATOM      5  O   UNL A   1      35.173  31.158  27.665  1.00  0.00    -0.462 OA
BRANCH   5   6
ATOM      6  C   UNL A   1      35.231  29.812  27.468  1.00  0.00     0.328 C 
ATOM      7  O   UNL A   1      36.254  29.150  27.598  1.00  0.00    -0.250 OA
BRANCH   6   8
ATOM      8  C   UNL A   1      33.916  29.219  26.879  1.00  0.00     0.189 C 
ATOM      9  C   UNL A   1      33.233  30.325  26.077  1.00  0.00     0.043 C 
BRANCH   8  10
ATOM     10  N   UNL A   1      32.892  28.681  27.790  1.00  0.00    -0.341 N 
ATOM     11  C   UNL A   1      31.773  27.936  27.528  1.00  0.00     0.243 C 
ATOM     12  O   UNL A   1      30.850  28.018  28.348  1.00  0.00    -0.273 OA
ATOM     13  H   UNL A   1      33.036  28.891  28.740  1.00  0.00     0.164 HD
BRANCH  11  14
ATOM     14  C   UNL A   1      31.641  26.961  26.306  1.00  0.00     0.171 C 
BRANCH  14  15
ATOM     15  C   UNL A   1      30.967  27.662  25.135  1.00  0.00     0.038 C 
BRANCH  15  16
ATOM     16  C   UNL A   1      31.666  27.402  23.805  1.00  0.00    -0.015 C 
ATOM     17  C   UNL A   1      31.094  28.172  22.615  1.00  0.00     0.007 C 
ATOM     18  C   UNL A   1      33.160  27.570  24.044  1.00  0.00     0.007 C 
ENDBRANCH  15  16
ENDBRANCH  14  15
BRANCH  14  19
ATOM     19  N   UNL A   1      31.071  25.647  26.554  1.00  0.00    -0.342 N 
ATOM     20  C   UNL A   1      31.443  24.417  26.059  1.00  0.00     0.244 C 
ATOM     21  H   UNL A   1      30.302  25.634  27.169  1.00  0.00     0.164 HD
ATOM     22  O   UNL A   1      30.709  23.492  26.421  1.00  0.00    -0.273 OA
BRANCH  20  23
ATOM     23  C   UNL A   1      32.505  24.231  24.903  1.00  0.00     0.191 C 
ATOM     24  N   UNL A   1      33.641  23.354  25.186  1.00  0.00    -0.309 N 
ATOM     25  C   UNL A   1      32.019  23.735  23.503  1.00  0.00     0.042 C 
ATOM     26  C   UNL A   1      34.933  23.714  24.815  1.00  0.00     0.256 C 
ATOM     27  C   UNL A   1      33.435  21.943  24.987  1.00  0.00     0.176 C 
ATOM     28  S   UNL A   1      32.443  21.906  23.468  1.00  0.00    -0.123 SA
ATOM     29  C   UNL A   1      30.537  23.879  23.184  1.00  0.00     0.026 C 
ATOM     30  C   UNL A   1      32.816  24.456  22.386  1.00  0.00     0.026 C 
ATOM     31  O   UNL A   1      35.316  24.826  24.583  1.00  0.00    -0.269 OA
ATOM     32  C   UNL A   1      35.720  22.472  24.725  1.00  0.00     0.046 A 
ATOM     33  C   UNL A   1      34.831  21.411  24.864  1.00  0.00    -0.002 A 
ATOM     34  C   UNL A   1      37.094  22.308  24.643  1.00  0.00     0.014 A 
ATOM     35  C   UNL A   1      35.330  20.121  24.957  1.00  0.00     0.007 A 
ATOM     36  C   UNL A   1      37.599  21.018  24.774  1.00  0.00     0.001 A 
ATOM     37  C   UNL A   1      36.722  19.933  24.930  1.00  0.00     0.000 A 
ENDBRANCH  20  23
ENDBRANCH  14  19
ENDBRANCH  11  14
ENDBRANCH   8  10
ENDBRANCH   6   8
ENDBRANCH   5   6
ENDBRANCH   4   5
ENDBRANCH   3   4
ENDBRANCH   2   3
ENDBRANCH   1   2
BRANCH   1  38
ATOM     38  C   UNL A   1      37.933  34.463  30.676  1.00  0.00     0.188 C 
BRANCH  38  39
ATOM     39  O   UNL A   1      38.018  33.764  31.907  1.00  0.00    -0.376 OA
BRANCH  39  40
ATOM     40  C   UNL A   1      36.743  33.508  32.501  1.00  0.00     0.202 C 
BRANCH  40  41
ATOM     41  C   UNL A   1      36.783  32.350  33.512  1.00  0.00     0.261 C 
BRANCH  41  42
ATOM     42  O   UNL A   1      36.834  31.031  32.904  1.00  0.00    -0.460 OA
BRANCH  42  43
ATOM     43  C   UNL A   1      37.952  30.316  33.212  1.00  0.00     0.338 C 
ATOM     44  O   UNL A   1      38.039  29.438  34.058  1.00  0.00    -0.246 OA
BRANCH  43  45
ATOM     45  C   UNL A   1      39.078  30.582  32.284  1.00  0.00     0.060 A 
ATOM     46  C   UNL A   1      39.031  30.507  30.889  1.00  0.00     0.016 A 
ATOM     47  C   UNL A   1      40.209  31.120  32.865  1.00  0.00     0.016 A 
ATOM     48  C   UNL A   1      40.157  30.902  30.107  1.00  0.00     0.010 A 
ATOM     49  C   UNL A   1      41.324  31.447  32.100  1.00  0.00     0.010 A 
ATOM     50  C   UNL A   1      41.343  31.342  30.716  1.00  0.00    -0.014 A 
BRANCH  50  51
ATOM     51  C   UNL A   1      42.569  31.885  30.049  1.00  0.00     0.031 A 
ATOM     52  C   UNL A   1      42.675  33.312  29.555  1.00  0.00     0.074 A 
ATOM     53  C   UNL A   1      43.445  31.013  29.505  1.00  0.00     0.049 A 
ATOM     54  N   UNL A   1      43.722  33.955  29.090  1.00  0.00    -0.248 NA
ATOM     55  C   UNL A   1      41.432  34.095  29.507  1.00  0.00     0.031 C 
ATOM     56  C   UNL A   1      43.299  29.557  29.525  1.00  0.00     0.029 A 
ATOM     57  N   UNL A   1      44.582  31.223  28.761  1.00  0.00    -0.354 N 
ATOM     58  C   UNL A   1      43.278  35.230  28.752  1.00  0.00     0.074 A 
ATOM     59  C   UNL A   1      41.847  35.240  28.970  1.00  0.00     0.031 C 
ATOM     60  C   UNL A   1      44.304  29.007  28.826  1.00  0.00     0.029 A 
ATOM     61  C   UNL A   1      45.211  30.063  28.383  1.00  0.00     0.049 A 
ATOM     62  H   UNL A   1      44.914  32.119  28.522  1.00  0.00     0.167 HD
ATOM     63  C   UNL A   1      44.010  36.297  28.337  1.00  0.00     0.037 A 
ATOM     64  C   UNL A   1      46.421  29.862  27.824  1.00  0.00     0.037 A 
ATOM     65  C   UNL A   1      45.425  36.231  28.048  1.00  0.00     0.049 A 
ATOM     66  C   UNL A   1      47.317  31.041  27.565  1.00  0.00     0.074 A 
ATOM     67  C   UNL A   1      46.326  37.262  27.835  1.00  0.00     0.029 A 
ATOM     68  N   UNL A   1      46.129  35.050  27.875  1.00  0.00    -0.354 N 
ATOM     69  N   UNL A   1      47.038  32.318  27.631  1.00  0.00    -0.248 NA
ATOM     70  C   UNL A   1      48.715  30.750  27.215  1.00  0.00     0.031 C 
ATOM     71  C   UNL A   1      47.560  36.703  27.482  1.00  0.00     0.029 A 
ATOM     72  C   UNL A   1      47.445  35.324  27.537  1.00  0.00     0.049 A 
ATOM     73  H   UNL A   1      45.750  34.147  27.978  1.00  0.00     0.167 HD
ATOM     74  C   UNL A   1      48.227  32.985  27.366  1.00  0.00     0.074 A 
ATOM     75  C   UNL A   1      49.237  31.969  27.156  1.00  0.00     0.031 C 
ATOM     76  C   UNL A   1      48.453  34.321  27.307  1.00  0.00     0.037 A 
BRANCH  63  77
ATOM     77  C   UNL A   1      43.356  37.657  28.275  1.00  0.00     0.064 A 
ATOM     78  C   UNL A   1      42.533  37.998  27.188  1.00  0.00     0.173 A 
ATOM     79  C   UNL A   1      43.377  38.542  29.367  1.00  0.00     0.173 A 
ATOM     80  F   UNL A   1      42.447  37.185  26.124  1.00  0.00    -0.203 F 
ATOM     81  C   UNL A   1      41.772  39.165  27.191  1.00  0.00     0.198 A 
ATOM     82  C   UNL A   1      42.589  39.693  29.381  1.00  0.00     0.198 A 
ATOM     83  F   UNL A   1      44.121  38.266  30.451  1.00  0.00    -0.203 F 
ATOM     84  F   UNL A   1      41.002  39.462  26.135  1.00  0.00    -0.200 F 
ATOM     85  C   UNL A   1      41.787  40.003  28.293  1.00  0.00     0.200 A 
ATOM     86  F   UNL A   1      42.579  40.489  30.460  1.00  0.00    -0.200 F 
ATOM     87  F   UNL A   1      41.018  41.101  28.312  1.00  0.00    -0.200 F 
ENDBRANCH  63  77
BRANCH  64  88
ATOM     88  C   UNL A   1      46.930  28.471  27.739  1.00  0.00     0.064 A 
ATOM     89  C   UNL A   1      47.420  27.846  28.896  1.00  0.00     0.173 A 
ATOM     90  C   UNL A   1      46.845  27.708  26.568  1.00  0.00     0.173 A 
ATOM     91  F   UNL A   1      47.519  28.542  30.039  1.00  0.00    -0.203 F 
ATOM     92  C   UNL A   1      47.813  26.513  28.885  1.00  0.00     0.198 A 
ATOM     93  C   UNL A   1      47.219  26.365  26.563  1.00  0.00     0.198 A 
ATOM     94  F   UNL A   1      46.358  28.253  25.444  1.00  0.00    -0.203 F 
ATOM     95  F   UNL A   1      48.289  25.949  30.003  1.00  0.00    -0.200 F 
ATOM     96  C   UNL A   1      47.703  25.770  27.721  1.00  0.00     0.200 A 
ATOM     97  F   UNL A   1      47.093  25.638  25.444  1.00  0.00    -0.200 F 
ATOM     98  F   UNL A   1      48.057  24.477  27.717  1.00  0.00    -0.200 F 
ENDBRANCH  64  88
BRANCH  76  99
ATOM     99  C   UNL A   1      49.848  34.781  26.998  1.00  0.00     0.064 A 
ATOM    100  C   UNL A   1      50.235  35.128  25.695  1.00  0.00     0.173 A 
ATOM    101  C   UNL A   1      50.793  34.937  28.025  1.00  0.00     0.173 A 
ATOM    102  F   UNL A   1      49.373  34.989  24.676  1.00  0.00    -0.203 F 
ATOM    103  C   UNL A   1      51.521  35.591  25.428  1.00  0.00     0.198 A 
ATOM    104  C   UNL A   1      52.068  35.430  27.758  1.00  0.00     0.198 A 
ATOM    105  F   UNL A   1      50.475  34.627  29.290  1.00  0.00    -0.203 F 
ATOM    106  F   UNL A   1      51.880  35.874  24.168  1.00  0.00    -0.200 F 
ATOM    107  C   UNL A   1      52.433  35.750  26.460  1.00  0.00     0.200 A 
ATOM    108  F   UNL A   1      52.943  35.597  28.759  1.00  0.00    -0.200 F 
ATOM    109  F   UNL A   1      53.665  36.208  26.202  1.00  0.00    -0.200 F 
ENDBRANCH  76  99
ENDBRANCH  50  51
ENDBRANCH  43  45
ENDBRANCH  42  43
ENDBRANCH  41  42
ENDBRANCH  40  41
ENDBRANCH  39  40
ENDBRANCH  38  39
ENDBRANCH   1  38
TORSDOF 23
ENDMDL
MODEL 2
REMARK VINA RESULT:      -9.7      3.086      5.298
REMARK SMILES CC(C)C[C@H](NC(=O)[C@H]1N2C(=O)c3ccccc3[C@@H]2SC1(C)C)C(=O)N[C@@H](C)C(=O)OCCOCCOCCOC(=O)c1ccc(-c2c3nc(c(-c4c(F)c(F)c(F)c(F)c4F)c4ccc([nH]4)c(-c4c(F)c(F)c(F)c(F)c4F)c4nc(c(-c5c(F)c(F)c(F)c(F)c5F)c5ccc2[nH]5)C=C4)C=C3)cc1
REMARK SMILES IDX 35 1 34 2 33 3 32 4 31 5 29 6 30 7 27 8 28 9 26 10 24 11
REMARK SMILES IDX 25 12 5 14 4 15 2 16 1 17 3 18 6 19 7 20 8 22 9 23 10 24
REMARK SMILES IDX 21 25 11 26 19 27 20 28 22 29 23 30 12 31 13 32 18 33 14 34
REMARK SMILES IDX 17 35 15 36 16 37 36 38 37 39 38 40 39 41 40 42 41 43 42 44
REMARK SMILES IDX 43 45 44 46 105 47 45 48 104 49 46 50 47 51 48 52 98 53
REMARK SMILES IDX 49 54 103 55 97 56 99 57 50 58 102 59 96 60 95 61 51 63
REMARK SMILES IDX 83 64 63 65 82 66 64 67 67 68 81 69 100 70 65 71 66 72 80 74
REMARK SMILES IDX 101 75 68 76 52 77 53 78 61 79 54 80 55 81 59 82 62 83 56 84
REMARK SMILES IDX 57 85 60 86 58 87 84 88 85 89 93 90 86 91 87 92 91 93 94 94
REMARK SMILES IDX 88 95 89 96 92 97 90 98 69 99 70 100 78 101 71 102 72 103
REMARK SMILES IDX 76 104 79 105 73 106 74 107 77 108 75 109
REMARK H PARENT 26 13 6 21 99 62 67 73
REMARK Flexibility Score: inf
ROOT
ATOM      1  C   UNL A   1      38.126  32.828  29.197  1.00  0.00     0.188 C 
ENDROOT
BRANCH   1   2
ATOM      2  O   UNL A   1      37.023  33.529  28.629  1.00  0.00    -0.376 OA
BRANCH   2   3
ATOM      3  C   UNL A   1      35.770  33.200  29.227  1.00  0.00     0.202 C 
BRANCH   3   4
ATOM      4  C   UNL A   1      35.242  31.753  29.068  1.00  0.00     0.261 C 
BRANCH   4   5
ATOM      5  O   UNL A   1      34.733  31.415  27.758  1.00  0.00    -0.462 OA
BRANCH   5   6
ATOM      6  C   UNL A   1      34.641  30.093  27.444  1.00  0.00     0.328 C 
ATOM      7  O   UNL A   1      35.565  29.297  27.575  1.00  0.00    -0.250 OA
BRANCH   6   8
ATOM      8  C   UNL A   1      33.309  29.722  26.726  1.00  0.00     0.189 C 
ATOM      9  C   UNL A   1      32.331  30.873  26.947  1.00  0.00     0.043 C 
BRANCH   8  10
ATOM     10  N   UNL A   1      32.593  28.496  27.115  1.00  0.00    -0.341 N 
ATOM     11  C   UNL A   1      31.728  27.708  26.403  1.00  0.00     0.243 C 
ATOM     12  O   UNL A   1      30.913  27.048  27.059  1.00  0.00    -0.273 OA
ATOM     13  H   UNL A   1      32.764  28.194  28.036  1.00  0.00     0.164 HD
BRANCH  11  14
ATOM     14  C   UNL A   1      31.770  27.556  24.842  1.00  0.00     0.171 C 
BRANCH  14  15
ATOM     15  C   UNL A   1      31.765  28.924  24.175  1.00  0.00     0.038 C 
BRANCH  15  16
ATOM     16  C   UNL A   1      30.388  29.329  23.661  1.00  0.00    -0.015 C 
ATOM     17  C   UNL A   1      29.872  30.669  24.186  1.00  0.00     0.007 C 
ATOM     18  C   UNL A   1      30.412  29.179  22.147  1.00  0.00     0.007 C 
ENDBRANCH  15  16
ENDBRANCH  14  15
BRANCH  14  19
ATOM     19  N   UNL A   1      30.814  26.649  24.229  1.00  0.00    -0.342 N 
ATOM     20  C   UNL A   1      30.900  25.291  24.015  1.00  0.00     0.244 C 
ATOM     21  H   UNL A   1      29.980  27.069  23.919  1.00  0.00     0.164 HD
ATOM     22  O   UNL A   1      29.931  24.821  23.410  1.00  0.00    -0.273 OA
BRANCH  20  23
ATOM     23  C   UNL A   1      32.224  24.458  24.239  1.00  0.00     0.191 C 
ATOM     24  N   UNL A   1      32.074  23.012  24.402  1.00  0.00    -0.309 N 
ATOM     25  C   UNL A   1      33.378  24.576  23.191  1.00  0.00     0.042 C 
ATOM     26  C   UNL A   1      32.785  22.324  25.380  1.00  0.00     0.256 C 
ATOM     27  C   UNL A   1      31.993  22.230  23.195  1.00  0.00     0.176 C 
ATOM     28  S   UNL A   1      33.217  23.037  22.126  1.00  0.00    -0.123 SA
ATOM     29  C   UNL A   1      33.365  25.787  22.269  1.00  0.00     0.026 C 
ATOM     30  C   UNL A   1      34.748  24.544  23.914  1.00  0.00     0.026 C 
ATOM     31  O   UNL A   1      33.274  22.802  26.365  1.00  0.00    -0.269 OA
ATOM     32  C   UNL A   1      32.855  20.915  24.955  1.00  0.00     0.046 A 
ATOM     33  C   UNL A   1      32.348  20.850  23.661  1.00  0.00    -0.002 A 
ATOM     34  C   UNL A   1      33.224  19.796  25.685  1.00  0.00     0.014 A 
ATOM     35  C   UNL A   1      32.167  19.610  23.069  1.00  0.00     0.007 A 
ATOM     36  C   UNL A   1      33.009  18.548  25.107  1.00  0.00     0.001 A 
ATOM     37  C   UNL A   1      32.484  18.458  23.808  1.00  0.00     0.000 A 
ENDBRANCH  20  23
ENDBRANCH  14  19
ENDBRANCH  11  14
ENDBRANCH   8  10
ENDBRANCH   6   8
ENDBRANCH   5   6
ENDBRANCH   4   5
ENDBRANCH   3   4
ENDBRANCH   2   3
ENDBRANCH   1   2
BRANCH   1  38
ATOM     38  C   UNL A   1      38.749  33.560  30.377  1.00  0.00     0.188 C 
BRANCH  38  39
ATOM     39  O   UNL A   1      38.728  32.775  31.558  1.00  0.00    -0.376 OA
BRANCH  39  40
ATOM     40  C   UNL A   1      37.545  32.958  32.339  1.00  0.00     0.202 C 
BRANCH  40  41
ATOM     41  C   UNL A   1      37.098  31.668  33.046  1.00  0.00     0.261 C 
BRANCH  41  42
ATOM     42  O   UNL A   1      36.760  30.582  32.141  1.00  0.00    -0.460 OA
BRANCH  42  43
ATOM     43  C   UNL A   1      37.385  29.404  32.423  1.00  0.00     0.338 C 
ATOM     44  O   UNL A   1      37.035  28.580  33.256  1.00  0.00    -0.246 OA
BRANCH  43  45
ATOM     45  C   UNL A   1      38.491  29.103  31.483  1.00  0.00     0.060 A 
ATOM     46  C   UNL A   1      38.468  29.284  30.097  1.00  0.00     0.016 A 
ATOM     47  C   UNL A   1      39.699  28.783  32.072  1.00  0.00     0.016 A 
ATOM     48  C   UNL A   1      39.644  29.063  29.320  1.00  0.00     0.010 A 
ATOM     49  C   UNL A   1      40.825  28.512  31.303  1.00  0.00     0.010 A 
ATOM     50  C   UNL A   1      40.836  28.629  29.920  1.00  0.00    -0.014 A 
BRANCH  50  51
ATOM     51  C   UNL A   1      42.176  28.450  29.273  1.00  0.00     0.031 A 
ATOM     52  C   UNL A   1      43.105  29.606  28.969  1.00  0.00     0.074 A 
ATOM     53  C   UNL A   1      42.407  27.317  28.576  1.00  0.00     0.049 A 
ATOM     54  N   UNL A   1      44.348  29.583  28.543  1.00  0.00    -0.248 NA
ATOM     55  C   UNL A   1      42.546  30.961  29.085  1.00  0.00     0.031 C 
ATOM     56  C   UNL A   1      41.446  26.226  28.409  1.00  0.00     0.029 A 
ATOM     57  N   UNL A   1      43.484  26.932  27.812  1.00  0.00    -0.354 N 
ATOM     58  C   UNL A   1      44.735  30.912  28.400  1.00  0.00     0.074 A 
ATOM     59  C   UNL A   1      43.566  31.716  28.686  1.00  0.00     0.031 C 
ATOM     60  C   UNL A   1      41.974  25.298  27.596  1.00  0.00     0.029 A 
ATOM     61  C   UNL A   1      43.340  25.686  27.254  1.00  0.00     0.049 A 
ATOM     62  H   UNL A   1      44.280  27.494  27.679  1.00  0.00     0.167 HD
ATOM     63  C   UNL A   1      45.964  31.405  28.096  1.00  0.00     0.037 A 
ATOM     64  C   UNL A   1      44.232  24.903  26.616  1.00  0.00     0.037 A 
ATOM     65  C   UNL A   1      47.091  30.576  27.732  1.00  0.00     0.049 A 
ATOM     66  C   UNL A   1      45.654  25.371  26.473  1.00  0.00     0.074 A 
ATOM     67  C   UNL A   1      48.428  30.915  27.615  1.00  0.00     0.029 A 
ATOM     68  N   UNL A   1      46.989  29.242  27.370  1.00  0.00    -0.354 N 
ATOM     69  N   UNL A   1      46.162  26.551  26.721  1.00  0.00    -0.248 NA
ATOM     70  C   UNL A   1      46.639  24.377  26.021  1.00  0.00     0.031 C 
ATOM     71  C   UNL A   1      49.126  29.801  27.132  1.00  0.00     0.029 A 
ATOM     72  C   UNL A   1      48.233  28.750  27.008  1.00  0.00     0.049 A 
ATOM     73  H   UNL A   1      46.154  28.720  27.370  1.00  0.00     0.167 HD
ATOM     74  C   UNL A   1      47.526  26.438  26.490  1.00  0.00     0.074 A 
ATOM     75  C   UNL A   1      47.771  25.066  26.099  1.00  0.00     0.031 C 
ATOM     76  C   UNL A   1      48.485  27.391  26.599  1.00  0.00     0.037 A 
BRANCH  63  77
ATOM     77  C   UNL A   1      46.218  32.887  28.247  1.00  0.00     0.064 A 
ATOM     78  C   UNL A   1      45.968  33.761  27.175  1.00  0.00     0.173 A 
ATOM     79  C   UNL A   1      46.517  33.466  29.492  1.00  0.00     0.173 A 
ATOM     80  F   UNL A   1      45.653  33.275  25.965  1.00  0.00    -0.203 F 
ATOM     81  C   UNL A   1      46.015  35.144  27.339  1.00  0.00     0.198 A 
ATOM     82  C   UNL A   1      46.531  34.851  29.661  1.00  0.00     0.198 A 
ATOM     83  F   UNL A   1      46.742  32.691  30.565  1.00  0.00    -0.203 F 
ATOM     84  F   UNL A   1      45.776  35.949  26.295  1.00  0.00    -0.200 F 
ATOM     85  C   UNL A   1      46.280  35.689  28.585  1.00  0.00     0.200 A 
ATOM     86  F   UNL A   1      46.756  35.378  30.873  1.00  0.00    -0.200 F 
ATOM     87  F   UNL A   1      46.278  37.019  28.751  1.00  0.00    -0.200 F 
ENDBRANCH  63  77
BRANCH  64  88
ATOM     88  C   UNL A   1      43.847  23.500  26.322  1.00  0.00     0.064 A 
ATOM     89  C   UNL A   1      44.108  22.968  25.049  1.00  0.00     0.173 A 
ATOM     90  C   UNL A   1      43.324  22.642  27.297  1.00  0.00     0.173 A 
ATOM     91  F   UNL A   1      44.607  23.757  24.086  1.00  0.00    -0.203 F 
ATOM     92  C   UNL A   1      43.856  21.631  24.761  1.00  0.00     0.198 A 
ATOM     93  C   UNL A   1      43.092  21.297  27.013  1.00  0.00     0.198 A 
ATOM     94  F   UNL A   1      43.083  23.098  28.534  1.00  0.00    -0.203 F 
ATOM     95  F   UNL A   1      44.105  21.156  23.534  1.00  0.00    -0.200 F 
ATOM     96  C   UNL A   1      43.358  20.794  25.746  1.00  0.00     0.200 A 
ATOM     97  F   UNL A   1      42.631  20.480  27.970  1.00  0.00    -0.200 F 
ATOM     98  F   UNL A   1      43.140  19.500  25.475  1.00  0.00    -0.200 F 
ENDBRANCH  64  88
BRANCH  76  99
ATOM     99  C   UNL A   1      49.900  27.000  26.287  1.00  0.00     0.064 A 
ATOM    100  C   UNL A   1      50.787  26.591  27.294  1.00  0.00     0.173 A 
ATOM    101  C   UNL A   1      50.357  26.973  24.961  1.00  0.00     0.173 A 
ATOM    102  F   UNL A   1      50.403  26.607  28.580  1.00  0.00    -0.203 F 
ATOM    103  C   UNL A   1      52.086  26.194  26.988  1.00  0.00     0.198 A 
ATOM    104  C   UNL A   1      51.647  26.545  24.655  1.00  0.00     0.198 A 
ATOM    105  F   UNL A   1      49.549  27.346  23.958  1.00  0.00    -0.203 F 
ATOM    106  F   UNL A   1      52.930  25.850  27.971  1.00  0.00    -0.200 F 
ATOM    107  C   UNL A   1      52.512  26.162  25.668  1.00  0.00     0.200 A 
ATOM    108  F   UNL A   1      52.052  26.501  23.378  1.00  0.00    -0.200 F 
ATOM    109  F   UNL A   1      53.758  25.767  25.374  1.00  0.00    -0.200 F 
ENDBRANCH  76  99
ENDBRANCH  50  51
ENDBRANCH  43  45
ENDBRANCH  42  43
ENDBRANCH  41  42
ENDBRANCH  40  41
ENDBRANCH  39  40
ENDBRANCH  38  39
ENDBRANCH   1  38
TORSDOF 23
ENDMDL
MODEL 3
REMARK VINA RESULT:      -9.6      5.527     10.805
REMARK SMILES CC(C)C[C@H](NC(=O)[C@H]1N2C(=O)c3ccccc3[C@@H]2SC1(C)C)C(=O)N[C@@H](C)C(=O)OCCOCCOCCOC(=O)c1ccc(-c2c3nc(c(-c4c(F)c(F)c(F)c(F)c4F)c4ccc([nH]4)c(-c4c(F)c(F)c(F)c(F)c4F)c4nc(c(-c5c(F)c(F)c(F)c(F)c5F)c5ccc2[nH]5)C=C4)C=C3)cc1
REMARK SMILES IDX 35 1 34 2 33 3 32 4 31 5 29 6 30 7 27 8 28 9 26 10 24 11
REMARK SMILES IDX 25 12 5 14 4 15 2 16 1 17 3 18 6 19 7 20 8 22 9 23 10 24
REMARK SMILES IDX 21 25 11 26 19 27 20 28 22 29 23 30 12 31 13 32 18 33 14 34
REMARK SMILES IDX 17 35 15 36 16 37 36 38 37 39 38 40 39 41 40 42 41 43 42 44
REMARK SMILES IDX 43 45 44 46 105 47 45 48 104 49 46 50 47 51 48 52 98 53
REMARK SMILES IDX 49 54 103 55 97 56 99 57 50 58 102 59 96 60 95 61 51 63
REMARK SMILES IDX 83 64 63 65 82 66 64 67 67 68 81 69 100 70 65 71 66 72 80 74
REMARK SMILES IDX 101 75 68 76 52 77 53 78 61 79 54 80 55 81 59 82 62 83 56 84
REMARK SMILES IDX 57 85 60 86 58 87 84 88 85 89 93 90 86 91 87 92 91 93 94 94
REMARK SMILES IDX 88 95 89 96 92 97 90 98 69 99 70 100 78 101 71 102 72 103
REMARK SMILES IDX 76 104 79 105 73 106 74 107 77 108 75 109
REMARK H PARENT 26 13 6 21 99 62 67 73
REMARK Flexibility Score: inf
ROOT
ATOM      1  C   UNL A   1      43.154  23.588  24.891  1.00  0.00     0.188 C 
ENDROOT
BRANCH   1   2
ATOM      2  O   UNL A   1      42.251  24.352  25.687  1.00  0.00    -0.376 OA
BRANCH   2   3
ATOM      3  C   UNL A   1      42.214  23.945  27.054  1.00  0.00     0.202 C 
BRANCH   3   4
ATOM      4  C   UNL A   1      40.936  23.242  27.573  1.00  0.00     0.261 C 
BRANCH   4   5
ATOM      5  O   UNL A   1      39.888  23.052  26.596  1.00  0.00    -0.462 OA
BRANCH   5   6
ATOM      6  C   UNL A   1      38.946  24.030  26.488  1.00  0.00     0.328 C 
ATOM      7  O   UNL A   1      38.948  25.052  27.165  1.00  0.00    -0.250 OA
BRANCH   6   8
ATOM      8  C   UNL A   1      37.761  23.643  25.554  1.00  0.00     0.189 C 
ATOM      9  C   UNL A   1      36.470  23.847  26.343  1.00  0.00     0.043 C 
BRANCH   8  10
ATOM     10  N   UNL A   1      37.691  22.281  24.999  1.00  0.00    -0.341 N 
ATOM     11  C   UNL A   1      36.611  21.469  24.772  1.00  0.00     0.243 C 
ATOM     12  O   UNL A   1      36.828  20.251  24.764  1.00  0.00    -0.273 OA
ATOM     13  H   UNL A   1      38.560  21.892  24.752  1.00  0.00     0.164 HD
BRANCH  11  14
ATOM     14  C   UNL A   1      35.170  22.002  24.461  1.00  0.00     0.171 C 
BRANCH  14  15
ATOM     15  C   UNL A   1      34.185  20.846  24.355  1.00  0.00     0.038 C 
BRANCH  15  16
ATOM     16  C   UNL A   1      33.440  20.579  25.658  1.00  0.00    -0.015 C 
ATOM     17  C   UNL A   1      33.552  21.688  26.704  1.00  0.00     0.007 C 
ATOM     18  C   UNL A   1      32.025  20.161  25.288  1.00  0.00     0.007 C 
ENDBRANCH  15  16
ENDBRANCH  14  15
BRANCH  14  19
ATOM     19  N   UNL A   1      35.023  22.943  23.363  1.00  0.00    -0.342 N 
ATOM     20  C   UNL A   1      34.216  24.053  23.255  1.00  0.00     0.244 C 
ATOM     21  H   UNL A   1      35.586  22.758  22.577  1.00  0.00     0.164 HD
ATOM     22  O   UNL A   1      34.284  24.613  22.156  1.00  0.00    -0.273 OA
BRANCH  20  23
ATOM     23  C   UNL A   1      33.087  24.413  24.301  1.00  0.00     0.191 C 
ATOM     24  N   UNL A   1      33.042  25.796  24.774  1.00  0.00    -0.309 N 
ATOM     25  C   UNL A   1      31.597  24.116  23.937  1.00  0.00     0.042 C 
ATOM     26  C   UNL A   1      32.847  26.087  26.121  1.00  0.00     0.256 C 
ATOM     27  C   UNL A   1      32.332  26.739  23.948  1.00  0.00     0.176 C 
ATOM     28  S   UNL A   1      30.894  25.775  23.405  1.00  0.00    -0.123 SA
ATOM     29  C   UNL A   1      31.334  23.116  22.820  1.00  0.00     0.026 C 
ATOM     30  C   UNL A   1      30.836  23.631  25.196  1.00  0.00     0.026 C 
ATOM     31  O   UNL A   1      33.047  25.342  27.039  1.00  0.00    -0.269 OA
ATOM     32  C   UNL A   1      32.314  27.458  26.196  1.00  0.00     0.046 A 
ATOM     33  C   UNL A   1      32.040  27.864  24.894  1.00  0.00    -0.002 A 
ATOM     34  C   UNL A   1      32.196  28.294  27.295  1.00  0.00     0.014 A 
ATOM     35  C   UNL A   1      31.657  29.176  24.663  1.00  0.00     0.007 A 
ATOM     36  C   UNL A   1      31.848  29.622  27.062  1.00  0.00     0.001 A 
ATOM     37  C   UNL A   1      31.581  30.058  25.755  1.00  0.00     0.000 A 
ENDBRANCH  20  23
ENDBRANCH  14  19
ENDBRANCH  11  14
ENDBRANCH   8  10
ENDBRANCH   6   8
ENDBRANCH   5   6
ENDBRANCH   4   5
ENDBRANCH   3   4
ENDBRANCH   2   3
ENDBRANCH   1   2
BRANCH   1  38
ATOM     38  C   UNL A   1      44.482  24.292  24.660  1.00  0.00     0.188 C 
BRANCH  38  39
ATOM     39  O   UNL A   1      45.584  23.420  24.849  1.00  0.00    -0.376 OA
BRANCH  39  40
ATOM     40  C   UNL A   1      46.567  23.936  25.750  1.00  0.00     0.202 C 
BRANCH  40  41
ATOM     41  C   UNL A   1      47.592  24.845  25.052  1.00  0.00     0.261 C 
BRANCH  41  42
ATOM     42  O   UNL A   1      47.706  26.170  25.635  1.00  0.00    -0.460 OA
BRANCH  42  43
ATOM     43  C   UNL A   1      46.769  27.057  25.197  1.00  0.00     0.338 C 
ATOM     44  O   UNL A   1      46.598  27.416  24.040  1.00  0.00    -0.246 OA
BRANCH  43  45
ATOM     45  C   UNL A   1      45.815  27.456  26.259  1.00  0.00     0.060 A 
ATOM     46  C   UNL A   1      44.850  26.636  26.851  1.00  0.00     0.016 A 
ATOM     47  C   UNL A   1      46.037  28.699  26.818  1.00  0.00     0.016 A 
ATOM     48  C   UNL A   1      44.071  27.113  27.947  1.00  0.00     0.010 A 
ATOM     49  C   UNL A   1      45.234  29.179  27.847  1.00  0.00     0.010 A 
ATOM     50  C   UNL A   1      44.230  28.420  28.433  1.00  0.00    -0.014 A 
BRANCH  50  51
ATOM     51  C   UNL A   1      43.574  29.040  29.628  1.00  0.00     0.031 A 
ATOM     52  C   UNL A   1      44.116  28.893  31.034  1.00  0.00     0.074 A 
ATOM     53  C   UNL A   1      42.273  29.391  29.538  1.00  0.00     0.049 A 
ATOM     54  N   UNL A   1      43.731  29.491  32.140  1.00  0.00    -0.248 NA
ATOM     55  C   UNL A   1      45.173  27.893  31.241  1.00  0.00     0.031 C 
ATOM     56  C   UNL A   1      41.442  29.225  28.345  1.00  0.00     0.029 A 
ATOM     57  N   UNL A   1      41.403  29.879  30.484  1.00  0.00    -0.354 N 
ATOM     58  C   UNL A   1      44.537  28.985  33.156  1.00  0.00     0.074 A 
ATOM     59  C   UNL A   1      45.362  27.959  32.556  1.00  0.00     0.031 C 
ATOM     60  C   UNL A   1      40.187  29.602  28.630  1.00  0.00     0.029 A 
ATOM     61  C   UNL A   1      40.142  30.117  29.997  1.00  0.00     0.049 A 
ATOM     62  H   UNL A   1      41.659  30.043  31.421  1.00  0.00     0.167 HD
ATOM     63  C   UNL A   1      44.600  29.376  34.456  1.00  0.00     0.037 A 
ATOM     64  C   UNL A   1      39.093  30.756  30.551  1.00  0.00     0.037 A 
ATOM     65  C   UNL A   1      43.703  30.345  35.044  1.00  0.00     0.049 A 
ATOM     66  C   UNL A   1      39.244  31.375  31.913  1.00  0.00     0.074 A 
ATOM     67  C   UNL A   1      43.787  30.989  36.267  1.00  0.00     0.029 A 
ATOM     68  N   UNL A   1      42.518  30.764  34.459  1.00  0.00    -0.354 N 
ATOM     69  N   UNL A   1      40.219  31.241  32.776  1.00  0.00    -0.248 NA
ATOM     70  C   UNL A   1      38.177  32.287  32.352  1.00  0.00     0.031 C 
ATOM     71  C   UNL A   1      42.628  31.755  36.443  1.00  0.00     0.029 A 
ATOM     72  C   UNL A   1      41.852  31.638  35.302  1.00  0.00     0.049 A 
ATOM     73  H   UNL A   1      42.197  30.481  33.572  1.00  0.00     0.167 HD
ATOM     74  C   UNL A   1      39.905  32.072  33.842  1.00  0.00     0.074 A 
ATOM     75  C   UNL A   1      38.654  32.722  33.510  1.00  0.00     0.031 C 
ATOM     76  C   UNL A   1      40.598  32.276  34.990  1.00  0.00     0.037 A 
BRANCH  63  77
ATOM     77  C   UNL A   1      45.729  28.867  35.321  1.00  0.00     0.064 A 
ATOM     78  C   UNL A   1      46.945  29.569  35.384  1.00  0.00     0.173 A 
ATOM     79  C   UNL A   1      45.550  27.809  36.229  1.00  0.00     0.173 A 
ATOM     80  F   UNL A   1      47.171  30.605  34.562  1.00  0.00    -0.203 F 
ATOM     81  C   UNL A   1      47.932  29.231  36.307  1.00  0.00     0.198 A 
ATOM     82  C   UNL A   1      46.527  27.494  37.174  1.00  0.00     0.198 A 
ATOM     83  F   UNL A   1      44.403  27.112  36.242  1.00  0.00    -0.203 F 
ATOM     84  F   UNL A   1      49.082  29.919  36.337  1.00  0.00    -0.200 F 
ATOM     85  C   UNL A   1      47.717  28.206  37.213  1.00  0.00     0.200 A 
ATOM     86  F   UNL A   1      46.306  26.522  38.071  1.00  0.00    -0.200 F 
ATOM     87  F   UNL A   1      48.649  27.913  38.130  1.00  0.00    -0.200 F 
ENDBRANCH  63  77
BRANCH  64  88
ATOM     88  C   UNL A   1      37.924  31.060  29.689  1.00  0.00     0.064 A 
ATOM     89  C   UNL A   1      36.994  30.046  29.410  1.00  0.00     0.173 A 
ATOM     90  C   UNL A   1      37.647  32.350  29.222  1.00  0.00     0.173 A 
ATOM     91  F   UNL A   1      37.223  28.795  29.837  1.00  0.00    -0.203 F 
ATOM     92  C   UNL A   1      35.834  30.310  28.692  1.00  0.00     0.198 A 
ATOM     93  C   UNL A   1      36.472  32.618  28.520  1.00  0.00     0.198 A 
ATOM     94  F   UNL A   1      38.492  33.357  29.486  1.00  0.00    -0.203 F 
ATOM     95  F   UNL A   1      34.972  29.318  28.431  1.00  0.00    -0.200 F 
ATOM     96  C   UNL A   1      35.568  31.597  28.255  1.00  0.00     0.200 A 
ATOM     97  F   UNL A   1      36.203  33.867  28.117  1.00  0.00    -0.200 F 
ATOM     98  F   UNL A   1      34.437  31.857  27.586  1.00  0.00    -0.200 F 
ENDBRANCH  64  88
BRANCH  76  99
ATOM     99  C   UNL A   1      40.029  33.239  35.991  1.00  0.00     0.064 A 
ATOM    100  C   UNL A   1      39.096  32.829  36.955  1.00  0.00     0.173 A 
ATOM    101  C   UNL A   1      40.466  34.572  36.027  1.00  0.00     0.173 A 
ATOM    102  F   UNL A   1      38.638  31.567  36.958  1.00  0.00    -0.203 F 
ATOM    103  C   UNL A   1      38.604  33.723  37.902  1.00  0.00     0.198 A 
ATOM    104  C   UNL A   1      39.995  35.455  36.997  1.00  0.00     0.198 A 
ATOM    105  F   UNL A   1      41.362  35.015  35.134  1.00  0.00    -0.203 F 
ATOM    106  F   UNL A   1      37.680  33.320  38.786  1.00  0.00    -0.200 F 
ATOM    107  C   UNL A   1      39.060  35.032  37.929  1.00  0.00     0.200 A 
ATOM    108  F   UNL A   1      40.449  36.716  37.029  1.00  0.00    -0.200 F 
ATOM    109  F   UNL A   1      38.595  35.887  38.849  1.00  0.00    -0.200 F 
ENDBRANCH  76  99
ENDBRANCH  50  51
ENDBRANCH  43  45
ENDBRANCH  42  43
ENDBRANCH  41  42
ENDBRANCH  40  41
ENDBRANCH  39  40
ENDBRANCH  38  39
ENDBRANCH   1  38
TORSDOF 23
ENDMDL
