MODEL 1
REMARK VINA RESULT:     -13.3      0.000      0.000
REMARK SMILES O=C(OCCOCCOCCOC(=O)c1ccc(-c2c3nc(c(-c4c(F)c(F)c(F)c(F)c4F)c4ccc([nH]4)c(-c4c(F)c(F)c(F)c(F)c4F)c4nc(c(-c5c(F)c(F)c(F)c(F)c5F)c5ccc2[nH]5)C=C4)C=C3)cc1)C1=Cc2cc(Cl)cc(-c3ccccc3)c2O[C@@H]1C(F)(F)F
REMARK SMILES IDX 8 1 7 2 6 3 5 4 4 5 3 6 2 7 1 8 78 9 79 10 94 11 80 12 93 13
REMARK SMILES IDX 81 14 92 15 82 16 85 17 83 18 84 19 95 20 96 21 97 22 98 23
REMARK SMILES IDX 86 24 87 25 91 26 88 27 90 28 89 29 9 30 10 31 11 32 12 33
REMARK SMILES IDX 13 34 14 35 15 36 16 37 77 38 17 39 76 40 18 41 19 42 20 43
REMARK SMILES IDX 70 44 21 45 75 46 69 47 71 48 22 49 74 50 68 51 67 52 23 54
REMARK SMILES IDX 55 55 35 56 54 57 36 58 39 59 53 60 72 61 37 62 38 63 52 65
REMARK SMILES IDX 73 66 40 67 24 68 25 69 33 70 26 71 27 72 31 73 34 74 28 75
REMARK SMILES IDX 29 76 32 77 30 78 56 79 57 80 65 81 58 82 59 83 63 84 66 85
REMARK SMILES IDX 60 86 61 87 64 88 62 89 41 90 42 91 50 92 43 93 44 94 48 95
REMARK SMILES IDX 51 96 45 97 46 98 49 99 47 100
REMARK H PARENT 71 53 39 64
REMARK Flexibility Score: inf
ROOT
ATOM      1  C   UNL A   1      34.118  33.573  28.052  1.00  0.00     0.188 C 
ENDROOT
BRANCH   1   2
ATOM      2  C   UNL A   1      34.229  32.055  28.266  1.00  0.00     0.188 C 
BRANCH   2   3
ATOM      3  O   UNL A   1      33.336  31.031  27.574  1.00  0.00    -0.376 OA
BRANCH   3   4
ATOM      4  C   UNL A   1      33.643  29.286  27.420  1.00  0.00     0.202 C 
BRANCH   4   5
ATOM      5  C   UNL A   1      32.015  27.841  27.385  1.00  0.00     0.261 C 
BRANCH   5   6
ATOM      6  O   UNL A   1      31.609  26.971  26.184  1.00  0.00    -0.460 OA
BRANCH   6   7
ATOM      7  C   UNL A   1      31.792  25.662  26.416  1.00  0.00     0.338 C 
ATOM      8  O   UNL A   1      31.799  25.076  27.470  1.00  0.00    -0.246 OA
BRANCH   7   9
ATOM      9  C   UNL A   1      32.470  25.381  25.166  1.00  0.00     0.087 C 
ATOM     10  C   UNL A   1      33.896  25.172  25.241  1.00  0.00     0.027 C 
ATOM     11  C   UNL A   1      31.190  24.072  24.615  1.00  0.00     0.316 C 
ATOM     12  C   UNL A   1      34.671  23.570  25.136  1.00  0.00     0.019 A 
ATOM     13  O   UNL A   1      31.989  22.269  24.656  1.00  0.00    -0.475 OA
ATOM     14  C   UNL A   1      36.010  23.525  25.431  1.00  0.00     0.032 A 
ATOM     15  C   UNL A   1      33.794  22.093  24.912  1.00  0.00     0.135 A 
ATOM     16  C   UNL A   1      36.570  22.249  25.464  1.00  0.00     0.042 A 
ATOM     17  C   UNL A   1      34.456  20.874  24.898  1.00  0.00     0.026 A 
ATOM     18  Cl  UNL A   1      38.253  22.126  25.859  1.00  0.00    -0.084 Cl
ATOM     19  C   UNL A   1      35.853  21.029  25.196  1.00  0.00     0.033 A 
BRANCH  11  20
ATOM     20  C   UNL A   1      30.685  25.099  23.313  1.00  0.00     0.430 C 
ATOM     21  F   UNL A   1      30.611  26.432  23.452  1.00  0.00    -0.167 F 
ATOM     22  F   UNL A   1      31.473  24.857  22.233  1.00  0.00    -0.167 F 
ATOM     23  F   UNL A   1      29.419  24.781  22.889  1.00  0.00    -0.167 F 
ENDBRANCH  11  20
BRANCH  17  24
ATOM     24  C   UNL A   1      34.058  19.510  24.555  1.00  0.00    -0.015 A 
ATOM     25  C   UNL A   1      34.970  18.448  24.594  1.00  0.00     0.009 A 
ATOM     26  C   UNL A   1      32.841  19.293  23.875  1.00  0.00     0.009 A 
ATOM     27  C   UNL A   1      34.637  17.193  24.062  1.00  0.00     0.001 A 
ATOM     28  C   UNL A   1      32.492  18.033  23.373  1.00  0.00     0.001 A 
ATOM     29  C   UNL A   1      33.387  16.977  23.484  1.00  0.00     0.000 A 
ENDBRANCH  17  24
ENDBRANCH   7   9
ENDBRANCH   6   7
ENDBRANCH   5   6
ENDBRANCH   4   5
ENDBRANCH   3   4
ENDBRANCH   2   3
ENDBRANCH   1   2
BRANCH   1  30
ATOM     30  O   UNL A   1      33.025  34.257  28.595  1.00  0.00    -0.376 OA
BRANCH  30  31
ATOM     31  C   UNL A   1      33.170  35.659  28.618  1.00  0.00     0.202 C 
BRANCH  31  32
ATOM     32  C   UNL A   1      32.654  36.453  29.822  1.00  0.00     0.261 C 
BRANCH  32  33
ATOM     33  O   UNL A   1      32.254  35.647  30.941  1.00  0.00    -0.460 OA
BRANCH  33  34
ATOM     34  C   UNL A   1      32.966  35.809  32.081  1.00  0.00     0.338 C 
ATOM     35  O   UNL A   1      32.731  36.556  33.014  1.00  0.00    -0.246 OA
BRANCH  34  36
ATOM     36  C   UNL A   1      34.018  34.779  32.116  1.00  0.00     0.060 A 
ATOM     37  C   UNL A   1      33.867  33.650  32.937  1.00  0.00     0.016 A 
ATOM     38  C   UNL A   1      35.180  34.971  31.373  1.00  0.00     0.016 A 
ATOM     39  C   UNL A   1      34.877  32.696  33.005  1.00  0.00     0.010 A 
ATOM     40  C   UNL A   1      36.213  34.044  31.481  1.00  0.00     0.010 A 
ATOM     41  C   UNL A   1      36.072  32.919  32.315  1.00  0.00    -0.014 A 
BRANCH  41  42
ATOM     42  C   UNL A   1      37.271  32.134  32.670  1.00  0.00     0.031 A 
ATOM     43  C   UNL A   1      37.977  32.490  33.945  1.00  0.00     0.074 A 
ATOM     44  C   UNL A   1      37.723  31.149  31.878  1.00  0.00     0.049 A 
ATOM     45  N   UNL A   1      39.096  32.028  34.435  1.00  0.00    -0.248 NA
ATOM     46  C   UNL A   1      37.334  33.522  34.777  1.00  0.00     0.031 C 
ATOM     47  C   UNL A   1      37.083  30.694  30.647  1.00  0.00     0.029 A 
ATOM     48  N   UNL A   1      38.844  30.367  31.989  1.00  0.00    -0.354 N 
ATOM     49  C   UNL A   1      39.294  32.717  35.624  1.00  0.00     0.074 A 
ATOM     50  C   UNL A   1      38.199  33.649  35.769  1.00  0.00     0.031 C 
ATOM     51  C   UNL A   1      37.836  29.723  30.101  1.00  0.00     0.029 A 
ATOM     52  C   UNL A   1      39.026  29.519  30.925  1.00  0.00     0.049 A 
ATOM     53  H   UNL A   1      39.458  30.409  32.758  1.00  0.00     0.167 HD
ATOM     54  C   UNL A   1      40.302  32.580  36.514  1.00  0.00     0.037 A 
ATOM     55  C   UNL A   1      40.061  28.701  30.644  1.00  0.00     0.037 A 
ATOM     56  C   UNL A   1      41.398  31.666  36.341  1.00  0.00     0.049 A 
ATOM     57  C   UNL A   1      41.221  28.635  31.608  1.00  0.00     0.074 A 
ATOM     58  C   UNL A   1      42.471  31.436  37.182  1.00  0.00     0.029 A 
ATOM     59  N   UNL A   1      41.569  30.841  35.237  1.00  0.00    -0.354 N 
ATOM     60  N   UNL A   1      41.393  29.262  32.748  1.00  0.00    -0.248 NA
ATOM     61  C   UNL A   1      42.334  27.745  31.246  1.00  0.00     0.031 C 
ATOM     62  C   UNL A   1      43.330  30.533  36.552  1.00  0.00     0.029 A 
ATOM     63  C   UNL A   1      42.751  30.131  35.357  1.00  0.00     0.049 A 
ATOM     64  H   UNL A   1      40.943  30.773  34.481  1.00  0.00     0.167 HD
ATOM     65  C   UNL A   1      42.609  28.819  33.252  1.00  0.00     0.074 A 
ATOM     66  C   UNL A   1      43.127  27.858  32.302  1.00  0.00     0.031 C 
ATOM     67  C   UNL A   1      43.242  29.172  34.401  1.00  0.00     0.037 A 
BRANCH  54  68
ATOM     68  C   UNL A   1      40.288  33.473  37.720  1.00  0.00     0.064 A 
ATOM     69  C   UNL A   1      39.484  33.198  38.838  1.00  0.00     0.173 A 
ATOM     70  C   UNL A   1      41.103  34.614  37.764  1.00  0.00     0.173 A 
ATOM     71  F   UNL A   1      38.673  32.130  38.842  1.00  0.00    -0.203 F 
ATOM     72  C   UNL A   1      39.473  34.051  39.939  1.00  0.00     0.198 A 
ATOM     73  C   UNL A   1      41.117  35.443  38.883  1.00  0.00     0.198 A 
ATOM     74  F   UNL A   1      41.890  34.926  36.724  1.00  0.00    -0.203 F 
ATOM     75  F   UNL A   1      38.653  33.801  40.969  1.00  0.00    -0.200 F 
ATOM     76  C   UNL A   1      40.296  35.167  39.965  1.00  0.00     0.200 A 
ATOM     77  F   UNL A   1      41.925  36.512  38.911  1.00  0.00    -0.200 F 
ATOM     78  F   UNL A   1      40.291  35.981  41.029  1.00  0.00    -0.200 F 
ENDBRANCH  54  68
BRANCH  55  79
ATOM     79  C   UNL A   1      40.062  27.898  29.391  1.00  0.00     0.064 A 
ATOM     80  C   UNL A   1      39.417  26.654  29.327  1.00  0.00     0.173 A 
ATOM     81  C   UNL A   1      40.734  28.340  28.241  1.00  0.00     0.173 A 
ATOM     82  F   UNL A   1      38.783  26.172  30.407  1.00  0.00    -0.203 F 
ATOM     83  C   UNL A   1      39.467  25.874  28.174  1.00  0.00     0.198 A 
ATOM     84  C   UNL A   1      40.751  27.575  27.076  1.00  0.00     0.198 A 
ATOM     85  F   UNL A   1      41.372  29.519  28.246  1.00  0.00    -0.203 F 
ATOM     86  F   UNL A   1      38.898  24.661  28.163  1.00  0.00    -0.200 F 
ATOM     87  C   UNL A   1      40.129  26.337  27.047  1.00  0.00     0.200 A 
ATOM     88  F   UNL A   1      41.382  28.035  25.986  1.00  0.00    -0.200 F 
ATOM     89  F   UNL A   1      40.178  25.586  25.939  1.00  0.00    -0.200 F 
ENDBRANCH  55  79
BRANCH  67  90
ATOM     90  C   UNL A   1      44.542  28.484  34.720  1.00  0.00     0.064 A 
ATOM     91  C   UNL A   1      45.781  29.031  34.358  1.00  0.00     0.173 A 
ATOM     92  C   UNL A   1      44.543  27.288  35.456  1.00  0.00     0.173 A 
ATOM     93  F   UNL A   1      45.837  30.167  33.646  1.00  0.00    -0.203 F 
ATOM     94  C   UNL A   1      46.971  28.392  34.697  1.00  0.00     0.198 A 
ATOM     95  C   UNL A   1      45.735  26.674  35.829  1.00  0.00     0.198 A 
ATOM     96  F   UNL A   1      43.385  26.727  35.839  1.00  0.00    -0.203 F 
ATOM     97  F   UNL A   1      48.142  28.906  34.297  1.00  0.00    -0.200 F 
ATOM     98  C   UNL A   1      46.948  27.222  35.441  1.00  0.00     0.200 A 
ATOM     99  F   UNL A   1      45.709  25.557  36.568  1.00  0.00    -0.200 F 
ATOM    100  F   UNL A   1      48.095  26.619  35.780  1.00  0.00    -0.200 F 
ENDBRANCH  67  90
ENDBRANCH  41  42
ENDBRANCH  34  36
ENDBRANCH  33  34
ENDBRANCH  32  33
ENDBRANCH  31  32
ENDBRANCH  30  31
ENDBRANCH   1  30
TORSDOF 19
ENDMDL
MODEL 2
REMARK VINA RESULT:     -12.6      6.248     12.151
REMARK SMILES O=C(OCCOCCOCCOC(=O)c1ccc(-c2c3nc(c(-c4c(F)c(F)c(F)c(F)c4F)c4ccc([nH]4)c(-c4c(F)c(F)c(F)c(F)c4F)c4nc(c(-c5c(F)c(F)c(F)c(F)c5F)c5ccc2[nH]5)C=C4)C=C3)cc1)C1=Cc2cc(Cl)cc(-c3ccccc3)c2O[C@@H]1C(F)(F)F
REMARK SMILES IDX 8 1 7 2 6 3 5 4 4 5 3 6 2 7 1 8 78 9 79 10 94 11 80 12 93 13
REMARK SMILES IDX 81 14 92 15 82 16 85 17 83 18 84 19 95 20 96 21 97 22 98 23
REMARK SMILES IDX 86 24 87 25 91 26 88 27 90 28 89 29 9 30 10 31 11 32 12 33
REMARK SMILES IDX 13 34 14 35 15 36 16 37 77 38 17 39 76 40 18 41 19 42 20 43
REMARK SMILES IDX 70 44 21 45 75 46 69 47 71 48 22 49 74 50 68 51 67 52 23 54
REMARK SMILES IDX 55 55 35 56 54 57 36 58 39 59 53 60 72 61 37 62 38 63 52 65
REMARK SMILES IDX 73 66 40 67 24 68 25 69 33 70 26 71 27 72 31 73 34 74 28 75
REMARK SMILES IDX 29 76 32 77 30 78 56 79 57 80 65 81 58 82 59 83 63 84 66 85
REMARK SMILES IDX 60 86 61 87 64 88 62 89 41 90 42 91 50 92 43 93 44 94 48 95
REMARK SMILES IDX 51 96 45 97 46 98 49 99 47 100
REMARK H PARENT 71 53 39 64
REMARK Flexibility Score: inf
ROOT
ATOM      1  C   UNL A   1      38.665  19.885  25.552  1.00  0.00     0.188 C 
ENDROOT
BRANCH   1   2
ATOM      2  C   UNL A   1      37.531  19.399  24.636  1.00  0.00     0.188 C 
BRANCH   2   3
ATOM      3  O   UNL A   1      36.412  18.467  25.087  1.00  0.00    -0.376 OA
BRANCH   3   4
ATOM      4  C   UNL A   1      34.742  18.438  24.477  1.00  0.00     0.202 C 
BRANCH   4   5
ATOM      5  C   UNL A   1      33.204  19.739  25.303  1.00  0.00     0.261 C 
BRANCH   5   6
ATOM      6  O   UNL A   1      32.551  20.931  24.583  1.00  0.00    -0.460 OA
BRANCH   6   7
ATOM      7  C   UNL A   1      32.550  22.042  25.334  1.00  0.00     0.338 C 
ATOM      8  O   UNL A   1      31.987  22.246  26.381  1.00  0.00    -0.246 OA
BRANCH   7   9
ATOM      9  C   UNL A   1      32.932  22.945  24.266  1.00  0.00     0.087 C 
ATOM     10  C   UNL A   1      31.867  23.701  23.652  1.00  0.00     0.027 C 
ATOM     11  C   UNL A   1      34.394  23.694  25.244  1.00  0.00     0.316 C 
ATOM     12  C   UNL A   1      31.565  25.429  23.969  1.00  0.00     0.019 A 
ATOM     13  O   UNL A   1      34.000  25.561  25.747  1.00  0.00    -0.475 OA
ATOM     14  C   UNL A   1      30.395  25.941  23.468  1.00  0.00     0.032 A 
ATOM     15  C   UNL A   1      32.533  26.392  25.034  1.00  0.00     0.135 A 
ATOM     16  C   UNL A   1      30.117  27.258  23.830  1.00  0.00     0.042 A 
ATOM     17  C   UNL A   1      32.207  27.718  25.281  1.00  0.00     0.026 A 
ATOM     18  Cl  UNL A   1      28.639  27.951  23.249  1.00  0.00    -0.084 Cl
ATOM     19  C   UNL A   1      30.968  28.082  24.650  1.00  0.00     0.033 A 
BRANCH  11  20
ATOM     20  C   UNL A   1      35.516  22.996  24.121  1.00  0.00     0.430 C 
ATOM     21  F   UNL A   1      35.706  21.670  24.044  1.00  0.00    -0.167 F 
ATOM     22  F   UNL A   1      35.206  23.426  22.870  1.00  0.00    -0.167 F 
ATOM     23  F   UNL A   1      36.790  23.460  24.335  1.00  0.00    -0.167 F 
ENDBRANCH  11  20
BRANCH  17  24
ATOM     24  C   UNL A   1      32.892  28.821  25.951  1.00  0.00    -0.015 A 
ATOM     25  C   UNL A   1      34.158  28.658  26.526  1.00  0.00     0.009 A 
ATOM     26  C   UNL A   1      32.162  29.974  26.311  1.00  0.00     0.009 A 
ATOM     27  C   UNL A   1      34.709  29.653  27.347  1.00  0.00     0.001 A 
ATOM     28  C   UNL A   1      32.723  30.985  27.101  1.00  0.00     0.001 A 
ATOM     29  C   UNL A   1      34.008  30.829  27.605  1.00  0.00     0.000 A 
ENDBRANCH  17  24
ENDBRANCH   7   9
ENDBRANCH   6   7
ENDBRANCH   5   6
ENDBRANCH   4   5
ENDBRANCH   3   4
ENDBRANCH   2   3
ENDBRANCH   1   2
BRANCH   1  30
ATOM     30  O   UNL A   1      39.831  19.119  25.652  1.00  0.00    -0.376 OA
BRANCH  30  31
ATOM     31  C   UNL A   1      40.914  19.786  26.261  1.00  0.00     0.202 C 
BRANCH  31  32
ATOM     32  C   UNL A   1      42.339  19.264  26.052  1.00  0.00     0.261 C 
BRANCH  32  33
ATOM     33  O   UNL A   1      42.918  19.602  24.781  1.00  0.00    -0.460 OA
BRANCH  33  34
ATOM     34  C   UNL A   1      44.271  19.614  24.724  1.00  0.00     0.338 C 
ATOM     35  O   UNL A   1      45.015  18.715  24.375  1.00  0.00    -0.246 OA
BRANCH  34  36
ATOM     36  C   UNL A   1      44.730  20.988  24.985  1.00  0.00     0.060 A 
ATOM     37  C   UNL A   1      45.292  21.315  26.230  1.00  0.00     0.016 A 
ATOM     38  C   UNL A   1      44.543  21.963  24.008  1.00  0.00     0.016 A 
ATOM     39  C   UNL A   1      45.687  22.622  26.496  1.00  0.00     0.010 A 
ATOM     40  C   UNL A   1      44.889  23.281  24.292  1.00  0.00     0.010 A 
ATOM     41  C   UNL A   1      45.438  23.616  25.544  1.00  0.00    -0.014 A 
BRANCH  41  42
ATOM     42  C   UNL A   1      45.494  25.035  25.948  1.00  0.00     0.031 A 
ATOM     43  C   UNL A   1      46.828  25.719  25.881  1.00  0.00     0.074 A 
ATOM     44  C   UNL A   1      44.400  25.686  26.373  1.00  0.00     0.049 A 
ATOM     45  N   UNL A   1      47.168  26.919  26.268  1.00  0.00    -0.248 NA
ATOM     46  C   UNL A   1      47.934  24.932  25.309  1.00  0.00     0.031 C 
ATOM     47  C   UNL A   1      43.053  25.127  26.427  1.00  0.00     0.029 A 
ATOM     48  N   UNL A   1      44.261  26.961  26.857  1.00  0.00    -0.354 N 
ATOM     49  C   UNL A   1      48.525  27.026  25.994  1.00  0.00     0.074 A 
ATOM     50  C   UNL A   1      48.954  25.763  25.438  1.00  0.00     0.031 C 
ATOM     51  C   UNL A   1      42.222  26.051  26.941  1.00  0.00     0.029 A 
ATOM     52  C   UNL A   1      42.989  27.247  27.286  1.00  0.00     0.049 A 
ATOM     53  H   UNL A   1      45.002  27.608  26.895  1.00  0.00     0.167 HD
ATOM     54  C   UNL A   1      49.339  28.089  26.190  1.00  0.00     0.037 A 
ATOM     55  C   UNL A   1      42.518  28.342  27.915  1.00  0.00     0.037 A 
ATOM     56  C   UNL A   1      48.901  29.330  26.769  1.00  0.00     0.049 A 
ATOM     57  C   UNL A   1      43.467  29.480  28.208  1.00  0.00     0.074 A 
ATOM     58  C   UNL A   1      49.635  30.477  27.007  1.00  0.00     0.029 A 
ATOM     59  N   UNL A   1      47.611  29.577  27.220  1.00  0.00    -0.354 N 
ATOM     60  N   UNL A   1      44.743  29.594  27.920  1.00  0.00    -0.248 NA
ATOM     61  C   UNL A   1      42.911  30.643  28.915  1.00  0.00     0.031 C 
ATOM     62  C   UNL A   1      48.812  31.388  27.672  1.00  0.00     0.029 A 
ATOM     63  C   UNL A   1      47.540  30.845  27.771  1.00  0.00     0.049 A 
ATOM     64  H   UNL A   1      46.860  28.945  27.157  1.00  0.00     0.167 HD
ATOM     65  C   UNL A   1      45.130  30.848  28.377  1.00  0.00     0.074 A 
ATOM     66  C   UNL A   1      43.951  31.463  28.949  1.00  0.00     0.031 C 
ATOM     67  C   UNL A   1      46.351  31.440  28.327  1.00  0.00     0.037 A 
BRANCH  54  68
ATOM     68  C   UNL A   1      50.785  27.932  25.823  1.00  0.00     0.064 A 
ATOM     69  C   UNL A   1      51.766  27.637  26.782  1.00  0.00     0.173 A 
ATOM     70  C   UNL A   1      51.194  28.065  24.487  1.00  0.00     0.173 A 
ATOM     71  F   UNL A   1      51.433  27.516  28.076  1.00  0.00    -0.203 F 
ATOM     72  C   UNL A   1      53.106  27.512  26.421  1.00  0.00     0.198 A 
ATOM     73  C   UNL A   1      52.529  27.902  24.126  1.00  0.00     0.198 A 
ATOM     74  F   UNL A   1      50.299  28.349  23.529  1.00  0.00    -0.203 F 
ATOM     75  F   UNL A   1      54.033  27.290  27.363  1.00  0.00    -0.200 F 
ATOM     76  C   UNL A   1      53.485  27.636  25.093  1.00  0.00     0.200 A 
ATOM     77  F   UNL A   1      52.889  28.008  22.839  1.00  0.00    -0.200 F 
ATOM     78  F   UNL A   1      54.773  27.508  24.747  1.00  0.00    -0.200 F 
ENDBRANCH  54  68
BRANCH  55  79
ATOM     79  C   UNL A   1      41.091  28.413  28.331  1.00  0.00     0.064 A 
ATOM     80  C   UNL A   1      40.113  28.945  27.479  1.00  0.00     0.173 A 
ATOM     81  C   UNL A   1      40.679  27.979  29.601  1.00  0.00     0.173 A 
ATOM     82  F   UNL A   1      40.458  29.399  26.265  1.00  0.00    -0.203 F 
ATOM     83  C   UNL A   1      38.786  29.067  27.889  1.00  0.00     0.198 A 
ATOM     84  C   UNL A   1      39.344  28.067  29.996  1.00  0.00     0.198 A 
ATOM     85  F   UNL A   1      41.571  27.466  30.460  1.00  0.00    -0.203 F 
ATOM     86  F   UNL A   1      37.887  29.640  27.078  1.00  0.00    -0.200 F 
ATOM     87  C   UNL A   1      38.402  28.622  29.145  1.00  0.00     0.200 A 
ATOM     88  F   UNL A   1      38.977  27.623  31.206  1.00  0.00    -0.200 F 
ATOM     89  F   UNL A   1      37.127  28.740  29.540  1.00  0.00    -0.200 F 
ENDBRANCH  55  79
BRANCH  67  90
ATOM     90  C   UNL A   1      46.467  32.842  28.861  1.00  0.00     0.064 A 
ATOM     91  C   UNL A   1      46.813  33.102  30.194  1.00  0.00     0.173 A 
ATOM     92  C   UNL A   1      46.291  33.940  28.002  1.00  0.00     0.173 A 
ATOM     93  F   UNL A   1      46.984  32.091  31.059  1.00  0.00    -0.203 F 
ATOM     94  C   UNL A   1      46.950  34.410  30.655  1.00  0.00     0.198 A 
ATOM     95  C   UNL A   1      46.469  35.243  28.457  1.00  0.00     0.198 A 
ATOM     96  F   UNL A   1      45.971  33.747  26.714  1.00  0.00    -0.203 F 
ATOM     97  F   UNL A   1      47.231  34.636  31.946  1.00  0.00    -0.200 F 
ATOM     98  C   UNL A   1      46.790  35.478  29.785  1.00  0.00     0.200 A 
ATOM     99  F   UNL A   1      46.337  36.271  27.607  1.00  0.00    -0.200 F 
ATOM    100  F   UNL A   1      46.939  36.733  30.227  1.00  0.00    -0.200 F 
ENDBRANCH  67  90
ENDBRANCH  41  42
ENDBRANCH  34  36
ENDBRANCH  33  34
ENDBRANCH  32  33
ENDBRANCH  31  32
ENDBRANCH  30  31
ENDBRANCH   1  30
TORSDOF 19
ENDMDL
MODEL 3
REMARK VINA RESULT:     -12.6      5.842     10.866
REMARK SMILES O=C(OCCOCCOCCOC(=O)c1ccc(-c2c3nc(c(-c4c(F)c(F)c(F)c(F)c4F)c4ccc([nH]4)c(-c4c(F)c(F)c(F)c(F)c4F)c4nc(c(-c5c(F)c(F)c(F)c(F)c5F)c5ccc2[nH]5)C=C4)C=C3)cc1)C1=Cc2cc(Cl)cc(-c3ccccc3)c2O[C@@H]1C(F)(F)F
REMARK SMILES IDX 8 1 7 2 6 3 5 4 4 5 3 6 2 7 1 8 78 9 79 10 94 11 80 12 93 13
REMARK SMILES IDX 81 14 92 15 82 16 85 17 83 18 84 19 95 20 96 21 97 22 98 23
REMARK SMILES IDX 86 24 87 25 91 26 88 27 90 28 89 29 9 30 10 31 11 32 12 33
REMARK SMILES IDX 13 34 14 35 15 36 16 37 77 38 17 39 76 40 18 41 19 42 20 43
REMARK SMILES IDX 70 44 21 45 75 46 69 47 71 48 22 49 74 50 68 51 67 52 23 54
REMARK SMILES IDX 55 55 35 56 54 57 36 58 39 59 53 60 72 61 37 62 38 63 52 65
REMARK SMILES IDX 73 66 40 67 24 68 25 69 33 70 26 71 27 72 31 73 34 74 28 75
REMARK SMILES IDX 29 76 32 77 30 78 56 79 57 80 65 81 58 82 59 83 63 84 66 85
REMARK SMILES IDX 60 86 61 87 64 88 62 89 41 90 42 91 50 92 43 93 44 94 48 95
REMARK SMILES IDX 51 96 45 97 46 98 49 99 47 100
REMARK H PARENT 71 53 39 64
REMARK Flexibility Score: inf
ROOT
ATOM      1  C   UNL A   1      35.777  21.207  25.334  1.00  0.00     0.188 C 
ENDROOT
BRANCH   1   2
ATOM      2  C   UNL A   1      34.851  21.470  26.532  1.00  0.00     0.188 C 
BRANCH   2   3
ATOM      3  O   UNL A   1      34.023  22.738  26.706  1.00  0.00    -0.376 OA
BRANCH   3   4
ATOM      4  C   UNL A   1      32.452  22.876  27.529  1.00  0.00     0.202 C 
BRANCH   4   5
ATOM      5  C   UNL A   1      30.754  23.858  26.585  1.00  0.00     0.261 C 
BRANCH   5   6
ATOM      6  O   UNL A   1      30.709  24.391  25.143  1.00  0.00    -0.460 OA
BRANCH   6   7
ATOM      7  C   UNL A   1      31.167  23.496  24.255  1.00  0.00     0.338 C 
ATOM      8  O   UNL A   1      31.413  22.327  24.418  1.00  0.00    -0.246 OA
BRANCH   7   9
ATOM      9  C   UNL A   1      31.731  24.469  23.340  1.00  0.00     0.087 C 
ATOM     10  C   UNL A   1      30.808  25.410  22.752  1.00  0.00     0.027 C 
ATOM     11  C   UNL A   1      33.177  24.923  24.505  1.00  0.00     0.316 C 
ATOM     12  C   UNL A   1      30.665  27.112  23.264  1.00  0.00     0.019 A 
ATOM     13  O   UNL A   1      32.943  26.749  25.212  1.00  0.00    -0.475 OA
ATOM     14  C   UNL A   1      29.604  27.811  22.751  1.00  0.00     0.032 A 
ATOM     15  C   UNL A   1      31.637  27.824  24.509  1.00  0.00     0.135 A 
ATOM     16  C   UNL A   1      29.438  29.100  23.256  1.00  0.00     0.042 A 
ATOM     17  C   UNL A   1      31.434  29.140  24.898  1.00  0.00     0.026 A 
ATOM     18  Cl  UNL A   1      28.096  30.023  22.666  1.00  0.00    -0.084 Cl
ATOM     19  C   UNL A   1      30.298  29.717  24.233  1.00  0.00     0.033 A 
BRANCH  11  20
ATOM     20  C   UNL A   1      34.309  24.237  23.385  1.00  0.00     0.430 C 
ATOM     21  F   UNL A   1      34.187  22.977  22.938  1.00  0.00    -0.167 F 
ATOM     22  F   UNL A   1      34.382  25.040  22.291  1.00  0.00    -0.167 F 
ATOM     23  F   UNL A   1      35.582  24.242  23.897  1.00  0.00    -0.167 F 
ENDBRANCH  11  20
BRANCH  17  24
ATOM     24  C   UNL A   1      32.173  30.069  25.749  1.00  0.00    -0.015 A 
ATOM     25  C   UNL A   1      33.395  29.715  26.335  1.00  0.00     0.009 A 
ATOM     26  C   UNL A   1      31.522  31.214  26.254  1.00  0.00     0.009 A 
ATOM     27  C   UNL A   1      33.986  30.527  27.314  1.00  0.00     0.001 A 
ATOM     28  C   UNL A   1      32.126  32.046  27.207  1.00  0.00     0.001 A 
ATOM     29  C   UNL A   1      33.369  31.708  27.724  1.00  0.00     0.000 A 
ENDBRANCH  17  24
ENDBRANCH   7   9
ENDBRANCH   6   7
ENDBRANCH   5   6
ENDBRANCH   4   5
ENDBRANCH   3   4
ENDBRANCH   2   3
ENDBRANCH   1   2
BRANCH   1  30
ATOM     30  O   UNL A   1      37.155  21.108  25.549  1.00  0.00    -0.376 OA
BRANCH  30  31
ATOM     31  C   UNL A   1      37.765  20.006  24.916  1.00  0.00     0.202 C 
BRANCH  31  32
ATOM     32  C   UNL A   1      38.974  19.331  25.571  1.00  0.00     0.261 C 
BRANCH  32  33
ATOM     33  O   UNL A   1      39.935  20.240  26.131  1.00  0.00    -0.460 OA
BRANCH  33  34
ATOM     34  C   UNL A   1      41.225  19.831  26.116  1.00  0.00     0.338 C 
ATOM     35  O   UNL A   1      41.668  18.756  25.752  1.00  0.00    -0.246 OA
BRANCH  34  36
ATOM     36  C   UNL A   1      42.077  20.986  26.448  1.00  0.00     0.060 A 
ATOM     37  C   UNL A   1      42.268  21.353  27.790  1.00  0.00     0.016 A 
ATOM     38  C   UNL A   1      42.634  21.736  25.417  1.00  0.00     0.016 A 
ATOM     39  C   UNL A   1      43.037  22.468  28.106  1.00  0.00     0.010 A 
ATOM     40  C   UNL A   1      43.359  22.883  25.729  1.00  0.00     0.010 A 
ATOM     41  C   UNL A   1      43.540  23.263  27.072  1.00  0.00    -0.014 A 
BRANCH  41  42
ATOM     42  C   UNL A   1      44.018  24.628  27.375  1.00  0.00     0.031 A 
ATOM     43  C   UNL A   1      42.995  25.638  27.800  1.00  0.00     0.074 A 
ATOM     44  C   UNL A   1      45.314  24.957  27.259  1.00  0.00     0.049 A 
ATOM     45  N   UNL A   1      43.132  26.917  28.027  1.00  0.00    -0.248 NA
ATOM     46  C   UNL A   1      41.622  25.135  27.983  1.00  0.00     0.031 C 
ATOM     47  C   UNL A   1      46.390  24.038  26.901  1.00  0.00     0.029 A 
ATOM     48  N   UNL A   1      45.937  26.169  27.416  1.00  0.00    -0.354 N 
ATOM     49  C   UNL A   1      41.865  27.371  28.371  1.00  0.00     0.074 A 
ATOM     50  C   UNL A   1      40.967  26.242  28.293  1.00  0.00     0.031 C 
ATOM     51  C   UNL A   1      47.545  24.727  26.843  1.00  0.00     0.029 A 
ATOM     52  C   UNL A   1      47.277  26.136  27.121  1.00  0.00     0.049 A 
ATOM     53  H   UNL A   1      45.468  26.983  27.710  1.00  0.00     0.167 HD
ATOM     54  C   UNL A   1      41.489  28.622  28.721  1.00  0.00     0.037 A 
ATOM     55  C   UNL A   1      48.168  27.146  27.054  1.00  0.00     0.037 A 
ATOM     56  C   UNL A   1      42.392  29.740  28.766  1.00  0.00     0.049 A 
ATOM     57  C   UNL A   1      47.703  28.550  27.358  1.00  0.00     0.074 A 
ATOM     58  C   UNL A   1      42.123  31.051  29.115  1.00  0.00     0.029 A 
ATOM     59  N   UNL A   1      43.738  29.680  28.434  1.00  0.00    -0.354 N 
ATOM     60  N   UNL A   1      46.513  28.975  27.714  1.00  0.00    -0.248 NA
ATOM     61  C   UNL A   1      48.707  29.619  27.250  1.00  0.00     0.031 C 
ATOM     62  C   UNL A   1      43.286  31.798  28.917  1.00  0.00     0.029 A 
ATOM     63  C   UNL A   1      44.304  30.939  28.531  1.00  0.00     0.049 A 
ATOM     64  H   UNL A   1      44.218  28.863  28.168  1.00  0.00     0.167 HD
ATOM     65  C   UNL A   1      46.634  30.346  27.905  1.00  0.00     0.074 A 
ATOM     66  C   UNL A   1      48.017  30.681  27.640  1.00  0.00     0.031 C 
ATOM     67  C   UNL A   1      45.688  31.248  28.270  1.00  0.00     0.037 A 
BRANCH  54  68
ATOM     68  C   UNL A   1      40.038  28.850  29.027  1.00  0.00     0.064 A 
ATOM     69  C   UNL A   1      39.527  28.736  30.329  1.00  0.00     0.173 A 
ATOM     70  C   UNL A   1      39.146  29.201  28.002  1.00  0.00     0.173 A 
ATOM     71  F   UNL A   1      40.332  28.386  31.344  1.00  0.00    -0.203 F 
ATOM     72  C   UNL A   1      38.173  28.934  30.588  1.00  0.00     0.198 A 
ATOM     73  C   UNL A   1      37.800  29.435  28.271  1.00  0.00     0.198 A 
ATOM     74  F   UNL A   1      39.579  29.321  26.738  1.00  0.00    -0.203 F 
ATOM     75  F   UNL A   1      37.698  28.761  31.829  1.00  0.00    -0.200 F 
ATOM     76  C   UNL A   1      37.313  29.292  29.561  1.00  0.00     0.200 A 
ATOM     77  F   UNL A   1      36.975  29.795  27.279  1.00  0.00    -0.200 F 
ATOM     78  F   UNL A   1      36.012  29.490  29.813  1.00  0.00    -0.200 F 
ENDBRANCH  54  68
BRANCH  55  79
ATOM     79  C   UNL A   1      49.579  26.876  26.665  1.00  0.00     0.064 A 
ATOM     80  C   UNL A   1      49.983  26.929  25.323  1.00  0.00     0.173 A 
ATOM     81  C   UNL A   1      50.546  26.528  27.620  1.00  0.00     0.173 A 
ATOM     82  F   UNL A   1      49.091  27.230  24.367  1.00  0.00    -0.203 F 
ATOM     83  C   UNL A   1      51.289  26.619  24.949  1.00  0.00     0.198 A 
ATOM     84  C   UNL A   1      51.862  26.254  27.249  1.00  0.00     0.198 A 
ATOM     85  F   UNL A   1      50.215  26.455  28.917  1.00  0.00    -0.203 F 
ATOM     86  F   UNL A   1      51.630  26.614  23.653  1.00  0.00    -0.200 F 
ATOM     87  C   UNL A   1      52.229  26.287  25.913  1.00  0.00     0.200 A 
ATOM     88  F   UNL A   1      52.769  25.947  28.187  1.00  0.00    -0.200 F 
ATOM     89  F   UNL A   1      53.485  25.987  25.554  1.00  0.00    -0.200 F 
ENDBRANCH  55  79
BRANCH  67  90
ATOM     90  C   UNL A   1      46.121  32.677  28.451  1.00  0.00     0.064 A 
ATOM     91  C   UNL A   1      46.635  33.150  29.667  1.00  0.00     0.173 A 
ATOM     92  C   UNL A   1      46.077  33.569  27.366  1.00  0.00     0.173 A 
ATOM     93  F   UNL A   1      46.690  32.343  30.737  1.00  0.00    -0.203 F 
ATOM     94  C   UNL A   1      47.063  34.469  29.797  1.00  0.00     0.198 A 
ATOM     95  C   UNL A   1      46.545  34.874  27.489  1.00  0.00     0.198 A 
ATOM     96  F   UNL A   1      45.606  33.165  26.176  1.00  0.00    -0.203 F 
ATOM     97  F   UNL A   1      47.503  34.913  30.983  1.00  0.00    -0.200 F 
ATOM     98  C   UNL A   1      47.028  35.326  28.707  1.00  0.00     0.200 A 
ATOM     99  F   UNL A   1      46.532  35.691  26.428  1.00  0.00    -0.200 F 
ATOM    100  F   UNL A   1      47.456  36.589  28.832  1.00  0.00    -0.200 F 
ENDBRANCH  67  90
ENDBRANCH  41  42
ENDBRANCH  34  36
ENDBRANCH  33  34
ENDBRANCH  32  33
ENDBRANCH  31  32
ENDBRANCH  30  31
ENDBRANCH   1  30
TORSDOF 19
ENDMDL
