MODEL 1
REMARK VINA RESULT:     -12.2      0.000      0.000
REMARK SMILES CC[C@@](C)(NC(=O)N1CCC[C@H]1C1CCCC1)C(=O)OCCOCCOCCOC(=O)c1ccc(-c2c3nc(c(-c4c(F)c(F)c(F)c(F)c4F)c4ccc([nH]4)c(-c4c(F)c(F)c(F)c(F)c4F)c4nc(c(-c5c(F)c(F)c(F)c(F)c5F)c5ccc2[nH]5)C=C4)C=C3)cc1
REMARK SMILES IDX 24 1 23 2 22 3 21 4 20 5 18 6 19 7 3 8 4 9 2 10 1 11 5 12
REMARK SMILES IDX 6 13 7 15 8 16 9 17 12 18 10 19 11 20 13 21 14 22 17 23
REMARK SMILES IDX 15 24 16 25 25 26 26 27 27 28 28 29 29 30 30 31 31 32 32 33
REMARK SMILES IDX 33 34 94 35 34 36 93 37 35 38 36 39 37 40 87 41 38 42 92 43
REMARK SMILES IDX 86 44 88 45 39 46 91 47 85 48 84 49 40 51 72 52 52 53 71 54
REMARK SMILES IDX 53 55 56 56 70 57 89 58 54 59 55 60 69 62 90 63 57 64 41 65
REMARK SMILES IDX 42 66 50 67 43 68 44 69 48 70 51 71 45 72 46 73 49 74 47 75
REMARK SMILES IDX 73 76 74 77 82 78 75 79 76 80 80 81 83 82 77 83 78 84 81 85
REMARK SMILES IDX 79 86 58 87 59 88 67 89 60 90 61 91 65 92 68 93 62 94 63 95
REMARK SMILES IDX 66 96 64 97
REMARK H PARENT 5 14 88 50 56 61
REMARK Flexibility Score: inf
ROOT
ATOM      1  C   UNL A   1      37.673  21.563  25.302  1.00  0.00     0.188 C 
ENDROOT
BRANCH   1   2
ATOM      2  O   UNL A   1      36.252  21.303  25.552  1.00  0.00    -0.376 OA
BRANCH   2   3
ATOM      3  C   UNL A   1      35.101  21.372  24.657  1.00  0.00     0.202 C 
BRANCH   3   4
ATOM      4  C   UNL A   1      33.809  21.994  25.336  1.00  0.00     0.261 C 
BRANCH   4   5
ATOM      5  O   UNL A   1      33.239  22.968  24.484  1.00  0.00    -0.462 OA
BRANCH   5   6
ATOM      6  C   UNL A   1      32.731  23.927  25.287  1.00  0.00     0.331 C 
ATOM      7  O   UNL A   1      32.949  23.936  26.495  1.00  0.00    -0.249 OA
BRANCH   6   8
ATOM      8  C   UNL A   1      31.918  24.975  24.512  1.00  0.00     0.136 C 
ATOM      9  C   UNL A   1      31.523  24.134  23.271  1.00  0.00     0.047 C 
BRANCH   8  10
ATOM     10  C   UNL A   1      30.552  25.370  25.202  1.00  0.00     0.037 C 
ATOM     11  C   UNL A   1      29.571  26.234  24.402  1.00  0.00     0.007 C 
ENDBRANCH   8  10
BRANCH   8  12
ATOM     12  N   UNL A   1      32.686  26.159  23.917  1.00  0.00    -0.322 N 
ATOM     13  C   UNL A   1      33.211  27.405  24.137  1.00  0.00     0.318 C 
ATOM     14  H   UNL A   1      32.890  25.926  22.982  1.00  0.00     0.166 HD
ATOM     15  O   UNL A   1      33.999  27.717  23.229  1.00  0.00    -0.249 OA
BRANCH  13  16
ATOM     16  N   UNL A   1      32.823  28.316  25.232  1.00  0.00    -0.322 N 
ATOM     17  C   UNL A   1      34.017  29.034  25.546  1.00  0.00     0.122 C 
ATOM     18  C   UNL A   1      31.347  29.492  25.516  1.00  0.00     0.090 C 
ATOM     19  C   UNL A   1      33.684  29.765  26.815  1.00  0.00     0.024 C 
ATOM     20  C   UNL A   1      32.153  30.047  26.891  1.00  0.00     0.027 C 
BRANCH  18  21
ATOM     21  C   UNL A   1      30.309  30.392  23.933  1.00  0.00     0.012 C 
ATOM     22  C   UNL A   1      29.543  29.445  22.533  1.00  0.00     0.006 C 
ATOM     23  C   UNL A   1      28.948  31.354  23.801  1.00  0.00     0.006 C 
ATOM     24  C   UNL A   1      28.031  29.456  22.553  1.00  0.00     0.000 C 
ATOM     25  C   UNL A   1      27.663  30.556  23.490  1.00  0.00     0.000 C 
ENDBRANCH  18  21
ENDBRANCH  13  16
ENDBRANCH   8  12
ENDBRANCH   6   8
ENDBRANCH   5   6
ENDBRANCH   4   5
ENDBRANCH   3   4
ENDBRANCH   2   3
ENDBRANCH   1   2
BRANCH   1  26
ATOM     26  C   UNL A   1      38.955  22.483  26.405  1.00  0.00     0.188 C 
BRANCH  26  27
ATOM     27  O   UNL A   1      40.599  21.792  27.109  1.00  0.00    -0.376 OA
BRANCH  27  28
ATOM     28  C   UNL A   1      42.024  21.049  26.098  1.00  0.00     0.202 C 
BRANCH  28  29
ATOM     29  C   UNL A   1      42.289  19.182  25.830  1.00  0.00     0.261 C 
BRANCH  29  30
ATOM     30  O   UNL A   1      43.652  18.586  25.122  1.00  0.00    -0.460 OA
BRANCH  30  31
ATOM     31  C   UNL A   1      44.528  19.199  24.213  1.00  0.00     0.338 C 
ATOM     32  O   UNL A   1      44.840  18.705  23.136  1.00  0.00    -0.246 OA
BRANCH  31  33
ATOM     33  C   UNL A   1      45.037  20.648  24.485  1.00  0.00     0.060 A 
ATOM     34  C   UNL A   1      45.536  21.034  25.756  1.00  0.00     0.016 A 
ATOM     35  C   UNL A   1      44.742  21.721  23.632  1.00  0.00     0.016 A 
ATOM     36  C   UNL A   1      45.821  22.394  26.121  1.00  0.00     0.010 A 
ATOM     37  C   UNL A   1      44.978  23.092  24.014  1.00  0.00     0.010 A 
ATOM     38  C   UNL A   1      45.518  23.462  25.266  1.00  0.00    -0.014 A 
BRANCH  38  39
ATOM     39  C   UNL A   1      45.535  24.913  25.752  1.00  0.00     0.031 A 
ATOM     40  C   UNL A   1      46.846  25.687  25.696  1.00  0.00     0.074 A 
ATOM     41  C   UNL A   1      44.456  25.591  26.217  1.00  0.00     0.049 A 
ATOM     42  N   UNL A   1      47.145  26.897  26.117  1.00  0.00    -0.248 NA
ATOM     43  C   UNL A   1      47.973  24.984  25.072  1.00  0.00     0.031 C 
ATOM     44  C   UNL A   1      43.095  25.074  26.286  1.00  0.00     0.029 A 
ATOM     45  N   UNL A   1      44.339  26.876  26.734  1.00  0.00    -0.354 N 
ATOM     46  C   UNL A   1      48.496  27.086  25.828  1.00  0.00     0.074 A 
ATOM     47  C   UNL A   1      48.958  25.858  25.215  1.00  0.00     0.031 C 
ATOM     48  C   UNL A   1      42.288  26.012  26.821  1.00  0.00     0.029 A 
ATOM     49  C   UNL A   1      43.070  27.199  27.175  1.00  0.00     0.049 A 
ATOM     50  H   UNL A   1      45.096  27.503  26.782  1.00  0.00     0.167 HD
ATOM     51  C   UNL A   1      49.289  28.169  26.045  1.00  0.00     0.037 A 
ATOM     52  C   UNL A   1      42.591  28.299  27.804  1.00  0.00     0.037 A 
ATOM     53  C   UNL A   1      48.858  29.407  26.650  1.00  0.00     0.049 A 
ATOM     54  C   UNL A   1      43.510  29.464  28.121  1.00  0.00     0.074 A 
ATOM     55  C   UNL A   1      49.597  30.555  26.892  1.00  0.00     0.029 A 
ATOM     56  N   UNL A   1      47.578  29.657  27.119  1.00  0.00    -0.354 N 
ATOM     57  N   UNL A   1      44.781  29.621  27.838  1.00  0.00    -0.248 NA
ATOM     58  C   UNL A   1      42.923  30.609  28.842  1.00  0.00     0.031 C 
ATOM     59  C   UNL A   1      48.788  31.467  27.578  1.00  0.00     0.029 A 
ATOM     60  C   UNL A   1      47.518  30.927  27.678  1.00  0.00     0.049 A 
ATOM     61  H   UNL A   1      46.823  29.028  27.064  1.00  0.00     0.167 HD
ATOM     62  C   UNL A   1      45.127  30.890  28.297  1.00  0.00     0.074 A 
ATOM     63  C   UNL A   1      43.933  31.467  28.872  1.00  0.00     0.031 C 
ATOM     64  C   UNL A   1      46.328  31.518  28.238  1.00  0.00     0.037 A 
BRANCH  51  65
ATOM     65  C   UNL A   1      50.746  28.052  25.668  1.00  0.00     0.064 A 
ATOM     66  C   UNL A   1      51.193  28.206  24.347  1.00  0.00     0.173 A 
ATOM     67  C   UNL A   1      51.715  27.804  26.656  1.00  0.00     0.173 A 
ATOM     68  F   UNL A   1      50.314  28.441  23.360  1.00  0.00    -0.203 F 
ATOM     69  C   UNL A   1      52.541  28.071  24.022  1.00  0.00     0.198 A 
ATOM     70  C   UNL A   1      53.066  27.711  26.334  1.00  0.00     0.198 A 
ATOM     71  F   UNL A   1      51.352  27.664  27.940  1.00  0.00    -0.203 F 
ATOM     72  F   UNL A   1      52.932  28.155  22.743  1.00  0.00    -0.200 F 
ATOM     73  C   UNL A   1      53.478  27.830  25.016  1.00  0.00     0.200 A 
ATOM     74  F   UNL A   1      53.971  27.499  27.300  1.00  0.00    -0.200 F 
ATOM     75  F   UNL A   1      54.774  27.703  24.703  1.00  0.00    -0.200 F 
ENDBRANCH  51  65
BRANCH  52  76
ATOM     76  C   UNL A   1      41.151  28.382  28.216  1.00  0.00     0.064 A 
ATOM     77  C   UNL A   1      40.170  28.907  27.359  1.00  0.00     0.173 A 
ATOM     78  C   UNL A   1      40.738  28.007  29.504  1.00  0.00     0.173 A 
ATOM     79  F   UNL A   1      40.511  29.333  26.133  1.00  0.00    -0.203 F 
ATOM     80  C   UNL A   1      38.846  29.066  27.775  1.00  0.00     0.198 A 
ATOM     81  C   UNL A   1      39.407  28.132  29.908  1.00  0.00     0.198 A 
ATOM     82  F   UNL A   1      41.630  27.524  30.381  1.00  0.00    -0.203 F 
ATOM     83  F   UNL A   1      37.950  29.632  26.954  1.00  0.00    -0.200 F 
ATOM     84  C   UNL A   1      38.464  28.670  29.046  1.00  0.00     0.200 A 
ATOM     85  F   UNL A   1      39.043  27.743  31.138  1.00  0.00    -0.200 F 
ATOM     86  F   UNL A   1      37.193  28.820  29.446  1.00  0.00    -0.200 F 
ENDBRANCH  52  76
BRANCH  64  87
ATOM     87  C   UNL A   1      46.408  32.941  28.735  1.00  0.00     0.064 A 
ATOM     88  C   UNL A   1      46.164  34.045  27.902  1.00  0.00     0.173 A 
ATOM     89  C   UNL A   1      46.714  33.202  30.082  1.00  0.00     0.173 A 
ATOM     90  F   UNL A   1      45.870  33.862  26.606  1.00  0.00    -0.203 F 
ATOM     91  C   UNL A   1      46.271  35.350  28.385  1.00  0.00     0.198 A 
ATOM     92  C   UNL A   1      46.779  34.504  30.571  1.00  0.00     0.198 A 
ATOM     93  F   UNL A   1      46.944  32.189  30.932  1.00  0.00    -0.203 F 
ATOM     94  F   UNL A   1      46.104  36.386  27.553  1.00  0.00    -0.200 F 
ATOM     95  C   UNL A   1      46.573  35.577  29.719  1.00  0.00     0.200 A 
ATOM     96  F   UNL A   1      47.048  34.720  31.866  1.00  0.00    -0.200 F 
ATOM     97  F   UNL A   1      46.673  36.832  30.182  1.00  0.00    -0.200 F 
ENDBRANCH  64  87
ENDBRANCH  38  39
ENDBRANCH  31  33
ENDBRANCH  30  31
ENDBRANCH  29  30
ENDBRANCH  28  29
ENDBRANCH  27  28
ENDBRANCH  26  27
ENDBRANCH   1  26
TORSDOF 21
ENDMDL
MODEL 2
REMARK VINA RESULT:     -11.8      5.300      7.512
REMARK SMILES CC[C@@](C)(NC(=O)N1CCC[C@H]1C1CCCC1)C(=O)OCCOCCOCCOC(=O)c1ccc(-c2c3nc(c(-c4c(F)c(F)c(F)c(F)c4F)c4ccc([nH]4)c(-c4c(F)c(F)c(F)c(F)c4F)c4nc(c(-c5c(F)c(F)c(F)c(F)c5F)c5ccc2[nH]5)C=C4)C=C3)cc1
REMARK SMILES IDX 24 1 23 2 22 3 21 4 20 5 18 6 19 7 3 8 4 9 2 10 1 11 5 12
REMARK SMILES IDX 6 13 7 15 8 16 9 17 12 18 10 19 11 20 13 21 14 22 17 23
REMARK SMILES IDX 15 24 16 25 25 26 26 27 27 28 28 29 29 30 30 31 31 32 32 33
REMARK SMILES IDX 33 34 94 35 34 36 93 37 35 38 36 39 37 40 87 41 38 42 92 43
REMARK SMILES IDX 86 44 88 45 39 46 91 47 85 48 84 49 40 51 72 52 52 53 71 54
REMARK SMILES IDX 53 55 56 56 70 57 89 58 54 59 55 60 69 62 90 63 57 64 41 65
REMARK SMILES IDX 42 66 50 67 43 68 44 69 48 70 51 71 45 72 46 73 49 74 47 75
REMARK SMILES IDX 73 76 74 77 82 78 75 79 76 80 80 81 83 82 77 83 78 84 81 85
REMARK SMILES IDX 79 86 58 87 59 88 67 89 60 90 61 91 65 92 68 93 62 94 63 95
REMARK SMILES IDX 66 96 64 97
REMARK H PARENT 5 14 88 50 56 61
REMARK Flexibility Score: inf
ROOT
ATOM      1  C   UNL A   1      38.183  22.013  25.576  1.00  0.00     0.188 C 
ENDROOT
BRANCH   1   2
ATOM      2  O   UNL A   1      37.069  21.065  25.670  1.00  0.00    -0.376 OA
BRANCH   2   3
ATOM      3  C   UNL A   1      35.890  20.897  24.826  1.00  0.00     0.202 C 
BRANCH   3   4
ATOM      4  C   UNL A   1      34.796  22.027  25.037  1.00  0.00     0.261 C 
BRANCH   4   5
ATOM      5  O   UNL A   1      33.894  22.034  23.948  1.00  0.00    -0.462 OA
BRANCH   5   6
ATOM      6  C   UNL A   1      33.603  23.329  23.702  1.00  0.00     0.331 C 
ATOM      7  O   UNL A   1      34.480  24.186  23.643  1.00  0.00    -0.249 OA
BRANCH   6   8
ATOM      8  C   UNL A   1      32.101  23.563  23.479  1.00  0.00     0.136 C 
ATOM      9  C   UNL A   1      31.745  22.263  22.713  1.00  0.00     0.047 C 
BRANCH   8  10
ATOM     10  C   UNL A   1      31.238  23.520  24.802  1.00  0.00     0.037 C 
ATOM     11  C   UNL A   1      31.518  24.581  25.872  1.00  0.00     0.007 C 
ENDBRANCH   8  10
BRANCH   8  12
ATOM     12  N   UNL A   1      31.703  24.677  22.505  1.00  0.00    -0.322 N 
ATOM     13  C   UNL A   1      31.673  26.025  22.264  1.00  0.00     0.318 C 
ATOM     14  H   UNL A   1      31.298  24.239  21.721  1.00  0.00     0.166 HD
ATOM     15  O   UNL A   1      31.431  26.253  21.068  1.00  0.00    -0.249 OA
BRANCH  13  16
ATOM     16  N   UNL A   1      31.796  27.081  23.289  1.00  0.00    -0.322 N 
ATOM     17  C   UNL A   1      33.086  27.652  23.068  1.00  0.00     0.122 C 
ATOM     18  C   UNL A   1      30.641  28.472  23.900  1.00  0.00     0.090 C 
ATOM     19  C   UNL A   1      33.304  28.539  24.260  1.00  0.00     0.024 C 
ATOM     20  C   UNL A   1      31.938  29.038  24.821  1.00  0.00     0.027 C 
BRANCH  18  21
ATOM     21  C   UNL A   1      29.195  29.354  22.666  1.00  0.00     0.012 C 
ATOM     22  C   UNL A   1      27.672  30.200  23.306  1.00  0.00     0.006 C 
ATOM     23  C   UNL A   1      29.191  30.581  21.531  1.00  0.00     0.006 C 
ATOM     24  C   UNL A   1      27.685  31.698  23.107  1.00  0.00     0.000 C 
ATOM     25  C   UNL A   1      28.765  31.948  22.110  1.00  0.00     0.000 C 
ENDBRANCH  18  21
ENDBRANCH  13  16
ENDBRANCH   8  12
ENDBRANCH   6   8
ENDBRANCH   5   6
ENDBRANCH   4   5
ENDBRANCH   3   4
ENDBRANCH   2   3
ENDBRANCH   1   2
BRANCH   1  26
ATOM     26  C   UNL A   1      38.275  23.844  26.166  1.00  0.00     0.188 C 
BRANCH  26  27
ATOM     27  O   UNL A   1      39.828  24.808  26.743  1.00  0.00    -0.376 OA
BRANCH  27  28
ATOM     28  C   UNL A   1      41.623  24.441  26.244  1.00  0.00     0.202 C 
BRANCH  28  29
ATOM     29  C   UNL A   1      42.253  22.730  25.692  1.00  0.00     0.261 C 
BRANCH  29  30
ATOM     30  O   UNL A   1      43.689  22.118  26.219  1.00  0.00    -0.460 OA
BRANCH  30  31
ATOM     31  C   UNL A   1      44.825  22.789  26.698  1.00  0.00     0.338 C 
ATOM     32  O   UNL A   1      45.933  22.698  26.182  1.00  0.00    -0.246 OA
BRANCH  31  33
ATOM     33  C   UNL A   1      44.681  23.826  27.854  1.00  0.00     0.060 A 
ATOM     34  C   UNL A   1      43.890  23.555  29.000  1.00  0.00     0.016 A 
ATOM     35  C   UNL A   1      45.035  25.174  27.703  1.00  0.00     0.016 A 
ATOM     36  C   UNL A   1      43.556  24.542  29.990  1.00  0.00     0.010 A 
ATOM     37  C   UNL A   1      44.657  26.178  28.668  1.00  0.00     0.010 A 
ATOM     38  C   UNL A   1      43.907  25.888  29.830  1.00  0.00    -0.014 A 
BRANCH  38  39
ATOM     39  C   UNL A   1      43.307  26.988  30.710  1.00  0.00     0.031 A 
ATOM     40  C   UNL A   1      43.951  27.274  32.061  1.00  0.00     0.074 A 
ATOM     41  C   UNL A   1      42.245  27.761  30.376  1.00  0.00     0.049 A 
ATOM     42  N   UNL A   1      43.592  28.094  33.025  1.00  0.00    -0.248 NA
ATOM     43  C   UNL A   1      45.175  26.519  32.355  1.00  0.00     0.031 C 
ATOM     44  C   UNL A   1      41.528  27.713  29.107  1.00  0.00     0.029 A 
ATOM     45  N   UNL A   1      41.571  28.745  31.088  1.00  0.00    -0.354 N 
ATOM     46  C   UNL A   1      44.532  27.935  34.041  1.00  0.00     0.074 A 
ATOM     47  C   UNL A   1      45.463  26.926  33.583  1.00  0.00     0.031 C 
ATOM     48  C   UNL A   1      40.516  28.603  29.132  1.00  0.00     0.029 A 
ATOM     49  C   UNL A   1      40.476  29.274  30.433  1.00  0.00     0.049 A 
ATOM     50  H   UNL A   1      41.850  29.040  31.985  1.00  0.00     0.167 HD
ATOM     51  C   UNL A   1      44.627  28.560  35.246  1.00  0.00     0.037 A 
ATOM     52  C   UNL A   1      39.539  30.171  30.829  1.00  0.00     0.037 A 
ATOM     53  C   UNL A   1      43.717  29.571  35.730  1.00  0.00     0.049 A 
ATOM     54  C   UNL A   1      39.607  30.792  32.211  1.00  0.00     0.074 A 
ATOM     55  C   UNL A   1      43.751  30.261  36.933  1.00  0.00     0.029 A 
ATOM     56  N   UNL A   1      42.603  30.030  35.046  1.00  0.00    -0.354 N 
ATOM     57  N   UNL A   1      40.504  30.628  33.154  1.00  0.00    -0.248 NA
ATOM     58  C   UNL A   1      38.531  31.730  32.582  1.00  0.00     0.031 C 
ATOM     59  C   UNL A   1      42.617  31.076  37.009  1.00  0.00     0.029 A 
ATOM     60  C   UNL A   1      41.926  30.967  35.815  1.00  0.00     0.049 A 
ATOM     61  H   UNL A   1      42.330  29.735  34.147  1.00  0.00     0.167 HD
ATOM     62  C   UNL A   1      40.130  31.473  34.197  1.00  0.00     0.074 A 
ATOM     63  C   UNL A   1      38.928  32.155  33.773  1.00  0.00     0.031 C 
ATOM     64  C   UNL A   1      40.737  31.666  35.395  1.00  0.00     0.037 A 
BRANCH  51  65
ATOM     65  C   UNL A   1      45.740  28.129  36.168  1.00  0.00     0.064 A 
ATOM     66  C   UNL A   1      46.980  28.787  36.204  1.00  0.00     0.173 A 
ATOM     67  C   UNL A   1      45.552  27.052  37.051  1.00  0.00     0.173 A 
ATOM     68  F   UNL A   1      47.220  29.821  35.383  1.00  0.00    -0.203 F 
ATOM     69  C   UNL A   1      47.999  28.355  37.050  1.00  0.00     0.198 A 
ATOM     70  C   UNL A   1      46.559  26.649  37.925  1.00  0.00     0.198 A 
ATOM     71  F   UNL A   1      44.383  26.394  37.075  1.00  0.00    -0.203 F 
ATOM     72  F   UNL A   1      49.196  28.957  37.016  1.00  0.00    -0.200 F 
ATOM     73  C   UNL A   1      47.787  27.291  37.914  1.00  0.00     0.200 A 
ATOM     74  F   UNL A   1      46.342  25.634  38.773  1.00  0.00    -0.200 F 
ATOM     75  F   UNL A   1      48.767  26.879  38.729  1.00  0.00    -0.200 F 
ENDBRANCH  51  65
BRANCH  52  76
ATOM     76  C   UNL A   1      38.410  30.554  29.919  1.00  0.00     0.064 A 
ATOM     77  C   UNL A   1      38.329  31.834  29.347  1.00  0.00     0.173 A 
ATOM     78  C   UNL A   1      37.350  29.671  29.661  1.00  0.00     0.173 A 
ATOM     79  F   UNL A   1      39.284  32.742  29.599  1.00  0.00    -0.203 F 
ATOM     80  C   UNL A   1      37.232  32.219  28.573  1.00  0.00     0.198 A 
ATOM     81  C   UNL A   1      36.272  30.043  28.856  1.00  0.00     0.198 A 
ATOM     82  F   UNL A   1      37.353  28.442  30.198  1.00  0.00    -0.203 F 
ATOM     83  F   UNL A   1      37.154  33.471  28.098  1.00  0.00    -0.200 F 
ATOM     84  C   UNL A   1      36.209  31.320  28.320  1.00  0.00     0.200 A 
ATOM     85  F   UNL A   1      35.287  29.168  28.612  1.00  0.00    -0.200 F 
ATOM     86  F   UNL A   1      35.157  31.688  27.575  1.00  0.00    -0.200 F 
ENDBRANCH  52  76
BRANCH  64  87
ATOM     87  C   UNL A   1      40.167  32.716  36.316  1.00  0.00     0.064 A 
ATOM     88  C   UNL A   1      39.048  32.479  37.130  1.00  0.00     0.173 A 
ATOM     89  C   UNL A   1      40.770  33.984  36.400  1.00  0.00     0.173 A 
ATOM     90  F   UNL A   1      38.426  31.291  37.093  1.00  0.00    -0.203 F 
ATOM     91  C   UNL A   1      38.529  33.480  37.952  1.00  0.00     0.198 A 
ATOM     92  C   UNL A   1      40.275  34.967  37.253  1.00  0.00     0.198 A 
ATOM     93  F   UNL A   1      41.852  34.268  35.657  1.00  0.00    -0.203 F 
ATOM     94  F   UNL A   1      37.418  33.249  38.664  1.00  0.00    -0.200 F 
ATOM     95  C   UNL A   1      39.146  34.719  38.016  1.00  0.00     0.200 A 
ATOM     96  F   UNL A   1      40.888  36.157  37.329  1.00  0.00    -0.200 F 
ATOM     97  F   UNL A   1      38.646  35.680  38.808  1.00  0.00    -0.200 F 
ENDBRANCH  64  87
ENDBRANCH  38  39
ENDBRANCH  31  33
ENDBRANCH  30  31
ENDBRANCH  29  30
ENDBRANCH  28  29
ENDBRANCH  27  28
ENDBRANCH  26  27
ENDBRANCH   1  26
TORSDOF 21
ENDMDL
MODEL 3
REMARK VINA RESULT:     -11.6      5.292     10.071
REMARK SMILES CC[C@@](C)(NC(=O)N1CCC[C@H]1C1CCCC1)C(=O)OCCOCCOCCOC(=O)c1ccc(-c2c3nc(c(-c4c(F)c(F)c(F)c(F)c4F)c4ccc([nH]4)c(-c4c(F)c(F)c(F)c(F)c4F)c4nc(c(-c5c(F)c(F)c(F)c(F)c5F)c5ccc2[nH]5)C=C4)C=C3)cc1
REMARK SMILES IDX 24 1 23 2 22 3 21 4 20 5 18 6 19 7 3 8 4 9 2 10 1 11 5 12
REMARK SMILES IDX 6 13 7 15 8 16 9 17 12 18 10 19 11 20 13 21 14 22 17 23
REMARK SMILES IDX 15 24 16 25 25 26 26 27 27 28 28 29 29 30 30 31 31 32 32 33
REMARK SMILES IDX 33 34 94 35 34 36 93 37 35 38 36 39 37 40 87 41 38 42 92 43
REMARK SMILES IDX 86 44 88 45 39 46 91 47 85 48 84 49 40 51 72 52 52 53 71 54
REMARK SMILES IDX 53 55 56 56 70 57 89 58 54 59 55 60 69 62 90 63 57 64 41 65
REMARK SMILES IDX 42 66 50 67 43 68 44 69 48 70 51 71 45 72 46 73 49 74 47 75
REMARK SMILES IDX 73 76 74 77 82 78 75 79 76 80 80 81 83 82 77 83 78 84 81 85
REMARK SMILES IDX 79 86 58 87 59 88 67 89 60 90 61 91 65 92 68 93 62 94 63 95
REMARK SMILES IDX 66 96 64 97
REMARK H PARENT 5 14 88 50 56 61
REMARK Flexibility Score: inf
ROOT
ATOM      1  C   UNL A   1      36.724  22.187  23.997  1.00  0.00     0.188 C 
ENDROOT
BRANCH   1   2
ATOM      2  O   UNL A   1      35.883  23.293  24.462  1.00  0.00    -0.376 OA
BRANCH   2   3
ATOM      3  C   UNL A   1      36.001  24.147  25.641  1.00  0.00     0.202 C 
BRANCH   3   4
ATOM      4  C   UNL A   1      34.783  25.147  25.822  1.00  0.00     0.261 C 
BRANCH   4   5
ATOM      5  O   UNL A   1      34.145  25.359  24.579  1.00  0.00    -0.462 OA
BRANCH   5   6
ATOM      6  C   UNL A   1      33.114  26.198  24.818  1.00  0.00     0.331 C 
ATOM      7  O   UNL A   1      33.250  27.416  24.766  1.00  0.00    -0.249 OA
BRANCH   6   8
ATOM      8  C   UNL A   1      31.803  25.452  25.110  1.00  0.00     0.136 C 
ATOM      9  C   UNL A   1      31.259  26.324  26.272  1.00  0.00     0.047 C 
BRANCH   8  10
ATOM     10  C   UNL A   1      30.726  25.567  23.960  1.00  0.00     0.037 C 
ATOM     11  C   UNL A   1      29.949  26.882  23.838  1.00  0.00     0.007 C 
ENDBRANCH   8  10
BRANCH   8  12
ATOM     12  N   UNL A   1      31.914  24.054  25.729  1.00  0.00    -0.322 N 
ATOM     13  C   UNL A   1      32.151  22.724  25.506  1.00  0.00     0.318 C 
ATOM     14  H   UNL A   1      31.746  24.155  26.694  1.00  0.00     0.166 HD
ATOM     15  O   UNL A   1      32.364  22.130  26.575  1.00  0.00    -0.249 OA
BRANCH  13  16
ATOM     16  N   UNL A   1      32.059  22.045  24.198  1.00  0.00    -0.322 N 
ATOM     17  C   UNL A   1      32.838  22.853  23.315  1.00  0.00     0.122 C 
ATOM     18  C   UNL A   1      32.236  20.230  23.633  1.00  0.00     0.090 C 
ATOM     19  C   UNL A   1      32.533  22.305  21.950  1.00  0.00     0.024 C 
ATOM     20  C   UNL A   1      32.149  20.797  22.046  1.00  0.00     0.027 C 
BRANCH  18  21
ATOM     21  C   UNL A   1      33.432  18.848  24.658  1.00  0.00     0.012 C 
ATOM     22  C   UNL A   1      32.755  17.512  25.753  1.00  0.00     0.006 C 
ATOM     23  C   UNL A   1      34.545  17.682  24.214  1.00  0.00     0.006 C 
ATOM     24  C   UNL A   1      32.928  16.121  25.186  1.00  0.00     0.000 C 
ATOM     25  C   UNL A   1      33.936  16.268  24.098  1.00  0.00     0.000 C 
ENDBRANCH  18  21
ENDBRANCH  13  16
ENDBRANCH   8  12
ENDBRANCH   6   8
ENDBRANCH   5   6
ENDBRANCH   4   5
ENDBRANCH   3   4
ENDBRANCH   2   3
ENDBRANCH   1   2
BRANCH   1  26
ATOM     26  C   UNL A   1      37.994  21.126  24.981  1.00  0.00     0.188 C 
BRANCH  26  27
ATOM     27  O   UNL A   1      39.335  21.746  26.204  1.00  0.00    -0.376 OA
BRANCH  27  28
ATOM     28  C   UNL A   1      40.950  20.849  26.642  1.00  0.00     0.202 C 
BRANCH  28  29
ATOM     29  C   UNL A   1      42.663  21.333  25.962  1.00  0.00     0.261 C 
BRANCH  29  30
ATOM     30  O   UNL A   1      42.858  22.568  24.890  1.00  0.00    -0.460 OA
BRANCH  30  31
ATOM     31  C   UNL A   1      43.471  23.818  25.069  1.00  0.00     0.338 C 
ATOM     32  O   UNL A   1      44.464  24.180  24.449  1.00  0.00    -0.246 OA
BRANCH  31  33
ATOM     33  C   UNL A   1      42.799  24.886  25.986  1.00  0.00     0.060 A 
ATOM     34  C   UNL A   1      43.426  26.128  26.262  1.00  0.00     0.016 A 
ATOM     35  C   UNL A   1      41.727  24.579  26.836  1.00  0.00     0.016 A 
ATOM     36  C   UNL A   1      42.955  27.055  27.255  1.00  0.00     0.010 A 
ATOM     37  C   UNL A   1      41.284  25.484  27.868  1.00  0.00     0.010 A 
ATOM     38  C   UNL A   1      41.888  26.739  28.106  1.00  0.00    -0.014 A 
BRANCH  38  39
ATOM     39  C   UNL A   1      41.573  27.576  29.348  1.00  0.00     0.031 A 
ATOM     40  C   UNL A   1      40.342  28.473  29.332  1.00  0.00     0.074 A 
ATOM     41  C   UNL A   1      42.298  27.570  30.495  1.00  0.00     0.049 A 
ATOM     42  N   UNL A   1      39.899  29.336  30.221  1.00  0.00    -0.248 NA
ATOM     43  C   UNL A   1      39.498  28.373  28.136  1.00  0.00     0.031 C 
ATOM     44  C   UNL A   1      43.463  26.734  30.758  1.00  0.00     0.029 A 
ATOM     45  N   UNL A   1      42.160  28.307  31.664  1.00  0.00    -0.354 N 
ATOM     46  C   UNL A   1      38.742  29.892  29.679  1.00  0.00     0.074 A 
ATOM     47  C   UNL A   1      38.566  29.282  28.377  1.00  0.00     0.031 C 
ATOM     48  C   UNL A   1      43.941  27.010  31.988  1.00  0.00     0.029 A 
ATOM     49  C   UNL A   1      43.145  28.072  32.605  1.00  0.00     0.049 A 
ATOM     50  H   UNL A   1      41.424  28.944  31.811  1.00  0.00     0.167 HD
ATOM     51  C   UNL A   1      37.896  30.821  30.199  1.00  0.00     0.037 A 
ATOM     52  C   UNL A   1      43.395  28.647  33.807  1.00  0.00     0.037 A 
ATOM     53  C   UNL A   1      38.042  31.445  31.493  1.00  0.00     0.049 A 
ATOM     54  C   UNL A   1      42.493  29.747  34.334  1.00  0.00     0.074 A 
ATOM     55  C   UNL A   1      37.222  32.385  32.098  1.00  0.00     0.029 A 
ATOM     56  N   UNL A   1      39.081  31.204  32.378  1.00  0.00    -0.354 N 
ATOM     57  N   UNL A   1      41.406  30.256  33.807  1.00  0.00    -0.248 NA
ATOM     58  C   UNL A   1      42.853  30.350  35.631  1.00  0.00     0.031 C 
ATOM     59  C   UNL A   1      37.805  32.769  33.310  1.00  0.00     0.029 A 
ATOM     60  C   UNL A   1      38.939  32.001  33.506  1.00  0.00     0.049 A 
ATOM     61  H   UNL A   1      39.813  30.562  32.229  1.00  0.00     0.167 HD
ATOM     62  C   UNL A   1      40.930  31.192  34.722  1.00  0.00     0.074 A 
ATOM     63  C   UNL A   1      41.842  31.179  35.845  1.00  0.00     0.031 C 
ATOM     64  C   UNL A   1      39.832  31.983  34.638  1.00  0.00     0.037 A 
BRANCH  51  65
ATOM     65  C   UNL A   1      36.740  31.271  29.339  1.00  0.00     0.064 A 
ATOM     66  C   UNL A   1      36.688  32.551  28.765  1.00  0.00     0.173 A 
ATOM     67  C   UNL A   1      35.678  30.393  29.065  1.00  0.00     0.173 A 
ATOM     68  F   UNL A   1      37.672  33.434  28.994  1.00  0.00    -0.203 F 
ATOM     69  C   UNL A   1      35.598  32.949  27.993  1.00  0.00     0.198 A 
ATOM     70  C   UNL A   1      34.611  30.781  28.259  1.00  0.00     0.198 A 
ATOM     71  F   UNL A   1      35.679  29.151  29.571  1.00  0.00    -0.203 F 
ATOM     72  F   UNL A   1      35.540  34.200  27.514  1.00  0.00    -0.200 F 
ATOM     73  C   UNL A   1      34.563  32.062  27.735  1.00  0.00     0.200 A 
ATOM     74  F   UNL A   1      33.623  29.913  27.994  1.00  0.00    -0.200 F 
ATOM     75  F   UNL A   1      33.518  32.446  26.990  1.00  0.00    -0.200 F 
ENDBRANCH  51  65
BRANCH  52  76
ATOM     76  C   UNL A   1      44.575  28.223  34.630  1.00  0.00     0.064 A 
ATOM     77  C   UNL A   1      45.846  28.792  34.440  1.00  0.00     0.173 A 
ATOM     78  C   UNL A   1      44.473  27.189  35.573  1.00  0.00     0.173 A 
ATOM     79  F   UNL A   1      46.019  29.749  33.516  1.00  0.00    -0.203 F 
ATOM     80  C   UNL A   1      46.962  28.336  35.144  1.00  0.00     0.198 A 
ATOM     81  C   UNL A   1      45.582  26.758  36.304  1.00  0.00     0.198 A 
ATOM     82  F   UNL A   1      43.295  26.586  35.783  1.00  0.00    -0.203 F 
ATOM     83  F   UNL A   1      48.172  28.854  34.890  1.00  0.00    -0.200 F 
ATOM     84  C   UNL A   1      46.828  27.325  36.082  1.00  0.00     0.200 A 
ATOM     85  F   UNL A   1      45.445  25.782  37.212  1.00  0.00    -0.200 F 
ATOM     86  F   UNL A   1      47.898  26.888  36.761  1.00  0.00    -0.200 F 
ENDBRANCH  52  76
BRANCH  64  87
ATOM     87  C   UNL A   1      39.493  32.853  35.824  1.00  0.00     0.064 A 
ATOM     88  C   UNL A   1      39.994  34.157  35.970  1.00  0.00     0.173 A 
ATOM     89  C   UNL A   1      38.629  32.375  36.825  1.00  0.00     0.173 A 
ATOM     90  F   UNL A   1      40.825  34.668  35.051  1.00  0.00    -0.203 F 
ATOM     91  C   UNL A   1      39.683  34.926  37.092  1.00  0.00     0.198 A 
ATOM     92  C   UNL A   1      38.287  33.162  37.922  1.00  0.00     0.198 A 
ATOM     93  F   UNL A   1      38.107  31.142  36.736  1.00  0.00    -0.203 F 
ATOM     94  F   UNL A   1      40.230  36.139  37.242  1.00  0.00    -0.200 F 
ATOM     95  C   UNL A   1      38.826  34.430  38.062  1.00  0.00     0.200 A 
ATOM     96  F   UNL A   1      37.441  32.687  38.847  1.00  0.00    -0.200 F 
ATOM     97  F   UNL A   1      38.527  35.172  39.139  1.00  0.00    -0.200 F 
ENDBRANCH  64  87
ENDBRANCH  38  39
ENDBRANCH  31  33
ENDBRANCH  30  31
ENDBRANCH  29  30
ENDBRANCH  28  29
ENDBRANCH  27  28
ENDBRANCH  26  27
ENDBRANCH   1  26
TORSDOF 21
ENDMDL
