MODEL 1
REMARK VINA RESULT:     -11.0      0.000      0.000
REMARK SMILES C#Cc1ccc2c(c1)C=C(C(=O)OCCOCCOCCOC(=O)c1ccc(-c3c4nc(c(-c5c(F)c(F)c(F)c(F)c5F)c5ccc([nH]5)c(-c5c(F)c(F)c(F)c(F)c5F)c5nc(c(-c6c(F)c(F)c(F)c(F)c6F)c6ccc3[nH]6)C=C5)C=C4)cc1)[C@@H](C(F)(F)F)O2
REMARK SMILES IDX 18 1 17 2 16 3 15 4 14 5 13 6 11 7 12 8 10 9 3 10 4 11 8 12
REMARK SMILES IDX 5 13 7 14 6 15 9 16 93 17 88 18 2 19 1 20 89 21 90 22 91 23
REMARK SMILES IDX 92 24 19 25 20 26 21 27 22 28 23 29 24 30 25 31 26 32 87 33
REMARK SMILES IDX 27 34 86 35 28 36 29 37 30 38 80 39 31 40 85 41 79 42 81 43
REMARK SMILES IDX 32 44 84 45 78 46 77 47 33 49 65 50 45 51 64 52 46 53 49 54
REMARK SMILES IDX 63 55 82 56 47 57 48 58 62 60 83 61 50 62 34 63 35 64 43 65
REMARK SMILES IDX 36 66 37 67 41 68 44 69 38 70 39 71 42 72 40 73 66 74 67 75
REMARK SMILES IDX 75 76 68 77 69 78 73 79 76 80 70 81 71 82 74 83 72 84 51 85
REMARK SMILES IDX 52 86 60 87 53 88 54 89 58 90 61 91 55 92 56 93 59 94 57 95
REMARK H PARENT 81 48 49 59
REMARK Flexibility Score: inf
ROOT
ATOM      1  C   UNL A   1      40.788  20.374  26.718  1.00  0.00     0.188 C 
ENDROOT
BRANCH   1   2
ATOM      2  C   UNL A   1      40.339  21.738  27.283  1.00  0.00     0.188 C 
BRANCH   2   3
ATOM      3  O   UNL A   1      39.308  22.429  26.621  1.00  0.00    -0.376 OA
BRANCH   3   4
ATOM      4  C   UNL A   1      38.513  21.789  25.639  1.00  0.00     0.202 C 
BRANCH   4   5
ATOM      5  C   UNL A   1      36.981  21.917  25.498  1.00  0.00     0.261 C 
BRANCH   5   6
ATOM      6  O   UNL A   1      36.432  23.232  25.362  1.00  0.00    -0.460 OA
BRANCH   6   7
ATOM      7  C   UNL A   1      35.182  23.402  25.857  1.00  0.00     0.338 C 
ATOM      8  O   UNL A   1      34.744  22.952  26.902  1.00  0.00    -0.246 OA
BRANCH   7   9
ATOM      9  C   UNL A   1      34.457  24.388  25.026  1.00  0.00     0.087 C 
ATOM     10  C   UNL A   1      32.140  28.592  24.714  1.00  0.00     0.025 A 
ATOM     11  C   UNL A   1      31.677  28.233  23.448  1.00  0.00     0.021 A 
ATOM     12  C   UNL A   1      33.021  27.749  25.398  1.00  0.00     0.029 A 
ATOM     13  C   UNL A   1      32.111  27.046  22.855  1.00  0.00     0.048 A 
ATOM     14  C   UNL A   1      33.413  26.532  24.826  1.00  0.00     0.018 A 
ATOM     15  C   UNL A   1      32.977  26.196  23.543  1.00  0.00     0.128 A 
ATOM     16  C   UNL A   1      34.199  25.577  25.590  1.00  0.00     0.027 C 
ATOM     17  O   UNL A   1      33.339  25.053  22.892  1.00  0.00    -0.475 OA
ATOM     18  C   UNL A   1      34.070  24.025  23.616  1.00  0.00     0.316 C 
BRANCH  10  19
ATOM     19  C   UNL A   1      31.676  29.798  25.331  1.00  0.00    -0.070 C 
ATOM     20  C   UNL A   1      31.300  30.800  25.869  1.00  0.00     0.010 C 
ENDBRANCH  10  19
BRANCH  18  21
ATOM     21  C   UNL A   1      33.259  22.724  23.563  1.00  0.00     0.430 C 
ATOM     22  F   UNL A   1      32.611  22.593  22.381  1.00  0.00    -0.167 F 
ATOM     23  F   UNL A   1      34.052  21.636  23.695  1.00  0.00    -0.167 F 
ATOM     24  F   UNL A   1      32.332  22.670  24.545  1.00  0.00    -0.167 F 
ENDBRANCH  18  21
ENDBRANCH   7   9
ENDBRANCH   6   7
ENDBRANCH   5   6
ENDBRANCH   4   5
ENDBRANCH   3   4
ENDBRANCH   2   3
ENDBRANCH   1   2
BRANCH   1  25
ATOM     25  O   UNL A   1      42.140  20.003  26.844  1.00  0.00    -0.376 OA
BRANCH  25  26
ATOM     26  C   UNL A   1      43.032  20.227  25.764  1.00  0.00     0.202 C 
BRANCH  26  27
ATOM     27  C   UNL A   1      43.803  21.540  25.494  1.00  0.00     0.261 C 
BRANCH  27  28
ATOM     28  O   UNL A   1      43.056  22.751  25.323  1.00  0.00    -0.460 OA
BRANCH  28  29
ATOM     29  C   UNL A   1      43.776  23.899  25.237  1.00  0.00     0.338 C 
ATOM     30  O   UNL A   1      44.588  24.200  24.380  1.00  0.00    -0.246 OA
BRANCH  29  31
ATOM     31  C   UNL A   1      43.256  24.847  26.248  1.00  0.00     0.060 A 
ATOM     32  C   UNL A   1      42.294  24.430  27.165  1.00  0.00     0.016 A 
ATOM     33  C   UNL A   1      43.710  26.176  26.252  1.00  0.00     0.016 A 
ATOM     34  C   UNL A   1      41.793  25.346  28.095  1.00  0.00     0.010 A 
ATOM     35  C   UNL A   1      43.191  27.096  27.169  1.00  0.00     0.010 A 
ATOM     36  C   UNL A   1      42.242  26.681  28.113  1.00  0.00    -0.014 A 
BRANCH  36  37
ATOM     37  C   UNL A   1      41.831  27.577  29.226  1.00  0.00     0.031 A 
ATOM     38  C   UNL A   1      40.637  28.479  29.132  1.00  0.00     0.074 A 
ATOM     39  C   UNL A   1      42.560  27.547  30.358  1.00  0.00     0.049 A 
ATOM     40  N   UNL A   1      40.102  29.232  30.064  1.00  0.00    -0.248 NA
ATOM     41  C   UNL A   1      39.960  28.558  27.833  1.00  0.00     0.031 C 
ATOM     42  C   UNL A   1      43.761  26.736  30.553  1.00  0.00     0.029 A 
ATOM     43  N   UNL A   1      42.394  28.194  31.558  1.00  0.00    -0.354 N 
ATOM     44  C   UNL A   1      39.010  29.851  29.475  1.00  0.00     0.074 A 
ATOM     45  C   UNL A   1      38.992  29.432  28.086  1.00  0.00     0.031 C 
ATOM     46  C   UNL A   1      44.197  26.895  31.810  1.00  0.00     0.029 A 
ATOM     47  C   UNL A   1      43.331  27.847  32.500  1.00  0.00     0.049 A 
ATOM     48  H   UNL A   1      41.672  28.842  31.726  1.00  0.00     0.167 HD
ATOM     49  C   UNL A   1      38.095  30.673  30.049  1.00  0.00     0.037 A 
ATOM     50  C   UNL A   1      43.477  28.245  33.778  1.00  0.00     0.037 A 
ATOM     51  C   UNL A   1      38.130  31.097  31.429  1.00  0.00     0.049 A 
ATOM     52  C   UNL A   1      42.482  29.201  34.373  1.00  0.00     0.074 A 
ATOM     53  C   UNL A   1      37.226  31.900  32.105  1.00  0.00     0.029 A 
ATOM     54  N   UNL A   1      39.124  30.769  32.341  1.00  0.00    -0.354 N 
ATOM     55  N   UNL A   1      41.404  29.715  33.830  1.00  0.00    -0.248 NA
ATOM     56  C   UNL A   1      42.717  29.628  35.758  1.00  0.00     0.031 C 
ATOM     57  C   UNL A   1      37.708  32.115  33.400  1.00  0.00     0.029 A 
ATOM     58  C   UNL A   1      38.875  31.386  33.558  1.00  0.00     0.049 A 
ATOM     59  H   UNL A   1      39.893  30.184  32.150  1.00  0.00     0.167 HD
ATOM     60  C   UNL A   1      40.823  30.507  34.812  1.00  0.00     0.074 A 
ATOM     61  C   UNL A   1      41.654  30.386  35.991  1.00  0.00     0.031 C 
ATOM     62  C   UNL A   1      39.703  31.268  34.734  1.00  0.00     0.037 A 
BRANCH  49  63
ATOM     63  C   UNL A   1      36.960  31.171  29.197  1.00  0.00     0.064 A 
ATOM     64  C   UNL A   1      35.886  30.337  28.848  1.00  0.00     0.173 A 
ATOM     65  C   UNL A   1      36.894  32.517  28.803  1.00  0.00     0.173 A 
ATOM     66  F   UNL A   1      35.894  29.043  29.201  1.00  0.00    -0.203 F 
ATOM     67  C   UNL A   1      34.803  30.826  28.121  1.00  0.00     0.198 A 
ATOM     68  C   UNL A   1      35.792  33.010  28.106  1.00  0.00     0.198 A 
ATOM     69  F   UNL A   1      37.883  33.365  29.123  1.00  0.00    -0.203 F 
ATOM     70  F   UNL A   1      33.807  30.000  27.771  1.00  0.00    -0.200 F 
ATOM     71  C   UNL A   1      34.752  32.163  27.759  1.00  0.00     0.200 A 
ATOM     72  F   UNL A   1      35.734  34.309  27.781  1.00  0.00    -0.200 F 
ATOM     73  F   UNL A   1      33.699  32.636  27.079  1.00  0.00    -0.200 F 
ENDBRANCH  49  63
BRANCH  50  74
ATOM     74  C   UNL A   1      44.600  27.701  34.587  1.00  0.00     0.064 A 
ATOM     75  C   UNL A   1      45.849  28.334  34.606  1.00  0.00     0.173 A 
ATOM     76  C   UNL A   1      44.436  26.556  35.383  1.00  0.00     0.173 A 
ATOM     77  F   UNL A   1      46.062  29.420  33.849  1.00  0.00    -0.203 F 
ATOM     78  C   UNL A   1      46.894  27.842  35.386  1.00  0.00     0.198 A 
ATOM     79  C   UNL A   1      45.470  26.085  36.188  1.00  0.00     0.198 A 
ATOM     80  F   UNL A   1      43.258  25.914  35.403  1.00  0.00    -0.203 F 
ATOM     81  F   UNL A   1      48.089  28.446  35.359  1.00  0.00    -0.200 F 
ATOM     82  C   UNL A   1      46.700  26.724  36.185  1.00  0.00     0.200 A 
ATOM     83  F   UNL A   1      45.271  25.018  36.973  1.00  0.00    -0.200 F 
ATOM     84  F   UNL A   1      47.699  26.263  36.949  1.00  0.00    -0.200 F 
ENDBRANCH  50  74
BRANCH  62  85
ATOM     85  C   UNL A   1      39.290  32.033  35.962  1.00  0.00     0.064 A 
ATOM     86  C   UNL A   1      39.723  33.347  36.190  1.00  0.00     0.173 A 
ATOM     87  C   UNL A   1      38.392  31.472  36.884  1.00  0.00     0.173 A 
ATOM     88  F   UNL A   1      40.592  33.928  35.350  1.00  0.00    -0.203 F 
ATOM     89  C   UNL A   1      39.287  34.065  37.302  1.00  0.00     0.198 A 
ATOM     90  C   UNL A   1      37.928  32.206  37.974  1.00  0.00     0.198 A 
ATOM     91  F   UNL A   1      37.940  30.220  36.714  1.00  0.00    -0.203 F 
ATOM     92  F   UNL A   1      39.747  35.305  37.520  1.00  0.00    -0.200 F 
ATOM     93  C   UNL A   1      38.381  33.498  38.185  1.00  0.00     0.200 A 
ATOM     94  F   UNL A   1      37.036  31.662  38.815  1.00  0.00    -0.200 F 
ATOM     95  F   UNL A   1      37.944  34.198  39.242  1.00  0.00    -0.200 F 
ENDBRANCH  62  85
ENDBRANCH  36  37
ENDBRANCH  29  31
ENDBRANCH  28  29
ENDBRANCH  27  28
ENDBRANCH  26  27
ENDBRANCH  25  26
ENDBRANCH   1  25
TORSDOF 19
ENDMDL
MODEL 2
REMARK VINA RESULT:     -10.8      5.070      7.472
REMARK SMILES C#Cc1ccc2c(c1)C=C(C(=O)OCCOCCOCCOC(=O)c1ccc(-c3c4nc(c(-c5c(F)c(F)c(F)c(F)c5F)c5ccc([nH]5)c(-c5c(F)c(F)c(F)c(F)c5F)c5nc(c(-c6c(F)c(F)c(F)c(F)c6F)c6ccc3[nH]6)C=C5)C=C4)cc1)[C@@H](C(F)(F)F)O2
REMARK SMILES IDX 18 1 17 2 16 3 15 4 14 5 13 6 11 7 12 8 10 9 3 10 4 11 8 12
REMARK SMILES IDX 5 13 7 14 6 15 9 16 93 17 88 18 2 19 1 20 89 21 90 22 91 23
REMARK SMILES IDX 92 24 19 25 20 26 21 27 22 28 23 29 24 30 25 31 26 32 87 33
REMARK SMILES IDX 27 34 86 35 28 36 29 37 30 38 80 39 31 40 85 41 79 42 81 43
REMARK SMILES IDX 32 44 84 45 78 46 77 47 33 49 65 50 45 51 64 52 46 53 49 54
REMARK SMILES IDX 63 55 82 56 47 57 48 58 62 60 83 61 50 62 34 63 35 64 43 65
REMARK SMILES IDX 36 66 37 67 41 68 44 69 38 70 39 71 42 72 40 73 66 74 67 75
REMARK SMILES IDX 75 76 68 77 69 78 73 79 76 80 70 81 71 82 74 83 72 84 51 85
REMARK SMILES IDX 52 86 60 87 53 88 54 89 58 90 61 91 55 92 56 93 59 94 57 95
REMARK H PARENT 81 48 49 59
REMARK Flexibility Score: inf
ROOT
ATOM      1  C   UNL A   1      40.259  20.615  26.347  1.00  0.00     0.188 C 
ENDROOT
BRANCH   1   2
ATOM      2  C   UNL A   1      39.652  22.024  26.185  1.00  0.00     0.188 C 
BRANCH   2   3
ATOM      3  O   UNL A   1      38.250  22.151  26.168  1.00  0.00    -0.376 OA
BRANCH   3   4
ATOM      4  C   UNL A   1      37.503  21.842  25.004  1.00  0.00     0.202 C 
BRANCH   4   5
ATOM      5  C   UNL A   1      36.450  22.756  24.343  1.00  0.00     0.261 C 
BRANCH   5   6
ATOM      6  O   UNL A   1      35.368  23.221  25.155  1.00  0.00    -0.460 OA
BRANCH   6   7
ATOM      7  C   UNL A   1      34.173  23.345  24.528  1.00  0.00     0.338 C 
ATOM      8  O   UNL A   1      33.702  22.586  23.698  1.00  0.00    -0.246 OA
BRANCH   7   9
ATOM      9  C   UNL A   1      33.412  24.456  25.141  1.00  0.00     0.087 C 
ATOM     10  C   UNL A   1      33.388  28.896  26.990  1.00  0.00     0.025 A 
ATOM     11  C   UNL A   1      32.103  28.674  27.487  1.00  0.00     0.021 A 
ATOM     12  C   UNL A   1      34.011  27.920  26.207  1.00  0.00     0.029 A 
ATOM     13  C   UNL A   1      31.432  27.488  27.181  1.00  0.00     0.048 A 
ATOM     14  C   UNL A   1      33.359  26.708  25.947  1.00  0.00     0.018 A 
ATOM     15  C   UNL A   1      32.058  26.507  26.414  1.00  0.00     0.128 A 
ATOM     16  C   UNL A   1      34.054  25.626  25.270  1.00  0.00     0.027 C 
ATOM     17  O   UNL A   1      31.332  25.376  26.176  1.00  0.00    -0.475 OA
ATOM     18  C   UNL A   1      31.983  24.231  25.562  1.00  0.00     0.316 C 
BRANCH  10  19
ATOM     19  C   UNL A   1      34.085  30.103  27.323  1.00  0.00    -0.070 C 
ATOM     20  C   UNL A   1      34.659  31.110  27.625  1.00  0.00     0.010 C 
ENDBRANCH  10  19
BRANCH  18  21
ATOM     21  C   UNL A   1      31.849  23.031  26.508  1.00  0.00     0.430 C 
ATOM     22  F   UNL A   1      30.719  23.111  27.251  1.00  0.00    -0.167 F 
ATOM     23  F   UNL A   1      31.785  21.863  25.828  1.00  0.00    -0.167 F 
ATOM     24  F   UNL A   1      32.894  22.945  27.361  1.00  0.00    -0.167 F 
ENDBRANCH  18  21
ENDBRANCH   7   9
ENDBRANCH   6   7
ENDBRANCH   5   6
ENDBRANCH   4   5
ENDBRANCH   3   4
ENDBRANCH   2   3
ENDBRANCH   1   2
BRANCH   1  25
ATOM     25  O   UNL A   1      41.656  20.467  26.255  1.00  0.00    -0.376 OA
BRANCH  25  26
ATOM     26  C   UNL A   1      42.255  19.230  26.608  1.00  0.00     0.202 C 
BRANCH  26  27
ATOM     27  C   UNL A   1      43.225  18.417  25.720  1.00  0.00     0.261 C 
BRANCH  27  28
ATOM     28  O   UNL A   1      43.620  18.965  24.456  1.00  0.00    -0.460 OA
BRANCH  28  29
ATOM     29  C   UNL A   1      44.900  19.409  24.363  1.00  0.00     0.338 C 
ATOM     30  O   UNL A   1      45.849  18.830  23.865  1.00  0.00    -0.246 OA
BRANCH  29  31
ATOM     31  C   UNL A   1      44.927  20.830  24.776  1.00  0.00     0.060 A 
ATOM     32  C   UNL A   1      45.288  21.172  26.077  1.00  0.00     0.016 A 
ATOM     33  C   UNL A   1      44.548  21.826  23.860  1.00  0.00     0.016 A 
ATOM     34  C   UNL A   1      45.280  22.516  26.458  1.00  0.00     0.010 A 
ATOM     35  C   UNL A   1      44.520  23.169  24.252  1.00  0.00     0.010 A 
ATOM     36  C   UNL A   1      44.907  23.527  25.550  1.00  0.00    -0.014 A 
BRANCH  36  37
ATOM     37  C   UNL A   1      45.087  24.953  25.927  1.00  0.00     0.031 A 
ATOM     38  C   UNL A   1      43.964  25.792  26.460  1.00  0.00     0.074 A 
ATOM     39  C   UNL A   1      46.315  25.488  25.794  1.00  0.00     0.049 A 
ATOM     40  N   UNL A   1      44.004  27.016  26.929  1.00  0.00    -0.248 NA
ATOM     41  C   UNL A   1      42.625  25.190  26.464  1.00  0.00     0.031 C 
ATOM     42  C   UNL A   1      47.476  24.781  25.255  1.00  0.00     0.029 A 
ATOM     43  N   UNL A   1      46.800  26.731  26.116  1.00  0.00    -0.354 N 
ATOM     44  C   UNL A   1      42.706  27.323  27.310  1.00  0.00     0.074 A 
ATOM     45  C   UNL A   1      41.888  26.177  26.963  1.00  0.00     0.031 C 
ATOM     46  C   UNL A   1      48.549  25.582  25.326  1.00  0.00     0.029 A 
ATOM     47  C   UNL A   1      48.146  26.872  25.880  1.00  0.00     0.049 A 
ATOM     48  H   UNL A   1      46.238  27.452  26.483  1.00  0.00     0.167 HD
ATOM     49  C   UNL A   1      42.249  28.448  27.915  1.00  0.00     0.037 A 
ATOM     50  C   UNL A   1      48.968  27.917  26.089  1.00  0.00     0.037 A 
ATOM     51  C   UNL A   1      43.069  29.591  28.243  1.00  0.00     0.049 A 
ATOM     52  C   UNL A   1      48.423  29.173  26.708  1.00  0.00     0.074 A 
ATOM     53  C   UNL A   1      42.697  30.760  28.888  1.00  0.00     0.029 A 
ATOM     54  N   UNL A   1      44.418  29.720  27.940  1.00  0.00    -0.354 N 
ATOM     55  N   UNL A   1      47.211  29.421  27.142  1.00  0.00    -0.248 NA
ATOM     56  C   UNL A   1      49.360  30.292  26.875  1.00  0.00     0.031 C 
ATOM     57  C   UNL A   1      43.799  31.621  28.911  1.00  0.00     0.029 A 
ATOM     58  C   UNL A   1      44.880  30.963  28.349  1.00  0.00     0.049 A 
ATOM     59  H   UNL A   1      44.965  29.030  27.500  1.00  0.00     0.167 HD
ATOM     60  C   UNL A   1      47.244  30.713  27.651  1.00  0.00     0.074 A 
ATOM     61  C   UNL A   1      48.603  31.188  27.494  1.00  0.00     0.031 C 
ATOM     62  C   UNL A   1      46.234  31.438  28.193  1.00  0.00     0.037 A 
BRANCH  49  63
ATOM     63  C   UNL A   1      40.791  28.511  28.281  1.00  0.00     0.064 A 
ATOM     64  C   UNL A   1      40.343  28.158  29.564  1.00  0.00     0.173 A 
ATOM     65  C   UNL A   1      39.844  29.016  27.376  1.00  0.00     0.173 A 
ATOM     66  F   UNL A   1      41.204  27.673  30.470  1.00  0.00    -0.203 F 
ATOM     67  C   UNL A   1      39.002  28.288  29.918  1.00  0.00     0.198 A 
ATOM     68  C   UNL A   1      38.510  29.177  27.745  1.00  0.00     0.198 A 
ATOM     69  F   UNL A   1      40.218  29.385  26.142  1.00  0.00    -0.203 F 
ATOM     70  F   UNL A   1      38.594  27.912  31.137  1.00  0.00    -0.200 F 
ATOM     71  C   UNL A   1      38.089  28.807  29.013  1.00  0.00     0.200 A 
ATOM     72  F   UNL A   1      37.635  29.703  26.876  1.00  0.00    -0.200 F 
ATOM     73  F   UNL A   1      36.803  28.952  29.363  1.00  0.00    -0.200 F 
ENDBRANCH  49  63
BRANCH  50  74
ATOM     74  C   UNL A   1      50.408  27.794  25.736  1.00  0.00     0.064 A 
ATOM     75  C   UNL A   1      50.845  27.963  24.416  1.00  0.00     0.173 A 
ATOM     76  C   UNL A   1      51.378  27.541  26.718  1.00  0.00     0.173 A 
ATOM     77  F   UNL A   1      49.954  28.188  23.439  1.00  0.00    -0.203 F 
ATOM     78  C   UNL A   1      52.196  27.877  24.088  1.00  0.00     0.198 A 
ATOM     79  C   UNL A   1      52.732  27.489  26.395  1.00  0.00     0.198 A 
ATOM     80  F   UNL A   1      51.013  27.376  27.998  1.00  0.00    -0.203 F 
ATOM     81  F   UNL A   1      52.583  28.005  22.813  1.00  0.00    -0.200 F 
ATOM     82  C   UNL A   1      53.140  27.651  25.080  1.00  0.00     0.200 A 
ATOM     83  F   UNL A   1      53.641  27.292  27.360  1.00  0.00    -0.200 F 
ATOM     84  F   UNL A   1      54.441  27.587  24.767  1.00  0.00    -0.200 F 
ENDBRANCH  50  74
BRANCH  62  85
ATOM     85  C   UNL A   1      46.549  32.828  28.673  1.00  0.00     0.064 A 
ATOM     86  C   UNL A   1      46.390  33.947  27.842  1.00  0.00     0.173 A 
ATOM     87  C   UNL A   1      46.943  33.052  30.002  1.00  0.00     0.173 A 
ATOM     88  F   UNL A   1      46.029  33.791  26.560  1.00  0.00    -0.203 F 
ATOM     89  C   UNL A   1      46.629  35.235  28.318  1.00  0.00     0.198 A 
ATOM     90  C   UNL A   1      47.145  34.343  30.485  1.00  0.00     0.198 A 
ATOM     91  F   UNL A   1      47.106  32.020  30.844  1.00  0.00    -0.203 F 
ATOM     92  F   UNL A   1      46.511  36.285  27.494  1.00  0.00    -0.200 F 
ATOM     93  C   UNL A   1      46.994  35.432  29.642  1.00  0.00     0.200 A 
ATOM     94  F   UNL A   1      47.477  34.532  31.770  1.00  0.00    -0.200 F 
ATOM     95  F   UNL A   1      47.202  36.673  30.103  1.00  0.00    -0.200 F 
ENDBRANCH  62  85
ENDBRANCH  36  37
ENDBRANCH  29  31
ENDBRANCH  28  29
ENDBRANCH  27  28
ENDBRANCH  26  27
ENDBRANCH  25  26
ENDBRANCH   1  25
TORSDOF 19
ENDMDL
MODEL 3
REMARK VINA RESULT:     -10.7      5.131      9.387
REMARK SMILES C#Cc1ccc2c(c1)C=C(C(=O)OCCOCCOCCOC(=O)c1ccc(-c3c4nc(c(-c5c(F)c(F)c(F)c(F)c5F)c5ccc([nH]5)c(-c5c(F)c(F)c(F)c(F)c5F)c5nc(c(-c6c(F)c(F)c(F)c(F)c6F)c6ccc3[nH]6)C=C5)C=C4)cc1)[C@@H](C(F)(F)F)O2
REMARK SMILES IDX 18 1 17 2 16 3 15 4 14 5 13 6 11 7 12 8 10 9 3 10 4 11 8 12
REMARK SMILES IDX 5 13 7 14 6 15 9 16 93 17 88 18 2 19 1 20 89 21 90 22 91 23
REMARK SMILES IDX 92 24 19 25 20 26 21 27 22 28 23 29 24 30 25 31 26 32 87 33
REMARK SMILES IDX 27 34 86 35 28 36 29 37 30 38 80 39 31 40 85 41 79 42 81 43
REMARK SMILES IDX 32 44 84 45 78 46 77 47 33 49 65 50 45 51 64 52 46 53 49 54
REMARK SMILES IDX 63 55 82 56 47 57 48 58 62 60 83 61 50 62 34 63 35 64 43 65
REMARK SMILES IDX 36 66 37 67 41 68 44 69 38 70 39 71 42 72 40 73 66 74 67 75
REMARK SMILES IDX 75 76 68 77 69 78 73 79 76 80 70 81 71 82 74 83 72 84 51 85
REMARK SMILES IDX 52 86 60 87 53 88 54 89 58 90 61 91 55 92 56 93 59 94 57 95
REMARK H PARENT 81 48 49 59
REMARK Flexibility Score: inf
ROOT
ATOM      1  C   UNL A   1      40.430  21.047  26.716  1.00  0.00     0.188 C 
ENDROOT
BRANCH   1   2
ATOM      2  C   UNL A   1      39.899  22.451  26.361  1.00  0.00     0.188 C 
BRANCH   2   3
ATOM      3  O   UNL A   1      38.513  22.683  26.447  1.00  0.00    -0.376 OA
BRANCH   3   4
ATOM      4  C   UNL A   1      37.624  22.165  25.474  1.00  0.00     0.202 C 
BRANCH   4   5
ATOM      5  C   UNL A   1      36.484  22.948  24.789  1.00  0.00     0.261 C 
BRANCH   5   6
ATOM      6  O   UNL A   1      35.219  23.004  25.456  1.00  0.00    -0.460 OA
BRANCH   6   7
ATOM      7  C   UNL A   1      34.149  23.262  24.666  1.00  0.00     0.338 C 
ATOM      8  O   UNL A   1      33.755  22.589  23.728  1.00  0.00    -0.246 OA
BRANCH   7   9
ATOM      9  C   UNL A   1      33.391  24.401  25.227  1.00  0.00     0.087 C 
ATOM     10  C   UNL A   1      33.398  28.872  27.003  1.00  0.00     0.025 A 
ATOM     11  C   UNL A   1      32.088  28.690  27.446  1.00  0.00     0.021 A 
ATOM     12  C   UNL A   1      34.030  27.868  26.263  1.00  0.00     0.029 A 
ATOM     13  C   UNL A   1      31.401  27.516  27.131  1.00  0.00     0.048 A 
ATOM     14  C   UNL A   1      33.359  26.668  25.994  1.00  0.00     0.018 A 
ATOM     15  C   UNL A   1      32.035  26.506  26.407  1.00  0.00     0.128 A 
ATOM     16  C   UNL A   1      34.055  25.558  25.366  1.00  0.00     0.027 C 
ATOM     17  O   UNL A   1      31.292  25.390  26.156  1.00  0.00    -0.475 OA
ATOM     18  C   UNL A   1      31.940  24.219  25.589  1.00  0.00     0.316 C 
BRANCH  10  19
ATOM     19  C   UNL A   1      34.111  30.066  27.346  1.00  0.00    -0.070 C 
ATOM     20  C   UNL A   1      34.686  31.080  27.623  1.00  0.00     0.010 C 
ENDBRANCH  10  19
BRANCH  18  21
ATOM     21  C   UNL A   1      31.734  23.039  26.548  1.00  0.00     0.430 C 
ATOM     22  F   UNL A   1      30.580  23.163  27.245  1.00  0.00    -0.167 F 
ATOM     23  F   UNL A   1      31.663  21.863  25.884  1.00  0.00    -0.167 F 
ATOM     24  F   UNL A   1      32.743  22.937  27.442  1.00  0.00    -0.167 F 
ENDBRANCH  18  21
ENDBRANCH   7   9
ENDBRANCH   6   7
ENDBRANCH   5   6
ENDBRANCH   4   5
ENDBRANCH   3   4
ENDBRANCH   2   3
ENDBRANCH   1   2
BRANCH   1  25
ATOM     25  O   UNL A   1      41.655  20.629  26.162  1.00  0.00    -0.376 OA
BRANCH  25  26
ATOM     26  C   UNL A   1      42.065  19.278  26.307  1.00  0.00     0.202 C 
BRANCH  26  27
ATOM     27  C   UNL A   1      43.208  18.598  25.518  1.00  0.00     0.261 C 
BRANCH  27  28
ATOM     28  O   UNL A   1      43.638  19.191  24.287  1.00  0.00    -0.460 OA
BRANCH  28  29
ATOM     29  C   UNL A   1      44.934  19.596  24.232  1.00  0.00     0.338 C 
ATOM     30  O   UNL A   1      45.864  19.027  23.691  1.00  0.00    -0.246 OA
BRANCH  29  31
ATOM     31  C   UNL A   1      45.008  20.978  24.758  1.00  0.00     0.060 A 
ATOM     32  C   UNL A   1      45.280  21.197  26.106  1.00  0.00     0.016 A 
ATOM     33  C   UNL A   1      44.764  22.062  23.898  1.00  0.00     0.016 A 
ATOM     34  C   UNL A   1      45.318  22.507  26.592  1.00  0.00     0.010 A 
ATOM     35  C   UNL A   1      44.781  23.371  24.392  1.00  0.00     0.010 A 
ATOM     36  C   UNL A   1      45.079  23.604  25.741  1.00  0.00    -0.014 A 
BRANCH  36  37
ATOM     37  C   UNL A   1      45.309  24.984  26.243  1.00  0.00     0.031 A 
ATOM     38  C   UNL A   1      46.654  25.646  26.190  1.00  0.00     0.074 A 
ATOM     39  C   UNL A   1      44.254  25.655  26.744  1.00  0.00     0.049 A 
ATOM     40  N   UNL A   1      46.974  26.881  26.493  1.00  0.00    -0.248 NA
ATOM     41  C   UNL A   1      47.786  24.822  25.749  1.00  0.00     0.031 C 
ATOM     42  C   UNL A   1      42.906  25.103  26.879  1.00  0.00     0.029 A 
ATOM     43  N   UNL A   1      44.138  26.940  27.212  1.00  0.00    -0.354 N 
ATOM     44  C   UNL A   1      48.335  26.994  26.253  1.00  0.00     0.074 A 
ATOM     45  C   UNL A   1      48.794  25.682  25.836  1.00  0.00     0.031 C 
ATOM     46  C   UNL A   1      42.088  26.055  27.349  1.00  0.00     0.029 A 
ATOM     47  C   UNL A   1      42.860  27.273  27.586  1.00  0.00     0.049 A 
ATOM     48  H   UNL A   1      44.899  27.563  27.271  1.00  0.00     0.167 HD
ATOM     49  C   UNL A   1      49.120  28.096  26.351  1.00  0.00     0.037 A 
ATOM     50  C   UNL A   1      42.358  28.429  28.061  1.00  0.00     0.037 A 
ATOM     51  C   UNL A   1      48.658  29.394  26.783  1.00  0.00     0.049 A 
ATOM     52  C   UNL A   1      43.263  29.619  28.214  1.00  0.00     0.074 A 
ATOM     53  C   UNL A   1      49.375  30.575  26.879  1.00  0.00     0.029 A 
ATOM     54  N   UNL A   1      47.367  29.681  27.206  1.00  0.00    -0.354 N 
ATOM     55  N   UNL A   1      44.532  29.737  27.905  1.00  0.00    -0.248 NA
ATOM     56  C   UNL A   1      42.666  30.839  28.774  1.00  0.00     0.031 C 
ATOM     57  C   UNL A   1      48.541  31.556  27.424  1.00  0.00     0.029 A 
ATOM     58  C   UNL A   1      47.280  31.009  27.600  1.00  0.00     0.049 A 
ATOM     59  H   UNL A   1      46.622  29.037  27.222  1.00  0.00     0.167 HD
ATOM     60  C   UNL A   1      44.880  31.046  28.212  1.00  0.00     0.074 A 
ATOM     61  C   UNL A   1      43.682  31.690  28.709  1.00  0.00     0.031 C 
ATOM     62  C   UNL A   1      46.087  31.652  28.096  1.00  0.00     0.037 A 
BRANCH  49  63
ATOM     63  C   UNL A   1      50.572  27.965  25.976  1.00  0.00     0.064 A 
ATOM     64  C   UNL A   1      50.990  28.037  24.638  1.00  0.00     0.173 A 
ATOM     65  C   UNL A   1      51.563  27.862  26.964  1.00  0.00     0.173 A 
ATOM     66  F   UNL A   1      50.087  28.140  23.652  1.00  0.00    -0.203 F 
ATOM     67  C   UNL A   1      52.342  27.989  24.304  1.00  0.00     0.198 A 
ATOM     68  C   UNL A   1      52.916  27.849  26.629  1.00  0.00     0.198 A 
ATOM     69  F   UNL A   1      51.223  27.807  28.261  1.00  0.00    -0.203 F 
ATOM     70  F   UNL A   1      52.713  28.024  23.017  1.00  0.00    -0.200 F 
ATOM     71  C   UNL A   1      53.303  27.905  25.299  1.00  0.00     0.200 A 
ATOM     72  F   UNL A   1      53.843  27.794  27.595  1.00  0.00    -0.200 F 
ATOM     73  F   UNL A   1      54.604  27.881  24.978  1.00  0.00    -0.200 F 
ENDBRANCH  49  63
BRANCH  50  74
ATOM     74  C   UNL A   1      40.910  28.515  28.390  1.00  0.00     0.064 A 
ATOM     75  C   UNL A   1      40.433  28.135  29.651  1.00  0.00     0.173 A 
ATOM     76  C   UNL A   1      39.981  29.011  27.463  1.00  0.00     0.173 A 
ATOM     77  F   UNL A   1      41.278  27.638  30.566  1.00  0.00    -0.203 F 
ATOM     78  C   UNL A   1      39.081  28.243  29.972  1.00  0.00     0.198 A 
ATOM     79  C   UNL A   1      38.636  29.150  27.795  1.00  0.00     0.198 A 
ATOM     80  F   UNL A   1      40.388  29.392  26.242  1.00  0.00    -0.203 F 
ATOM     81  F   UNL A   1      38.646  27.838  31.172  1.00  0.00    -0.200 F 
ATOM     82  C   UNL A   1      38.185  28.760  29.047  1.00  0.00     0.200 A 
ATOM     83  F   UNL A   1      37.779  29.670  26.906  1.00  0.00    -0.200 F 
ATOM     84  F   UNL A   1      36.889  28.880  29.362  1.00  0.00    -0.200 F 
ENDBRANCH  50  74
BRANCH  62  85
ATOM     85  C   UNL A   1      46.187  33.097  28.503  1.00  0.00     0.064 A 
ATOM     86  C   UNL A   1      46.596  33.472  29.791  1.00  0.00     0.173 A 
ATOM     87  C   UNL A   1      45.944  34.119  27.571  1.00  0.00     0.173 A 
ATOM     88  F   UNL A   1      46.829  32.538  30.725  1.00  0.00    -0.203 F 
ATOM     89  C   UNL A   1      46.741  34.814  30.137  1.00  0.00     0.198 A 
ATOM     90  C   UNL A   1      46.126  35.459  27.909  1.00  0.00     0.198 A 
ATOM     91  F   UNL A   1      45.556  33.820  26.322  1.00  0.00    -0.203 F 
ATOM     92  F   UNL A   1      47.092  35.148  31.386  1.00  0.00    -0.200 F 
ATOM     93  C   UNL A   1      46.518  35.805  29.192  1.00  0.00     0.200 A 
ATOM     94  F   UNL A   1      45.930  36.413  26.988  1.00  0.00    -0.200 F 
ATOM     95  F   UNL A   1      46.680  37.095  29.520  1.00  0.00    -0.200 F 
ENDBRANCH  62  85
ENDBRANCH  36  37
ENDBRANCH  29  31
ENDBRANCH  28  29
ENDBRANCH  27  28
ENDBRANCH  26  27
ENDBRANCH  25  26
ENDBRANCH   1  25
TORSDOF 19
ENDMDL
