MODEL 1
REMARK VINA RESULT:     -11.5      0.000      0.000
REMARK SMILES Cc1nc(C)c(C(=O)N2CCC([C@H](C)C(=O)OCCOCCOCCOC(=O)c3ccc(-c4c5nc(c(-c6c(F)c(F)c(F)c(F)c6F)c6ccc([nH]6)c(-c6c(F)c(F)c(F)c(F)c6F)c6nc(c(-c7c(F)c(F)c(F)c(F)c7F)c7ccc4[nH]7)C=C6)C=C5)cc3)CC2)s1
REMARK SMILES IDX 21 1 20 2 19 3 18 4 17 5 15 6 16 7 13 8 14 9 12 10 7 11 8 12
REMARK SMILES IDX 9 13 10 14 93 15 11 16 92 17 6 18 1 19 2 20 3 21 94 22 4 23
REMARK SMILES IDX 5 24 22 25 23 26 24 27 25 28 26 29 27 30 28 31 29 32 30 33
REMARK SMILES IDX 91 34 31 35 90 36 32 37 33 38 34 39 84 40 35 41 89 42 83 43
REMARK SMILES IDX 85 44 36 45 88 46 82 47 81 48 37 50 69 51 49 52 68 53 50 54
REMARK SMILES IDX 53 55 67 56 86 57 51 58 52 59 66 61 87 62 54 63 38 64 39 65
REMARK SMILES IDX 47 66 40 67 41 68 45 69 48 70 42 71 43 72 46 73 44 74 70 75
REMARK SMILES IDX 71 76 79 77 72 78 73 79 77 80 80 81 74 82 75 83 78 84 76 85
REMARK SMILES IDX 55 86 56 87 64 88 57 89 58 90 62 91 65 92 59 93 60 94 63 95
REMARK SMILES IDX 61 96
REMARK H PARENT 85 49 53 60
REMARK Flexibility Score: inf
ROOT
ATOM      1  C   UNL A   1      39.839  22.211  26.688  1.00  0.00     0.188 C 
ENDROOT
BRANCH   1   2
ATOM      2  O   UNL A   1      38.551  22.558  26.190  1.00  0.00    -0.376 OA
BRANCH   2   3
ATOM      3  C   UNL A   1      37.837  21.633  25.380  1.00  0.00     0.202 C 
BRANCH   3   4
ATOM      4  C   UNL A   1      36.340  21.471  25.663  1.00  0.00     0.261 C 
BRANCH   4   5
ATOM      5  O   UNL A   1      35.488  21.450  24.497  1.00  0.00    -0.463 OA
BRANCH   5   6
ATOM      6  C   UNL A   1      34.407  20.623  24.543  1.00  0.00     0.309 C 
ATOM      7  O   UNL A   1      34.466  19.408  24.691  1.00  0.00    -0.252 OA
BRANCH   6   8
ATOM      8  C   UNL A   1      33.084  21.345  24.277  1.00  0.00     0.099 C 
ATOM      9  C   UNL A   1      31.891  20.777  25.052  1.00  0.00     0.020 C 
BRANCH   8  10
ATOM     10  C   UNL A   1      33.227  22.896  24.301  1.00  0.00     0.006 C 
ATOM     11  C   UNL A   1      32.820  26.709  22.510  1.00  0.00     0.265 C 
ATOM     12  O   UNL A   1      33.338  26.721  21.392  1.00  0.00    -0.268 OA
ATOM     13  N   UNL A   1      33.045  25.641  23.379  1.00  0.00    -0.338 N 
ATOM     14  C   UNL A   1      34.328  24.969  23.344  1.00  0.00     0.120 C 
ATOM     15  C   UNL A   1      32.089  25.166  24.375  1.00  0.00     0.120 C 
ATOM     16  C   UNL A   1      34.178  23.463  23.226  1.00  0.00     0.026 C 
ATOM     17  C   UNL A   1      31.888  23.660  24.250  1.00  0.00     0.026 C 
BRANCH  11  18
ATOM     18  C   UNL A   1      32.020  27.817  22.993  1.00  0.00     0.115 A 
ATOM     19  C   UNL A   1      28.962  30.154  23.475  1.00  0.00     0.079 C 
ATOM     20  C   UNL A   1      30.231  29.379  23.481  1.00  0.00     0.091 A 
ATOM     21  N   UNL A   1      31.254  29.619  24.270  1.00  0.00    -0.246 NA
ATOM     22  S   UNL A   1      30.410  28.045  22.431  1.00  0.00    -0.113 S 
ATOM     23  C   UNL A   1      32.273  28.701  24.030  1.00  0.00     0.061 A 
ATOM     24  C   UNL A   1      33.479  28.759  24.898  1.00  0.00     0.068 C 
ENDBRANCH  11  18
ENDBRANCH   8  10
ENDBRANCH   6   8
ENDBRANCH   5   6
ENDBRANCH   4   5
ENDBRANCH   3   4
ENDBRANCH   2   3
ENDBRANCH   1   2
BRANCH   1  25
ATOM     25  C   UNL A   1      40.332  20.770  26.516  1.00  0.00     0.188 C 
BRANCH  25  26
ATOM     26  O   UNL A   1      41.534  20.664  25.780  1.00  0.00    -0.376 OA
BRANCH  26  27
ATOM     27  C   UNL A   1      42.725  21.025  26.454  1.00  0.00     0.202 C 
BRANCH  27  28
ATOM     28  C   UNL A   1      43.686  21.834  25.577  1.00  0.00     0.261 C 
BRANCH  28  29
ATOM     29  O   UNL A   1      43.121  23.025  24.998  1.00  0.00    -0.460 OA
BRANCH  29  30
ATOM     30  C   UNL A   1      43.873  24.150  25.031  1.00  0.00     0.338 C 
ATOM     31  O   UNL A   1      44.805  24.431  24.304  1.00  0.00    -0.246 OA
BRANCH  30  32
ATOM     32  C   UNL A   1      43.214  25.100  25.961  1.00  0.00     0.060 A 
ATOM     33  C   UNL A   1      43.655  26.430  25.996  1.00  0.00     0.016 A 
ATOM     34  C   UNL A   1      42.151  24.691  26.770  1.00  0.00     0.016 A 
ATOM     35  C   UNL A   1      43.056  27.347  26.865  1.00  0.00     0.010 A 
ATOM     36  C   UNL A   1      41.565  25.602  27.653  1.00  0.00     0.010 A 
ATOM     37  C   UNL A   1      42.034  26.925  27.727  1.00  0.00    -0.014 A 
BRANCH  37  38
ATOM     38  C   UNL A   1      41.607  27.787  28.858  1.00  0.00     0.031 A 
ATOM     39  C   UNL A   1      42.373  27.687  30.149  1.00  0.00     0.074 A 
ATOM     40  C   UNL A   1      40.564  28.630  28.761  1.00  0.00     0.049 A 
ATOM     41  N   UNL A   1      42.147  28.260  31.303  1.00  0.00    -0.248 NA
ATOM     42  C   UNL A   1      43.558  26.813  30.133  1.00  0.00     0.031 C 
ATOM     43  C   UNL A   1      39.765  28.854  27.560  1.00  0.00     0.029 A 
ATOM     44  N   UNL A   1      39.991  29.446  29.707  1.00  0.00    -0.354 N 
ATOM     45  C   UNL A   1      43.153  27.813  32.148  1.00  0.00     0.074 A 
ATOM     46  C   UNL A   1      43.976  26.900  31.386  1.00  0.00     0.031 C 
ATOM     47  C   UNL A   1      38.789  29.735  27.847  1.00  0.00     0.029 A 
ATOM     48  C   UNL A   1      38.877  30.110  29.258  1.00  0.00     0.049 A 
ATOM     49  H   UNL A   1      40.347  29.545  30.620  1.00  0.00     0.167 HD
ATOM     50  C   UNL A   1      43.376  28.137  33.444  1.00  0.00     0.037 A 
ATOM     51  C   UNL A   1      38.013  30.905  29.922  1.00  0.00     0.037 A 
ATOM     52  C   UNL A   1      42.554  29.035  34.209  1.00  0.00     0.049 A 
ATOM     53  C   UNL A   1      38.236  31.189  31.389  1.00  0.00     0.074 A 
ATOM     54  C   UNL A   1      42.705  29.432  35.526  1.00  0.00     0.029 A 
ATOM     55  N   UNL A   1      41.421  29.669  33.726  1.00  0.00    -0.354 N 
ATOM     56  N   UNL A   1      39.202  30.781  32.176  1.00  0.00    -0.248 NA
ATOM     57  C   UNL A   1      37.245  32.047  32.057  1.00  0.00     0.031 C 
ATOM     58  C   UNL A   1      41.634  30.269  35.855  1.00  0.00     0.029 A 
ATOM     59  C   UNL A   1      40.847  30.437  34.727  1.00  0.00     0.049 A 
ATOM     60  H   UNL A   1      41.074  29.587  32.809  1.00  0.00     0.167 HD
ATOM     61  C   UNL A   1      38.952  31.352  33.419  1.00  0.00     0.074 A 
ATOM     62  C   UNL A   1      37.750  32.147  33.279  1.00  0.00     0.031 C 
ATOM     63  C   UNL A   1      39.656  31.232  34.571  1.00  0.00     0.037 A 
BRANCH  50  64
ATOM     64  C   UNL A   1      44.545  27.487  34.122  1.00  0.00     0.064 A 
ATOM     65  C   UNL A   1      44.428  26.242  34.758  1.00  0.00     0.173 A 
ATOM     66  C   UNL A   1      45.803  28.109  34.118  1.00  0.00     0.173 A 
ATOM     67  F   UNL A   1      43.242  25.617  34.806  1.00  0.00    -0.203 F 
ATOM     68  C   UNL A   1      45.522  25.655  35.389  1.00  0.00     0.198 A 
ATOM     69  C   UNL A   1      46.901  27.505  34.724  1.00  0.00     0.198 A 
ATOM     70  F   UNL A   1      45.967  29.300  33.523  1.00  0.00    -0.203 F 
ATOM     71  F   UNL A   1      45.376  24.490  36.033  1.00  0.00    -0.200 F 
ATOM     72  C   UNL A   1      46.758  26.283  35.366  1.00  0.00     0.200 A 
ATOM     73  F   UNL A   1      48.097  28.108  34.692  1.00  0.00    -0.200 F 
ATOM     74  F   UNL A   1      47.811  25.715  35.968  1.00  0.00    -0.200 F 
ENDBRANCH  50  64
BRANCH  51  75
ATOM     75  C   UNL A   1      36.837  31.482  29.218  1.00  0.00     0.064 A 
ATOM     76  C   UNL A   1      36.767  32.851  28.926  1.00  0.00     0.173 A 
ATOM     77  C   UNL A   1      35.743  30.682  28.855  1.00  0.00     0.173 A 
ATOM     78  F   UNL A   1      37.773  33.664  29.282  1.00  0.00    -0.203 F 
ATOM     79  C   UNL A   1      35.642  33.401  28.314  1.00  0.00     0.198 A 
ATOM     80  C   UNL A   1      34.630  31.229  28.219  1.00  0.00     0.198 A 
ATOM     81  F   UNL A   1      35.754  29.368  29.122  1.00  0.00    -0.203 F 
ATOM     82  F   UNL A   1      35.580  34.722  28.094  1.00  0.00    -0.200 F 
ATOM     83  C   UNL A   1      34.577  32.589  27.956  1.00  0.00     0.200 A 
ATOM     84  F   UNL A   1      33.606  30.438  27.870  1.00  0.00    -0.200 F 
ATOM     85  F   UNL A   1      33.494  33.118  27.370  1.00  0.00    -0.200 F 
ENDBRANCH  51  75
BRANCH  63  86
ATOM     86  C   UNL A   1      39.176  32.007  35.765  1.00  0.00     0.064 A 
ATOM     87  C   UNL A   1      39.528  33.350  35.965  1.00  0.00     0.173 A 
ATOM     88  C   UNL A   1      38.307  31.411  36.693  1.00  0.00     0.173 A 
ATOM     89  F   UNL A   1      40.365  33.962  35.115  1.00  0.00    -0.203 F 
ATOM     90  C   UNL A   1      39.046  34.060  37.063  1.00  0.00     0.198 A 
ATOM     91  C   UNL A   1      37.804  32.133  37.771  1.00  0.00     0.198 A 
ATOM     92  F   UNL A   1      37.931  30.133  36.542  1.00  0.00    -0.203 F 
ATOM     93  F   UNL A   1      39.431  35.329  37.257  1.00  0.00    -0.200 F 
ATOM     94  C   UNL A   1      38.178  33.455  37.959  1.00  0.00     0.200 A 
ATOM     95  F   UNL A   1      36.953  31.551  38.628  1.00  0.00    -0.200 F 
ATOM     96  F   UNL A   1      37.709  34.143  39.009  1.00  0.00    -0.200 F 
ENDBRANCH  63  86
ENDBRANCH  37  38
ENDBRANCH  30  32
ENDBRANCH  29  30
ENDBRANCH  28  29
ENDBRANCH  27  28
ENDBRANCH  26  27
ENDBRANCH  25  26
ENDBRANCH   1  25
TORSDOF 19
ENDMDL
MODEL 2
REMARK VINA RESULT:     -11.2      5.237     10.695
REMARK SMILES Cc1nc(C)c(C(=O)N2CCC([C@H](C)C(=O)OCCOCCOCCOC(=O)c3ccc(-c4c5nc(c(-c6c(F)c(F)c(F)c(F)c6F)c6ccc([nH]6)c(-c6c(F)c(F)c(F)c(F)c6F)c6nc(c(-c7c(F)c(F)c(F)c(F)c7F)c7ccc4[nH]7)C=C6)C=C5)cc3)CC2)s1
REMARK SMILES IDX 21 1 20 2 19 3 18 4 17 5 15 6 16 7 13 8 14 9 12 10 7 11 8 12
REMARK SMILES IDX 9 13 10 14 93 15 11 16 92 17 6 18 1 19 2 20 3 21 94 22 4 23
REMARK SMILES IDX 5 24 22 25 23 26 24 27 25 28 26 29 27 30 28 31 29 32 30 33
REMARK SMILES IDX 91 34 31 35 90 36 32 37 33 38 34 39 84 40 35 41 89 42 83 43
REMARK SMILES IDX 85 44 36 45 88 46 82 47 81 48 37 50 69 51 49 52 68 53 50 54
REMARK SMILES IDX 53 55 67 56 86 57 51 58 52 59 66 61 87 62 54 63 38 64 39 65
REMARK SMILES IDX 47 66 40 67 41 68 45 69 48 70 42 71 43 72 46 73 44 74 70 75
REMARK SMILES IDX 71 76 79 77 72 78 73 79 77 80 80 81 74 82 75 83 78 84 76 85
REMARK SMILES IDX 55 86 56 87 64 88 57 89 58 90 62 91 65 92 59 93 60 94 63 95
REMARK SMILES IDX 61 96
REMARK H PARENT 85 49 53 60
REMARK Flexibility Score: inf
ROOT
ATOM      1  C   UNL A   1      33.575  34.190  28.370  1.00  0.00     0.188 C 
ENDROOT
BRANCH   1   2
ATOM      2  O   UNL A   1      32.599  33.468  27.626  1.00  0.00    -0.376 OA
BRANCH   2   3
ATOM      3  C   UNL A   1      32.803  32.089  27.349  1.00  0.00     0.202 C 
BRANCH   3   4
ATOM      4  C   UNL A   1      31.715  31.372  26.545  1.00  0.00     0.261 C 
BRANCH   4   5
ATOM      5  O   UNL A   1      31.853  29.938  26.454  1.00  0.00    -0.463 OA
BRANCH   5   6
ATOM      6  C   UNL A   1      32.136  29.425  25.224  1.00  0.00     0.309 C 
ATOM      7  O   UNL A   1      33.142  29.687  24.575  1.00  0.00    -0.252 OA
BRANCH   6   8
ATOM      8  C   UNL A   1      31.008  28.559  24.659  1.00  0.00     0.099 C 
ATOM      9  C   UNL A   1      30.140  29.261  23.610  1.00  0.00     0.020 C 
BRANCH   8  10
ATOM     10  C   UNL A   1      31.478  27.120  24.290  1.00  0.00     0.006 C 
ATOM     11  C   UNL A   1      34.034  23.785  24.798  1.00  0.00     0.265 C 
ATOM     12  O   UNL A   1      35.215  24.134  24.763  1.00  0.00    -0.268 OA
ATOM     13  N   UNL A   1      33.027  24.670  24.411  1.00  0.00    -0.338 N 
ATOM     14  C   UNL A   1      33.303  25.627  23.359  1.00  0.00     0.120 C 
ATOM     15  C   UNL A   1      31.674  24.677  24.959  1.00  0.00     0.120 C 
ATOM     16  C   UNL A   1      32.926  27.041  23.764  1.00  0.00     0.026 C 
ATOM     17  C   UNL A   1      31.287  26.080  25.413  1.00  0.00     0.026 C 
BRANCH  11  18
ATOM     18  C   UNL A   1      33.646  22.440  25.171  1.00  0.00     0.115 A 
ATOM     19  C   UNL A   1      32.675  18.703  24.801  1.00  0.00     0.079 C 
ATOM     20  C   UNL A   1      33.067  20.085  25.182  1.00  0.00     0.091 A 
ATOM     21  N   UNL A   1      33.255  20.499  26.415  1.00  0.00    -0.246 NA
ATOM     22  S   UNL A   1      33.345  21.250  23.966  1.00  0.00    -0.113 S 
ATOM     23  C   UNL A   1      33.631  21.840  26.420  1.00  0.00     0.061 A 
ATOM     24  C   UNL A   1      33.978  22.460  27.727  1.00  0.00     0.068 C 
ENDBRANCH  11  18
ENDBRANCH   8  10
ENDBRANCH   6   8
ENDBRANCH   5   6
ENDBRANCH   4   5
ENDBRANCH   3   4
ENDBRANCH   2   3
ENDBRANCH   1   2
BRANCH   1  25
ATOM     25  C   UNL A   1      33.138  35.442  29.139  1.00  0.00     0.188 C 
BRANCH  25  26
ATOM     26  O   UNL A   1      33.420  35.386  30.523  1.00  0.00    -0.376 OA
BRANCH  26  27
ATOM     27  C   UNL A   1      34.475  34.531  30.921  1.00  0.00     0.202 C 
BRANCH  27  28
ATOM     28  C   UNL A   1      34.086  33.602  32.075  1.00  0.00     0.261 C 
BRANCH  28  29
ATOM     29  O   UNL A   1      34.783  32.342  32.101  1.00  0.00    -0.460 OA
BRANCH  29  30
ATOM     30  C   UNL A   1      35.879  32.253  32.891  1.00  0.00     0.338 C 
ATOM     31  O   UNL A   1      35.962  32.551  34.066  1.00  0.00    -0.246 OA
BRANCH  30  32
ATOM     32  C   UNL A   1      36.913  31.502  32.137  1.00  0.00     0.060 A 
ATOM     33  C   UNL A   1      37.780  30.652  32.839  1.00  0.00     0.016 A 
ATOM     34  C   UNL A   1      37.010  31.611  30.748  1.00  0.00     0.016 A 
ATOM     35  C   UNL A   1      38.766  29.934  32.156  1.00  0.00     0.010 A 
ATOM     36  C   UNL A   1      38.008  30.909  30.068  1.00  0.00     0.010 A 
ATOM     37  C   UNL A   1      38.910  30.092  30.771  1.00  0.00    -0.014 A 
BRANCH  37  38
ATOM     38  C   UNL A   1      40.128  29.593  30.084  1.00  0.00     0.031 A 
ATOM     39  C   UNL A   1      41.268  30.554  29.883  1.00  0.00     0.074 A 
ATOM     40  C   UNL A   1      40.229  28.330  29.636  1.00  0.00     0.049 A 
ATOM     41  N   UNL A   1      42.395  30.393  29.239  1.00  0.00    -0.248 NA
ATOM     42  C   UNL A   1      41.109  31.885  30.493  1.00  0.00     0.031 C 
ATOM     43  C   UNL A   1      39.220  27.288  29.800  1.00  0.00     0.029 A 
ATOM     44  N   UNL A   1      41.237  27.716  28.931  1.00  0.00    -0.354 N 
ATOM     45  C   UNL A   1      43.073  31.598  29.360  1.00  0.00     0.074 A 
ATOM     46  C   UNL A   1      42.223  32.491  30.115  1.00  0.00     0.031 C 
ATOM     47  C   UNL A   1      39.650  26.167  29.194  1.00  0.00     0.029 A 
ATOM     48  C   UNL A   1      40.949  26.422  28.572  1.00  0.00     0.049 A 
ATOM     49  H   UNL A   1      42.086  28.162  28.706  1.00  0.00     0.167 HD
ATOM     50  C   UNL A   1      44.298  31.931  28.890  1.00  0.00     0.037 A 
ATOM     51  C   UNL A   1      41.644  25.558  27.805  1.00  0.00     0.037 A 
ATOM     52  C   UNL A   1      45.142  31.049  28.129  1.00  0.00     0.049 A 
ATOM     53  C   UNL A   1      42.973  25.979  27.222  1.00  0.00     0.074 A 
ATOM     54  C   UNL A   1      46.404  31.294  27.616  1.00  0.00     0.029 A 
ATOM     55  N   UNL A   1      44.805  29.755  27.766  1.00  0.00    -0.354 N 
ATOM     56  N   UNL A   1      43.618  27.112  27.359  1.00  0.00    -0.248 NA
ATOM     57  C   UNL A   1      43.669  24.996  26.377  1.00  0.00     0.031 C 
ATOM     58  C   UNL A   1      46.810  30.164  26.899  1.00  0.00     0.029 A 
ATOM     59  C   UNL A   1      45.824  29.196  27.013  1.00  0.00     0.049 A 
ATOM     60  H   UNL A   1      43.966  29.301  28.006  1.00  0.00     0.167 HD
ATOM     61  C   UNL A   1      44.802  26.968  26.646  1.00  0.00     0.074 A 
ATOM     62  C   UNL A   1      44.794  25.633  26.087  1.00  0.00     0.031 C 
ATOM     63  C   UNL A   1      45.808  27.861  26.472  1.00  0.00     0.037 A 
BRANCH  50  64
ATOM     64  C   UNL A   1      44.782  33.324  29.162  1.00  0.00     0.064 A 
ATOM     65  C   UNL A   1      45.562  33.625  30.289  1.00  0.00     0.173 A 
ATOM     66  C   UNL A   1      44.478  34.366  28.274  1.00  0.00     0.173 A 
ATOM     67  F   UNL A   1      45.862  32.666  31.178  1.00  0.00    -0.203 F 
ATOM     68  C   UNL A   1      45.998  34.925  30.530  1.00  0.00     0.198 A 
ATOM     69  C   UNL A   1      44.941  35.659  28.503  1.00  0.00     0.198 A 
ATOM     70  F   UNL A   1      43.736  34.130  27.181  1.00  0.00    -0.203 F 
ATOM     71  F   UNL A   1      46.698  35.200  31.639  1.00  0.00    -0.200 F 
ATOM     72  C   UNL A   1      45.693  35.939  29.635  1.00  0.00     0.200 A 
ATOM     73  F   UNL A   1      44.654  36.636  27.632  1.00  0.00    -0.200 F 
ATOM     74  F   UNL A   1      46.117  37.189  29.865  1.00  0.00    -0.200 F 
ENDBRANCH  50  64
BRANCH  51  75
ATOM     75  C   UNL A   1      41.095  24.206  27.518  1.00  0.00     0.064 A 
ATOM     76  C   UNL A   1      41.668  23.057  28.080  1.00  0.00     0.173 A 
ATOM     77  C   UNL A   1      40.008  24.033  26.647  1.00  0.00     0.173 A 
ATOM     78  F   UNL A   1      42.729  23.167  28.893  1.00  0.00    -0.203 F 
ATOM     79  C   UNL A   1      41.187  21.786  27.769  1.00  0.00     0.198 A 
ATOM     80  C   UNL A   1      39.512  22.763  26.358  1.00  0.00     0.198 A 
ATOM     81  F   UNL A   1      39.431  25.099  26.073  1.00  0.00    -0.203 F 
ATOM     82  F   UNL A   1      41.787  20.702  28.280  1.00  0.00    -0.200 F 
ATOM     83  C   UNL A   1      40.106  21.641  26.913  1.00  0.00     0.200 A 
ATOM     84  F   UNL A   1      38.463  22.628  25.534  1.00  0.00    -0.200 F 
ATOM     85  F   UNL A   1      39.646  20.418  26.612  1.00  0.00    -0.200 F 
ENDBRANCH  51  75
BRANCH  63  86
ATOM     86  C   UNL A   1      47.005  27.416  25.681  1.00  0.00     0.064 A 
ATOM     87  C   UNL A   1      47.129  27.688  24.311  1.00  0.00     0.173 A 
ATOM     88  C   UNL A   1      48.069  26.756  26.318  1.00  0.00     0.173 A 
ATOM     89  F   UNL A   1      46.136  28.305  23.654  1.00  0.00    -0.203 F 
ATOM     90  C   UNL A   1      48.262  27.295  23.603  1.00  0.00     0.198 A 
ATOM     91  C   UNL A   1      49.213  26.393  25.613  1.00  0.00     0.198 A 
ATOM     92  F   UNL A   1      48.007  26.481  27.629  1.00  0.00    -0.203 F 
ATOM     93  F   UNL A   1      48.339  27.527  22.285  1.00  0.00    -0.200 F 
ATOM     94  C   UNL A   1      49.306  26.656  24.255  1.00  0.00     0.200 A 
ATOM     95  F   UNL A   1      50.227  25.789  26.248  1.00  0.00    -0.200 F 
ATOM     96  F   UNL A   1      50.399  26.288  23.573  1.00  0.00    -0.200 F 
ENDBRANCH  63  86
ENDBRANCH  37  38
ENDBRANCH  30  32
ENDBRANCH  29  30
ENDBRANCH  28  29
ENDBRANCH  27  28
ENDBRANCH  26  27
ENDBRANCH  25  26
ENDBRANCH   1  25
TORSDOF 19
ENDMDL
MODEL 3
REMARK VINA RESULT:     -10.8      1.640      7.433
REMARK SMILES Cc1nc(C)c(C(=O)N2CCC([C@H](C)C(=O)OCCOCCOCCOC(=O)c3ccc(-c4c5nc(c(-c6c(F)c(F)c(F)c(F)c6F)c6ccc([nH]6)c(-c6c(F)c(F)c(F)c(F)c6F)c6nc(c(-c7c(F)c(F)c(F)c(F)c7F)c7ccc4[nH]7)C=C6)C=C5)cc3)CC2)s1
REMARK SMILES IDX 21 1 20 2 19 3 18 4 17 5 15 6 16 7 13 8 14 9 12 10 7 11 8 12
REMARK SMILES IDX 9 13 10 14 93 15 11 16 92 17 6 18 1 19 2 20 3 21 94 22 4 23
REMARK SMILES IDX 5 24 22 25 23 26 24 27 25 28 26 29 27 30 28 31 29 32 30 33
REMARK SMILES IDX 91 34 31 35 90 36 32 37 33 38 34 39 84 40 35 41 89 42 83 43
REMARK SMILES IDX 85 44 36 45 88 46 82 47 81 48 37 50 69 51 49 52 68 53 50 54
REMARK SMILES IDX 53 55 67 56 86 57 51 58 52 59 66 61 87 62 54 63 38 64 39 65
REMARK SMILES IDX 47 66 40 67 41 68 45 69 48 70 42 71 43 72 46 73 44 74 70 75
REMARK SMILES IDX 71 76 79 77 72 78 73 79 77 80 80 81 74 82 75 83 78 84 76 85
REMARK SMILES IDX 55 86 56 87 64 88 57 89 58 90 62 91 65 92 59 93 60 94 63 95
REMARK SMILES IDX 61 96
REMARK H PARENT 85 49 53 60
REMARK Flexibility Score: inf
ROOT
ATOM      1  C   UNL A   1      40.979  21.109  27.113  1.00  0.00     0.188 C 
ENDROOT
BRANCH   1   2
ATOM      2  O   UNL A   1      39.625  21.501  26.915  1.00  0.00    -0.376 OA
BRANCH   2   3
ATOM      3  C   UNL A   1      38.993  21.249  25.667  1.00  0.00     0.202 C 
BRANCH   3   4
ATOM      4  C   UNL A   1      37.581  21.808  25.476  1.00  0.00     0.261 C 
BRANCH   4   5
ATOM      5  O   UNL A   1      36.559  20.828  25.190  1.00  0.00    -0.463 OA
BRANCH   5   6
ATOM      6  C   UNL A   1      35.295  21.121  25.603  1.00  0.00     0.309 C 
ATOM      7  O   UNL A   1      35.009  21.565  26.709  1.00  0.00    -0.252 OA
BRANCH   6   8
ATOM      8  C   UNL A   1      34.222  20.736  24.581  1.00  0.00     0.099 C 
ATOM      9  C   UNL A   1      33.714  19.298  24.715  1.00  0.00     0.020 C 
BRANCH   8  10
ATOM     10  C   UNL A   1      33.123  21.828  24.420  1.00  0.00     0.006 C 
ATOM     11  C   UNL A   1      31.354  25.527  25.470  1.00  0.00     0.265 C 
ATOM     12  O   UNL A   1      31.184  25.596  26.688  1.00  0.00    -0.268 OA
ATOM     13  N   UNL A   1      31.693  24.311  24.874  1.00  0.00    -0.338 N 
ATOM     14  C   UNL A   1      31.174  23.085  25.443  1.00  0.00     0.120 C 
ATOM     15  C   UNL A   1      32.508  24.176  23.671  1.00  0.00     0.120 C 
ATOM     16  C   UNL A   1      32.269  22.061  25.683  1.00  0.00     0.026 C 
ATOM     17  C   UNL A   1      33.643  23.184  23.900  1.00  0.00     0.026 C 
BRANCH  11  18
ATOM     18  C   UNL A   1      31.147  26.669  24.603  1.00  0.00     0.115 A 
ATOM     19  C   UNL A   1      29.308  29.235  22.348  1.00  0.00     0.079 C 
ATOM     20  C   UNL A   1      30.200  28.410  23.204  1.00  0.00     0.091 A 
ATOM     21  N   UNL A   1      31.451  28.699  23.485  1.00  0.00    -0.246 NA
ATOM     22  S   UNL A   1      29.595  26.990  23.933  1.00  0.00    -0.113 S 
ATOM     23  C   UNL A   1      31.994  27.729  24.323  1.00  0.00     0.061 A 
ATOM     24  C   UNL A   1      33.379  27.940  24.824  1.00  0.00     0.068 C 
ENDBRANCH  11  18
ENDBRANCH   8  10
ENDBRANCH   6   8
ENDBRANCH   5   6
ENDBRANCH   4   5
ENDBRANCH   3   4
ENDBRANCH   2   3
ENDBRANCH   1   2
BRANCH   1  25
ATOM     25  C   UNL A   1      41.605  20.105  26.138  1.00  0.00     0.188 C 
BRANCH  25  26
ATOM     26  O   UNL A   1      42.747  20.600  25.467  1.00  0.00    -0.376 OA
BRANCH  26  27
ATOM     27  C   UNL A   1      43.242  21.853  25.899  1.00  0.00     0.202 C 
BRANCH  27  28
ATOM     28  C   UNL A   1      43.169  22.929  24.812  1.00  0.00     0.261 C 
BRANCH  28  29
ATOM     29  O   UNL A   1      42.932  24.265  25.296  1.00  0.00    -0.460 OA
BRANCH  29  30
ATOM     30  C   UNL A   1      44.015  25.045  25.525  1.00  0.00     0.338 C 
ATOM     31  O   UNL A   1      44.930  25.273  24.758  1.00  0.00    -0.246 OA
BRANCH  30  32
ATOM     32  C   UNL A   1      43.779  25.774  26.795  1.00  0.00     0.060 A 
ATOM     33  C   UNL A   1      43.062  25.137  27.819  1.00  0.00     0.016 A 
ATOM     34  C   UNL A   1      44.283  27.062  26.988  1.00  0.00     0.016 A 
ATOM     35  C   UNL A   1      42.822  25.801  29.026  1.00  0.00     0.010 A 
ATOM     36  C   UNL A   1      44.026  27.733  28.187  1.00  0.00     0.010 A 
ATOM     37  C   UNL A   1      43.268  27.118  29.198  1.00  0.00    -0.014 A 
BRANCH  37  38
ATOM     38  C   UNL A   1      42.760  27.938  30.328  1.00  0.00     0.031 A 
ATOM     39  C   UNL A   1      41.465  28.677  30.135  1.00  0.00     0.074 A 
ATOM     40  C   UNL A   1      43.426  28.042  31.492  1.00  0.00     0.049 A 
ATOM     41  N   UNL A   1      40.859  29.525  30.927  1.00  0.00    -0.248 NA
ATOM     42  C   UNL A   1      40.758  28.427  28.868  1.00  0.00     0.031 C 
ATOM     43  C   UNL A   1      44.666  27.348  31.824  1.00  0.00     0.029 A 
ATOM     44  N   UNL A   1      43.148  28.792  32.609  1.00  0.00    -0.354 N 
ATOM     45  C   UNL A   1      39.708  29.911  30.254  1.00  0.00     0.074 A 
ATOM     46  C   UNL A   1      39.710  29.229  28.979  1.00  0.00     0.031 C 
ATOM     47  C   UNL A   1      45.056  27.722  33.056  1.00  0.00     0.029 A 
ATOM     48  C   UNL A   1      44.110  28.704  33.584  1.00  0.00     0.049 A 
ATOM     49  H   UNL A   1      42.335  29.341  32.701  1.00  0.00     0.167 HD
ATOM     50  C   UNL A   1      38.732  30.754  30.664  1.00  0.00     0.037 A 
ATOM     51  C   UNL A   1      44.224  29.365  34.755  1.00  0.00     0.037 A 
ATOM     52  C   UNL A   1      38.730  31.443  31.926  1.00  0.00     0.049 A 
ATOM     53  C   UNL A   1      43.163  30.363  35.155  1.00  0.00     0.074 A 
ATOM     54  C   UNL A   1      37.780  32.312  32.433  1.00  0.00     0.029 A 
ATOM     55  N   UNL A   1      39.734  31.346  32.877  1.00  0.00    -0.354 N 
ATOM     56  N   UNL A   1      42.066  30.707  34.524  1.00  0.00    -0.248 NA
ATOM     57  C   UNL A   1      43.359  31.064  36.434  1.00  0.00     0.031 C 
ATOM     58  C   UNL A   1      38.234  32.780  33.671  1.00  0.00     0.029 A 
ATOM     59  C   UNL A   1      39.439  32.159  33.959  1.00  0.00     0.049 A 
ATOM     60  H   UNL A   1      40.537  30.784  32.795  1.00  0.00     0.167 HD
ATOM     61  C   UNL A   1      41.431  31.637  35.338  1.00  0.00     0.074 A 
ATOM     62  C   UNL A   1      42.257  31.796  36.515  1.00  0.00     0.031 C 
ATOM     63  C   UNL A   1      40.266  32.299  35.130  1.00  0.00     0.037 A 
BRANCH  50  64
ATOM     64  C   UNL A   1      37.596  31.001  29.716  1.00  0.00     0.064 A 
ATOM     65  C   UNL A   1      37.465  32.214  29.023  1.00  0.00     0.173 A 
ATOM     66  C   UNL A   1      36.638  30.002  29.482  1.00  0.00     0.173 A 
ATOM     67  F   UNL A   1      38.344  33.206  29.228  1.00  0.00    -0.203 F 
ATOM     68  C   UNL A   1      36.400  32.428  28.151  1.00  0.00     0.198 A 
ATOM     69  C   UNL A   1      35.593  30.210  28.587  1.00  0.00     0.198 A 
ATOM     70  F   UNL A   1      36.719  28.824  30.119  1.00  0.00    -0.203 F 
ATOM     71  F   UNL A   1      36.267  33.613  27.539  1.00  0.00    -0.200 F 
ATOM     72  C   UNL A   1      35.470  31.425  27.929  1.00  0.00     0.200 A 
ATOM     73  F   UNL A   1      34.699  29.236  28.366  1.00  0.00    -0.200 F 
ATOM     74  F   UNL A   1      34.449  31.631  27.086  1.00  0.00    -0.200 F 
ENDBRANCH  50  64
BRANCH  51  75
ATOM     75  C   UNL A   1      45.398  29.126  35.635  1.00  0.00     0.064 A 
ATOM     76  C   UNL A   1      45.340  28.198  36.683  1.00  0.00     0.173 A 
ATOM     77  C   UNL A   1      46.590  29.848  35.469  1.00  0.00     0.173 A 
ATOM     78  F   UNL A   1      44.213  27.506  36.904  1.00  0.00    -0.203 F 
ATOM     79  C   UNL A   1      46.423  28.013  37.542  1.00  0.00     0.198 A 
ATOM     80  C   UNL A   1      47.681  29.642  36.312  1.00  0.00     0.198 A 
ATOM     81  F   UNL A   1      46.694  30.757  34.488  1.00  0.00    -0.203 F 
ATOM     82  F   UNL A   1      46.322  27.156  38.568  1.00  0.00    -0.200 F 
ATOM     83  C   UNL A   1      47.593  28.731  37.352  1.00  0.00     0.200 A 
ATOM     84  F   UNL A   1      48.812  30.335  36.120  1.00  0.00    -0.200 F 
ATOM     85  F   UNL A   1      48.633  28.554  38.180  1.00  0.00    -0.200 F 
ENDBRANCH  51  75
BRANCH  63  86
ATOM     86  C   UNL A   1      39.787  33.224  36.212  1.00  0.00     0.064 A 
ATOM     87  C   UNL A   1      38.892  32.801  37.205  1.00  0.00     0.173 A 
ATOM     88  C   UNL A   1      40.277  34.539  36.288  1.00  0.00     0.173 A 
ATOM     89  F   UNL A   1      38.385  31.560  37.172  1.00  0.00    -0.203 F 
ATOM     90  C   UNL A   1      38.485  33.666  38.218  1.00  0.00     0.198 A 
ATOM     91  C   UNL A   1      39.891  35.390  37.319  1.00  0.00     0.198 A 
ATOM     92  F   UNL A   1      41.144  34.991  35.370  1.00  0.00    -0.203 F 
ATOM     93  F   UNL A   1      37.594  33.253  39.131  1.00  0.00    -0.200 F 
ATOM     94  C   UNL A   1      38.991  34.956  38.280  1.00  0.00     0.200 A 
ATOM     95  F   UNL A   1      40.394  36.631  37.385  1.00  0.00    -0.200 F 
ATOM     96  F   UNL A   1      38.606  35.783  39.262  1.00  0.00    -0.200 F 
ENDBRANCH  63  86
ENDBRANCH  37  38
ENDBRANCH  30  32
ENDBRANCH  29  30
ENDBRANCH  28  29
ENDBRANCH  27  28
ENDBRANCH  26  27
ENDBRANCH  25  26
ENDBRANCH   1  25
TORSDOF 19
ENDMDL
