MODEL 1
REMARK VINA RESULT:     -12.8      0.000      0.000
REMARK SMILES Cc1ccc([C@@H](Cc2cccs2)C(=O)OCCOCCOCCOC(=O)c2ccc(-c3c4nc(c(-c5c(F)c(F)c(F)c(F)c5F)c5ccc([nH]5)c(-c5c(F)c(F)c(F)c(F)c5F)c5nc(c(-c6c(F)c(F)c(F)c(F)c6F)c6ccc3[nH]6)C=C5)C=C4)cc2)cc1
REMARK SMILES IDX 19 1 18 2 17 3 16 4 15 5 13 6 14 7 6 8 5 9 1 10 2 11 3 12
REMARK SMILES IDX 91 13 4 14 90 15 7 16 8 17 9 18 12 19 10 20 11 21 20 22
REMARK SMILES IDX 21 23 22 24 23 25 24 26 25 27 26 28 27 29 28 30 89 31 29 32
REMARK SMILES IDX 88 33 30 34 31 35 32 36 82 37 33 38 87 39 81 40 83 41 34 42
REMARK SMILES IDX 86 43 80 44 79 45 35 47 67 48 47 49 66 50 48 51 51 52 65 53
REMARK SMILES IDX 84 54 49 55 50 56 64 58 85 59 52 60 36 61 37 62 45 63 38 64
REMARK SMILES IDX 39 65 43 66 46 67 40 68 41 69 44 70 42 71 68 72 69 73 77 74
REMARK SMILES IDX 70 75 71 76 75 77 78 78 72 79 73 80 76 81 74 82 53 83 54 84
REMARK SMILES IDX 62 85 55 86 56 87 60 88 63 89 57 90 58 91 61 92 59 93
REMARK H PARENT 83 46 51 57
REMARK Flexibility Score: inf
ROOT
ATOM      1  C   UNL A   1      31.503  28.676  25.544  1.00  0.00     0.188 C 
ENDROOT
BRANCH   1   2
ATOM      2  O   UNL A   1      31.005  28.571  24.228  1.00  0.00    -0.376 OA
BRANCH   2   3
ATOM      3  C   UNL A   1      30.597  27.265  23.847  1.00  0.00     0.202 C 
BRANCH   3   4
ATOM      4  C   UNL A   1      31.144  26.647  22.491  1.00  0.00     0.261 C 
BRANCH   4   5
ATOM      5  O   UNL A   1      31.677  25.120  22.372  1.00  0.00    -0.463 OA
BRANCH   5   6
ATOM      6  C   UNL A   1      32.688  24.179  22.060  1.00  0.00     0.313 C 
ATOM      7  O   UNL A   1      33.251  24.443  20.988  1.00  0.00    -0.252 OA
BRANCH   6   8
ATOM      8  C   UNL A   1      33.287  22.807  22.931  1.00  0.00     0.134 C 
BRANCH   8   9
ATOM      9  C   UNL A   1      34.818  23.479  23.497  1.00  0.00    -0.033 A 
ATOM     10  C   UNL A   1      38.176  22.967  26.318  1.00  0.00     0.044 C 
ATOM     11  C   UNL A   1      37.129  23.392  25.320  1.00  0.00    -0.051 A 
ATOM     12  C   UNL A   1      37.218  22.981  24.001  1.00  0.00     0.004 A 
ATOM     13  C   UNL A   1      35.976  24.103  25.649  1.00  0.00     0.004 A 
ATOM     14  C   UNL A   1      36.116  23.116  23.109  1.00  0.00     0.005 A 
ATOM     15  C   UNL A   1      34.859  24.170  24.747  1.00  0.00     0.005 A 
ENDBRANCH   8   9
BRANCH   8  16
ATOM     16  C   UNL A   1      32.194  21.250  23.330  1.00  0.00     0.066 C 
BRANCH  16  17
ATOM     17  C   UNL A   1      32.549  19.400  23.738  1.00  0.00     0.006 A 
ATOM     18  C   UNL A   1      32.557  18.569  24.951  1.00  0.00     0.015 A 
ATOM     19  S   UNL A   1      32.472  17.986  22.621  1.00  0.00    -0.149 S 
ATOM     20  C   UNL A   1      33.341  17.394  24.939  1.00  0.00     0.012 A 
ATOM     21  C   UNL A   1      33.380  16.939  23.661  1.00  0.00     0.065 A 
ENDBRANCH  16  17
ENDBRANCH   8  16
ENDBRANCH   6   8
ENDBRANCH   5   6
ENDBRANCH   4   5
ENDBRANCH   3   4
ENDBRANCH   2   3
ENDBRANCH   1   2
BRANCH   1  22
ATOM     22  C   UNL A   1      32.862  29.394  25.675  1.00  0.00     0.188 C 
BRANCH  22  23
ATOM     23  O   UNL A   1      33.320  29.469  27.029  1.00  0.00    -0.376 OA
BRANCH  23  24
ATOM     24  C   UNL A   1      33.933  30.695  27.413  1.00  0.00     0.202 C 
BRANCH  24  25
ATOM     25  C   UNL A   1      32.914  31.807  27.672  1.00  0.00     0.261 C 
BRANCH  25  26
ATOM     26  O   UNL A   1      33.582  33.074  27.504  1.00  0.00    -0.460 OA
BRANCH  26  27
ATOM     27  C   UNL A   1      33.339  33.977  28.482  1.00  0.00     0.338 C 
ATOM     28  O   UNL A   1      32.417  34.786  28.497  1.00  0.00    -0.246 OA
BRANCH  27  29
ATOM     29  C   UNL A   1      34.540  34.063  29.356  1.00  0.00     0.060 A 
ATOM     30  C   UNL A   1      35.695  34.550  28.780  1.00  0.00     0.016 A 
ATOM     31  C   UNL A   1      34.636  33.413  30.595  1.00  0.00     0.016 A 
ATOM     32  C   UNL A   1      36.924  34.183  29.338  1.00  0.00     0.010 A 
ATOM     33  C   UNL A   1      35.886  33.051  31.137  1.00  0.00     0.010 A 
ATOM     34  C   UNL A   1      37.067  33.329  30.451  1.00  0.00    -0.014 A 
BRANCH  34  35
ATOM     35  C   UNL A   1      38.358  32.532  30.798  1.00  0.00     0.031 A 
ATOM     36  C   UNL A   1      38.092  30.818  30.113  1.00  0.00     0.074 A 
ATOM     37  C   UNL A   1      39.591  33.223  31.471  1.00  0.00     0.049 A 
ATOM     38  N   UNL A   1      38.481  29.634  30.638  1.00  0.00    -0.248 NA
ATOM     39  C   UNL A   1      37.448  30.502  28.808  1.00  0.00     0.031 C 
ATOM     40  C   UNL A   1      41.121  33.237  31.263  1.00  0.00     0.029 A 
ATOM     41  N   UNL A   1      39.820  33.453  32.899  1.00  0.00    -0.354 N 
ATOM     42  C   UNL A   1      38.728  28.708  29.642  1.00  0.00     0.074 A 
ATOM     43  C   UNL A   1      37.737  29.183  28.684  1.00  0.00     0.031 C 
ATOM     44  C   UNL A   1      41.881  33.094  32.392  1.00  0.00     0.029 A 
ATOM     45  C   UNL A   1      41.033  33.241  33.529  1.00  0.00     0.049 A 
ATOM     46  H   UNL A   1      39.066  33.775  33.443  1.00  0.00     0.167 HD
ATOM     47  C   UNL A   1      39.875  27.889  29.529  1.00  0.00     0.037 A 
ATOM     48  C   UNL A   1      41.258  33.056  34.868  1.00  0.00     0.037 A 
ATOM     49  C   UNL A   1      41.010  27.933  30.604  1.00  0.00     0.049 A 
ATOM     50  C   UNL A   1      41.768  31.644  35.142  1.00  0.00     0.074 A 
ATOM     51  C   UNL A   1      42.407  28.050  30.449  1.00  0.00     0.029 A 
ATOM     52  N   UNL A   1      40.900  27.921  32.015  1.00  0.00    -0.354 N 
ATOM     53  N   UNL A   1      41.890  30.724  34.221  1.00  0.00    -0.248 NA
ATOM     54  C   UNL A   1      42.050  31.126  36.482  1.00  0.00     0.031 C 
ATOM     55  C   UNL A   1      43.034  28.465  31.649  1.00  0.00     0.029 A 
ATOM     56  C   UNL A   1      42.100  28.361  32.645  1.00  0.00     0.049 A 
ATOM     57  H   UNL A   1      40.090  27.642  32.502  1.00  0.00     0.167 HD
ATOM     58  C   UNL A   1      42.198  29.518  34.800  1.00  0.00     0.074 A 
ATOM     59  C   UNL A   1      42.284  29.829  36.221  1.00  0.00     0.031 C 
ATOM     60  C   UNL A   1      42.366  28.357  34.087  1.00  0.00     0.037 A 
BRANCH  47  61
ATOM     61  C   UNL A   1      40.295  27.296  28.102  1.00  0.00     0.064 A 
ATOM     62  C   UNL A   1      40.347  25.898  27.850  1.00  0.00     0.173 A 
ATOM     63  C   UNL A   1      40.783  28.029  27.002  1.00  0.00     0.173 A 
ATOM     64  F   UNL A   1      39.603  25.030  28.549  1.00  0.00    -0.203 F 
ATOM     65  C   UNL A   1      41.093  25.315  26.811  1.00  0.00     0.198 A 
ATOM     66  C   UNL A   1      41.474  27.457  25.921  1.00  0.00     0.198 A 
ATOM     67  F   UNL A   1      40.532  29.325  26.839  1.00  0.00    -0.203 F 
ATOM     68  F   UNL A   1      41.218  23.982  26.741  1.00  0.00    -0.200 F 
ATOM     69  C   UNL A   1      41.684  26.102  25.855  1.00  0.00     0.200 A 
ATOM     70  F   UNL A   1      41.922  28.249  24.936  1.00  0.00    -0.200 F 
ATOM     71  F   UNL A   1      42.372  25.564  24.841  1.00  0.00    -0.200 F 
ENDBRANCH  47  61
BRANCH  48  72
ATOM     72  C   UNL A   1      40.444  33.864  35.857  1.00  0.00     0.064 A 
ATOM     73  C   UNL A   1      39.243  33.311  36.352  1.00  0.00     0.173 A 
ATOM     74  C   UNL A   1      40.848  35.062  36.461  1.00  0.00     0.173 A 
ATOM     75  F   UNL A   1      38.701  32.247  35.737  1.00  0.00    -0.203 F 
ATOM     76  C   UNL A   1      38.601  33.808  37.492  1.00  0.00     0.198 A 
ATOM     77  C   UNL A   1      40.229  35.543  37.631  1.00  0.00     0.198 A 
ATOM     78  F   UNL A   1      41.891  35.742  35.965  1.00  0.00    -0.203 F 
ATOM     79  F   UNL A   1      37.499  33.208  37.967  1.00  0.00    -0.200 F 
ATOM     80  C   UNL A   1      39.133  34.889  38.169  1.00  0.00     0.200 A 
ATOM     81  F   UNL A   1      40.725  36.614  38.269  1.00  0.00    -0.200 F 
ATOM     82  F   UNL A   1      38.597  35.290  39.333  1.00  0.00    -0.200 F 
ENDBRANCH  48  72
BRANCH  60  83
ATOM     83  C   UNL A   1      43.043  27.099  34.618  1.00  0.00     0.064 A 
ATOM     84  C   UNL A   1      44.427  26.858  34.618  1.00  0.00     0.173 A 
ATOM     85  C   UNL A   1      42.251  25.984  35.003  1.00  0.00     0.173 A 
ATOM     86  F   UNL A   1      45.293  27.708  34.053  1.00  0.00    -0.203 F 
ATOM     87  C   UNL A   1      44.972  25.678  35.138  1.00  0.00     0.198 A 
ATOM     88  C   UNL A   1      42.793  24.783  35.441  1.00  0.00     0.198 A 
ATOM     89  F   UNL A   1      40.913  26.008  34.949  1.00  0.00    -0.203 F 
ATOM     90  F   UNL A   1      46.303  25.540  35.208  1.00  0.00    -0.200 F 
ATOM     91  C   UNL A   1      44.155  24.647  35.558  1.00  0.00     0.200 A 
ATOM     92  F   UNL A   1      41.979  23.764  35.750  1.00  0.00    -0.200 F 
ATOM     93  F   UNL A   1      44.679  23.519  36.054  1.00  0.00    -0.200 F 
ENDBRANCH  60  83
ENDBRANCH  34  35
ENDBRANCH  27  29
ENDBRANCH  26  27
ENDBRANCH  25  26
ENDBRANCH  24  25
ENDBRANCH  23  24
ENDBRANCH  22  23
ENDBRANCH   1  22
TORSDOF 20
ENDMDL
MODEL 2
REMARK VINA RESULT:     -11.9      2.435      3.917
REMARK SMILES Cc1ccc([C@@H](Cc2cccs2)C(=O)OCCOCCOCCOC(=O)c2ccc(-c3c4nc(c(-c5c(F)c(F)c(F)c(F)c5F)c5ccc([nH]5)c(-c5c(F)c(F)c(F)c(F)c5F)c5nc(c(-c6c(F)c(F)c(F)c(F)c6F)c6ccc3[nH]6)C=C5)C=C4)cc2)cc1
REMARK SMILES IDX 19 1 18 2 17 3 16 4 15 5 13 6 14 7 6 8 5 9 1 10 2 11 3 12
REMARK SMILES IDX 91 13 4 14 90 15 7 16 8 17 9 18 12 19 10 20 11 21 20 22
REMARK SMILES IDX 21 23 22 24 23 25 24 26 25 27 26 28 27 29 28 30 89 31 29 32
REMARK SMILES IDX 88 33 30 34 31 35 32 36 82 37 33 38 87 39 81 40 83 41 34 42
REMARK SMILES IDX 86 43 80 44 79 45 35 47 67 48 47 49 66 50 48 51 51 52 65 53
REMARK SMILES IDX 84 54 49 55 50 56 64 58 85 59 52 60 36 61 37 62 45 63 38 64
REMARK SMILES IDX 39 65 43 66 46 67 40 68 41 69 44 70 42 71 68 72 69 73 77 74
REMARK SMILES IDX 70 75 71 76 75 77 78 78 72 79 73 80 76 81 74 82 53 83 54 84
REMARK SMILES IDX 62 85 55 86 56 87 60 88 63 89 57 90 58 91 61 92 59 93
REMARK H PARENT 83 46 51 57
REMARK Flexibility Score: inf
ROOT
ATOM      1  C   UNL A   1      33.431  28.959  23.171  1.00  0.00     0.188 C 
ENDROOT
BRANCH   1   2
ATOM      2  O   UNL A   1      33.446  27.642  22.664  1.00  0.00    -0.376 OA
BRANCH   2   3
ATOM      3  C   UNL A   1      32.165  27.049  22.508  1.00  0.00     0.202 C 
BRANCH   3   4
ATOM      4  C   UNL A   1      32.066  25.510  22.130  1.00  0.00     0.261 C 
BRANCH   4   5
ATOM      5  O   UNL A   1      31.526  24.383  23.164  1.00  0.00    -0.463 OA
BRANCH   5   6
ATOM      6  C   UNL A   1      31.731  23.233  23.965  1.00  0.00     0.313 C 
ATOM      7  O   UNL A   1      30.881  23.136  24.862  1.00  0.00    -0.252 OA
BRANCH   6   8
ATOM      8  C   UNL A   1      32.895  21.955  23.861  1.00  0.00     0.134 C 
BRANCH   8   9
ATOM      9  C   UNL A   1      34.355  22.873  24.234  1.00  0.00    -0.033 A 
ATOM     10  C   UNL A   1      38.472  22.644  25.812  1.00  0.00     0.044 C 
ATOM     11  C   UNL A   1      37.097  22.991  25.303  1.00  0.00    -0.051 A 
ATOM     12  C   UNL A   1      36.838  22.991  23.943  1.00  0.00     0.004 A 
ATOM     13  C   UNL A   1      35.992  23.216  26.122  1.00  0.00     0.004 A 
ATOM     14  C   UNL A   1      35.504  23.026  23.445  1.00  0.00     0.005 A 
ATOM     15  C   UNL A   1      34.655  23.187  25.595  1.00  0.00     0.005 A 
ENDBRANCH   8   9
BRANCH   8  16
ATOM     16  C   UNL A   1      32.397  20.080  23.740  1.00  0.00     0.066 C 
BRANCH  16  17
ATOM     17  C   UNL A   1      33.208  18.414  24.271  1.00  0.00     0.006 A 
ATOM     18  C   UNL A   1      34.577  17.882  24.339  1.00  0.00     0.015 A 
ATOM     19  S   UNL A   1      32.531  17.153  25.367  1.00  0.00    -0.149 S 
ATOM     20  C   UNL A   1      34.741  16.478  24.299  1.00  0.00     0.012 A 
ATOM     21  C   UNL A   1      33.639  15.920  24.862  1.00  0.00     0.065 A 
ENDBRANCH  16  17
ENDBRANCH   8  16
ENDBRANCH   6   8
ENDBRANCH   5   6
ENDBRANCH   4   5
ENDBRANCH   3   4
ENDBRANCH   2   3
ENDBRANCH   1   2
BRANCH   1  22
ATOM     22  C   UNL A   1      33.345  29.068  24.708  1.00  0.00     0.188 C 
BRANCH  22  23
ATOM     23  O   UNL A   1      32.239  29.866  25.144  1.00  0.00    -0.376 OA
BRANCH  23  24
ATOM     24  C   UNL A   1      32.360  30.444  26.438  1.00  0.00     0.202 C 
BRANCH  24  25
ATOM     25  C   UNL A   1      33.708  30.141  27.097  1.00  0.00     0.261 C 
BRANCH  25  26
ATOM     26  O   UNL A   1      34.011  31.213  28.011  1.00  0.00    -0.460 OA
BRANCH  26  27
ATOM     27  C   UNL A   1      35.300  31.623  27.998  1.00  0.00     0.338 C 
ATOM     28  O   UNL A   1      35.693  32.742  27.683  1.00  0.00    -0.246 OA
BRANCH  27  29
ATOM     29  C   UNL A   1      36.180  30.427  28.096  1.00  0.00     0.060 A 
ATOM     30  C   UNL A   1      36.287  29.834  29.337  1.00  0.00     0.016 A 
ATOM     31  C   UNL A   1      37.107  30.073  27.106  1.00  0.00     0.016 A 
ATOM     32  C   UNL A   1      37.433  29.086  29.621  1.00  0.00     0.010 A 
ATOM     33  C   UNL A   1      38.257  29.319  27.416  1.00  0.00     0.010 A 
ATOM     34  C   UNL A   1      38.506  28.905  28.724  1.00  0.00    -0.014 A 
BRANCH  34  35
ATOM     35  C   UNL A   1      39.953  28.511  29.139  1.00  0.00     0.031 A 
ATOM     36  C   UNL A   1      40.154  26.726  28.638  1.00  0.00     0.074 A 
ATOM     37  C   UNL A   1      40.953  29.564  29.724  1.00  0.00     0.049 A 
ATOM     38  N   UNL A   1      40.826  25.743  29.280  1.00  0.00    -0.248 NA
ATOM     39  C   UNL A   1      39.636  26.121  27.380  1.00  0.00     0.031 C 
ATOM     40  C   UNL A   1      42.430  29.953  29.502  1.00  0.00     0.029 A 
ATOM     41  N   UNL A   1      41.090  29.991  31.119  1.00  0.00    -0.354 N 
ATOM     42  C   UNL A   1      41.323  24.816  28.384  1.00  0.00     0.074 A 
ATOM     43  C   UNL A   1      40.259  24.916  27.390  1.00  0.00     0.031 C 
ATOM     44  C   UNL A   1      43.181  30.130  30.632  1.00  0.00     0.029 A 
ATOM     45  C   UNL A   1      42.305  30.167  31.756  1.00  0.00     0.049 A 
ATOM     46  H   UNL A   1      40.268  30.161  31.634  1.00  0.00     0.167 HD
ATOM     47  C   UNL A   1      42.645  24.317  28.345  1.00  0.00     0.037 A 
ATOM     48  C   UNL A   1      42.546  30.186  33.105  1.00  0.00     0.037 A 
ATOM     49  C   UNL A   1      43.711  24.764  29.399  1.00  0.00     0.049 A 
ATOM     50  C   UNL A   1      43.399  28.991  33.518  1.00  0.00     0.074 A 
ATOM     51  C   UNL A   1      45.032  25.224  29.219  1.00  0.00     0.029 A 
ATOM     52  N   UNL A   1      43.582  24.869  30.804  1.00  0.00    -0.354 N 
ATOM     53  N   UNL A   1      43.772  28.044  32.697  1.00  0.00    -0.248 NA
ATOM     54  C   UNL A   1      43.782  28.705  34.903  1.00  0.00     0.031 C 
ATOM     55  C   UNL A   1      45.508  25.908  30.363  1.00  0.00     0.029 A 
ATOM     56  C   UNL A   1      44.616  25.668  31.373  1.00  0.00     0.049 A 
ATOM     57  H   UNL A   1      42.864  24.441  31.325  1.00  0.00     0.167 HD
ATOM     58  C   UNL A   1      44.372  27.026  33.395  1.00  0.00     0.074 A 
ATOM     59  C   UNL A   1      44.349  27.493  34.775  1.00  0.00     0.031 C 
ATOM     60  C   UNL A   1      44.848  25.882  32.805  1.00  0.00     0.037 A 
BRANCH  47  61
ATOM     61  C   UNL A   1      43.230  23.709  26.983  1.00  0.00     0.064 A 
ATOM     62  C   UNL A   1      43.019  22.354  26.608  1.00  0.00     0.173 A 
ATOM     63  C   UNL A   1      44.106  24.354  26.088  1.00  0.00     0.173 A 
ATOM     64  F   UNL A   1      41.959  21.661  27.046  1.00  0.00    -0.203 F 
ATOM     65  C   UNL A   1      43.827  21.659  25.692  1.00  0.00     0.198 A 
ATOM     66  C   UNL A   1      44.875  23.684  25.122  1.00  0.00     0.198 A 
ATOM     67  F   UNL A   1      44.199  25.679  26.008  1.00  0.00    -0.203 F 
ATOM     68  F   UNL A   1      43.659  20.340  25.516  1.00  0.00    -0.200 F 
ATOM     69  C   UNL A   1      44.781  22.324  24.965  1.00  0.00     0.200 A 
ATOM     70  F   UNL A   1      45.700  24.391  24.336  1.00  0.00    -0.200 F 
ATOM     71  F   UNL A   1      45.539  21.684  24.066  1.00  0.00    -0.200 F 
ENDBRANCH  47  61
BRANCH  48  72
ATOM     72  C   UNL A   1      41.533  30.852  34.011  1.00  0.00     0.064 A 
ATOM     73  C   UNL A   1      41.560  32.259  34.132  1.00  0.00     0.173 A 
ATOM     74  C   UNL A   1      40.450  30.216  34.632  1.00  0.00     0.173 A 
ATOM     75  F   UNL A   1      42.632  32.941  33.698  1.00  0.00    -0.203 F 
ATOM     76  C   UNL A   1      40.489  32.988  34.662  1.00  0.00     0.198 A 
ATOM     77  C   UNL A   1      39.352  30.946  35.130  1.00  0.00     0.198 A 
ATOM     78  F   UNL A   1      40.411  28.878  34.701  1.00  0.00    -0.203 F 
ATOM     79  F   UNL A   1      40.530  34.329  34.694  1.00  0.00    -0.200 F 
ATOM     80  C   UNL A   1      39.356  32.331  35.103  1.00  0.00     0.200 A 
ATOM     81  F   UNL A   1      38.266  30.307  35.591  1.00  0.00    -0.200 F 
ATOM     82  F   UNL A   1      38.277  33.028  35.491  1.00  0.00    -0.200 F 
ENDBRANCH  48  72
BRANCH  60  83
ATOM     83  C   UNL A   1      45.819  24.904  33.458  1.00  0.00     0.064 A 
ATOM     84  C   UNL A   1      47.213  25.064  33.524  1.00  0.00     0.173 A 
ATOM     85  C   UNL A   1      45.349  23.640  33.903  1.00  0.00     0.173 A 
ATOM     86  F   UNL A   1      47.837  26.084  32.923  1.00  0.00    -0.203 F 
ATOM     87  C   UNL A   1      48.036  24.123  34.154  1.00  0.00     0.198 A 
ATOM     88  C   UNL A   1      46.180  22.672  34.454  1.00  0.00     0.198 A 
ATOM     89  F   UNL A   1      44.062  23.281  33.802  1.00  0.00    -0.203 F 
ATOM     90  F   UNL A   1      49.347  24.371  34.280  1.00  0.00    -0.200 F 
ATOM     91  C   UNL A   1      47.517  22.934  34.628  1.00  0.00     0.200 A 
ATOM     92  F   UNL A   1      45.666  21.488  34.815  1.00  0.00    -0.200 F 
ATOM     93  F   UNL A   1      48.307  22.036  35.229  1.00  0.00    -0.200 F 
ENDBRANCH  60  83
ENDBRANCH  34  35
ENDBRANCH  27  29
ENDBRANCH  26  27
ENDBRANCH  25  26
ENDBRANCH  24  25
ENDBRANCH  23  24
ENDBRANCH  22  23
ENDBRANCH   1  22
TORSDOF 20
ENDMDL
MODEL 3
REMARK VINA RESULT:     -11.7      2.235      4.270
REMARK SMILES Cc1ccc([C@@H](Cc2cccs2)C(=O)OCCOCCOCCOC(=O)c2ccc(-c3c4nc(c(-c5c(F)c(F)c(F)c(F)c5F)c5ccc([nH]5)c(-c5c(F)c(F)c(F)c(F)c5F)c5nc(c(-c6c(F)c(F)c(F)c(F)c6F)c6ccc3[nH]6)C=C5)C=C4)cc2)cc1
REMARK SMILES IDX 19 1 18 2 17 3 16 4 15 5 13 6 14 7 6 8 5 9 1 10 2 11 3 12
REMARK SMILES IDX 91 13 4 14 90 15 7 16 8 17 9 18 12 19 10 20 11 21 20 22
REMARK SMILES IDX 21 23 22 24 23 25 24 26 25 27 26 28 27 29 28 30 89 31 29 32
REMARK SMILES IDX 88 33 30 34 31 35 32 36 82 37 33 38 87 39 81 40 83 41 34 42
REMARK SMILES IDX 86 43 80 44 79 45 35 47 67 48 47 49 66 50 48 51 51 52 65 53
REMARK SMILES IDX 84 54 49 55 50 56 64 58 85 59 52 60 36 61 37 62 45 63 38 64
REMARK SMILES IDX 39 65 43 66 46 67 40 68 41 69 44 70 42 71 68 72 69 73 77 74
REMARK SMILES IDX 70 75 71 76 75 77 78 78 72 79 73 80 76 81 74 82 53 83 54 84
REMARK SMILES IDX 62 85 55 86 56 87 60 88 63 89 57 90 58 91 61 92 59 93
REMARK H PARENT 83 46 51 57
REMARK Flexibility Score: inf
ROOT
ATOM      1  C   UNL A   1      35.100  31.854  28.187  1.00  0.00     0.188 C 
ENDROOT
BRANCH   1   2
ATOM      2  O   UNL A   1      34.438  30.633  27.940  1.00  0.00    -0.376 OA
BRANCH   2   3
ATOM      3  C   UNL A   1      33.277  30.738  27.128  1.00  0.00     0.202 C 
BRANCH   3   4
ATOM      4  C   UNL A   1      32.219  29.554  27.133  1.00  0.00     0.261 C 
BRANCH   4   5
ATOM      5  O   UNL A   1      32.086  28.487  25.918  1.00  0.00    -0.463 OA
BRANCH   5   6
ATOM      6  C   UNL A   1      32.541  27.934  24.697  1.00  0.00     0.313 C 
ATOM      7  O   UNL A   1      33.594  28.462  24.313  1.00  0.00    -0.252 OA
BRANCH   6   8
ATOM      8  C   UNL A   1      31.921  26.644  23.721  1.00  0.00     0.134 C 
BRANCH   8   9
ATOM      9  C   UNL A   1      30.609  27.507  22.914  1.00  0.00    -0.033 A 
ATOM     10  C   UNL A   1      27.626  30.739  23.298  1.00  0.00     0.044 C 
ATOM     11  C   UNL A   1      28.499  29.561  22.950  1.00  0.00    -0.051 A 
ATOM     12  C   UNL A   1      29.705  29.758  22.298  1.00  0.00     0.004 A 
ATOM     13  C   UNL A   1      28.236  28.249  23.338  1.00  0.00     0.004 A 
ATOM     14  C   UNL A   1      30.676  28.721  22.213  1.00  0.00     0.005 A 
ATOM     15  C   UNL A   1      29.258  27.240  23.293  1.00  0.00     0.005 A 
ENDBRANCH   8   9
BRANCH   8  16
ATOM     16  C   UNL A   1      32.849  24.952  23.491  1.00  0.00     0.066 C 
BRANCH  16  17
ATOM     17  C   UNL A   1      34.162  23.966  24.500  1.00  0.00     0.006 A 
ATOM     18  C   UNL A   1      35.271  24.306  25.405  1.00  0.00     0.015 A 
ATOM     19  S   UNL A   1      34.078  22.250  25.048  1.00  0.00    -0.149 S 
ATOM     20  C   UNL A   1      36.312  23.361  25.554  1.00  0.00     0.012 A 
ATOM     21  C   UNL A   1      35.775  22.127  25.380  1.00  0.00     0.065 A 
ENDBRANCH  16  17
ENDBRANCH   8  16
ENDBRANCH   6   8
ENDBRANCH   5   6
ENDBRANCH   4   5
ENDBRANCH   3   4
ENDBRANCH   2   3
ENDBRANCH   1   2
BRANCH   1  22
ATOM     22  C   UNL A   1      34.248  33.119  27.958  1.00  0.00     0.188 C 
BRANCH  22  23
ATOM     23  O   UNL A   1      34.946  34.324  28.290  1.00  0.00    -0.376 OA
BRANCH  23  24
ATOM     24  C   UNL A   1      34.644  34.890  29.560  1.00  0.00     0.202 C 
BRANCH  24  25
ATOM     25  C   UNL A   1      33.154  35.198  29.729  1.00  0.00     0.261 C 
BRANCH  25  26
ATOM     26  O   UNL A   1      33.010  36.127  30.821  1.00  0.00    -0.460 OA
BRANCH  26  27
ATOM     27  C   UNL A   1      32.416  35.619  31.925  1.00  0.00     0.338 C 
ATOM     28  O   UNL A   1      31.250  35.805  32.261  1.00  0.00    -0.246 OA
BRANCH  27  29
ATOM     29  C   UNL A   1      33.471  35.088  32.830  1.00  0.00     0.060 A 
ATOM     30  C   UNL A   1      34.525  35.930  33.116  1.00  0.00     0.016 A 
ATOM     31  C   UNL A   1      33.599  33.727  33.143  1.00  0.00     0.016 A 
ATOM     32  C   UNL A   1      35.746  35.363  33.495  1.00  0.00     0.010 A 
ATOM     33  C   UNL A   1      34.842  33.177  33.520  1.00  0.00     0.010 A 
ATOM     34  C   UNL A   1      35.982  33.976  33.590  1.00  0.00    -0.014 A 
BRANCH  34  35
ATOM     35  C   UNL A   1      37.387  33.309  33.533  1.00  0.00     0.031 A 
ATOM     36  C   UNL A   1      37.104  31.594  32.856  1.00  0.00     0.074 A 
ATOM     37  C   UNL A   1      38.688  34.106  33.885  1.00  0.00     0.049 A 
ATOM     38  N   UNL A   1      37.730  30.444  33.193  1.00  0.00    -0.248 NA
ATOM     39  C   UNL A   1      36.160  31.247  31.758  1.00  0.00     0.031 C 
ATOM     40  C   UNL A   1      40.094  34.284  33.273  1.00  0.00     0.029 A 
ATOM     41  N   UNL A   1      39.276  34.321  35.208  1.00  0.00    -0.354 N 
ATOM     42  C   UNL A   1      37.780  29.574  32.120  1.00  0.00     0.074 A 
ATOM     43  C   UNL A   1      36.525  29.968  31.491  1.00  0.00     0.031 C 
ATOM     44  C   UNL A   1      41.143  34.192  34.146  1.00  0.00     0.029 A 
ATOM     45  C   UNL A   1      40.629  34.220  35.476  1.00  0.00     0.049 A 
ATOM     46  H   UNL A   1      38.673  34.550  35.952  1.00  0.00     0.167 HD
ATOM     47  C   UNL A   1      38.923  28.882  31.658  1.00  0.00     0.037 A 
ATOM     48  C   UNL A   1      41.228  34.025  36.693  1.00  0.00     0.037 A 
ATOM     49  C   UNL A   1      40.300  29.016  32.389  1.00  0.00     0.049 A 
ATOM     50  C   UNL A   1      41.922  32.668  36.744  1.00  0.00     0.074 A 
ATOM     51  C   UNL A   1      41.584  29.281  31.869  1.00  0.00     0.029 A 
ATOM     52  N   UNL A   1      40.581  28.956  33.774  1.00  0.00    -0.354 N 
ATOM     53  N   UNL A   1      41.872  31.789  35.777  1.00  0.00    -0.248 NA
ATOM     54  C   UNL A   1      42.607  32.148  37.930  1.00  0.00     0.031 C 
ATOM     55  C   UNL A   1      42.474  29.728  32.876  1.00  0.00     0.029 A 
ATOM     56  C   UNL A   1      41.862  29.502  34.080  1.00  0.00     0.049 A 
ATOM     57  H   UNL A   1      39.965  28.582  34.446  1.00  0.00     0.167 HD
ATOM     58  C   UNL A   1      42.438  30.607  36.187  1.00  0.00     0.074 A 
ATOM     59  C   UNL A   1      42.880  30.889  37.547  1.00  0.00     0.031 C 
ATOM     60  C   UNL A   1      42.511  29.488  35.395  1.00  0.00     0.037 A 
BRANCH  47  61
ATOM     61  C   UNL A   1      38.990  28.372  30.142  1.00  0.00     0.064 A 
ATOM     62  C   UNL A   1      39.024  26.990  29.810  1.00  0.00     0.173 A 
ATOM     63  C   UNL A   1      39.161  29.175  28.997  1.00  0.00     0.173 A 
ATOM     64  F   UNL A   1      38.508  26.059  30.624  1.00  0.00    -0.203 F 
ATOM     65  C   UNL A   1      39.502  26.489  28.587  1.00  0.00     0.198 A 
ATOM     66  C   UNL A   1      39.577  28.683  27.748  1.00  0.00     0.198 A 
ATOM     67  F   UNL A   1      38.834  30.464  28.972  1.00  0.00    -0.203 F 
ATOM     68  F   UNL A   1      39.651  25.167  28.416  1.00  0.00    -0.200 F 
ATOM     69  C   UNL A   1      39.808  27.344  27.558  1.00  0.00     0.200 A 
ATOM     70  F   UNL A   1      39.735  29.538  26.727  1.00  0.00    -0.200 F 
ATOM     71  F   UNL A   1      40.236  26.883  26.377  1.00  0.00    -0.200 F 
ENDBRANCH  47  61
BRANCH  48  72
ATOM     72  C   UNL A   1      40.644  34.719  37.906  1.00  0.00     0.064 A 
ATOM     73  C   UNL A   1      40.982  36.071  38.136  1.00  0.00     0.173 A 
ATOM     74  C   UNL A   1      39.660  34.193  38.753  1.00  0.00     0.173 A 
ATOM     75  F   UNL A   1      42.014  36.618  37.474  1.00  0.00    -0.203 F 
ATOM     76  C   UNL A   1      40.255  36.889  39.010  1.00  0.00     0.198 A 
ATOM     77  C   UNL A   1      38.900  35.020  39.605  1.00  0.00     0.198 A 
ATOM     78  F   UNL A   1      39.375  32.884  38.713  1.00  0.00    -0.203 F 
ATOM     79  F   UNL A   1      40.569  38.186  39.145  1.00  0.00    -0.200 F 
ATOM     80  C   UNL A   1      39.172  36.375  39.698  1.00  0.00     0.200 A 
ATOM     81  F   UNL A   1      37.870  34.513  40.299  1.00  0.00    -0.200 F 
ATOM     82  F   UNL A   1      38.395  37.182  40.436  1.00  0.00    -0.200 F 
ENDBRANCH  48  72
BRANCH  60  83
ATOM     83  C   UNL A   1      43.421  28.294  35.656  1.00  0.00     0.064 A 
ATOM     84  C   UNL A   1      44.777  28.210  35.295  1.00  0.00     0.173 A 
ATOM     85  C   UNL A   1      42.867  27.084  36.152  1.00  0.00     0.173 A 
ATOM     86  F   UNL A   1      45.382  29.172  34.590  1.00  0.00    -0.203 F 
ATOM     87  C   UNL A   1      45.549  27.078  35.584  1.00  0.00     0.198 A 
ATOM     88  C   UNL A   1      43.619  25.934  36.361  1.00  0.00     0.198 A 
ATOM     89  F   UNL A   1      41.564  26.960  36.436  1.00  0.00    -0.203 F 
ATOM     90  F   UNL A   1      46.861  27.087  35.310  1.00  0.00    -0.200 F 
ATOM     91  C   UNL A   1      44.972  25.947  36.126  1.00  0.00     0.200 A 
ATOM     92  F   UNL A   1      43.014  24.820  36.796  1.00  0.00    -0.200 F 
ATOM     93  F   UNL A   1      45.713  24.866  36.400  1.00  0.00    -0.200 F 
ENDBRANCH  60  83
ENDBRANCH  34  35
ENDBRANCH  27  29
ENDBRANCH  26  27
ENDBRANCH  25  26
ENDBRANCH  24  25
ENDBRANCH  23  24
ENDBRANCH  22  23
ENDBRANCH   1  22
TORSDOF 20
ENDMDL
