MODEL 1
REMARK VINA RESULT:     -11.4      0.000      0.000
REMARK SMILES [NH3+]C[C@H]1CC[C@@H](C(=O)N[C@@H]2C=C[C@@H](C(=O)OCCOCCOCCOC(=O)c3ccc(-c4c5nc(c(-c6c(F)c(F)c(F)c(F)c6F)c6ccc([nH]6)c(-c6c(F)c(F)c(F)c(F)c6F)c6nc(c(-c7c(F)c(F)c(F)c(F)c7F)c7ccc4[nH]7)C=C6)C=C5)cc3)C2)CC1
REMARK SMILES IDX 20 1 19 2 18 3 17 4 16 5 14 6 15 7 13 8 10 9 11 10 91 11
REMARK SMILES IDX 12 12 9 13 7 14 8 15 6 17 3 18 4 19 93 20 5 21 92 22 2 23
REMARK SMILES IDX 1 24 21 28 22 29 23 30 24 31 25 32 26 33 27 34 28 35 29 36
REMARK SMILES IDX 90 37 30 38 89 39 31 40 32 41 33 42 83 43 34 44 88 45 82 46
REMARK SMILES IDX 84 47 35 48 87 49 81 50 80 51 36 53 68 54 48 55 67 56 49 57
REMARK SMILES IDX 52 58 66 59 85 60 50 61 51 62 65 64 86 65 53 66 37 67 38 68
REMARK SMILES IDX 46 69 39 70 40 71 44 72 47 73 41 74 42 75 45 76 43 77 69 78
REMARK SMILES IDX 70 79 78 80 71 81 72 82 76 83 79 84 73 85 74 86 77 87 75 88
REMARK SMILES IDX 54 89 55 90 63 91 56 92 57 93 61 94 64 95 58 96 59 97 62 98
REMARK SMILES IDX 60 99
REMARK H PARENT 9 16 1 25 1 26 1 27 84 52 52 63
REMARK Flexibility Score: inf
ROOT
ATOM      1  C   UNL A   1      42.276  18.644  26.316  1.00  0.00     0.188 C 
ENDROOT
BRANCH   1   2
ATOM      2  O   UNL A   1      41.190  19.427  25.844  1.00  0.00    -0.376 OA
BRANCH   2   3
ATOM      3  C   UNL A   1      40.584  20.374  26.718  1.00  0.00     0.202 C 
BRANCH   3   4
ATOM      4  C   UNL A   1      39.982  21.674  26.144  1.00  0.00     0.261 C 
BRANCH   4   5
ATOM      5  O   UNL A   1      38.549  21.779  26.277  1.00  0.00    -0.463 OA
BRANCH   5   6
ATOM      6  C   UNL A   1      37.803  21.443  25.194  1.00  0.00     0.312 C 
ATOM      7  O   UNL A   1      37.380  20.310  24.986  1.00  0.00    -0.252 OA
BRANCH   6   8
ATOM      8  C   UNL A   1      37.361  22.669  24.365  1.00  0.00     0.124 C 
ATOM      9  C   UNL A   1      34.991  23.296  24.210  1.00  0.00     0.106 C 
ATOM     10  C   UNL A   1      35.701  24.131  25.206  1.00  0.00    -0.006 C 
ATOM     11  C   UNL A   1      36.120  22.609  23.452  1.00  0.00     0.048 C 
ATOM     12  C   UNL A   1      36.990  23.789  25.298  1.00  0.00    -0.014 C 
BRANCH   9  13
ATOM     13  N   UNL A   1      34.095  24.094  23.432  1.00  0.00    -0.350 N 
ATOM     14  C   UNL A   1      33.351  25.170  23.800  1.00  0.00     0.223 C 
ATOM     15  O   UNL A   1      32.759  25.757  22.885  1.00  0.00    -0.275 OA
ATOM     16  H   UNL A   1      34.004  23.824  22.490  1.00  0.00     0.164 HD
BRANCH  14  17
ATOM     17  C   UNL A   1      33.142  25.644  25.256  1.00  0.00     0.078 C 
ATOM     18  C   UNL A   1      31.974  28.394  25.802  1.00  0.00     0.044 C 
ATOM     19  C   UNL A   1      31.061  27.146  25.826  1.00  0.00     0.010 C 
ATOM     20  C   UNL A   1      33.402  28.169  25.263  1.00  0.00     0.010 C 
ATOM     21  C   UNL A   1      31.728  25.763  25.824  1.00  0.00     0.014 C 
ATOM     22  C   UNL A   1      34.014  26.834  25.639  1.00  0.00     0.014 C 
BRANCH  18  23
ATOM     23  C   UNL A   1      31.361  29.584  25.014  1.00  0.00     0.262 C 
BRANCH  23  24
ATOM     24  N   UNL A   1      31.458  30.882  25.662  1.00  0.00    -0.357 N 
ATOM     25  H   UNL A   1      30.860  31.550  25.176  1.00  0.00     0.344 HD
ATOM     26  H   UNL A   1      32.425  31.207  25.631  1.00  0.00     0.344 HD
ATOM     27  H   UNL A   1      31.158  30.800  26.633  1.00  0.00     0.344 HD
ENDBRANCH  23  24
ENDBRANCH  18  23
ENDBRANCH  14  17
ENDBRANCH   9  13
ENDBRANCH   6   8
ENDBRANCH   5   6
ENDBRANCH   4   5
ENDBRANCH   3   4
ENDBRANCH   2   3
ENDBRANCH   1   2
BRANCH   1  28
ATOM     28  C   UNL A   1      43.555  18.523  25.468  1.00  0.00     0.188 C 
BRANCH  28  29
ATOM     29  O   UNL A   1      43.777  19.532  24.521  1.00  0.00    -0.376 OA
BRANCH  29  30
ATOM     30  C   UNL A   1      44.540  20.669  24.870  1.00  0.00     0.202 C 
BRANCH  30  31
ATOM     31  C   UNL A   1      44.099  21.748  25.883  1.00  0.00     0.261 C 
BRANCH  31  32
ATOM     32  O   UNL A   1      43.206  22.782  25.449  1.00  0.00    -0.460 OA
BRANCH  32  33
ATOM     33  C   UNL A   1      43.753  23.996  25.183  1.00  0.00     0.338 C 
ATOM     34  O   UNL A   1      44.472  24.292  24.252  1.00  0.00    -0.246 OA
BRANCH  33  35
ATOM     35  C   UNL A   1      43.122  24.980  26.099  1.00  0.00     0.060 A 
ATOM     36  C   UNL A   1      43.544  26.319  26.064  1.00  0.00     0.016 A 
ATOM     37  C   UNL A   1      42.111  24.583  26.972  1.00  0.00     0.016 A 
ATOM     38  C   UNL A   1      42.965  27.262  26.917  1.00  0.00     0.010 A 
ATOM     39  C   UNL A   1      41.555  25.520  27.847  1.00  0.00     0.010 A 
ATOM     40  C   UNL A   1      41.995  26.857  27.843  1.00  0.00    -0.014 A 
BRANCH  40  41
ATOM     41  C   UNL A   1      41.585  27.760  28.948  1.00  0.00     0.031 A 
ATOM     42  C   UNL A   1      42.342  27.675  30.245  1.00  0.00     0.074 A 
ATOM     43  C   UNL A   1      40.561  28.621  28.820  1.00  0.00     0.049 A 
ATOM     44  N   UNL A   1      42.091  28.243  31.396  1.00  0.00    -0.248 NA
ATOM     45  C   UNL A   1      43.544  26.825  30.240  1.00  0.00     0.031 C 
ATOM     46  C   UNL A   1      39.785  28.843  27.604  1.00  0.00     0.029 A 
ATOM     47  N   UNL A   1      39.984  29.457  29.747  1.00  0.00    -0.354 N 
ATOM     48  C   UNL A   1      43.096  27.810  32.254  1.00  0.00     0.074 A 
ATOM     49  C   UNL A   1      43.940  26.909  31.500  1.00  0.00     0.031 C 
ATOM     50  C   UNL A   1      38.812  29.735  27.865  1.00  0.00     0.029 A 
ATOM     51  C   UNL A   1      38.873  30.113  29.277  1.00  0.00     0.049 A 
ATOM     52  H   UNL A   1      40.334  29.574  30.659  1.00  0.00     0.167 HD
ATOM     53  C   UNL A   1      43.301  28.141  33.549  1.00  0.00     0.037 A 
ATOM     54  C   UNL A   1      37.986  30.896  29.926  1.00  0.00     0.037 A 
ATOM     55  C   UNL A   1      42.454  29.029  34.301  1.00  0.00     0.049 A 
ATOM     56  C   UNL A   1      38.175  31.167  31.400  1.00  0.00     0.074 A 
ATOM     57  C   UNL A   1      42.572  29.422  35.622  1.00  0.00     0.029 A 
ATOM     58  N   UNL A   1      41.324  29.657  33.797  1.00  0.00    -0.354 N 
ATOM     59  N   UNL A   1      39.130  30.763  32.204  1.00  0.00    -0.248 NA
ATOM     60  C   UNL A   1      37.160  32.003  32.058  1.00  0.00     0.031 C 
ATOM     61  C   UNL A   1      41.484  30.243  35.933  1.00  0.00     0.029 A 
ATOM     62  C   UNL A   1      40.724  30.416  34.788  1.00  0.00     0.049 A 
ATOM     63  H   UNL A   1      40.998  29.574  32.872  1.00  0.00     0.167 HD
ATOM     64  C   UNL A   1      38.852  31.328  33.445  1.00  0.00     0.074 A 
ATOM     65  C   UNL A   1      37.645  32.111  33.286  1.00  0.00     0.031 C 
ATOM     66  C   UNL A   1      39.536  31.210  34.610  1.00  0.00     0.037 A 
BRANCH  53  67
ATOM     67  C   UNL A   1      44.475  27.517  34.246  1.00  0.00     0.064 A 
ATOM     68  C   UNL A   1      44.401  26.232  34.807  1.00  0.00     0.173 A 
ATOM     69  C   UNL A   1      45.699  28.198  34.327  1.00  0.00     0.173 A 
ATOM     70  F   UNL A   1      43.250  25.545  34.772  1.00  0.00    -0.203 F 
ATOM     71  C   UNL A   1      45.501  25.666  35.448  1.00  0.00     0.198 A 
ATOM     72  C   UNL A   1      46.806  27.614  34.937  1.00  0.00     0.198 A 
ATOM     73  F   UNL A   1      45.826  29.427  33.804  1.00  0.00    -0.203 F 
ATOM     74  F   UNL A   1      45.391  24.460  36.022  1.00  0.00    -0.200 F 
ATOM     75  C   UNL A   1      46.704  26.353  35.504  1.00  0.00     0.200 A 
ATOM     76  F   UNL A   1      47.972  28.274  34.978  1.00  0.00    -0.200 F 
ATOM     77  F   UNL A   1      47.763  25.803  36.112  1.00  0.00    -0.200 F 
ENDBRANCH  53  67
BRANCH  54  78
ATOM     78  C   UNL A   1      36.812  31.462  29.205  1.00  0.00     0.064 A 
ATOM     79  C   UNL A   1      36.747  32.825  28.885  1.00  0.00     0.173 A 
ATOM     80  C   UNL A   1      35.708  30.664  28.870  1.00  0.00     0.173 A 
ATOM     81  F   UNL A   1      37.764  33.638  29.211  1.00  0.00    -0.203 F 
ATOM     82  C   UNL A   1      35.614  33.374  28.287  1.00  0.00     0.198 A 
ATOM     83  C   UNL A   1      34.589  31.207  28.240  1.00  0.00     0.198 A 
ATOM     84  F   UNL A   1      35.712  29.354  29.158  1.00  0.00    -0.203 F 
ATOM     85  F   UNL A   1      35.554  34.693  28.054  1.00  0.00    -0.200 F 
ATOM     86  C   UNL A   1      34.538  32.564  27.961  1.00  0.00     0.200 A 
ATOM     87  F   UNL A   1      33.556  30.417  27.916  1.00  0.00    -0.200 F 
ATOM     88  F   UNL A   1      33.447  33.092  27.389  1.00  0.00    -0.200 F 
ENDBRANCH  54  78
BRANCH  66  89
ATOM     89  C   UNL A   1      39.039  31.992  35.795  1.00  0.00     0.064 A 
ATOM     90  C   UNL A   1      38.221  31.416  36.776  1.00  0.00     0.173 A 
ATOM     91  C   UNL A   1      39.439  33.326  35.976  1.00  0.00     0.173 A 
ATOM     92  F   UNL A   1      37.799  30.149  36.646  1.00  0.00    -0.203 F 
ATOM     93  C   UNL A   1      37.799  32.152  37.882  1.00  0.00     0.198 A 
ATOM     94  C   UNL A   1      39.046  34.048  37.100  1.00  0.00     0.198 A 
ATOM     95  F   UNL A   1      40.230  33.924  35.074  1.00  0.00    -0.203 F 
ATOM     96  F   UNL A   1      36.979  31.595  38.783  1.00  0.00    -0.200 F 
ATOM     97  C   UNL A   1      38.221  33.464  38.048  1.00  0.00     0.200 A 
ATOM     98  F   UNL A   1      39.469  35.309  37.267  1.00  0.00    -0.200 F 
ATOM     99  F   UNL A   1      37.825  34.166  39.118  1.00  0.00    -0.200 F 
ENDBRANCH  66  89
ENDBRANCH  40  41
ENDBRANCH  33  35
ENDBRANCH  32  33
ENDBRANCH  31  32
ENDBRANCH  30  31
ENDBRANCH  29  30
ENDBRANCH  28  29
ENDBRANCH   1  28
TORSDOF 21
ENDMDL
MODEL 2
REMARK VINA RESULT:     -10.7      3.594      9.606
REMARK SMILES [NH3+]C[C@H]1CC[C@@H](C(=O)N[C@@H]2C=C[C@@H](C(=O)OCCOCCOCCOC(=O)c3ccc(-c4c5nc(c(-c6c(F)c(F)c(F)c(F)c6F)c6ccc([nH]6)c(-c6c(F)c(F)c(F)c(F)c6F)c6nc(c(-c7c(F)c(F)c(F)c(F)c7F)c7ccc4[nH]7)C=C6)C=C5)cc3)C2)CC1
REMARK SMILES IDX 20 1 19 2 18 3 17 4 16 5 14 6 15 7 13 8 10 9 11 10 91 11
REMARK SMILES IDX 12 12 9 13 7 14 8 15 6 17 3 18 4 19 93 20 5 21 92 22 2 23
REMARK SMILES IDX 1 24 21 28 22 29 23 30 24 31 25 32 26 33 27 34 28 35 29 36
REMARK SMILES IDX 90 37 30 38 89 39 31 40 32 41 33 42 83 43 34 44 88 45 82 46
REMARK SMILES IDX 84 47 35 48 87 49 81 50 80 51 36 53 68 54 48 55 67 56 49 57
REMARK SMILES IDX 52 58 66 59 85 60 50 61 51 62 65 64 86 65 53 66 37 67 38 68
REMARK SMILES IDX 46 69 39 70 40 71 44 72 47 73 41 74 42 75 45 76 43 77 69 78
REMARK SMILES IDX 70 79 78 80 71 81 72 82 76 83 79 84 73 85 74 86 77 87 75 88
REMARK SMILES IDX 54 89 55 90 63 91 56 92 57 93 61 94 64 95 58 96 59 97 62 98
REMARK SMILES IDX 60 99
REMARK H PARENT 9 16 1 25 1 26 1 27 84 52 52 63
REMARK Flexibility Score: inf
ROOT
ATOM      1  C   UNL A   1      34.038  31.571  27.529  1.00  0.00     0.188 C 
ENDROOT
BRANCH   1   2
ATOM      2  O   UNL A   1      33.263  30.387  27.644  1.00  0.00    -0.376 OA
BRANCH   2   3
ATOM      3  C   UNL A   1      32.033  30.289  26.931  1.00  0.00     0.202 C 
BRANCH   3   4
ATOM      4  C   UNL A   1      32.046  30.007  25.414  1.00  0.00     0.261 C 
BRANCH   4   5
ATOM      5  O   UNL A   1      31.271  28.857  25.014  1.00  0.00    -0.463 OA
BRANCH   5   6
ATOM      6  C   UNL A   1      30.511  28.984  23.896  1.00  0.00     0.312 C 
ATOM      7  O   UNL A   1      29.805  29.959  23.662  1.00  0.00    -0.252 OA
BRANCH   6   8
ATOM      8  C   UNL A   1      30.790  27.880  22.852  1.00  0.00     0.124 C 
ATOM      9  C   UNL A   1      32.481  26.148  23.271  1.00  0.00     0.106 C 
ATOM     10  C   UNL A   1      31.117  25.644  23.552  1.00  0.00    -0.006 C 
ATOM     11  C   UNL A   1      32.231  27.446  22.514  1.00  0.00     0.048 C 
ATOM     12  C   UNL A   1      30.194  26.585  23.331  1.00  0.00    -0.014 C 
BRANCH   9  13
ATOM     13  N   UNL A   1      33.256  25.155  22.593  1.00  0.00    -0.350 N 
ATOM     14  C   UNL A   1      33.839  24.029  23.082  1.00  0.00     0.223 C 
ATOM     15  O   UNL A   1      34.343  23.272  22.242  1.00  0.00    -0.275 OA
ATOM     16  H   UNL A   1      33.385  25.310  21.630  1.00  0.00     0.164 HD
BRANCH  14  17
ATOM     17  C   UNL A   1      33.978  23.685  24.582  1.00  0.00     0.078 C 
ATOM     18  C   UNL A   1      36.455  22.240  25.582  1.00  0.00     0.044 C 
ATOM     19  C   UNL A   1      36.356  23.779  25.701  1.00  0.00     0.010 C 
ATOM     20  C   UNL A   1      35.359  21.561  24.735  1.00  0.00     0.010 C 
ATOM     21  C   UNL A   1      34.992  24.436  25.446  1.00  0.00     0.014 C 
ATOM     22  C   UNL A   1      33.985  22.188  24.864  1.00  0.00     0.014 C 
BRANCH  18  23
ATOM     23  C   UNL A   1      37.829  21.757  25.040  1.00  0.00     0.262 C 
BRANCH  23  24
ATOM     24  N   UNL A   1      38.992  22.205  25.790  1.00  0.00    -0.357 N 
ATOM     25  H   UNL A   1      38.731  22.996  26.379  1.00  0.00     0.344 HD
ATOM     26  H   UNL A   1      39.726  22.492  25.141  1.00  0.00     0.344 HD
ATOM     27  H   UNL A   1      39.333  21.443  26.376  1.00  0.00     0.344 HD
ENDBRANCH  23  24
ENDBRANCH  18  23
ENDBRANCH  14  17
ENDBRANCH   9  13
ENDBRANCH   6   8
ENDBRANCH   5   6
ENDBRANCH   4   5
ENDBRANCH   3   4
ENDBRANCH   2   3
ENDBRANCH   1   2
BRANCH   1  28
ATOM     28  C   UNL A   1      34.868  32.060  28.730  1.00  0.00     0.188 C 
BRANCH  28  29
ATOM     29  O   UNL A   1      34.308  33.087  29.502  1.00  0.00    -0.376 OA
BRANCH  29  30
ATOM     30  C   UNL A   1      33.734  34.211  28.866  1.00  0.00     0.202 C 
BRANCH  30  31
ATOM     31  C   UNL A   1      33.061  35.391  29.602  1.00  0.00     0.261 C 
BRANCH  31  32
ATOM     32  O   UNL A   1      32.314  35.126  30.797  1.00  0.00    -0.460 OA
BRANCH  32  33
ATOM     33  C   UNL A   1      32.702  35.778  31.923  1.00  0.00     0.338 C 
ATOM     34  O   UNL A   1      32.116  36.674  32.494  1.00  0.00    -0.246 OA
BRANCH  33  35
ATOM     35  C   UNL A   1      33.858  35.040  32.490  1.00  0.00     0.060 A 
ATOM     36  C   UNL A   1      35.132  35.632  32.460  1.00  0.00     0.016 A 
ATOM     37  C   UNL A   1      33.681  33.781  33.061  1.00  0.00     0.016 A 
ATOM     38  C   UNL A   1      36.235  34.955  32.988  1.00  0.00     0.010 A 
ATOM     39  C   UNL A   1      34.790  33.092  33.559  1.00  0.00     0.010 A 
ATOM     40  C   UNL A   1      36.075  33.663  33.503  1.00  0.00    -0.014 A 
BRANCH  40  41
ATOM     41  C   UNL A   1      37.260  32.815  33.790  1.00  0.00     0.031 A 
ATOM     42  C   UNL A   1      38.016  33.069  35.066  1.00  0.00     0.074 A 
ATOM     43  C   UNL A   1      37.672  31.858  32.942  1.00  0.00     0.049 A 
ATOM     44  N   UNL A   1      39.155  32.572  35.474  1.00  0.00    -0.248 NA
ATOM     45  C   UNL A   1      37.401  34.022  36.005  1.00  0.00     0.031 C 
ATOM     46  C   UNL A   1      37.000  31.473  31.704  1.00  0.00     0.029 A 
ATOM     47  N   UNL A   1      38.782  31.049  32.989  1.00  0.00    -0.354 N 
ATOM     48  C   UNL A   1      39.398  33.159  36.710  1.00  0.00     0.074 A 
ATOM     49  C   UNL A   1      38.306  34.072  36.970  1.00  0.00     0.031 C 
ATOM     50  C   UNL A   1      37.725  30.519  31.093  1.00  0.00     0.029 A 
ATOM     51  C   UNL A   1      38.934  30.259  31.875  1.00  0.00     0.049 A 
ATOM     52  H   UNL A   1      39.408  31.035  33.748  1.00  0.00     0.167 HD
ATOM     53  C   UNL A   1      40.433  32.950  37.555  1.00  0.00     0.037 A 
ATOM     54  C   UNL A   1      39.953  29.453  31.513  1.00  0.00     0.037 A 
ATOM     55  C   UNL A   1      41.525  32.051  37.290  1.00  0.00     0.049 A 
ATOM     56  C   UNL A   1      41.151  29.316  32.425  1.00  0.00     0.074 A 
ATOM     57  C   UNL A   1      42.627  31.774  38.080  1.00  0.00     0.029 A 
ATOM     58  N   UNL A   1      41.655  31.287  36.140  1.00  0.00    -0.354 N 
ATOM     59  N   UNL A   1      41.373  29.866  33.595  1.00  0.00    -0.248 NA
ATOM     60  C   UNL A   1      42.242  28.445  31.961  1.00  0.00     0.031 C 
ATOM     61  C   UNL A   1      43.452  30.886  37.383  1.00  0.00     0.029 A 
ATOM     62  C   UNL A   1      42.831  30.556  36.190  1.00  0.00     0.049 A 
ATOM     63  H   UNL A   1      41.008  31.267  35.399  1.00  0.00     0.167 HD
ATOM     64  C   UNL A   1      42.603  29.376  34.022  1.00  0.00     0.074 A 
ATOM     65  C   UNL A   1      43.076  28.478  32.991  1.00  0.00     0.031 C 
ATOM     66  C   UNL A   1      43.279  29.646  35.167  1.00  0.00     0.037 A 
BRANCH  53  67
ATOM     67  C   UNL A   1      40.449  33.731  38.838  1.00  0.00     0.064 A 
ATOM     68  C   UNL A   1      39.715  33.317  39.960  1.00  0.00     0.173 A 
ATOM     69  C   UNL A   1      41.232  34.888  38.957  1.00  0.00     0.173 A 
ATOM     70  F   UNL A   1      38.937  32.227  39.895  1.00  0.00    -0.203 F 
ATOM     71  C   UNL A   1      39.742  34.051  41.144  1.00  0.00     0.198 A 
ATOM     72  C   UNL A   1      41.284  35.600  40.152  1.00  0.00     0.198 A 
ATOM     73  F   UNL A   1      41.956  35.326  37.915  1.00  0.00    -0.203 F 
ATOM     74  F   UNL A   1      38.992  33.667  42.186  1.00  0.00    -0.200 F 
ATOM     75  C   UNL A   1      40.534  35.185  41.242  1.00  0.00     0.200 A 
ATOM     76  F   UNL A   1      42.061  36.687  40.249  1.00  0.00    -0.200 F 
ATOM     77  F   UNL A   1      40.566  35.884  42.384  1.00  0.00    -0.200 F 
ENDBRANCH  53  67
BRANCH  54  78
ATOM     78  C   UNL A   1      39.916  28.729  30.212  1.00  0.00     0.064 A 
ATOM     79  C   UNL A   1      39.351  27.449  30.112  1.00  0.00     0.173 A 
ATOM     80  C   UNL A   1      40.491  29.277  29.056  1.00  0.00     0.173 A 
ATOM     81  F   UNL A   1      38.814  26.868  31.196  1.00  0.00    -0.203 F 
ATOM     82  C   UNL A   1      39.389  26.734  28.916  1.00  0.00     0.198 A 
ATOM     83  C   UNL A   1      40.498  28.575  27.851  1.00  0.00     0.198 A 
ATOM     84  F   UNL A   1      41.052  30.494  29.095  1.00  0.00    -0.203 F 
ATOM     85  F   UNL A   1      38.901  25.487  28.868  1.00  0.00    -0.200 F 
ATOM     86  C   UNL A   1      39.959  27.300  27.786  1.00  0.00     0.200 A 
ATOM     87  F   UNL A   1      41.039  29.130  26.758  1.00  0.00    -0.200 F 
ATOM     88  F   UNL A   1      40.000  26.610  26.637  1.00  0.00    -0.200 F 
ENDBRANCH  54  78
BRANCH  66  89
ATOM     89  C   UNL A   1      44.573  28.917  35.403  1.00  0.00     0.064 A 
ATOM     90  C   UNL A   1      44.620  27.673  36.048  1.00  0.00     0.173 A 
ATOM     91  C   UNL A   1      45.779  29.451  34.921  1.00  0.00     0.173 A 
ATOM     92  F   UNL A   1      43.499  27.124  36.538  1.00  0.00    -0.203 F 
ATOM     93  C   UNL A   1      45.828  27.003  36.226  1.00  0.00     0.198 A 
ATOM     94  C   UNL A   1      46.980  28.762  35.069  1.00  0.00     0.198 A 
ATOM     95  F   UNL A   1      45.791  30.633  34.287  1.00  0.00    -0.203 F 
ATOM     96  F   UNL A   1      45.855  25.838  36.888  1.00  0.00    -0.200 F 
ATOM     97  C   UNL A   1      47.005  27.542  35.728  1.00  0.00     0.200 A 
ATOM     98  F   UNL A   1      48.113  29.277  34.570  1.00  0.00    -0.200 F 
ATOM     99  F   UNL A   1      48.164  26.890  35.888  1.00  0.00    -0.200 F 
ENDBRANCH  66  89
ENDBRANCH  40  41
ENDBRANCH  33  35
ENDBRANCH  32  33
ENDBRANCH  31  32
ENDBRANCH  30  31
ENDBRANCH  29  30
ENDBRANCH  28  29
ENDBRANCH   1  28
TORSDOF 21
ENDMDL
MODEL 3
REMARK VINA RESULT:     -10.6      5.171     10.454
REMARK SMILES [NH3+]C[C@H]1CC[C@@H](C(=O)N[C@@H]2C=C[C@@H](C(=O)OCCOCCOCCOC(=O)c3ccc(-c4c5nc(c(-c6c(F)c(F)c(F)c(F)c6F)c6ccc([nH]6)c(-c6c(F)c(F)c(F)c(F)c6F)c6nc(c(-c7c(F)c(F)c(F)c(F)c7F)c7ccc4[nH]7)C=C6)C=C5)cc3)C2)CC1
REMARK SMILES IDX 20 1 19 2 18 3 17 4 16 5 14 6 15 7 13 8 10 9 11 10 91 11
REMARK SMILES IDX 12 12 9 13 7 14 8 15 6 17 3 18 4 19 93 20 5 21 92 22 2 23
REMARK SMILES IDX 1 24 21 28 22 29 23 30 24 31 25 32 26 33 27 34 28 35 29 36
REMARK SMILES IDX 90 37 30 38 89 39 31 40 32 41 33 42 83 43 34 44 88 45 82 46
REMARK SMILES IDX 84 47 35 48 87 49 81 50 80 51 36 53 68 54 48 55 67 56 49 57
REMARK SMILES IDX 52 58 66 59 85 60 50 61 51 62 65 64 86 65 53 66 37 67 38 68
REMARK SMILES IDX 46 69 39 70 40 71 44 72 47 73 41 74 42 75 45 76 43 77 69 78
REMARK SMILES IDX 70 79 78 80 71 81 72 82 76 83 79 84 73 85 74 86 77 87 75 88
REMARK SMILES IDX 54 89 55 90 63 91 56 92 57 93 61 94 64 95 58 96 59 97 62 98
REMARK SMILES IDX 60 99
REMARK H PARENT 9 16 1 25 1 26 1 27 84 52 52 63
REMARK Flexibility Score: inf
ROOT
ATOM      1  C   UNL A   1      33.598  30.429  26.840  1.00  0.00     0.188 C 
ENDROOT
BRANCH   1   2
ATOM      2  O   UNL A   1      33.953  29.132  27.294  1.00  0.00    -0.376 OA
BRANCH   2   3
ATOM      3  C   UNL A   1      32.978  28.093  27.262  1.00  0.00     0.202 C 
BRANCH   3   4
ATOM      4  C   UNL A   1      32.288  27.729  25.930  1.00  0.00     0.261 C 
BRANCH   4   5
ATOM      5  O   UNL A   1      31.682  26.419  25.909  1.00  0.00    -0.463 OA
BRANCH   5   6
ATOM      6  C   UNL A   1      30.779  26.173  24.926  1.00  0.00     0.312 C 
ATOM      7  O   UNL A   1      30.553  26.948  24.003  1.00  0.00    -0.252 OA
BRANCH   6   8
ATOM      8  C   UNL A   1      30.223  24.733  24.968  1.00  0.00     0.124 C 
ATOM      9  C   UNL A   1      31.694  22.830  25.469  1.00  0.00     0.106 C 
ATOM     10  C   UNL A   1      30.926  23.242  26.667  1.00  0.00    -0.006 C 
ATOM     11  C   UNL A   1      30.996  23.560  24.330  1.00  0.00     0.048 C 
ATOM     12  C   UNL A   1      30.129  24.281  26.400  1.00  0.00    -0.014 C 
BRANCH   9  13
ATOM     13  N   UNL A   1      31.749  21.404  25.373  1.00  0.00    -0.350 N 
ATOM     14  C   UNL A   1      32.769  20.554  25.663  1.00  0.00     0.223 C 
ATOM     15  O   UNL A   1      32.499  19.347  25.614  1.00  0.00    -0.275 OA
ATOM     16  H   UNL A   1      30.925  20.974  25.049  1.00  0.00     0.164 HD
BRANCH  14  17
ATOM     17  C   UNL A   1      34.221  20.988  25.964  1.00  0.00     0.078 C 
ATOM     18  C   UNL A   1      35.231  23.683  24.994  1.00  0.00     0.044 C 
ATOM     19  C   UNL A   1      34.726  23.522  26.448  1.00  0.00     0.010 C 
ATOM     20  C   UNL A   1      34.963  22.488  24.056  1.00  0.00     0.010 C 
ATOM     21  C   UNL A   1      34.491  22.101  26.977  1.00  0.00     0.014 C 
ATOM     22  C   UNL A   1      35.085  21.129  24.717  1.00  0.00     0.014 C 
BRANCH  18  23
ATOM     23  C   UNL A   1      34.682  24.957  24.294  1.00  0.00     0.262 C 
BRANCH  23  24
ATOM     24  N   UNL A   1      33.807  24.720  23.157  1.00  0.00    -0.357 N 
ATOM     25  H   UNL A   1      32.984  25.318  23.232  1.00  0.00     0.344 HD
ATOM     26  H   UNL A   1      33.518  23.741  23.148  1.00  0.00     0.344 HD
ATOM     27  H   UNL A   1      34.306  24.935  22.294  1.00  0.00     0.344 HD
ENDBRANCH  23  24
ENDBRANCH  18  23
ENDBRANCH  14  17
ENDBRANCH   9  13
ENDBRANCH   6   8
ENDBRANCH   5   6
ENDBRANCH   4   5
ENDBRANCH   3   4
ENDBRANCH   2   3
ENDBRANCH   1   2
BRANCH   1  28
ATOM     28  C   UNL A   1      33.492  31.588  27.848  1.00  0.00     0.188 C 
BRANCH  28  29
ATOM     29  O   UNL A   1      34.267  32.724  27.580  1.00  0.00    -0.376 OA
BRANCH  29  30
ATOM     30  C   UNL A   1      33.988  33.940  28.246  1.00  0.00     0.202 C 
BRANCH  30  31
ATOM     31  C   UNL A   1      34.133  34.165  29.767  1.00  0.00     0.261 C 
BRANCH  31  32
ATOM     32  O   UNL A   1      35.350  33.766  30.412  1.00  0.00    -0.460 OA
BRANCH  32  33
ATOM     33  C   UNL A   1      35.300  32.650  31.184  1.00  0.00     0.338 C 
ATOM     34  O   UNL A   1      34.399  32.300  31.916  1.00  0.00    -0.246 OA
BRANCH  33  35
ATOM     35  C   UNL A   1      36.445  31.788  30.796  1.00  0.00     0.060 A 
ATOM     36  C   UNL A   1      37.228  31.195  31.800  1.00  0.00     0.016 A 
ATOM     37  C   UNL A   1      36.732  31.558  29.452  1.00  0.00     0.016 A 
ATOM     38  C   UNL A   1      38.311  30.380  31.459  1.00  0.00     0.010 A 
ATOM     39  C   UNL A   1      37.835  30.770  29.112  1.00  0.00     0.010 A 
ATOM     40  C   UNL A   1      38.645  30.198  30.111  1.00  0.00    -0.014 A 
BRANCH  40  41
ATOM     41  C   UNL A   1      39.947  29.594  29.733  1.00  0.00     0.031 A 
ATOM     42  C   UNL A   1      41.162  30.481  29.734  1.00  0.00     0.074 A 
ATOM     43  C   UNL A   1      40.056  28.302  29.379  1.00  0.00     0.049 A 
ATOM     44  N   UNL A   1      42.374  30.237  29.307  1.00  0.00    -0.248 NA
ATOM     45  C   UNL A   1      40.977  31.832  30.287  1.00  0.00     0.031 C 
ATOM     46  C   UNL A   1      38.973  27.324  29.391  1.00  0.00     0.029 A 
ATOM     47  N   UNL A   1      41.142  27.598  28.916  1.00  0.00    -0.354 N 
ATOM     48  C   UNL A   1      43.092  31.406  29.531  1.00  0.00     0.074 A 
ATOM     49  C   UNL A   1      42.173  32.367  30.100  1.00  0.00     0.031 C 
ATOM     50  C   UNL A   1      39.440  26.150  28.927  1.00  0.00     0.029 A 
ATOM     51  C   UNL A   1      40.844  26.309  28.546  1.00  0.00     0.049 A 
ATOM     52  H   UNL A   1      42.047  27.980  28.854  1.00  0.00     0.167 HD
ATOM     53  C   UNL A   1      44.401  31.652  29.291  1.00  0.00     0.037 A 
ATOM     54  C   UNL A   1      41.608  25.381  27.934  1.00  0.00     0.037 A 
ATOM     55  C   UNL A   1      45.311  30.698  28.714  1.00  0.00     0.049 A 
ATOM     56  C   UNL A   1      43.038  25.714  27.578  1.00  0.00     0.074 A 
ATOM     57  C   UNL A   1      46.655  30.853  28.424  1.00  0.00     0.029 A 
ATOM     58  N   UNL A   1      44.965  29.410  28.332  1.00  0.00    -0.354 N 
ATOM     59  N   UNL A   1      43.715  26.816  27.798  1.00  0.00    -0.248 NA
ATOM     60  C   UNL A   1      43.811  24.671  26.886  1.00  0.00     0.031 C 
ATOM     61  C   UNL A   1      47.109  29.680  27.815  1.00  0.00     0.029 A 
ATOM     62  C   UNL A   1      46.066  28.769  27.787  1.00  0.00     0.049 A 
ATOM     63  H   UNL A   1      44.071  29.012  28.433  1.00  0.00     0.167 HD
ATOM     64  C   UNL A   1      44.997  26.583  27.311  1.00  0.00     0.074 A 
ATOM     65  C   UNL A   1      45.008  25.233  26.792  1.00  0.00     0.031 C 
ATOM     66  C   UNL A   1      46.069  27.414  27.297  1.00  0.00     0.037 A 
BRANCH  53  67
ATOM     67  C   UNL A   1      44.921  33.019  29.627  1.00  0.00     0.064 A 
ATOM     68  C   UNL A   1      45.521  33.295  30.866  1.00  0.00     0.173 A 
ATOM     69  C   UNL A   1      44.848  34.059  28.689  1.00  0.00     0.173 A 
ATOM     70  F   UNL A   1      45.602  32.341  31.805  1.00  0.00    -0.203 F 
ATOM     71  C   UNL A   1      46.002  34.568  31.162  1.00  0.00     0.198 A 
ATOM     72  C   UNL A   1      45.361  35.322  28.975  1.00  0.00     0.198 A 
ATOM     73  F   UNL A   1      44.287  33.849  27.488  1.00  0.00    -0.203 F 
ATOM     74  F   UNL A   1      46.523  34.822  32.370  1.00  0.00    -0.200 F 
ATOM     75  C   UNL A   1      45.930  35.577  30.213  1.00  0.00     0.200 A 
ATOM     76  F   UNL A   1      45.304  36.291  28.051  1.00  0.00    -0.200 F 
ATOM     77  F   UNL A   1      46.401  36.799  30.496  1.00  0.00    -0.200 F 
ENDBRANCH  53  67
BRANCH  54  78
ATOM     78  C   UNL A   1      41.039  24.051  27.581  1.00  0.00     0.064 A 
ATOM     79  C   UNL A   1      41.523  22.875  28.173  1.00  0.00     0.173 A 
ATOM     80  C   UNL A   1      40.039  23.920  26.606  1.00  0.00     0.173 A 
ATOM     81  F   UNL A   1      42.501  22.942  29.090  1.00  0.00    -0.203 F 
ATOM     82  C   UNL A   1      41.053  21.622  27.784  1.00  0.00     0.198 A 
ATOM     83  C   UNL A   1      39.544  22.669  26.242  1.00  0.00     0.198 A 
ATOM     84  F   UNL A   1      39.543  25.010  26.000  1.00  0.00    -0.203 F 
ATOM     85  F   UNL A   1      41.582  20.514  28.320  1.00  0.00    -0.200 F 
ATOM     86  C   UNL A   1      40.060  21.521  26.822  1.00  0.00     0.200 A 
ATOM     87  F   UNL A   1      38.576  22.576  25.319  1.00  0.00    -0.200 F 
ATOM     88  F   UNL A   1      39.611  20.316  26.444  1.00  0.00    -0.200 F 
ENDBRANCH  54  78
BRANCH  66  89
ATOM     89  C   UNL A   1      47.366  26.872  26.761  1.00  0.00     0.064 A 
ATOM     90  C   UNL A   1      47.736  27.022  25.417  1.00  0.00     0.173 A 
ATOM     91  C   UNL A   1      48.277  26.244  27.625  1.00  0.00     0.173 A 
ATOM     92  F   UNL A   1      46.898  27.603  24.546  1.00  0.00    -0.203 F 
ATOM     93  C   UNL A   1      48.957  26.539  24.952  1.00  0.00     0.198 A 
ATOM     94  C   UNL A   1      49.512  25.795  27.165  1.00  0.00     0.198 A 
ATOM     95  F   UNL A   1      47.979  26.084  28.923  1.00  0.00    -0.203 F 
ATOM     96  F   UNL A   1      49.269  26.651  23.653  1.00  0.00    -0.200 F 
ATOM     97  C   UNL A   1      49.849  25.936  25.827  1.00  0.00     0.200 A 
ATOM     98  F   UNL A   1      50.378  25.229  28.017  1.00  0.00    -0.200 F 
ATOM     99  F   UNL A   1      51.028  25.484  25.381  1.00  0.00    -0.200 F 
ENDBRANCH  66  89
ENDBRANCH  40  41
ENDBRANCH  33  35
ENDBRANCH  32  33
ENDBRANCH  31  32
ENDBRANCH  30  31
ENDBRANCH  29  30
ENDBRANCH  28  29
ENDBRANCH   1  28
TORSDOF 21
ENDMDL
