MODEL 1
REMARK VINA RESULT:     -11.8      0.000      0.000
REMARK SMILES C[C@H](C(=O)OCCOCCOCCOC(=O)c1ccc(-c2c3nc(c(-c4c(F)c(F)c(F)c(F)c4F)c4ccc([nH]4)c(-c4c(F)c(F)c(F)c(F)c4F)c4nc(c(-c5c(F)c(F)c(F)c(F)c5F)c5ccc2[nH]5)C=C4)C=C3)cc1)N1C(=O)C[C@@H](N2C(=O)/C(=C/c3ccccc3)SC2=S)C1=O
REMARK SMILES IDX 9 1 8 2 7 3 6 4 5 5 3 6 4 7 2 8 1 9 80 10 81 11 99 12 82 13
REMARK SMILES IDX 83 14 84 15 100 16 85 17 86 18 97 19 87 20 88 21 96 22 98 23
REMARK SMILES IDX 89 24 90 25 91 26 95 27 92 28 94 29 93 30 10 31 11 32 12 33
REMARK SMILES IDX 13 34 14 35 15 36 16 37 17 38 18 39 79 40 19 41 78 42 20 43
REMARK SMILES IDX 21 44 22 45 72 46 23 47 77 48 71 49 73 50 24 51 76 52 70 53
REMARK SMILES IDX 69 54 25 56 57 57 37 58 56 59 38 60 41 61 55 62 74 63 39 64
REMARK SMILES IDX 40 65 54 67 75 68 42 69 26 70 27 71 35 72 28 73 29 74 33 75
REMARK SMILES IDX 36 76 30 77 31 78 34 79 32 80 58 81 59 82 67 83 60 84 61 85
REMARK SMILES IDX 65 86 68 87 62 88 63 89 66 90 64 91 43 92 44 93 52 94 45 95
REMARK SMILES IDX 46 96 50 97 53 98 47 99 48 100 51 101 49 102
REMARK H PARENT 73 55 41 66
REMARK Flexibility Score: inf
ROOT
ATOM      1  C   UNL A   1      41.240  20.729  27.384  1.00  0.00     0.188 C 
ENDROOT
BRANCH   1   2
ATOM      2  O   UNL A   1      40.045  21.509  27.411  1.00  0.00    -0.376 OA
BRANCH   2   3
ATOM      3  C   UNL A   1      39.915  22.604  26.521  1.00  0.00     0.202 C 
BRANCH   3   4
ATOM      4  C   UNL A   1      38.500  23.179  26.387  1.00  0.00     0.261 C 
BRANCH   4   5
ATOM      5  O   UNL A   1      37.522  22.299  25.796  1.00  0.00    -0.462 OA
BRANCH   5   6
ATOM      6  C   UNL A   1      36.282  22.826  25.616  1.00  0.00     0.329 C 
ATOM      7  O   UNL A   1      35.493  23.062  26.526  1.00  0.00    -0.250 OA
BRANCH   6   8
ATOM      8  C   UNL A   1      35.963  23.189  24.154  1.00  0.00     0.200 C 
ATOM      9  C   UNL A   1      36.852  22.392  23.203  1.00  0.00     0.044 C 
BRANCH   8  10
ATOM     10  N   UNL A   1      34.547  23.171  23.776  1.00  0.00    -0.267 N 
ATOM     11  C   UNL A   1      33.639  22.184  24.025  1.00  0.00     0.232 C 
ATOM     12  C   UNL A   1      33.987  24.209  23.086  1.00  0.00     0.253 C 
ATOM     13  O   UNL A   1      33.875  21.050  24.415  1.00  0.00    -0.274 OA
ATOM     14  C   UNL A   1      32.255  22.662  23.685  1.00  0.00     0.136 C 
ATOM     15  C   UNL A   1      32.506  23.942  22.909  1.00  0.00     0.191 C 
ATOM     16  O   UNL A   1      34.563  25.208  22.676  1.00  0.00    -0.272 OA
BRANCH  15  17
ATOM     17  N   UNL A   1      31.798  25.144  23.360  1.00  0.00    -0.280 N 
ATOM     18  C   UNL A   1      31.402  26.074  22.412  1.00  0.00     0.266 C 
ATOM     19  C   UNL A   1      31.359  25.363  24.649  1.00  0.00     0.149 C 
ATOM     20  O   UNL A   1      31.667  26.026  21.219  1.00  0.00    -0.268 OA
ATOM     21  C   UNL A   1      30.572  27.130  23.030  1.00  0.00     0.081 C 
ATOM     22  S   UNL A   1      30.413  26.844  24.714  1.00  0.00    -0.054 SA
ATOM     23  S   UNL A   1      31.660  24.445  26.007  1.00  0.00    -0.052 S 
ATOM     24  C   UNL A   1      30.044  28.113  22.290  1.00  0.00     0.029 C 
BRANCH  24  25
ATOM     25  C   UNL A   1      29.250  29.232  22.801  1.00  0.00    -0.024 A 
ATOM     26  C   UNL A   1      29.887  30.327  23.395  1.00  0.00     0.008 A 
ATOM     27  C   UNL A   1      27.852  29.195  22.743  1.00  0.00     0.008 A 
ATOM     28  C   UNL A   1      29.129  31.385  23.902  1.00  0.00     0.001 A 
ATOM     29  C   UNL A   1      27.099  30.254  23.246  1.00  0.00     0.001 A 
ATOM     30  C   UNL A   1      27.737  31.349  23.824  1.00  0.00     0.000 A 
ENDBRANCH  24  25
ENDBRANCH  15  17
ENDBRANCH   8  10
ENDBRANCH   6   8
ENDBRANCH   5   6
ENDBRANCH   4   5
ENDBRANCH   3   4
ENDBRANCH   2   3
ENDBRANCH   1   2
BRANCH   1  31
ATOM     31  C   UNL A   1      42.001  20.525  26.066  1.00  0.00     0.188 C 
BRANCH  31  32
ATOM     32  O   UNL A   1      43.058  21.468  25.915  1.00  0.00    -0.376 OA
BRANCH  32  33
ATOM     33  C   UNL A   1      44.103  21.046  25.049  1.00  0.00     0.202 C 
BRANCH  33  34
ATOM     34  C   UNL A   1      44.679  22.249  24.299  1.00  0.00     0.261 C 
BRANCH  34  35
ATOM     35  O   UNL A   1      44.000  23.489  24.576  1.00  0.00    -0.460 OA
BRANCH  35  36
ATOM     36  C   UNL A   1      44.773  24.542  24.906  1.00  0.00     0.338 C 
ATOM     37  O   UNL A   1      45.877  24.818  24.454  1.00  0.00    -0.246 OA
BRANCH  36  38
ATOM     38  C   UNL A   1      44.010  25.413  25.821  1.00  0.00     0.060 A 
ATOM     39  C   UNL A   1      44.156  26.802  25.727  1.00  0.00     0.016 A 
ATOM     40  C   UNL A   1      43.170  24.857  26.791  1.00  0.00     0.016 A 
ATOM     41  C   UNL A   1      43.489  27.638  26.629  1.00  0.00     0.010 A 
ATOM     42  C   UNL A   1      42.514  25.692  27.699  1.00  0.00     0.010 A 
ATOM     43  C   UNL A   1      42.693  27.086  27.643  1.00  0.00    -0.014 A 
BRANCH  43  44
ATOM     44  C   UNL A   1      42.178  27.931  28.752  1.00  0.00     0.031 A 
ATOM     45  C   UNL A   1      42.944  27.965  30.047  1.00  0.00     0.074 A 
ATOM     46  C   UNL A   1      41.044  28.642  28.630  1.00  0.00     0.049 A 
ATOM     47  N   UNL A   1      42.642  28.545  31.182  1.00  0.00    -0.248 NA
ATOM     48  C   UNL A   1      44.224  27.239  30.064  1.00  0.00     0.031 C 
ATOM     49  C   UNL A   1      40.223  28.726  27.425  1.00  0.00     0.029 A 
ATOM     50  N   UNL A   1      40.378  29.418  29.548  1.00  0.00    -0.354 N 
ATOM     51  C   UNL A   1      43.689  28.251  32.046  1.00  0.00     0.074 A 
ATOM     52  C   UNL A   1      44.619  27.416  31.316  1.00  0.00     0.031 C 
ATOM     53  C   UNL A   1      39.150  29.494  27.683  1.00  0.00     0.029 A 
ATOM     54  C   UNL A   1      39.192  29.928  29.080  1.00  0.00     0.049 A 
ATOM     55  H   UNL A   1      40.719  29.592  30.455  1.00  0.00     0.167 HD
ATOM     56  C   UNL A   1      43.864  28.645  33.330  1.00  0.00     0.037 A 
ATOM     57  C   UNL A   1      38.236  30.635  29.715  1.00  0.00     0.037 A 
ATOM     58  C   UNL A   1      42.938  29.467  34.064  1.00  0.00     0.049 A 
ATOM     59  C   UNL A   1      38.416  30.998  31.169  1.00  0.00     0.074 A 
ATOM     60  C   UNL A   1      43.034  29.923  35.367  1.00  0.00     0.029 A 
ATOM     61  N   UNL A   1      41.739  29.947  33.559  1.00  0.00    -0.354 N 
ATOM     62  N   UNL A   1      39.417  30.735  31.973  1.00  0.00    -0.248 NA
ATOM     63  C   UNL A   1      37.328  31.758  31.804  1.00  0.00     0.031 C 
ATOM     64  C   UNL A   1      41.872  30.640  35.667  1.00  0.00     0.029 A 
ATOM     65  C   UNL A   1      41.076  30.677  34.534  1.00  0.00     0.049 A 
ATOM     66  H   UNL A   1      41.408  29.793  32.645  1.00  0.00     0.167 HD
ATOM     67  C   UNL A   1      39.096  31.320  33.193  1.00  0.00     0.074 A 
ATOM     68  C   UNL A   1      37.811  31.963  33.021  1.00  0.00     0.031 C 
ATOM     69  C   UNL A   1      39.802  31.324  34.350  1.00  0.00     0.037 A 
BRANCH  56  70
ATOM     70  C   UNL A   1      45.101  28.169  34.032  1.00  0.00     0.064 A 
ATOM     71  C   UNL A   1      46.302  28.891  33.978  1.00  0.00     0.173 A 
ATOM     72  C   UNL A   1      45.076  26.991  34.794  1.00  0.00     0.173 A 
ATOM     73  F   UNL A   1      46.381  30.017  33.253  1.00  0.00    -0.203 F 
ATOM     74  C   UNL A   1      47.441  28.437  34.639  1.00  0.00     0.198 A 
ATOM     75  C   UNL A   1      46.208  26.555  35.476  1.00  0.00     0.198 A 
ATOM     76  F   UNL A   1      43.951  26.264  34.882  1.00  0.00    -0.203 F 
ATOM     77  F   UNL A   1      48.591  29.118  34.535  1.00  0.00    -0.200 F 
ATOM     78  C   UNL A   1      47.391  27.273  35.393  1.00  0.00     0.200 A 
ATOM     79  F   UNL A   1      46.156  25.436  36.213  1.00  0.00    -0.200 F 
ATOM     80  F   UNL A   1      48.487  26.841  36.032  1.00  0.00    -0.200 F 
ENDBRANCH  56  70
BRANCH  57  81
ATOM     81  C   UNL A   1      37.001  31.037  28.990  1.00  0.00     0.064 A 
ATOM     82  C   UNL A   1      36.809  32.359  28.565  1.00  0.00     0.173 A 
ATOM     83  C   UNL A   1      35.973  30.116  28.740  1.00  0.00     0.173 A 
ATOM     84  F   UNL A   1      37.748  33.285  28.811  1.00  0.00    -0.203 F 
ATOM     85  C   UNL A   1      35.629  32.748  27.934  1.00  0.00     0.198 A 
ATOM     86  C   UNL A   1      34.806  30.499  28.083  1.00  0.00     0.198 A 
ATOM     87  F   UNL A   1      36.104  28.841  29.137  1.00  0.00    -0.203 F 
ATOM     88  F   UNL A   1      35.448  34.030  27.588  1.00  0.00    -0.200 F 
ATOM     89  C   UNL A   1      34.631  31.816  27.689  1.00  0.00     0.200 A 
ATOM     90  F   UNL A   1      33.846  29.595  27.845  1.00  0.00    -0.200 F 
ATOM     91  F   UNL A   1      33.495  32.192  27.086  1.00  0.00    -0.200 F 
ENDBRANCH  57  81
BRANCH  69  92
ATOM     92  C   UNL A   1      39.228  32.079  35.514  1.00  0.00     0.064 A 
ATOM     93  C   UNL A   1      38.433  31.451  36.484  1.00  0.00     0.173 A 
ATOM     94  C   UNL A   1      39.519  33.443  35.687  1.00  0.00     0.173 A 
ATOM     95  F   UNL A   1      38.116  30.154  36.359  1.00  0.00    -0.203 F 
ATOM     96  C   UNL A   1      37.934  32.164  37.571  1.00  0.00     0.198 A 
ATOM     97  C   UNL A   1      39.041  34.144  36.791  1.00  0.00     0.198 A 
ATOM     98  F   UNL A   1      40.281  34.090  34.793  1.00  0.00    -0.203 F 
ATOM     99  F   UNL A   1      37.140  31.553  38.463  1.00  0.00    -0.200 F 
ATOM    100  C   UNL A   1      38.243  33.507  37.728  1.00  0.00     0.200 A 
ATOM    101  F   UNL A   1      39.354  35.438  36.948  1.00  0.00    -0.200 F 
ATOM    102  F   UNL A   1      37.768  34.188  38.780  1.00  0.00    -0.200 F 
ENDBRANCH  69  92
ENDBRANCH  43  44
ENDBRANCH  36  38
ENDBRANCH  35  36
ENDBRANCH  34  35
ENDBRANCH  33  34
ENDBRANCH  32  33
ENDBRANCH  31  32
ENDBRANCH   1  31
TORSDOF 20
ENDMDL
MODEL 2
REMARK VINA RESULT:     -11.3      3.862      9.738
REMARK SMILES C[C@H](C(=O)OCCOCCOCCOC(=O)c1ccc(-c2c3nc(c(-c4c(F)c(F)c(F)c(F)c4F)c4ccc([nH]4)c(-c4c(F)c(F)c(F)c(F)c4F)c4nc(c(-c5c(F)c(F)c(F)c(F)c5F)c5ccc2[nH]5)C=C4)C=C3)cc1)N1C(=O)C[C@@H](N2C(=O)/C(=C/c3ccccc3)SC2=S)C1=O
REMARK SMILES IDX 9 1 8 2 7 3 6 4 5 5 3 6 4 7 2 8 1 9 80 10 81 11 99 12 82 13
REMARK SMILES IDX 83 14 84 15 100 16 85 17 86 18 97 19 87 20 88 21 96 22 98 23
REMARK SMILES IDX 89 24 90 25 91 26 95 27 92 28 94 29 93 30 10 31 11 32 12 33
REMARK SMILES IDX 13 34 14 35 15 36 16 37 17 38 18 39 79 40 19 41 78 42 20 43
REMARK SMILES IDX 21 44 22 45 72 46 23 47 77 48 71 49 73 50 24 51 76 52 70 53
REMARK SMILES IDX 69 54 25 56 57 57 37 58 56 59 38 60 41 61 55 62 74 63 39 64
REMARK SMILES IDX 40 65 54 67 75 68 42 69 26 70 27 71 35 72 28 73 29 74 33 75
REMARK SMILES IDX 36 76 30 77 31 78 34 79 32 80 58 81 59 82 67 83 60 84 61 85
REMARK SMILES IDX 65 86 68 87 62 88 63 89 66 90 64 91 43 92 44 93 52 94 45 95
REMARK SMILES IDX 46 96 50 97 53 98 47 99 48 100 51 101 49 102
REMARK H PARENT 73 55 41 66
REMARK Flexibility Score: inf
ROOT
ATOM      1  C   UNL A   1      33.389  32.685  27.833  1.00  0.00     0.188 C 
ENDROOT
BRANCH   1   2
ATOM      2  O   UNL A   1      34.078  31.453  27.624  1.00  0.00    -0.376 OA
BRANCH   2   3
ATOM      3  C   UNL A   1      33.336  30.300  27.266  1.00  0.00     0.202 C 
BRANCH   3   4
ATOM      4  C   UNL A   1      33.856  29.537  26.040  1.00  0.00     0.261 C 
BRANCH   4   5
ATOM      5  O   UNL A   1      33.093  29.711  24.829  1.00  0.00    -0.462 OA
BRANCH   5   6
ATOM      6  C   UNL A   1      33.386  28.852  23.816  1.00  0.00     0.329 C 
ATOM      7  O   UNL A   1      34.389  28.930  23.113  1.00  0.00    -0.250 OA
BRANCH   6   8
ATOM      8  C   UNL A   1      32.379  27.697  23.664  1.00  0.00     0.200 C 
ATOM      9  C   UNL A   1      32.458  27.106  22.259  1.00  0.00     0.044 C 
BRANCH   8  10
ATOM     10  N   UNL A   1      32.391  26.683  24.721  1.00  0.00    -0.267 N 
ATOM     11  C   UNL A   1      31.585  26.629  25.821  1.00  0.00     0.232 C 
ATOM     12  C   UNL A   1      33.280  25.645  24.696  1.00  0.00     0.253 C 
ATOM     13  O   UNL A   1      30.855  27.514  26.241  1.00  0.00    -0.274 OA
ATOM     14  C   UNL A   1      31.759  25.309  26.519  1.00  0.00     0.136 C 
ATOM     15  C   UNL A   1      33.001  24.727  25.868  1.00  0.00     0.191 C 
ATOM     16  O   UNL A   1      34.159  25.458  23.866  1.00  0.00    -0.272 OA
BRANCH  15  17
ATOM     17  N   UNL A   1      32.896  23.367  25.332  1.00  0.00    -0.280 N 
ATOM     18  C   UNL A   1      33.704  22.379  25.871  1.00  0.00     0.266 C 
ATOM     19  C   UNL A   1      31.947  22.950  24.422  1.00  0.00     0.149 C 
ATOM     20  O   UNL A   1      34.574  22.556  26.712  1.00  0.00    -0.268 OA
ATOM     21  C   UNL A   1      33.349  21.054  25.318  1.00  0.00     0.081 C 
ATOM     22  S   UNL A   1      32.075  21.212  24.181  1.00  0.00    -0.054 SA
ATOM     23  S   UNL A   1      30.835  23.877  23.597  1.00  0.00    -0.052 S 
ATOM     24  C   UNL A   1      33.976  19.945  25.731  1.00  0.00     0.029 C 
BRANCH  24  25
ATOM     25  C   UNL A   1      33.741  18.593  25.221  1.00  0.00    -0.024 A 
ATOM     26  C   UNL A   1      34.533  18.091  24.183  1.00  0.00     0.008 A 
ATOM     27  C   UNL A   1      32.696  17.813  25.730  1.00  0.00     0.008 A 
ATOM     28  C   UNL A   1      34.295  16.810  23.680  1.00  0.00     0.001 A 
ATOM     29  C   UNL A   1      32.465  16.534  25.230  1.00  0.00     0.001 A 
ATOM     30  C   UNL A   1      33.264  16.032  24.207  1.00  0.00     0.000 A 
ENDBRANCH  24  25
ENDBRANCH  15  17
ENDBRANCH   8  10
ENDBRANCH   6   8
ENDBRANCH   5   6
ENDBRANCH   4   5
ENDBRANCH   3   4
ENDBRANCH   2   3
ENDBRANCH   1   2
BRANCH   1  31
ATOM     31  C   UNL A   1      33.908  33.696  28.865  1.00  0.00     0.188 C 
BRANCH  31  32
ATOM     32  O   UNL A   1      32.899  34.625  29.250  1.00  0.00    -0.376 OA
BRANCH  32  33
ATOM     33  C   UNL A   1      33.197  35.979  28.942  1.00  0.00     0.202 C 
BRANCH  33  34
ATOM     34  C   UNL A   1      32.873  36.873  30.141  1.00  0.00     0.261 C 
BRANCH  34  35
ATOM     35  O   UNL A   1      32.094  36.220  31.161  1.00  0.00    -0.460 OA
BRANCH  35  36
ATOM     36  C   UNL A   1      32.580  36.264  32.417  1.00  0.00     0.338 C 
ATOM     37  O   UNL A   1      32.105  36.867  33.371  1.00  0.00    -0.246 OA
BRANCH  36  38
ATOM     38  C   UNL A   1      33.730  35.343  32.505  1.00  0.00     0.060 A 
ATOM     39  C   UNL A   1      33.521  34.026  32.935  1.00  0.00     0.016 A 
ATOM     40  C   UNL A   1      35.018  35.785  32.190  1.00  0.00     0.016 A 
ATOM     41  C   UNL A   1      34.609  33.159  33.085  1.00  0.00     0.010 A 
ATOM     42  C   UNL A   1      36.105  34.922  32.352  1.00  0.00     0.010 A 
ATOM     43  C   UNL A   1      35.911  33.614  32.830  1.00  0.00    -0.014 A 
BRANCH  43  44
ATOM     44  C   UNL A   1      37.092  32.797  33.215  1.00  0.00     0.031 A 
ATOM     45  C   UNL A   1      37.782  33.098  34.517  1.00  0.00     0.074 A 
ATOM     46  C   UNL A   1      37.562  31.819  32.422  1.00  0.00     0.049 A 
ATOM     47  N   UNL A   1      38.881  32.592  35.018  1.00  0.00    -0.248 NA
ATOM     48  C   UNL A   1      37.145  34.115  35.370  1.00  0.00     0.031 C 
ATOM     49  C   UNL A   1      36.974  31.402  31.153  1.00  0.00     0.029 A 
ATOM     50  N   UNL A   1      38.664  31.010  32.566  1.00  0.00    -0.354 N 
ATOM     51  C   UNL A   1      39.070  33.231  36.237  1.00  0.00     0.074 A 
ATOM     52  C   UNL A   1      37.990  34.182  36.389  1.00  0.00     0.031 C 
ATOM     53  C   UNL A   1      37.731  30.426  30.622  1.00  0.00     0.029 A 
ATOM     54  C   UNL A   1      38.877  30.175  31.497  1.00  0.00     0.049 A 
ATOM     55  H   UNL A   1      39.245  31.028  33.360  1.00  0.00     0.167 HD
ATOM     56  C   UNL A   1      40.050  33.037  37.151  1.00  0.00     0.037 A 
ATOM     57  C   UNL A   1      39.895  29.329  31.242  1.00  0.00     0.037 A 
ATOM     58  C   UNL A   1      41.132  32.100  37.002  1.00  0.00     0.049 A 
ATOM     59  C   UNL A   1      41.018  29.187  32.240  1.00  0.00     0.074 A 
ATOM     60  C   UNL A   1      42.168  31.830  37.879  1.00  0.00     0.029 A 
ATOM     61  N   UNL A   1      41.321  31.285  35.896  1.00  0.00    -0.354 N 
ATOM     62  N   UNL A   1      41.178  29.777  33.399  1.00  0.00    -0.248 NA
ATOM     63  C   UNL A   1      42.104  28.257  31.891  1.00  0.00     0.031 C 
ATOM     64  C   UNL A   1      43.011  30.886  37.284  1.00  0.00     0.029 A 
ATOM     65  C   UNL A   1      42.471  30.528  36.059  1.00  0.00     0.049 A 
ATOM     66  H   UNL A   1      40.728  31.250  35.111  1.00  0.00     0.167 HD
ATOM     67  C   UNL A   1      42.360  29.271  33.929  1.00  0.00     0.074 A 
ATOM     68  C   UNL A   1      42.872  28.315  32.969  1.00  0.00     0.031 C 
ATOM     69  C   UNL A   1      42.966  29.570  35.104  1.00  0.00     0.037 A 
BRANCH  56  70
ATOM     70  C   UNL A   1      40.008  33.880  38.392  1.00  0.00     0.064 A 
ATOM     71  C   UNL A   1      40.726  35.082  38.489  1.00  0.00     0.173 A 
ATOM     72  C   UNL A   1      39.218  33.495  39.485  1.00  0.00     0.173 A 
ATOM     73  F   UNL A   1      41.507  35.486  37.477  1.00  0.00    -0.203 F 
ATOM     74  C   UNL A   1      40.673  35.854  39.647  1.00  0.00     0.198 A 
ATOM     75  C   UNL A   1      39.146  34.284  40.630  1.00  0.00     0.198 A 
ATOM     76  F   UNL A   1      38.509  32.357  39.442  1.00  0.00    -0.203 F 
ATOM     77  F   UNL A   1      41.404  36.974  39.737  1.00  0.00    -0.200 F 
ATOM     78  C   UNL A   1      39.879  35.458  40.713  1.00  0.00     0.200 A 
ATOM     79  F   UNL A   1      38.368  33.907  41.654  1.00  0.00    -0.200 F 
ATOM     80  F   UNL A   1      39.826  36.206  41.824  1.00  0.00    -0.200 F 
ENDBRANCH  56  70
BRANCH  57  81
ATOM     81  C   UNL A   1      39.920  28.556  29.971  1.00  0.00     0.064 A 
ATOM     82  C   UNL A   1      39.338  27.284  29.886  1.00  0.00     0.173 A 
ATOM     83  C   UNL A   1      40.557  29.060  28.827  1.00  0.00     0.173 A 
ATOM     84  F   UNL A   1      38.748  26.744  30.963  1.00  0.00    -0.203 F 
ATOM     85  C   UNL A   1      39.409  26.537  28.712  1.00  0.00     0.198 A 
ATOM     86  C   UNL A   1      40.602  28.325  27.644  1.00  0.00     0.198 A 
ATOM     87  F   UNL A   1      41.138  30.269  28.860  1.00  0.00    -0.203 F 
ATOM     88  F   UNL A   1      38.894  25.300  28.674  1.00  0.00    -0.200 F 
ATOM     89  C   UNL A   1      40.036  27.061  27.591  1.00  0.00     0.200 A 
ATOM     90  F   UNL A   1      41.204  28.836  26.563  1.00  0.00    -0.200 F 
ATOM     91  F   UNL A   1      40.107  26.340  26.462  1.00  0.00    -0.200 F 
ENDBRANCH  57  81
BRANCH  69  92
ATOM     92  C   UNL A   1      44.228  28.831  35.446  1.00  0.00     0.064 A 
ATOM     93  C   UNL A   1      45.493  29.328  35.098  1.00  0.00     0.173 A 
ATOM     94  C   UNL A   1      44.172  27.632  36.175  1.00  0.00     0.173 A 
ATOM     95  F   UNL A   1      45.601  30.463  34.391  1.00  0.00    -0.203 F 
ATOM     96  C   UNL A   1      46.653  28.641  35.449  1.00  0.00     0.198 A 
ATOM     97  C   UNL A   1      45.335  26.963  36.548  1.00  0.00     0.198 A 
ATOM     98  F   UNL A   1      42.989  27.117  36.539  1.00  0.00    -0.203 F 
ATOM     99  F   UNL A   1      47.850  29.112  35.068  1.00  0.00    -0.200 F 
ATOM    100  C   UNL A   1      46.574  27.464  36.179  1.00  0.00     0.200 A 
ATOM    101  F   UNL A   1      45.257  25.835  37.266  1.00  0.00    -0.200 F 
ATOM    102  F   UNL A   1      47.692  26.810  36.522  1.00  0.00    -0.200 F 
ENDBRANCH  69  92
ENDBRANCH  43  44
ENDBRANCH  36  38
ENDBRANCH  35  36
ENDBRANCH  34  35
ENDBRANCH  33  34
ENDBRANCH  32  33
ENDBRANCH  31  32
ENDBRANCH   1  31
TORSDOF 20
ENDMDL
MODEL 3
REMARK VINA RESULT:     -11.2      5.222     11.045
REMARK SMILES C[C@H](C(=O)OCCOCCOCCOC(=O)c1ccc(-c2c3nc(c(-c4c(F)c(F)c(F)c(F)c4F)c4ccc([nH]4)c(-c4c(F)c(F)c(F)c(F)c4F)c4nc(c(-c5c(F)c(F)c(F)c(F)c5F)c5ccc2[nH]5)C=C4)C=C3)cc1)N1C(=O)C[C@@H](N2C(=O)/C(=C/c3ccccc3)SC2=S)C1=O
REMARK SMILES IDX 9 1 8 2 7 3 6 4 5 5 3 6 4 7 2 8 1 9 80 10 81 11 99 12 82 13
REMARK SMILES IDX 83 14 84 15 100 16 85 17 86 18 97 19 87 20 88 21 96 22 98 23
REMARK SMILES IDX 89 24 90 25 91 26 95 27 92 28 94 29 93 30 10 31 11 32 12 33
REMARK SMILES IDX 13 34 14 35 15 36 16 37 17 38 18 39 79 40 19 41 78 42 20 43
REMARK SMILES IDX 21 44 22 45 72 46 23 47 77 48 71 49 73 50 24 51 76 52 70 53
REMARK SMILES IDX 69 54 25 56 57 57 37 58 56 59 38 60 41 61 55 62 74 63 39 64
REMARK SMILES IDX 40 65 54 67 75 68 42 69 26 70 27 71 35 72 28 73 29 74 33 75
REMARK SMILES IDX 36 76 30 77 31 78 34 79 32 80 58 81 59 82 67 83 60 84 61 85
REMARK SMILES IDX 65 86 68 87 62 88 63 89 66 90 64 91 43 92 44 93 52 94 45 95
REMARK SMILES IDX 46 96 50 97 53 98 47 99 48 100 51 101 49 102
REMARK H PARENT 73 55 41 66
REMARK Flexibility Score: inf
ROOT
ATOM      1  C   UNL A   1      34.057  31.912  28.041  1.00  0.00     0.188 C 
ENDROOT
BRANCH   1   2
ATOM      2  O   UNL A   1      33.650  30.555  27.869  1.00  0.00    -0.376 OA
BRANCH   2   3
ATOM      3  C   UNL A   1      34.543  29.638  27.260  1.00  0.00     0.202 C 
BRANCH   3   4
ATOM      4  C   UNL A   1      33.886  28.551  26.401  1.00  0.00     0.261 C 
BRANCH   4   5
ATOM      5  O   UNL A   1      32.460  28.674  26.224  1.00  0.00    -0.462 OA
BRANCH   5   6
ATOM      6  C   UNL A   1      31.766  27.505  26.171  1.00  0.00     0.329 C 
ATOM      7  O   UNL A   1      31.565  26.777  27.138  1.00  0.00    -0.250 OA
BRANCH   6   8
ATOM      8  C   UNL A   1      31.168  27.195  24.787  1.00  0.00     0.200 C 
ATOM      9  C   UNL A   1      30.808  28.489  24.062  1.00  0.00     0.044 C 
BRANCH   8  10
ATOM     10  N   UNL A   1      31.918  26.252  23.952  1.00  0.00    -0.267 N 
ATOM     11  C   UNL A   1      33.095  26.483  23.303  1.00  0.00     0.232 C 
ATOM     12  C   UNL A   1      31.461  24.984  23.733  1.00  0.00     0.253 C 
ATOM     13  O   UNL A   1      33.634  27.565  23.119  1.00  0.00    -0.274 OA
ATOM     14  C   UNL A   1      33.644  25.192  22.762  1.00  0.00     0.136 C 
ATOM     15  C   UNL A   1      32.479  24.229  22.904  1.00  0.00     0.191 C 
ATOM     16  O   UNL A   1      30.410  24.507  24.139  1.00  0.00    -0.272 OA
BRANCH  15  17
ATOM     17  N   UNL A   1      32.742  22.964  23.597  1.00  0.00    -0.280 N 
ATOM     18  C   UNL A   1      32.384  21.780  22.973  1.00  0.00     0.266 C 
ATOM     19  C   UNL A   1      33.458  22.842  24.770  1.00  0.00     0.149 C 
ATOM     20  O   UNL A   1      31.779  21.692  21.914  1.00  0.00    -0.268 OA
ATOM     21  C   UNL A   1      32.866  20.615  23.746  1.00  0.00     0.081 C 
ATOM     22  S   UNL A   1      33.680  21.141  25.160  1.00  0.00    -0.054 SA
ATOM     23  S   UNL A   1      34.030  24.058  25.756  1.00  0.00    -0.052 S 
ATOM     24  C   UNL A   1      32.667  19.366  23.305  1.00  0.00     0.029 C 
BRANCH  24  25
ATOM     25  C   UNL A   1      33.056  18.142  24.007  1.00  0.00    -0.024 A 
ATOM     26  C   UNL A   1      32.517  17.858  25.267  1.00  0.00     0.008 A 
ATOM     27  C   UNL A   1      34.003  17.274  23.451  1.00  0.00     0.008 A 
ATOM     28  C   UNL A   1      32.905  16.701  25.947  1.00  0.00     0.001 A 
ATOM     29  C   UNL A   1      34.385  16.119  24.130  1.00  0.00     0.001 A 
ATOM     30  C   UNL A   1      33.835  15.832  25.377  1.00  0.00     0.000 A 
ENDBRANCH  24  25
ENDBRANCH  15  17
ENDBRANCH   8  10
ENDBRANCH   6   8
ENDBRANCH   5   6
ENDBRANCH   4   5
ENDBRANCH   3   4
ENDBRANCH   2   3
ENDBRANCH   1   2
BRANCH   1  31
ATOM     31  C   UNL A   1      34.825  32.336  29.300  1.00  0.00     0.188 C 
BRANCH  31  32
ATOM     32  O   UNL A   1      34.032  33.162  30.150  1.00  0.00    -0.376 OA
BRANCH  32  33
ATOM     33  C   UNL A   1      34.735  33.716  31.253  1.00  0.00     0.202 C 
BRANCH  33  34
ATOM     34  C   UNL A   1      34.752  32.721  32.416  1.00  0.00     0.261 C 
BRANCH  34  35
ATOM     35  O   UNL A   1      35.780  31.717  32.308  1.00  0.00    -0.460 OA
BRANCH  35  36
ATOM     36  C   UNL A   1      36.842  31.847  33.127  1.00  0.00     0.338 C 
ATOM     37  O   UNL A   1      36.824  31.955  34.347  1.00  0.00    -0.246 OA
BRANCH  36  38
ATOM     38  C   UNL A   1      38.072  31.699  32.324  1.00  0.00     0.060 A 
ATOM     39  C   UNL A   1      38.070  32.113  30.986  1.00  0.00     0.016 A 
ATOM     40  C   UNL A   1      39.219  31.129  32.884  1.00  0.00     0.016 A 
ATOM     41  C   UNL A   1      39.207  31.921  30.194  1.00  0.00     0.010 A 
ATOM     42  C   UNL A   1      40.350  30.928  32.088  1.00  0.00     0.010 A 
ATOM     43  C   UNL A   1      40.341  31.294  30.730  1.00  0.00    -0.014 A 
BRANCH  43  44
ATOM     44  C   UNL A   1      41.458  30.861  29.852  1.00  0.00     0.031 A 
ATOM     45  C   UNL A   1      41.424  29.472  29.274  1.00  0.00     0.074 A 
ATOM     46  C   UNL A   1      42.498  31.669  29.582  1.00  0.00     0.049 A 
ATOM     47  N   UNL A   1      42.325  28.838  28.567  1.00  0.00    -0.248 NA
ATOM     48  C   UNL A   1      40.206  28.689  29.537  1.00  0.00     0.031 C 
ATOM     49  C   UNL A   1      42.643  33.045  30.048  1.00  0.00     0.029 A 
ATOM     50  N   UNL A   1      43.644  31.433  28.860  1.00  0.00    -0.354 N 
ATOM     51  C   UNL A   1      41.787  27.585  28.305  1.00  0.00     0.074 A 
ATOM     52  C   UNL A   1      40.494  27.535  28.953  1.00  0.00     0.031 C 
ATOM     53  C   UNL A   1      43.821  33.528  29.616  1.00  0.00     0.029 A 
ATOM     54  C   UNL A   1      44.528  32.484  28.874  1.00  0.00     0.049 A 
ATOM     55  H   UNL A   1      43.813  30.592  28.379  1.00  0.00     0.167 HD
ATOM     56  C   UNL A   1      42.318  26.569  27.583  1.00  0.00     0.037 A 
ATOM     57  C   UNL A   1      45.776  32.579  28.372  1.00  0.00     0.037 A 
ATOM     58  C   UNL A   1      43.606  26.608  26.944  1.00  0.00     0.049 A 
ATOM     59  C   UNL A   1      46.378  31.406  27.638  1.00  0.00     0.074 A 
ATOM     60  C   UNL A   1      44.225  25.630  26.186  1.00  0.00     0.029 A 
ATOM     61  N   UNL A   1      44.479  27.684  26.997  1.00  0.00    -0.354 N 
ATOM     62  N   UNL A   1      45.855  30.233  27.376  1.00  0.00    -0.248 NA
ATOM     63  C   UNL A   1      47.749  31.573  27.129  1.00  0.00     0.031 C 
ATOM     64  C   UNL A   1      45.491  26.094  25.819  1.00  0.00     0.029 A 
ATOM     65  C   UNL A   1      45.641  27.384  26.303  1.00  0.00     0.049 A 
ATOM     66  H   UNL A   1      44.301  28.535  27.459  1.00  0.00     0.167 HD
ATOM     67  C   UNL A   1      46.815  29.536  26.650  1.00  0.00     0.074 A 
ATOM     68  C   UNL A   1      47.950  30.422  26.502  1.00  0.00     0.031 C 
ATOM     69  C   UNL A   1      46.761  28.277  26.151  1.00  0.00     0.037 A 
BRANCH  56  70
ATOM     70  C   UNL A   1      41.507  25.312  27.468  1.00  0.00     0.064 A 
ATOM     71  C   UNL A   1      40.392  25.231  26.620  1.00  0.00     0.173 A 
ATOM     72  C   UNL A   1      41.868  24.165  28.191  1.00  0.00     0.173 A 
ATOM     73  F   UNL A   1      39.999  26.303  25.917  1.00  0.00    -0.203 F 
ATOM     74  C   UNL A   1      39.652  24.055  26.521  1.00  0.00     0.198 A 
ATOM     75  C   UNL A   1      41.142  22.983  28.068  1.00  0.00     0.198 A 
ATOM     76  F   UNL A   1      42.928  24.188  29.013  1.00  0.00    -0.203 F 
ATOM     77  F   UNL A   1      38.563  24.014  25.741  1.00  0.00    -0.200 F 
ATOM     78  C   UNL A   1      40.032  22.931  27.240  1.00  0.00     0.200 A 
ATOM     79  F   UNL A   1      41.517  21.894  28.754  1.00  0.00    -0.200 F 
ATOM     80  F   UNL A   1      39.321  21.799  27.140  1.00  0.00    -0.200 F 
ENDBRANCH  56  70
BRANCH  57  81
ATOM     81  C   UNL A   1      46.561  33.827  28.561  1.00  0.00     0.064 A 
ATOM     82  C   UNL A   1      46.493  34.873  27.630  1.00  0.00     0.173 A 
ATOM     83  C   UNL A   1      47.423  33.984  29.657  1.00  0.00     0.173 A 
ATOM     84  F   UNL A   1      45.710  34.756  26.548  1.00  0.00    -0.203 F 
ATOM     85  C   UNL A   1      47.270  36.021  27.778  1.00  0.00     0.198 A 
ATOM     86  C   UNL A   1      48.178  35.144  29.820  1.00  0.00     0.198 A 
ATOM     87  F   UNL A   1      47.532  33.008  30.570  1.00  0.00    -0.203 F 
ATOM     88  F   UNL A   1      47.228  36.981  26.845  1.00  0.00    -0.200 F 
ATOM     89  C   UNL A   1      48.107  36.157  28.876  1.00  0.00     0.200 A 
ATOM     90  F   UNL A   1      48.982  35.274  30.884  1.00  0.00    -0.200 F 
ATOM     91  F   UNL A   1      48.857  37.259  29.016  1.00  0.00    -0.200 F 
ENDBRANCH  57  81
BRANCH  69  92
ATOM     92  C   UNL A   1      47.941  27.789  25.360  1.00  0.00     0.064 A 
ATOM     93  C   UNL A   1      47.950  27.806  23.957  1.00  0.00     0.173 A 
ATOM     94  C   UNL A   1      49.100  27.344  26.018  1.00  0.00     0.173 A 
ATOM     95  F   UNL A   1      46.864  28.210  23.281  1.00  0.00    -0.203 F 
ATOM     96  C   UNL A   1      49.065  27.375  23.243  1.00  0.00     0.198 A 
ATOM     97  C   UNL A   1      50.223  26.941  25.300  1.00  0.00     0.198 A 
ATOM     98  F   UNL A   1      49.147  27.315  27.357  1.00  0.00    -0.203 F 
ATOM     99  F   UNL A   1      49.034  27.360  21.902  1.00  0.00    -0.200 F 
ATOM    100  C   UNL A   1      50.202  26.950  23.913  1.00  0.00     0.200 A 
ATOM    101  F   UNL A   1      51.325  26.545  25.950  1.00  0.00    -0.200 F 
ATOM    102  F   UNL A   1      51.277  26.545  23.223  1.00  0.00    -0.200 F 
ENDBRANCH  69  92
ENDBRANCH  43  44
ENDBRANCH  36  38
ENDBRANCH  35  36
ENDBRANCH  34  35
ENDBRANCH  33  34
ENDBRANCH  32  33
ENDBRANCH  31  32
ENDBRANCH   1  31
TORSDOF 20
ENDMDL
