MODEL 1
REMARK VINA RESULT:     -11.8      0.000      0.000
REMARK SMILES O=C(OCCOCCOCCOC(=O)[C@@H]1CN(C(=O)[C@H]2CC=CCC2)c2ccccc2O1)c1ccc(-c2c3nc(c(-c4c(F)c(F)c(F)c(F)c4F)c4ccc([nH]4)c(-c4c(F)c(F)c(F)c(F)c4F)c4nc(c(-c5c(F)c(F)c(F)c(F)c5F)c5ccc2[nH]5)C=C4)C=C3)cc1
REMARK SMILES IDX 7 1 6 2 5 3 4 4 3 5 2 6 1 7 33 8 34 9 95 10 35 11 94 12
REMARK SMILES IDX 36 13 37 14 38 15 88 16 39 17 93 18 87 19 89 20 40 21 92 22
REMARK SMILES IDX 86 23 85 24 41 26 73 27 53 28 72 29 54 30 57 31 71 32 90 33
REMARK SMILES IDX 55 34 56 35 70 37 91 38 58 39 42 40 43 41 51 42 44 43 45 44
REMARK SMILES IDX 49 45 52 46 46 47 47 48 50 49 48 50 74 51 75 52 83 53 76 54
REMARK SMILES IDX 77 55 81 56 84 57 78 58 79 59 82 60 80 61 59 62 60 63 68 64
REMARK SMILES IDX 61 65 62 66 66 67 69 68 63 69 64 70 67 71 65 72 8 73 9 74
REMARK SMILES IDX 10 75 11 76 12 77 13 78 14 79 15 80 16 81 32 82 17 83 31 84
REMARK SMILES IDX 26 85 30 86 27 87 29 88 28 89 18 90 19 91 20 92 21 93 25 94
REMARK SMILES IDX 22 95 24 96 23 97
REMARK H PARENT 89 25 57 36
REMARK Flexibility Score: inf
ROOT
ATOM      1  C   UNL A   1      34.285  22.317  27.128  1.00  0.00     0.188 C 
ENDROOT
BRANCH   1   2
ATOM      2  O   UNL A   1      34.937  21.318  26.345  1.00  0.00    -0.376 OA
BRANCH   2   3
ATOM      3  C   UNL A   1      36.055  21.746  25.569  1.00  0.00     0.202 C 
BRANCH   3   4
ATOM      4  C   UNL A   1      37.209  20.745  25.444  1.00  0.00     0.261 C 
BRANCH   4   5
ATOM      5  O   UNL A   1      38.537  21.292  25.371  1.00  0.00    -0.460 OA
BRANCH   5   6
ATOM      6  C   UNL A   1      39.463  21.563  26.316  1.00  0.00     0.338 C 
ATOM      7  O   UNL A   1      39.963  20.608  26.912  1.00  0.00    -0.246 OA
BRANCH   6   8
ATOM      8  C   UNL A   1      39.910  22.932  26.728  1.00  0.00     0.060 A 
ATOM      9  C   UNL A   1      39.413  24.139  26.235  1.00  0.00     0.016 A 
ATOM     10  C   UNL A   1      40.924  22.998  27.707  1.00  0.00     0.016 A 
ATOM     11  C   UNL A   1      39.862  25.362  26.717  1.00  0.00     0.010 A 
ATOM     12  C   UNL A   1      41.440  24.221  28.143  1.00  0.00     0.010 A 
ATOM     13  C   UNL A   1      40.918  25.405  27.624  1.00  0.00    -0.014 A 
BRANCH  13  14
ATOM     14  C   UNL A   1      41.643  26.681  27.743  1.00  0.00     0.031 A 
ATOM     15  C   UNL A   1      41.021  27.725  28.619  1.00  0.00     0.074 A 
ATOM     16  C   UNL A   1      42.859  26.835  27.200  1.00  0.00     0.049 A 
ATOM     17  N   UNL A   1      41.444  28.921  28.920  1.00  0.00    -0.248 NA
ATOM     18  C   UNL A   1      39.738  27.363  29.249  1.00  0.00     0.031 C 
ATOM     19  C   UNL A   1      43.558  25.818  26.422  1.00  0.00     0.029 A 
ATOM     20  N   UNL A   1      43.743  27.877  27.271  1.00  0.00    -0.354 N 
ATOM     21  C   UNL A   1      40.450  29.473  29.717  1.00  0.00     0.074 A 
ATOM     22  C   UNL A   1      39.432  28.469  29.904  1.00  0.00     0.031 C 
ATOM     23  C   UNL A   1      44.799  26.256  26.153  1.00  0.00     0.029 A 
ATOM     24  C   UNL A   1      44.952  27.610  26.679  1.00  0.00     0.049 A 
ATOM     25  H   UNL A   1      43.533  28.735  27.707  1.00  0.00     0.167 HD
ATOM     26  C   UNL A   1      40.378  30.737  30.195  1.00  0.00     0.037 A 
ATOM     27  C   UNL A   1      46.045  28.391  26.576  1.00  0.00     0.037 A 
ATOM     28  C   UNL A   1      41.403  31.714  29.956  1.00  0.00     0.049 A 
ATOM     29  C   UNL A   1      45.953  29.794  27.127  1.00  0.00     0.074 A 
ATOM     30  C   UNL A   1      41.422  33.053  30.287  1.00  0.00     0.029 A 
ATOM     31  N   UNL A   1      42.602  31.439  29.305  1.00  0.00    -0.354 N 
ATOM     32  N   UNL A   1      44.973  30.356  27.799  1.00  0.00    -0.248 NA
ATOM     33  C   UNL A   1      47.089  30.687  26.871  1.00  0.00     0.031 C 
ATOM     34  C   UNL A   1      42.606  33.602  29.785  1.00  0.00     0.029 A 
ATOM     35  C   UNL A   1      43.362  32.589  29.211  1.00  0.00     0.049 A 
ATOM     36  H   UNL A   1      42.868  30.555  28.963  1.00  0.00     0.167 HD
ATOM     37  C   UNL A   1      45.364  31.666  28.032  1.00  0.00     0.074 A 
ATOM     38  C   UNL A   1      46.692  31.805  27.465  1.00  0.00     0.031 C 
ATOM     39  C   UNL A   1      44.684  32.673  28.637  1.00  0.00     0.037 A 
BRANCH  26  40
ATOM     40  C   UNL A   1      39.093  31.133  30.862  1.00  0.00     0.064 A 
ATOM     41  C   UNL A   1      38.904  31.052  32.251  1.00  0.00     0.173 A 
ATOM     42  C   UNL A   1      37.993  31.509  30.075  1.00  0.00     0.173 A 
ATOM     43  F   UNL A   1      39.910  30.660  33.047  1.00  0.00    -0.203 F 
ATOM     44  C   UNL A   1      37.651  31.281  32.818  1.00  0.00     0.198 A 
ATOM     45  C   UNL A   1      36.753  31.772  30.648  1.00  0.00     0.198 A 
ATOM     46  F   UNL A   1      38.111  31.591  28.741  1.00  0.00    -0.203 F 
ATOM     47  F   UNL A   1      37.471  31.106  34.135  1.00  0.00    -0.200 F 
ATOM     48  C   UNL A   1      36.577  31.642  32.016  1.00  0.00     0.200 A 
ATOM     49  F   UNL A   1      35.718  32.124  29.871  1.00  0.00    -0.200 F 
ATOM     50  F   UNL A   1      35.369  31.841  32.561  1.00  0.00    -0.200 F 
ENDBRANCH  26  40
BRANCH  27  51
ATOM     51  C   UNL A   1      47.280  27.880  25.919  1.00  0.00     0.064 A 
ATOM     52  C   UNL A   1      48.366  27.413  26.676  1.00  0.00     0.173 A 
ATOM     53  C   UNL A   1      47.400  27.821  24.522  1.00  0.00     0.173 A 
ATOM     54  F   UNL A   1      48.321  27.468  28.016  1.00  0.00    -0.203 F 
ATOM     55  C   UNL A   1      49.514  26.912  26.063  1.00  0.00     0.198 A 
ATOM     56  C   UNL A   1      48.532  27.283  23.911  1.00  0.00     0.198 A 
ATOM     57  F   UNL A   1      46.403  28.263  23.741  1.00  0.00    -0.203 F 
ATOM     58  F   UNL A   1      50.550  26.511  26.813  1.00  0.00    -0.200 F 
ATOM     59  C   UNL A   1      49.591  26.835  24.682  1.00  0.00     0.200 A 
ATOM     60  F   UNL A   1      48.591  27.196  22.575  1.00  0.00    -0.200 F 
ATOM     61  F   UNL A   1      50.688  26.337  24.094  1.00  0.00    -0.200 F 
ENDBRANCH  27  51
BRANCH  39  62
ATOM     62  C   UNL A   1      45.367  34.005  28.733  1.00  0.00     0.064 A 
ATOM     63  C   UNL A   1      46.205  34.324  29.809  1.00  0.00     0.173 A 
ATOM     64  C   UNL A   1      45.265  34.923  27.677  1.00  0.00     0.173 A 
ATOM     65  F   UNL A   1      46.329  33.479  30.844  1.00  0.00    -0.203 F 
ATOM     66  C   UNL A   1      46.912  35.522  29.830  1.00  0.00     0.198 A 
ATOM     67  C   UNL A   1      45.996  36.105  27.688  1.00  0.00     0.198 A 
ATOM     68  F   UNL A   1      44.483  34.655  26.620  1.00  0.00    -0.203 F 
ATOM     69  F   UNL A   1      47.689  35.822  30.881  1.00  0.00    -0.200 F 
ATOM     70  C   UNL A   1      46.817  36.406  28.764  1.00  0.00     0.200 A 
ATOM     71  F   UNL A   1      45.919  36.948  26.647  1.00  0.00    -0.200 F 
ATOM     72  F   UNL A   1      47.517  37.547  28.775  1.00  0.00    -0.200 F 
ENDBRANCH  39  62
ENDBRANCH  13  14
ENDBRANCH   6   8
ENDBRANCH   5   6
ENDBRANCH   4   5
ENDBRANCH   3   4
ENDBRANCH   2   3
ENDBRANCH   1   2
BRANCH   1  73
ATOM     73  C   UNL A   1      33.433  23.316  26.345  1.00  0.00     0.188 C 
BRANCH  73  74
ATOM     74  O   UNL A   1      32.477  22.656  25.534  1.00  0.00    -0.376 OA
BRANCH  74  75
ATOM     75  C   UNL A   1      32.727  22.694  24.143  1.00  0.00     0.202 C 
BRANCH  75  76
ATOM     76  C   UNL A   1      31.570  22.757  23.118  1.00  0.00     0.261 C 
BRANCH  76  77
ATOM     77  O   UNL A   1      30.572  23.787  23.130  1.00  0.00    -0.460 OA
BRANCH  77  78
ATOM     78  C   UNL A   1      31.001  25.063  23.234  1.00  0.00     0.349 C 
ATOM     79  O   UNL A   1      31.640  25.645  22.359  1.00  0.00    -0.248 OA
BRANCH  78  80
ATOM     80  C   UNL A   1      30.689  25.733  24.568  1.00  0.00     0.302 C 
ATOM     81  C   UNL A   1      29.533  26.715  24.334  1.00  0.00     0.183 C 
ATOM     82  O   UNL A   1      31.771  26.283  25.305  1.00  0.00    -0.475 OA
ATOM     83  N   UNL A   1      30.007  28.004  23.808  1.00  0.00    -0.304 N 
ATOM     84  C   UNL A   1      31.778  27.647  25.464  1.00  0.00     0.144 A 
ATOM     85  C   UNL A   1      30.979  28.543  24.728  1.00  0.00     0.086 A 
ATOM     86  C   UNL A   1      32.671  28.117  26.432  1.00  0.00     0.049 A 
ATOM     87  C   UNL A   1      31.104  29.914  24.994  1.00  0.00     0.030 A 
ATOM     88  C   UNL A   1      32.762  29.479  26.703  1.00  0.00     0.004 A 
ATOM     89  C   UNL A   1      31.983  30.376  25.980  1.00  0.00     0.002 A 
BRANCH  83  90
ATOM     90  C   UNL A   1      29.632  28.687  22.655  1.00  0.00     0.230 C 
ATOM     91  O   UNL A   1      30.430  28.818  21.710  1.00  0.00    -0.274 OA
BRANCH  90  92
ATOM     92  C   UNL A   1      28.242  29.327  22.379  1.00  0.00     0.083 C 
ATOM     93  C   UNL A   1      27.278  29.772  23.471  1.00  0.00     0.040 C 
ATOM     94  C   UNL A   1      28.309  30.394  21.282  1.00  0.00     0.018 C 
ATOM     95  C   UNL A   1      27.407  31.223  23.853  1.00  0.00    -0.030 C 
ATOM     96  C   UNL A   1      28.780  31.740  21.829  1.00  0.00     0.028 C 
ATOM     97  C   UNL A   1      28.121  32.100  23.129  1.00  0.00    -0.031 C 
ENDBRANCH  90  92
ENDBRANCH  83  90
ENDBRANCH  78  80
ENDBRANCH  77  78
ENDBRANCH  76  77
ENDBRANCH  75  76
ENDBRANCH  74  75
ENDBRANCH  73  74
ENDBRANCH   1  73
TORSDOF 19
ENDMDL
MODEL 2
REMARK VINA RESULT:     -11.7      0.927      7.195
REMARK SMILES O=C(OCCOCCOCCOC(=O)[C@@H]1CN(C(=O)[C@H]2CC=CCC2)c2ccccc2O1)c1ccc(-c2c3nc(c(-c4c(F)c(F)c(F)c(F)c4F)c4ccc([nH]4)c(-c4c(F)c(F)c(F)c(F)c4F)c4nc(c(-c5c(F)c(F)c(F)c(F)c5F)c5ccc2[nH]5)C=C4)C=C3)cc1
REMARK SMILES IDX 7 1 6 2 5 3 4 4 3 5 2 6 1 7 33 8 34 9 95 10 35 11 94 12
REMARK SMILES IDX 36 13 37 14 38 15 88 16 39 17 93 18 87 19 89 20 40 21 92 22
REMARK SMILES IDX 86 23 85 24 41 26 73 27 53 28 72 29 54 30 57 31 71 32 90 33
REMARK SMILES IDX 55 34 56 35 70 37 91 38 58 39 42 40 43 41 51 42 44 43 45 44
REMARK SMILES IDX 49 45 52 46 46 47 47 48 50 49 48 50 74 51 75 52 83 53 76 54
REMARK SMILES IDX 77 55 81 56 84 57 78 58 79 59 82 60 80 61 59 62 60 63 68 64
REMARK SMILES IDX 61 65 62 66 66 67 69 68 63 69 64 70 67 71 65 72 8 73 9 74
REMARK SMILES IDX 10 75 11 76 12 77 13 78 14 79 15 80 16 81 32 82 17 83 31 84
REMARK SMILES IDX 26 85 30 86 27 87 29 88 28 89 18 90 19 91 20 92 21 93 25 94
REMARK SMILES IDX 22 95 24 96 23 97
REMARK H PARENT 89 25 57 36
REMARK Flexibility Score: inf
ROOT
ATOM      1  C   UNL A   1      34.420  21.437  24.904  1.00  0.00     0.188 C 
ENDROOT
BRANCH   1   2
ATOM      2  O   UNL A   1      35.248  20.461  25.536  1.00  0.00    -0.376 OA
BRANCH   2   3
ATOM      3  C   UNL A   1      36.507  20.201  24.919  1.00  0.00     0.202 C 
BRANCH   3   4
ATOM      4  C   UNL A   1      37.660  21.125  25.329  1.00  0.00     0.261 C 
BRANCH   4   5
ATOM      5  O   UNL A   1      38.924  20.499  25.613  1.00  0.00    -0.460 OA
BRANCH   5   6
ATOM      6  C   UNL A   1      39.968  20.867  26.388  1.00  0.00     0.338 C 
ATOM      7  O   UNL A   1      40.766  19.989  26.718  1.00  0.00    -0.246 OA
BRANCH   6   8
ATOM      8  C   UNL A   1      40.220  22.249  26.909  1.00  0.00     0.060 A 
ATOM      9  C   UNL A   1      39.565  23.411  26.500  1.00  0.00     0.016 A 
ATOM     10  C   UNL A   1      41.209  22.377  27.908  1.00  0.00     0.016 A 
ATOM     11  C   UNL A   1      39.838  24.643  27.081  1.00  0.00     0.010 A 
ATOM     12  C   UNL A   1      41.548  23.621  28.444  1.00  0.00     0.010 A 
ATOM     13  C   UNL A   1      40.872  24.760  28.006  1.00  0.00    -0.014 A 
BRANCH  13  14
ATOM     14  C   UNL A   1      41.415  26.109  28.233  1.00  0.00     0.031 A 
ATOM     15  C   UNL A   1      42.719  26.427  27.566  1.00  0.00     0.074 A 
ATOM     16  C   UNL A   1      40.704  27.036  28.890  1.00  0.00     0.049 A 
ATOM     17  N   UNL A   1      43.412  27.532  27.575  1.00  0.00    -0.248 NA
ATOM     18  C   UNL A   1      43.323  25.342  26.772  1.00  0.00     0.031 C 
ATOM     19  C   UNL A   1      39.385  26.813  29.474  1.00  0.00     0.029 A 
ATOM     20  N   UNL A   1      40.962  28.359  29.125  1.00  0.00    -0.354 N 
ATOM     21  C   UNL A   1      44.560  27.251  26.846  1.00  0.00     0.074 A 
ATOM     22  C   UNL A   1      44.448  25.898  26.360  1.00  0.00     0.031 C 
ATOM     23  C   UNL A   1      38.911  27.984  29.931  1.00  0.00     0.029 A 
ATOM     24  C   UNL A   1      39.923  29.019  29.736  1.00  0.00     0.049 A 
ATOM     25  H   UNL A   1      41.808  28.796  28.877  1.00  0.00     0.167 HD
ATOM     26  C   UNL A   1      45.638  28.046  26.659  1.00  0.00     0.037 A 
ATOM     27  C   UNL A   1      39.827  30.313  30.097  1.00  0.00     0.037 A 
ATOM     28  C   UNL A   1      45.718  29.378  27.191  1.00  0.00     0.049 A 
ATOM     29  C   UNL A   1      41.035  31.192  29.868  1.00  0.00     0.074 A 
ATOM     30  C   UNL A   1      46.779  30.260  27.171  1.00  0.00     0.029 A 
ATOM     31  N   UNL A   1      44.674  30.013  27.857  1.00  0.00    -0.354 N 
ATOM     32  N   UNL A   1      42.165  30.902  29.264  1.00  0.00    -0.248 NA
ATOM     33  C   UNL A   1      40.978  32.556  30.407  1.00  0.00     0.031 C 
ATOM     34  C   UNL A   1      46.397  31.406  27.875  1.00  0.00     0.029 A 
ATOM     35  C   UNL A   1      45.071  31.271  28.266  1.00  0.00     0.049 A 
ATOM     36  H   UNL A   1      43.784  29.622  28.012  1.00  0.00     0.167 HD
ATOM     37  C   UNL A   1      42.959  32.035  29.362  1.00  0.00     0.074 A 
ATOM     38  C   UNL A   1      42.162  33.035  30.049  1.00  0.00     0.031 C 
ATOM     39  C   UNL A   1      44.235  32.232  28.946  1.00  0.00     0.037 A 
BRANCH  26  40
ATOM     40  C   UNL A   1      46.832  27.420  25.998  1.00  0.00     0.064 A 
ATOM     41  C   UNL A   1      47.830  26.746  26.719  1.00  0.00     0.173 A 
ATOM     42  C   UNL A   1      47.026  27.591  24.618  1.00  0.00     0.173 A 
ATOM     43  F   UNL A   1      47.714  26.589  28.046  1.00  0.00    -0.203 F 
ATOM     44  C   UNL A   1      48.997  26.313  26.092  1.00  0.00     0.198 A 
ATOM     45  C   UNL A   1      48.177  27.125  23.989  1.00  0.00     0.198 A 
ATOM     46  F   UNL A   1      46.112  28.239  23.880  1.00  0.00    -0.203 F 
ATOM     47  F   UNL A   1      49.977  25.754  26.817  1.00  0.00    -0.200 F 
ATOM     48  C   UNL A   1      49.169  26.502  24.728  1.00  0.00     0.200 A 
ATOM     49  F   UNL A   1      48.338  27.306  22.670  1.00  0.00    -0.200 F 
ATOM     50  F   UNL A   1      50.302  26.103  24.132  1.00  0.00    -0.200 F 
ENDBRANCH  26  40
BRANCH  27  51
ATOM     51  C   UNL A   1      38.578  30.834  30.718  1.00  0.00     0.064 A 
ATOM     52  C   UNL A   1      37.519  31.309  29.930  1.00  0.00     0.173 A 
ATOM     53  C   UNL A   1      38.399  30.847  32.110  1.00  0.00     0.173 A 
ATOM     54  F   UNL A   1      37.641  31.345  28.594  1.00  0.00    -0.203 F 
ATOM     55  C   UNL A   1      36.338  31.775  30.509  1.00  0.00     0.198 A 
ATOM     56  C   UNL A   1      37.203  31.276  32.685  1.00  0.00     0.198 A 
ATOM     57  F   UNL A   1      39.378  30.417  32.920  1.00  0.00    -0.203 F 
ATOM     58  F   UNL A   1      35.360  32.260  29.731  1.00  0.00    -0.200 F 
ATOM     59  C   UNL A   1      36.176  31.746  31.885  1.00  0.00     0.200 A 
ATOM     60  F   UNL A   1      37.048  31.228  34.016  1.00  0.00    -0.200 F 
ATOM     61  F   UNL A   1      35.035  32.177  32.439  1.00  0.00    -0.200 F 
ENDBRANCH  27  51
BRANCH  39  62
ATOM     62  C   UNL A   1      44.846  33.578  29.205  1.00  0.00     0.064 A 
ATOM     63  C   UNL A   1      45.606  33.830  30.355  1.00  0.00     0.173 A 
ATOM     64  C   UNL A   1      44.759  34.586  28.233  1.00  0.00     0.173 A 
ATOM     65  F   UNL A   1      45.713  32.897  31.313  1.00  0.00    -0.203 F 
ATOM     66  C   UNL A   1      46.251  35.050  30.527  1.00  0.00     0.198 A 
ATOM     67  C   UNL A   1      45.430  35.792  28.396  1.00  0.00     0.198 A 
ATOM     68  F   UNL A   1      44.052  34.384  27.111  1.00  0.00    -0.203 F 
ATOM     69  F   UNL A   1      46.953  35.283  31.646  1.00  0.00    -0.200 F 
ATOM     70  C   UNL A   1      46.173  36.025  29.543  1.00  0.00     0.200 A 
ATOM     71  F   UNL A   1      45.370  36.725  27.434  1.00  0.00    -0.200 F 
ATOM     72  F   UNL A   1      46.815  37.190  29.701  1.00  0.00    -0.200 F 
ENDBRANCH  39  62
ENDBRANCH  13  14
ENDBRANCH   6   8
ENDBRANCH   5   6
ENDBRANCH   4   5
ENDBRANCH   3   4
ENDBRANCH   2   3
ENDBRANCH   1   2
BRANCH   1  73
ATOM     73  C   UNL A   1      33.041  20.946  24.465  1.00  0.00     0.188 C 
BRANCH  73  74
ATOM     74  O   UNL A   1      32.565  21.675  23.347  1.00  0.00    -0.376 OA
BRANCH  74  75
ATOM     75  C   UNL A   1      33.427  22.688  22.868  1.00  0.00     0.202 C 
BRANCH  75  76
ATOM     76  C   UNL A   1      32.895  23.854  22.001  1.00  0.00     0.261 C 
BRANCH  76  77
ATOM     77  O   UNL A   1      31.944  24.814  22.483  1.00  0.00    -0.460 OA
BRANCH  77  78
ATOM     78  C   UNL A   1      32.432  25.948  23.029  1.00  0.00     0.349 C 
ATOM     79  O   UNL A   1      33.342  26.611  22.535  1.00  0.00    -0.248 OA
BRANCH  78  80
ATOM     80  C   UNL A   1      31.808  26.329  24.368  1.00  0.00     0.302 C 
ATOM     81  C   UNL A   1      30.490  27.057  24.075  1.00  0.00     0.183 C 
ATOM     82  O   UNL A   1      32.629  26.988  25.321  1.00  0.00    -0.475 OA
ATOM     83  N   UNL A   1      30.703  28.481  23.780  1.00  0.00    -0.304 N 
ATOM     84  C   UNL A   1      32.293  28.282  25.635  1.00  0.00     0.144 A 
ATOM     85  C   UNL A   1      31.399  29.078  24.893  1.00  0.00     0.086 A 
ATOM     86  C   UNL A   1      32.923  28.788  26.777  1.00  0.00     0.049 A 
ATOM     87  C   UNL A   1      31.161  30.389  25.332  1.00  0.00     0.030 A 
ATOM     88  C   UNL A   1      32.653  30.081  27.213  1.00  0.00     0.004 A 
ATOM     89  C   UNL A   1      31.778  30.882  26.488  1.00  0.00     0.002 A 
BRANCH  83  90
ATOM     90  C   UNL A   1      30.320  29.227  22.670  1.00  0.00     0.230 C 
ATOM     91  O   UNL A   1      31.176  29.726  21.917  1.00  0.00    -0.274 OA
BRANCH  90  92
ATOM     92  C   UNL A   1      28.861  29.513  22.216  1.00  0.00     0.083 C 
ATOM     93  C   UNL A   1      27.656  29.474  23.147  1.00  0.00     0.040 C 
ATOM     94  C   UNL A   1      28.773  30.744  21.308  1.00  0.00     0.018 C 
ATOM     95  C   UNL A   1      27.292  30.809  23.740  1.00  0.00    -0.030 C 
ATOM     96  C   UNL A   1      28.738  32.041  22.114  1.00  0.00     0.028 C 
ATOM     97  C   UNL A   1      27.815  31.963  23.296  1.00  0.00    -0.031 C 
ENDBRANCH  90  92
ENDBRANCH  83  90
ENDBRANCH  78  80
ENDBRANCH  77  78
ENDBRANCH  76  77
ENDBRANCH  75  76
ENDBRANCH  74  75
ENDBRANCH  73  74
ENDBRANCH   1  73
TORSDOF 19
ENDMDL
MODEL 3
REMARK VINA RESULT:     -11.7      1.750      7.429
REMARK SMILES O=C(OCCOCCOCCOC(=O)[C@@H]1CN(C(=O)[C@H]2CC=CCC2)c2ccccc2O1)c1ccc(-c2c3nc(c(-c4c(F)c(F)c(F)c(F)c4F)c4ccc([nH]4)c(-c4c(F)c(F)c(F)c(F)c4F)c4nc(c(-c5c(F)c(F)c(F)c(F)c5F)c5ccc2[nH]5)C=C4)C=C3)cc1
REMARK SMILES IDX 7 1 6 2 5 3 4 4 3 5 2 6 1 7 33 8 34 9 95 10 35 11 94 12
REMARK SMILES IDX 36 13 37 14 38 15 88 16 39 17 93 18 87 19 89 20 40 21 92 22
REMARK SMILES IDX 86 23 85 24 41 26 73 27 53 28 72 29 54 30 57 31 71 32 90 33
REMARK SMILES IDX 55 34 56 35 70 37 91 38 58 39 42 40 43 41 51 42 44 43 45 44
REMARK SMILES IDX 49 45 52 46 46 47 47 48 50 49 48 50 74 51 75 52 83 53 76 54
REMARK SMILES IDX 77 55 81 56 84 57 78 58 79 59 82 60 80 61 59 62 60 63 68 64
REMARK SMILES IDX 61 65 62 66 66 67 69 68 63 69 64 70 67 71 65 72 8 73 9 74
REMARK SMILES IDX 10 75 11 76 12 77 13 78 14 79 15 80 16 81 32 82 17 83 31 84
REMARK SMILES IDX 26 85 30 86 27 87 29 88 28 89 18 90 19 91 20 92 21 93 25 94
REMARK SMILES IDX 22 95 24 96 23 97
REMARK H PARENT 89 25 57 36
REMARK Flexibility Score: inf
ROOT
ATOM      1  C   UNL A   1      36.085  21.765  25.088  1.00  0.00     0.188 C 
ENDROOT
BRANCH   1   2
ATOM      2  O   UNL A   1      37.077  21.128  24.284  1.00  0.00    -0.376 OA
BRANCH   2   3
ATOM      3  C   UNL A   1      37.733  20.000  24.859  1.00  0.00     0.202 C 
BRANCH   3   4
ATOM      4  C   UNL A   1      38.939  20.307  25.754  1.00  0.00     0.261 C 
BRANCH   4   5
ATOM      5  O   UNL A   1      40.020  19.359  25.736  1.00  0.00    -0.460 OA
BRANCH   5   6
ATOM      6  C   UNL A   1      41.340  19.477  25.999  1.00  0.00     0.338 C 
ATOM      7  O   UNL A   1      42.023  18.454  25.948  1.00  0.00    -0.246 OA
BRANCH   6   8
ATOM      8  C   UNL A   1      42.039  20.745  26.382  1.00  0.00     0.060 A 
ATOM      9  C   UNL A   1      42.348  21.150  27.680  1.00  0.00     0.016 A 
ATOM     10  C   UNL A   1      42.420  21.601  25.326  1.00  0.00     0.016 A 
ATOM     11  C   UNL A   1      43.044  22.327  27.930  1.00  0.00     0.010 A 
ATOM     12  C   UNL A   1      43.049  22.824  25.568  1.00  0.00     0.010 A 
ATOM     13  C   UNL A   1      43.338  23.194  26.881  1.00  0.00    -0.014 A 
BRANCH  13  14
ATOM     14  C   UNL A   1      43.644  24.590  27.236  1.00  0.00     0.031 A 
ATOM     15  C   UNL A   1      44.995  25.101  26.837  1.00  0.00     0.074 A 
ATOM     16  C   UNL A   1      42.706  25.388  27.764  1.00  0.00     0.049 A 
ATOM     17  N   UNL A   1      45.521  26.283  27.001  1.00  0.00    -0.248 NA
ATOM     18  C   UNL A   1      45.876  24.139  26.150  1.00  0.00     0.031 C 
ATOM     19  C   UNL A   1      41.344  24.973  28.081  1.00  0.00     0.029 A 
ATOM     20  N   UNL A   1      42.737  26.721  28.071  1.00  0.00    -0.354 N 
ATOM     21  C   UNL A   1      46.812  26.184  26.499  1.00  0.00     0.074 A 
ATOM     22  C   UNL A   1      46.974  24.851  25.972  1.00  0.00     0.031 C 
ATOM     23  C   UNL A   1      40.640  26.052  28.463  1.00  0.00     0.029 A 
ATOM     24  C   UNL A   1      41.524  27.215  28.486  1.00  0.00     0.049 A 
ATOM     25  H   UNL A   1      43.548  27.273  27.998  1.00  0.00     0.167 HD
ATOM     26  C   UNL A   1      47.790  27.118  26.537  1.00  0.00     0.037 A 
ATOM     27  C   UNL A   1      41.191  28.469  28.849  1.00  0.00     0.037 A 
ATOM     28  C   UNL A   1      47.591  28.423  27.102  1.00  0.00     0.049 A 
ATOM     29  C   UNL A   1      42.291  29.503  28.873  1.00  0.00     0.074 A 
ATOM     30  C   UNL A   1      48.509  29.433  27.302  1.00  0.00     0.029 A 
ATOM     31  N   UNL A   1      46.366  28.889  27.569  1.00  0.00    -0.354 N 
ATOM     32  N   UNL A   1      43.543  29.387  28.490  1.00  0.00    -0.248 NA
ATOM     33  C   UNL A   1      41.954  30.822  29.420  1.00  0.00     0.031 C 
ATOM     34  C   UNL A   1      47.853  30.488  27.945  1.00  0.00     0.029 A 
ATOM     35  C   UNL A   1      46.508  30.168  28.072  1.00  0.00     0.049 A 
ATOM     36  H   UNL A   1      45.522  28.382  27.544  1.00  0.00     0.167 HD
ATOM     37  C   UNL A   1      44.146  30.606  28.761  1.00  0.00     0.074 A 
ATOM     38  C   UNL A   1      43.108  31.465  29.304  1.00  0.00     0.031 C 
ATOM     39  C   UNL A   1      45.440  30.982  28.601  1.00  0.00     0.037 A 
BRANCH  26  40
ATOM     40  C   UNL A   1      49.159  26.679  26.103  1.00  0.00     0.064 A 
ATOM     41  C   UNL A   1      50.070  26.067  26.977  1.00  0.00     0.173 A 
ATOM     42  C   UNL A   1      49.599  26.974  24.803  1.00  0.00     0.173 A 
ATOM     43  F   UNL A   1      49.716  25.798  28.243  1.00  0.00    -0.203 F 
ATOM     44  C   UNL A   1      51.383  25.814  26.581  1.00  0.00     0.198 A 
ATOM     45  C   UNL A   1      50.899  26.687  24.400  1.00  0.00     0.198 A 
ATOM     46  F   UNL A   1      48.775  27.571  23.928  1.00  0.00    -0.203 F 
ATOM     47  F   UNL A   1      52.262  25.315  27.462  1.00  0.00    -0.200 F 
ATOM     48  C   UNL A   1      51.796  26.123  25.293  1.00  0.00     0.200 A 
ATOM     49  F   UNL A   1      51.294  26.983  23.153  1.00  0.00    -0.200 F 
ATOM     50  F   UNL A   1      53.064  25.899  24.922  1.00  0.00    -0.200 F 
ENDBRANCH  26  40
BRANCH  27  51
ATOM     51  C   UNL A   1      39.789  28.797  29.231  1.00  0.00     0.064 A 
ATOM     52  C   UNL A   1      38.882  29.310  28.291  1.00  0.00     0.173 A 
ATOM     53  C   UNL A   1      39.313  28.585  30.534  1.00  0.00     0.173 A 
ATOM     54  F   UNL A   1      39.285  29.557  27.036  1.00  0.00    -0.203 F 
ATOM     55  C   UNL A   1      37.562  29.596  28.641  1.00  0.00     0.198 A 
ATOM     56  C   UNL A   1      37.983  28.835  30.872  1.00  0.00     0.198 A 
ATOM     57  F   UNL A   1      40.134  28.108  31.482  1.00  0.00    -0.203 F 
ATOM     58  F   UNL A   1      36.729  30.123  27.731  1.00  0.00    -0.200 F 
ATOM     59  C   UNL A   1      37.110  29.346  29.927  1.00  0.00     0.200 A 
ATOM     60  F   UNL A   1      37.550  28.573  32.113  1.00  0.00    -0.200 F 
ATOM     61  F   UNL A   1      35.837  29.605  30.258  1.00  0.00    -0.200 F 
ENDBRANCH  27  51
BRANCH  39  62
ATOM     62  C   UNL A   1      45.806  32.382  28.999  1.00  0.00     0.064 A 
ATOM     63  C   UNL A   1      46.346  32.668  30.260  1.00  0.00     0.173 A 
ATOM     64  C   UNL A   1      45.718  33.423  28.063  1.00  0.00     0.173 A 
ATOM     65  F   UNL A   1      46.444  31.705  31.188  1.00  0.00    -0.203 F 
ATOM     66  C   UNL A   1      46.776  33.953  30.573  1.00  0.00     0.198 A 
ATOM     67  C   UNL A   1      46.178  34.698  28.370  1.00  0.00     0.198 A 
ATOM     68  F   UNL A   1      45.219  33.192  26.839  1.00  0.00    -0.203 F 
ATOM     69  F   UNL A   1      47.266  34.214  31.794  1.00  0.00    -0.200 F 
ATOM     70  C   UNL A   1      46.704  34.964  29.625  1.00  0.00     0.200 A 
ATOM     71  F   UNL A   1      46.126  35.668  27.446  1.00  0.00    -0.200 F 
ATOM     72  F   UNL A   1      47.142  36.194  29.922  1.00  0.00    -0.200 F 
ENDBRANCH  39  62
ENDBRANCH  13  14
ENDBRANCH   6   8
ENDBRANCH   5   6
ENDBRANCH   4   5
ENDBRANCH   3   4
ENDBRANCH   2   3
ENDBRANCH   1   2
BRANCH   1  73
ATOM     73  C   UNL A   1      34.639  21.556  24.640  1.00  0.00     0.188 C 
BRANCH  73  74
ATOM     74  O   UNL A   1      33.937  22.785  24.568  1.00  0.00    -0.376 OA
BRANCH  74  75
ATOM     75  C   UNL A   1      34.263  23.609  23.466  1.00  0.00     0.202 C 
BRANCH  75  76
ATOM     76  C   UNL A   1      33.222  23.934  22.369  1.00  0.00     0.261 C 
BRANCH  76  77
ATOM     77  O   UNL A   1      32.083  24.776  22.598  1.00  0.00    -0.460 OA
BRANCH  77  78
ATOM     78  C   UNL A   1      32.320  26.046  22.988  1.00  0.00     0.349 C 
ATOM     79  O   UNL A   1      32.800  26.910  22.255  1.00  0.00    -0.248 OA
BRANCH  78  80
ATOM     80  C   UNL A   1      32.007  26.332  24.453  1.00  0.00     0.302 C 
ATOM     81  C   UNL A   1      30.671  27.086  24.502  1.00  0.00     0.183 C 
ATOM     82  O   UNL A   1      33.027  26.917  25.250  1.00  0.00    -0.475 OA
ATOM     83  N   UNL A   1      30.845  28.526  24.268  1.00  0.00    -0.304 N 
ATOM     84  C   UNL A   1      32.792  28.186  25.718  1.00  0.00     0.144 A 
ATOM     85  C   UNL A   1      31.776  29.039  25.244  1.00  0.00     0.086 A 
ATOM     86  C   UNL A   1      33.662  28.606  26.729  1.00  0.00     0.049 A 
ATOM     87  C   UNL A   1      31.664  30.315  25.814  1.00  0.00     0.030 A 
ATOM     88  C   UNL A   1      33.519  29.865  27.303  1.00  0.00     0.004 A 
ATOM     89  C   UNL A   1      32.524  30.721  26.841  1.00  0.00     0.002 A 
BRANCH  83  90
ATOM     90  C   UNL A   1      30.248  29.353  23.321  1.00  0.00     0.230 C 
ATOM     91  O   UNL A   1      30.756  29.495  22.195  1.00  0.00    -0.274 OA
BRANCH  90  92
ATOM     92  C   UNL A   1      28.928  30.155  23.506  1.00  0.00     0.083 C 
ATOM     93  C   UNL A   1      28.873  31.655  23.764  1.00  0.00     0.040 C 
ATOM     94  C   UNL A   1      27.872  29.770  22.465  1.00  0.00     0.018 C 
ATOM     95  C   UNL A   1      28.717  32.488  22.520  1.00  0.00    -0.030 C 
ATOM     96  C   UNL A   1      28.088  30.499  21.142  1.00  0.00     0.028 C 
ATOM     97  C   UNL A   1      28.402  31.956  21.328  1.00  0.00    -0.031 C 
ENDBRANCH  90  92
ENDBRANCH  83  90
ENDBRANCH  78  80
ENDBRANCH  77  78
ENDBRANCH  76  77
ENDBRANCH  75  76
ENDBRANCH  74  75
ENDBRANCH  73  74
ENDBRANCH   1  73
TORSDOF 19
ENDMDL
