MODEL 1
REMARK VINA RESULT:     -12.7      0.000      0.000
REMARK SMILES O=C1C[C@@H](c2cccc(O)c2)c2c(c(C(=O)OCCOCCOCCOC(=O)c3ccc(-c4c5nc(c(-c6c(F)c(F)c(F)c(F)c6F)c6ccc([nH]6)c(-c6c(F)c(F)c(F)c(F)c6F)c6nc(c(-c7c(F)c(F)c(F)c(F)c7F)c7ccc4[nH]7)C=C6)C=C5)cc3)cn2-c2cccc(C(F)(F)F)c2)N1
REMARK SMILES IDX 21 1 20 2 19 3 18 4 17 5 15 6 16 7 14 8 1 9 2 10 3 11 104 12
REMARK SMILES IDX 4 13 13 14 12 16 93 17 92 18 5 19 6 20 11 21 7 22 9 23 8 24
REMARK SMILES IDX 10 25 94 27 95 28 103 29 96 30 98 31 97 32 99 33 100 34
REMARK SMILES IDX 101 35 102 36 22 37 23 38 24 39 25 40 26 41 27 42 28 43
REMARK SMILES IDX 29 44 30 45 91 46 31 47 90 48 32 49 33 50 34 51 84 52 35 53
REMARK SMILES IDX 89 54 83 55 85 56 36 57 88 58 82 59 81 60 37 62 69 63 49 64
REMARK SMILES IDX 68 65 50 66 53 67 67 68 86 69 51 70 52 71 66 73 87 74 54 75
REMARK SMILES IDX 38 76 39 77 47 78 40 79 41 80 45 81 48 82 42 83 43 84 46 85
REMARK SMILES IDX 44 86 70 87 71 88 79 89 72 90 73 91 77 92 80 93 74 94 75 95
REMARK SMILES IDX 78 96 76 97 55 98 56 99 64 100 57 101 58 102 62 103 65 104
REMARK SMILES IDX 59 105 60 106 63 107 61 108
REMARK H PARENT 104 15 10 26 85 61 53 72
REMARK Flexibility Score: inf
ROOT
ATOM      1  C   UNL A   1      41.189  20.061  27.515  1.00  0.00     0.188 C 
ENDROOT
BRANCH   1   2
ATOM      2  O   UNL A   1      40.384  21.197  27.711  1.00  0.00    -0.376 OA
BRANCH   2   3
ATOM      3  C   UNL A   1      39.994  22.038  26.639  1.00  0.00     0.202 C 
BRANCH   3   4
ATOM      4  C   UNL A   1      38.561  22.489  26.281  1.00  0.00     0.261 C 
BRANCH   4   5
ATOM      5  O   UNL A   1      38.089  22.281  24.950  1.00  0.00    -0.460 OA
BRANCH   5   6
ATOM      6  C   UNL A   1      36.935  21.567  24.839  1.00  0.00     0.341 C 
ATOM      7  O   UNL A   1      36.830  20.369  25.093  1.00  0.00    -0.246 OA
BRANCH   6   8
ATOM      8  C   UNL A   1      35.780  22.411  24.594  1.00  0.00     0.102 A 
ATOM      9  O   UNL A   1      32.064  19.429  24.862  1.00  0.00    -0.275 OA
ATOM     10  C   UNL A   1      32.567  20.492  24.501  1.00  0.00     0.225 C 
ATOM     11  C   UNL A   1      31.819  21.504  23.648  1.00  0.00     0.115 C 
ATOM     12  N   UNL A   1      33.894  20.753  24.724  1.00  0.00    -0.324 N 
ATOM     13  C   UNL A   1      32.164  22.978  23.952  1.00  0.00     0.078 C 
ATOM     14  C   UNL A   1      34.429  22.006  24.541  1.00  0.00     0.078 A 
ATOM     15  H   UNL A   1      34.481  20.023  25.025  1.00  0.00     0.170 HD
ATOM     16  C   UNL A   1      33.627  23.099  24.295  1.00  0.00     0.055 A 
ATOM     17  N   UNL A   1      34.451  24.217  24.237  1.00  0.00    -0.317 N 
ATOM     18  C   UNL A   1      35.761  23.781  24.404  1.00  0.00     0.109 A 
BRANCH  13  19
ATOM     19  C   UNL A   1      31.177  23.533  24.960  1.00  0.00    -0.035 A 
ATOM     20  C   UNL A   1      30.670  24.839  24.902  1.00  0.00     0.005 A 
ATOM     21  C   UNL A   1      30.775  22.705  26.024  1.00  0.00     0.050 A 
ATOM     22  C   UNL A   1      29.763  25.288  25.868  1.00  0.00     0.004 A 
ATOM     23  C   UNL A   1      29.851  23.152  26.960  1.00  0.00     0.115 A 
ATOM     24  C   UNL A   1      29.343  24.441  26.895  1.00  0.00     0.046 A 
BRANCH  23  25
ATOM     25  O   UNL A   1      29.451  22.269  27.918  1.00  0.00    -0.508 OA
ATOM     26  H   UNL A   1      28.565  21.965  27.934  1.00  0.00     0.293 HD
ENDBRANCH  23  25
ENDBRANCH  13  19
BRANCH  17  27
ATOM     27  C   UNL A   1      34.108  25.576  24.007  1.00  0.00     0.046 A 
ATOM     28  C   UNL A   1      33.996  26.033  22.687  1.00  0.00     0.026 A 
ATOM     29  C   UNL A   1      33.936  26.472  25.066  1.00  0.00     0.039 A 
ATOM     30  C   UNL A   1      33.639  27.358  22.435  1.00  0.00     0.003 A 
ATOM     31  C   UNL A   1      33.585  27.812  24.821  1.00  0.00     0.058 A 
ATOM     32  C   UNL A   1      33.422  28.239  23.495  1.00  0.00     0.013 A 
BRANCH  31  33
ATOM     33  C   UNL A   1      33.385  28.800  25.949  1.00  0.00     0.416 C 
ATOM     34  F   UNL A   1      34.191  28.533  27.017  1.00  0.00    -0.166 F 
ATOM     35  F   UNL A   1      33.679  30.077  25.580  1.00  0.00    -0.166 F 
ATOM     36  F   UNL A   1      32.120  28.831  26.449  1.00  0.00    -0.166 F 
ENDBRANCH  31  33
ENDBRANCH  17  27
ENDBRANCH   6   8
ENDBRANCH   5   6
ENDBRANCH   4   5
ENDBRANCH   3   4
ENDBRANCH   2   3
ENDBRANCH   1   2
BRANCH   1  37
ATOM     37  C   UNL A   1      41.531  19.637  26.074  1.00  0.00     0.188 C 
BRANCH  37  38
ATOM     38  O   UNL A   1      42.309  18.486  25.830  1.00  0.00    -0.376 OA
BRANCH  38  39
ATOM     39  C   UNL A   1      43.690  18.538  25.523  1.00  0.00     0.202 C 
BRANCH  39  40
ATOM     40  C   UNL A   1      44.305  19.237  24.313  1.00  0.00     0.261 C 
BRANCH  40  41
ATOM     41  O   UNL A   1      44.288  20.648  24.318  1.00  0.00    -0.460 OA
BRANCH  41  42
ATOM     42  C   UNL A   1      45.476  21.189  24.655  1.00  0.00     0.338 C 
ATOM     43  O   UNL A   1      46.517  20.603  24.901  1.00  0.00    -0.246 OA
BRANCH  42  44
ATOM     44  C   UNL A   1      45.311  22.632  24.804  1.00  0.00     0.060 A 
ATOM     45  C   UNL A   1      46.352  23.323  25.428  1.00  0.00     0.016 A 
ATOM     46  C   UNL A   1      44.040  23.191  24.615  1.00  0.00     0.016 A 
ATOM     47  C   UNL A   1      46.056  24.514  26.046  1.00  0.00     0.010 A 
ATOM     48  C   UNL A   1      43.742  24.372  25.250  1.00  0.00     0.010 A 
ATOM     49  C   UNL A   1      44.733  24.971  26.023  1.00  0.00    -0.014 A 
BRANCH  49  50
ATOM     50  C   UNL A   1      44.420  26.146  26.805  1.00  0.00     0.031 A 
ATOM     51  C   UNL A   1      45.336  27.276  26.560  1.00  0.00     0.074 A 
ATOM     52  C   UNL A   1      43.338  26.199  27.602  1.00  0.00     0.049 A 
ATOM     53  N   UNL A   1      46.108  27.865  27.410  1.00  0.00    -0.248 NA
ATOM     54  C   UNL A   1      45.510  27.722  25.168  1.00  0.00     0.031 C 
ATOM     55  C   UNL A   1      42.240  25.232  27.683  1.00  0.00     0.029 A 
ATOM     56  N   UNL A   1      42.933  27.201  28.431  1.00  0.00    -0.354 N 
ATOM     57  C   UNL A   1      46.728  28.884  26.697  1.00  0.00     0.074 A 
ATOM     58  C   UNL A   1      46.458  28.647  25.305  1.00  0.00     0.031 C 
ATOM     59  C   UNL A   1      41.201  25.798  28.337  1.00  0.00     0.029 A 
ATOM     60  C   UNL A   1      41.602  27.111  28.813  1.00  0.00     0.049 A 
ATOM     61  H   UNL A   1      43.530  27.923  28.732  1.00  0.00     0.167 HD
ATOM     62  C   UNL A   1      47.173  29.997  27.335  1.00  0.00     0.037 A 
ATOM     63  C   UNL A   1      40.868  28.088  29.400  1.00  0.00     0.037 A 
ATOM     64  C   UNL A   1      47.384  29.750  28.738  1.00  0.00     0.049 A 
ATOM     65  C   UNL A   1      41.812  29.075  29.978  1.00  0.00     0.074 A 
ATOM     66  C   UNL A   1      48.186  28.891  29.463  1.00  0.00     0.029 A 
ATOM     67  N   UNL A   1      46.438  30.214  29.615  1.00  0.00    -0.354 N 
ATOM     68  N   UNL A   1      42.567  28.852  31.016  1.00  0.00    -0.248 NA
ATOM     69  C   UNL A   1      42.205  30.212  29.158  1.00  0.00     0.031 C 
ATOM     70  C   UNL A   1      47.426  28.552  30.622  1.00  0.00     0.029 A 
ATOM     71  C   UNL A   1      46.220  29.250  30.563  1.00  0.00     0.049 A 
ATOM     72  H   UNL A   1      45.991  31.090  29.570  1.00  0.00     0.167 HD
ATOM     73  C   UNL A   1      43.752  29.512  30.734  1.00  0.00     0.074 A 
ATOM     74  C   UNL A   1      43.422  30.440  29.658  1.00  0.00     0.031 C 
ATOM     75  C   UNL A   1      44.941  29.032  31.198  1.00  0.00     0.037 A 
BRANCH  62  76
ATOM     76  C   UNL A   1      46.994  31.386  26.772  1.00  0.00     0.064 A 
ATOM     77  C   UNL A   1      48.090  32.270  26.783  1.00  0.00     0.173 A 
ATOM     78  C   UNL A   1      45.735  31.980  26.524  1.00  0.00     0.173 A 
ATOM     79  F   UNL A   1      49.327  31.819  27.039  1.00  0.00    -0.203 F 
ATOM     80  C   UNL A   1      47.924  33.650  26.639  1.00  0.00     0.198 A 
ATOM     81  C   UNL A   1      45.581  33.348  26.322  1.00  0.00     0.198 A 
ATOM     82  F   UNL A   1      44.590  31.290  26.586  1.00  0.00    -0.203 F 
ATOM     83  F   UNL A   1      48.976  34.465  26.796  1.00  0.00    -0.200 F 
ATOM     84  C   UNL A   1      46.670  34.188  26.414  1.00  0.00     0.200 A 
ATOM     85  F   UNL A   1      44.354  33.852  26.129  1.00  0.00    -0.200 F 
ATOM     86  F   UNL A   1      46.500  35.514  26.342  1.00  0.00    -0.200 F 
ENDBRANCH  62  76
BRANCH  63  87
ATOM     87  C   UNL A   1      39.421  28.377  29.256  1.00  0.00     0.064 A 
ATOM     88  C   UNL A   1      38.583  28.420  30.382  1.00  0.00     0.173 A 
ATOM     89  C   UNL A   1      38.886  28.890  28.059  1.00  0.00     0.173 A 
ATOM     90  F   UNL A   1      39.026  27.991  31.573  1.00  0.00    -0.203 F 
ATOM     91  C   UNL A   1      37.300  28.975  30.322  1.00  0.00     0.198 A 
ATOM     92  C   UNL A   1      37.602  29.431  27.996  1.00  0.00     0.198 A 
ATOM     93  F   UNL A   1      39.631  28.968  26.947  1.00  0.00    -0.203 F 
ATOM     94  F   UNL A   1      36.558  29.066  31.435  1.00  0.00    -0.200 F 
ATOM     95  C   UNL A   1      36.816  29.490  29.131  1.00  0.00     0.200 A 
ATOM     96  F   UNL A   1      37.158  29.954  26.845  1.00  0.00    -0.200 F 
ATOM     97  F   UNL A   1      35.613  30.079  29.086  1.00  0.00    -0.200 F 
ENDBRANCH  63  87
BRANCH  75  98
ATOM     98  C   UNL A   1      44.890  28.026  32.314  1.00  0.00     0.064 A 
ATOM     99  C   UNL A   1      44.857  28.353  33.680  1.00  0.00     0.173 A 
ATOM    100  C   UNL A   1      44.777  26.671  31.971  1.00  0.00     0.173 A 
ATOM    101  F   UNL A   1      44.853  29.630  34.087  1.00  0.00    -0.203 F 
ATOM    102  C   UNL A   1      44.780  27.361  34.657  1.00  0.00     0.198 A 
ATOM    103  C   UNL A   1      44.656  25.686  32.946  1.00  0.00     0.198 A 
ATOM    104  F   UNL A   1      44.748  26.303  30.681  1.00  0.00    -0.203 F 
ATOM    105  F   UNL A   1      44.782  27.695  35.956  1.00  0.00    -0.200 F 
ATOM    106  C   UNL A   1      44.673  26.030  34.289  1.00  0.00     0.200 A 
ATOM    107  F   UNL A   1      44.503  24.405  32.584  1.00  0.00    -0.200 F 
ATOM    108  F   UNL A   1      44.567  25.078  35.227  1.00  0.00    -0.200 F 
ENDBRANCH  75  98
ENDBRANCH  49  50
ENDBRANCH  42  44
ENDBRANCH  41  42
ENDBRANCH  40  41
ENDBRANCH  39  40
ENDBRANCH  38  39
ENDBRANCH  37  38
ENDBRANCH   1  37
TORSDOF 21
ENDMDL
MODEL 2
REMARK VINA RESULT:     -12.2      4.330      9.157
REMARK SMILES O=C1C[C@@H](c2cccc(O)c2)c2c(c(C(=O)OCCOCCOCCOC(=O)c3ccc(-c4c5nc(c(-c6c(F)c(F)c(F)c(F)c6F)c6ccc([nH]6)c(-c6c(F)c(F)c(F)c(F)c6F)c6nc(c(-c7c(F)c(F)c(F)c(F)c7F)c7ccc4[nH]7)C=C6)C=C5)cc3)cn2-c2cccc(C(F)(F)F)c2)N1
REMARK SMILES IDX 21 1 20 2 19 3 18 4 17 5 15 6 16 7 14 8 1 9 2 10 3 11 104 12
REMARK SMILES IDX 4 13 13 14 12 16 93 17 92 18 5 19 6 20 11 21 7 22 9 23 8 24
REMARK SMILES IDX 10 25 94 27 95 28 103 29 96 30 98 31 97 32 99 33 100 34
REMARK SMILES IDX 101 35 102 36 22 37 23 38 24 39 25 40 26 41 27 42 28 43
REMARK SMILES IDX 29 44 30 45 91 46 31 47 90 48 32 49 33 50 34 51 84 52 35 53
REMARK SMILES IDX 89 54 83 55 85 56 36 57 88 58 82 59 81 60 37 62 69 63 49 64
REMARK SMILES IDX 68 65 50 66 53 67 67 68 86 69 51 70 52 71 66 73 87 74 54 75
REMARK SMILES IDX 38 76 39 77 47 78 40 79 41 80 45 81 48 82 42 83 43 84 46 85
REMARK SMILES IDX 44 86 70 87 71 88 79 89 72 90 73 91 77 92 80 93 74 94 75 95
REMARK SMILES IDX 78 96 76 97 55 98 56 99 64 100 57 101 58 102 62 103 65 104
REMARK SMILES IDX 59 105 60 106 63 107 61 108
REMARK H PARENT 104 15 10 26 85 61 53 72
REMARK Flexibility Score: inf
ROOT
ATOM      1  C   UNL A   1      34.349  34.603  29.553  1.00  0.00     0.188 C 
ENDROOT
BRANCH   1   2
ATOM      2  O   UNL A   1      33.654  33.726  28.701  1.00  0.00    -0.376 OA
BRANCH   2   3
ATOM      3  C   UNL A   1      34.319  32.733  27.940  1.00  0.00     0.202 C 
BRANCH   3   4
ATOM      4  C   UNL A   1      34.113  31.204  28.018  1.00  0.00     0.261 C 
BRANCH   4   5
ATOM      5  O   UNL A   1      33.787  30.494  26.823  1.00  0.00    -0.460 OA
BRANCH   5   6
ATOM      6  C   UNL A   1      32.461  30.259  26.621  1.00  0.00     0.341 C 
ATOM      7  O   UNL A   1      31.583  31.115  26.702  1.00  0.00    -0.246 OA
BRANCH   6   8
ATOM      8  C   UNL A   1      32.206  28.934  26.088  1.00  0.00     0.102 A 
ATOM      9  O   UNL A   1      30.227  29.743  21.822  1.00  0.00    -0.275 OA
ATOM     10  C   UNL A   1      30.451  29.008  22.782  1.00  0.00     0.225 C 
ATOM     11  C   UNL A   1      29.846  27.619  22.908  1.00  0.00     0.115 C 
ATOM     12  N   UNL A   1      31.144  29.467  23.872  1.00  0.00    -0.324 N 
ATOM     13  C   UNL A   1      30.758  26.583  23.602  1.00  0.00     0.078 C 
ATOM     14  C   UNL A   1      31.604  28.619  24.851  1.00  0.00     0.078 A 
ATOM     15  H   UNL A   1      31.318  30.432  23.956  1.00  0.00     0.170 HD
ATOM     16  C   UNL A   1      31.545  27.250  24.700  1.00  0.00     0.055 A 
ATOM     17  N   UNL A   1      32.153  26.681  25.813  1.00  0.00    -0.317 N 
ATOM     18  C   UNL A   1      32.535  27.718  26.657  1.00  0.00     0.109 A 
BRANCH  13  19
ATOM     19  C   UNL A   1      31.550  25.825  22.555  1.00  0.00    -0.035 A 
ATOM     20  C   UNL A   1      31.794  26.319  21.266  1.00  0.00     0.005 A 
ATOM     21  C   UNL A   1      32.038  24.546  22.885  1.00  0.00     0.050 A 
ATOM     22  C   UNL A   1      32.532  25.565  20.347  1.00  0.00     0.004 A 
ATOM     23  C   UNL A   1      32.793  23.819  21.975  1.00  0.00     0.115 A 
ATOM     24  C   UNL A   1      33.043  24.315  20.704  1.00  0.00     0.046 A 
BRANCH  23  25
ATOM     25  O   UNL A   1      33.296  22.622  22.391  1.00  0.00    -0.508 OA
ATOM     26  H   UNL A   1      34.222  22.508  22.479  1.00  0.00     0.293 HD
ENDBRANCH  23  25
ENDBRANCH  13  19
BRANCH  17  27
ATOM     27  C   UNL A   1      32.345  25.310  26.129  1.00  0.00     0.046 A 
ATOM     28  C   UNL A   1      31.272  24.579  26.656  1.00  0.00     0.026 A 
ATOM     29  C   UNL A   1      33.592  24.696  25.977  1.00  0.00     0.039 A 
ATOM     30  C   UNL A   1      31.429  23.225  26.955  1.00  0.00     0.003 A 
ATOM     31  C   UNL A   1      33.762  23.334  26.284  1.00  0.00     0.058 A 
ATOM     32  C   UNL A   1      32.662  22.603  26.758  1.00  0.00     0.013 A 
BRANCH  31  33
ATOM     33  C   UNL A   1      35.097  22.644  26.122  1.00  0.00     0.416 C 
ATOM     34  F   UNL A   1      36.138  23.438  26.505  1.00  0.00    -0.166 F 
ATOM     35  F   UNL A   1      35.198  21.519  26.882  1.00  0.00    -0.166 F 
ATOM     36  F   UNL A   1      35.381  22.266  24.846  1.00  0.00    -0.166 F 
ENDBRANCH  31  33
ENDBRANCH  17  27
ENDBRANCH   6   8
ENDBRANCH   5   6
ENDBRANCH   4   5
ENDBRANCH   3   4
ENDBRANCH   2   3
ENDBRANCH   1   2
BRANCH   1  37
ATOM     37  C   UNL A   1      34.166  34.455  31.075  1.00  0.00     0.188 C 
BRANCH  37  38
ATOM     38  O   UNL A   1      34.116  33.177  31.672  1.00  0.00    -0.376 OA
BRANCH  38  39
ATOM     39  C   UNL A   1      35.149  32.219  31.533  1.00  0.00     0.202 C 
BRANCH  39  40
ATOM     40  C   UNL A   1      36.628  32.459  31.825  1.00  0.00     0.261 C 
BRANCH  40  41
ATOM     41  O   UNL A   1      37.549  31.605  31.182  1.00  0.00    -0.460 OA
BRANCH  41  42
ATOM     42  C   UNL A   1      38.401  32.262  30.369  1.00  0.00     0.338 C 
ATOM     43  O   UNL A   1      38.395  33.449  30.090  1.00  0.00    -0.246 OA
BRANCH  42  44
ATOM     44  C   UNL A   1      39.302  31.295  29.750  1.00  0.00     0.060 A 
ATOM     45  C   UNL A   1      38.738  30.089  29.330  1.00  0.00     0.016 A 
ATOM     46  C   UNL A   1      40.686  31.476  29.886  1.00  0.00     0.016 A 
ATOM     47  C   UNL A   1      39.560  28.991  29.237  1.00  0.00     0.010 A 
ATOM     48  C   UNL A   1      41.501  30.373  29.810  1.00  0.00     0.010 A 
ATOM     49  C   UNL A   1      40.912  29.134  29.568  1.00  0.00    -0.014 A 
BRANCH  49  50
ATOM     50  C   UNL A   1      41.720  27.937  29.606  1.00  0.00     0.031 A 
ATOM     51  C   UNL A   1      42.320  27.674  30.928  1.00  0.00     0.074 A 
ATOM     52  C   UNL A   1      41.821  27.115  28.546  1.00  0.00     0.049 A 
ATOM     53  N   UNL A   1      43.573  27.599  31.225  1.00  0.00    -0.248 NA
ATOM     54  C   UNL A   1      41.415  27.618  32.088  1.00  0.00     0.031 C 
ATOM     55  C   UNL A   1      41.041  27.159  27.305  1.00  0.00     0.029 A 
ATOM     56  N   UNL A   1      42.569  25.987  28.404  1.00  0.00    -0.354 N 
ATOM     57  C   UNL A   1      43.612  27.296  32.580  1.00  0.00     0.074 A 
ATOM     58  C   UNL A   1      42.281  27.485  33.091  1.00  0.00     0.031 C 
ATOM     59  C   UNL A   1      41.195  25.989  26.646  1.00  0.00     0.029 A 
ATOM     60  C   UNL A   1      42.165  25.172  27.356  1.00  0.00     0.049 A 
ATOM     61  H   UNL A   1      43.328  25.769  28.992  1.00  0.00     0.167 HD
ATOM     62  C   UNL A   1      44.677  26.639  33.108  1.00  0.00     0.037 A 
ATOM     63  C   UNL A   1      42.542  23.886  27.148  1.00  0.00     0.037 A 
ATOM     64  C   UNL A   1      45.847  26.784  32.280  1.00  0.00     0.049 A 
ATOM     65  C   UNL A   1      43.780  23.648  27.929  1.00  0.00     0.074 A 
ATOM     66  C   UNL A   1      46.598  27.855  31.838  1.00  0.00     0.029 A 
ATOM     67  N   UNL A   1      46.200  25.723  31.488  1.00  0.00    -0.354 N 
ATOM     68  N   UNL A   1      44.942  24.161  27.643  1.00  0.00    -0.248 NA
ATOM     69  C   UNL A   1      43.648  23.125  29.282  1.00  0.00     0.031 C 
ATOM     70  C   UNL A   1      47.043  27.492  30.533  1.00  0.00     0.029 A 
ATOM     71  C   UNL A   1      46.575  26.206  30.263  1.00  0.00     0.049 A 
ATOM     72  H   UNL A   1      46.187  24.775  31.754  1.00  0.00     0.167 HD
ATOM     73  C   UNL A   1      45.516  24.434  28.875  1.00  0.00     0.074 A 
ATOM     74  C   UNL A   1      44.745  23.651  29.834  1.00  0.00     0.031 C 
ATOM     75  C   UNL A   1      46.366  25.490  29.026  1.00  0.00     0.037 A 
BRANCH  62  76
ATOM     76  C   UNL A   1      44.532  25.532  34.123  1.00  0.00     0.064 A 
ATOM     77  C   UNL A   1      45.054  25.721  35.416  1.00  0.00     0.173 A 
ATOM     78  C   UNL A   1      44.194  24.199  33.791  1.00  0.00     0.173 A 
ATOM     79  F   UNL A   1      45.436  26.941  35.824  1.00  0.00    -0.203 F 
ATOM     80  C   UNL A   1      45.296  24.648  36.277  1.00  0.00     0.198 A 
ATOM     81  C   UNL A   1      44.383  23.140  34.674  1.00  0.00     0.198 A 
ATOM     82  F   UNL A   1      43.786  23.844  32.568  1.00  0.00    -0.203 F 
ATOM     83  F   UNL A   1      45.924  24.861  37.441  1.00  0.00    -0.200 F 
ATOM     84  C   UNL A   1      44.966  23.358  35.904  1.00  0.00     0.200 A 
ATOM     85  F   UNL A   1      44.077  21.894  34.284  1.00  0.00    -0.200 F 
ATOM     86  F   UNL A   1      45.258  22.322  36.700  1.00  0.00    -0.200 F 
ENDBRANCH  62  76
BRANCH  63  87
ATOM     87  C   UNL A   1      41.763  22.775  26.552  1.00  0.00     0.064 A 
ATOM     88  C   UNL A   1      42.402  21.597  26.129  1.00  0.00     0.173 A 
ATOM     89  C   UNL A   1      40.359  22.725  26.643  1.00  0.00     0.173 A 
ATOM     90  F   UNL A   1      43.739  21.543  26.054  1.00  0.00    -0.203 F 
ATOM     91  C   UNL A   1      41.682  20.432  25.847  1.00  0.00     0.198 A 
ATOM     92  C   UNL A   1      39.640  21.566  26.348  1.00  0.00     0.198 A 
ATOM     93  F   UNL A   1      39.660  23.768  27.113  1.00  0.00    -0.203 F 
ATOM     94  F   UNL A   1      42.333  19.307  25.517  1.00  0.00    -0.200 F 
ATOM     95  C   UNL A   1      40.302  20.415  25.968  1.00  0.00     0.200 A 
ATOM     96  F   UNL A   1      38.308  21.555  26.500  1.00  0.00    -0.200 F 
ATOM     97  F   UNL A   1      39.617  19.282  25.760  1.00  0.00    -0.200 F 
ENDBRANCH  63  87
BRANCH  75  98
ATOM     98  C   UNL A   1      46.949  26.090  27.777  1.00  0.00     0.064 A 
ATOM     99  C   UNL A   1      46.378  27.159  27.065  1.00  0.00     0.173 A 
ATOM    100  C   UNL A   1      48.194  25.614  27.339  1.00  0.00     0.173 A 
ATOM    101  F   UNL A   1      45.244  27.740  27.480  1.00  0.00    -0.203 F 
ATOM    102  C   UNL A   1      46.996  27.680  25.930  1.00  0.00     0.198 A 
ATOM    103  C   UNL A   1      48.830  26.166  26.232  1.00  0.00     0.198 A 
ATOM    104  F   UNL A   1      48.813  24.632  28.012  1.00  0.00    -0.203 F 
ATOM    105  F   UNL A   1      46.417  28.679  25.247  1.00  0.00    -0.200 F 
ATOM    106  C   UNL A   1      48.224  27.187  25.518  1.00  0.00     0.200 A 
ATOM    107  F   UNL A   1      50.039  25.719  25.867  1.00  0.00    -0.200 F 
ATOM    108  F   UNL A   1      48.834  27.710  24.445  1.00  0.00    -0.200 F 
ENDBRANCH  75  98
ENDBRANCH  49  50
ENDBRANCH  42  44
ENDBRANCH  41  42
ENDBRANCH  40  41
ENDBRANCH  39  40
ENDBRANCH  38  39
ENDBRANCH  37  38
ENDBRANCH   1  37
TORSDOF 21
ENDMDL
MODEL 3
REMARK VINA RESULT:     -12.1      1.412      2.338
REMARK SMILES O=C1C[C@@H](c2cccc(O)c2)c2c(c(C(=O)OCCOCCOCCOC(=O)c3ccc(-c4c5nc(c(-c6c(F)c(F)c(F)c(F)c6F)c6ccc([nH]6)c(-c6c(F)c(F)c(F)c(F)c6F)c6nc(c(-c7c(F)c(F)c(F)c(F)c7F)c7ccc4[nH]7)C=C6)C=C5)cc3)cn2-c2cccc(C(F)(F)F)c2)N1
REMARK SMILES IDX 21 1 20 2 19 3 18 4 17 5 15 6 16 7 14 8 1 9 2 10 3 11 104 12
REMARK SMILES IDX 4 13 13 14 12 16 93 17 92 18 5 19 6 20 11 21 7 22 9 23 8 24
REMARK SMILES IDX 10 25 94 27 95 28 103 29 96 30 98 31 97 32 99 33 100 34
REMARK SMILES IDX 101 35 102 36 22 37 23 38 24 39 25 40 26 41 27 42 28 43
REMARK SMILES IDX 29 44 30 45 91 46 31 47 90 48 32 49 33 50 34 51 84 52 35 53
REMARK SMILES IDX 89 54 83 55 85 56 36 57 88 58 82 59 81 60 37 62 69 63 49 64
REMARK SMILES IDX 68 65 50 66 53 67 67 68 86 69 51 70 52 71 66 73 87 74 54 75
REMARK SMILES IDX 38 76 39 77 47 78 40 79 41 80 45 81 48 82 42 83 43 84 46 85
REMARK SMILES IDX 44 86 70 87 71 88 79 89 72 90 73 91 77 92 80 93 74 94 75 95
REMARK SMILES IDX 78 96 76 97 55 98 56 99 64 100 57 101 58 102 62 103 65 104
REMARK SMILES IDX 59 105 60 106 63 107 61 108
REMARK H PARENT 104 15 10 26 85 61 53 72
REMARK Flexibility Score: inf
ROOT
ATOM      1  C   UNL A   1      41.723  19.593  27.132  1.00  0.00     0.188 C 
ENDROOT
BRANCH   1   2
ATOM      2  O   UNL A   1      41.235  20.832  26.679  1.00  0.00    -0.376 OA
BRANCH   2   3
ATOM      3  C   UNL A   1      40.021  20.943  25.956  1.00  0.00     0.202 C 
BRANCH   3   4
ATOM      4  C   UNL A   1      38.886  21.963  26.191  1.00  0.00     0.261 C 
BRANCH   4   5
ATOM      5  O   UNL A   1      38.093  22.375  25.078  1.00  0.00    -0.460 OA
BRANCH   5   6
ATOM      6  C   UNL A   1      36.955  21.655  24.868  1.00  0.00     0.341 C 
ATOM      7  O   UNL A   1      36.860  20.442  25.032  1.00  0.00    -0.246 OA
BRANCH   6   8
ATOM      8  C   UNL A   1      35.799  22.499  24.632  1.00  0.00     0.102 A 
ATOM      9  O   UNL A   1      32.097  19.493  24.783  1.00  0.00    -0.275 OA
ATOM     10  C   UNL A   1      32.597  20.567  24.455  1.00  0.00     0.225 C 
ATOM     11  C   UNL A   1      31.853  21.597  23.622  1.00  0.00     0.115 C 
ATOM     12  N   UNL A   1      33.921  20.830  24.699  1.00  0.00    -0.324 N 
ATOM     13  C   UNL A   1      32.187  23.065  23.967  1.00  0.00     0.078 C 
ATOM     14  C   UNL A   1      34.451  22.089  24.555  1.00  0.00     0.078 A 
ATOM     15  H   UNL A   1      34.508  20.094  24.987  1.00  0.00     0.170 HD
ATOM     16  C   UNL A   1      33.646  23.184  24.328  1.00  0.00     0.055 A 
ATOM     17  N   UNL A   1      34.464  24.307  24.308  1.00  0.00    -0.317 N 
ATOM     18  C   UNL A   1      35.774  23.874  24.478  1.00  0.00     0.109 A 
BRANCH  13  19
ATOM     19  C   UNL A   1      31.186  23.588  24.978  1.00  0.00    -0.035 A 
ATOM     20  C   UNL A   1      30.685  24.897  24.959  1.00  0.00     0.005 A 
ATOM     21  C   UNL A   1      30.765  22.725  26.007  1.00  0.00     0.050 A 
ATOM     22  C   UNL A   1      29.765  25.316  25.926  1.00  0.00     0.004 A 
ATOM     23  C   UNL A   1      29.828  23.142  26.944  1.00  0.00     0.115 A 
ATOM     24  C   UNL A   1      29.326  24.435  26.916  1.00  0.00     0.046 A 
BRANCH  23  25
ATOM     25  O   UNL A   1      29.411  22.228  27.864  1.00  0.00    -0.508 OA
ATOM     26  H   UNL A   1      30.026  21.852  28.462  1.00  0.00     0.293 HD
ENDBRANCH  23  25
ENDBRANCH  13  19
BRANCH  17  27
ATOM     27  C   UNL A   1      34.116  25.670  24.110  1.00  0.00     0.046 A 
ATOM     28  C   UNL A   1      34.094  26.181  22.806  1.00  0.00     0.026 A 
ATOM     29  C   UNL A   1      33.851  26.518  25.190  1.00  0.00     0.039 A 
ATOM     30  C   UNL A   1      33.735  27.511  22.583  1.00  0.00     0.003 A 
ATOM     31  C   UNL A   1      33.496  27.862  24.976  1.00  0.00     0.058 A 
ATOM     32  C   UNL A   1      33.425  28.343  23.659  1.00  0.00     0.013 A 
BRANCH  31  33
ATOM     33  C   UNL A   1      33.197  28.798  26.125  1.00  0.00     0.416 C 
ATOM     34  F   UNL A   1      33.581  28.277  27.327  1.00  0.00    -0.166 F 
ATOM     35  F   UNL A   1      33.856  29.985  26.015  1.00  0.00    -0.166 F 
ATOM     36  F   UNL A   1      31.880  29.106  26.268  1.00  0.00    -0.166 F 
ENDBRANCH  31  33
ENDBRANCH  17  27
ENDBRANCH   6   8
ENDBRANCH   5   6
ENDBRANCH   4   5
ENDBRANCH   3   4
ENDBRANCH   2   3
ENDBRANCH   1   2
BRANCH   1  37
ATOM     37  C   UNL A   1      42.320  18.612  26.106  1.00  0.00     0.188 C 
BRANCH  37  38
ATOM     38  O   UNL A   1      43.691  18.280  26.143  1.00  0.00    -0.376 OA
BRANCH  38  39
ATOM     39  C   UNL A   1      44.662  18.918  25.335  1.00  0.00     0.202 C 
BRANCH  39  40
ATOM     40  C   UNL A   1      44.526  20.305  24.712  1.00  0.00     0.261 C 
BRANCH  40  41
ATOM     41  O   UNL A   1      44.329  21.384  25.601  1.00  0.00    -0.460 OA
BRANCH  41  42
ATOM     42  C   UNL A   1      43.903  22.505  24.984  1.00  0.00     0.338 C 
ATOM     43  O   UNL A   1      44.089  22.831  23.824  1.00  0.00    -0.246 OA
BRANCH  42  44
ATOM     44  C   UNL A   1      43.260  23.369  25.969  1.00  0.00     0.060 A 
ATOM     45  C   UNL A   1      42.333  24.293  25.485  1.00  0.00     0.016 A 
ATOM     46  C   UNL A   1      43.808  23.452  27.257  1.00  0.00     0.016 A 
ATOM     47  C   UNL A   1      42.102  25.426  26.229  1.00  0.00     0.010 A 
ATOM     48  C   UNL A   1      43.590  24.593  27.989  1.00  0.00     0.010 A 
ATOM     49  C   UNL A   1      42.806  25.597  27.426  1.00  0.00    -0.014 A 
BRANCH  49  50
ATOM     50  C   UNL A   1      42.658  26.861  28.111  1.00  0.00     0.031 A 
ATOM     51  C   UNL A   1      43.749  27.814  27.830  1.00  0.00     0.074 A 
ATOM     52  C   UNL A   1      41.573  27.141  28.855  1.00  0.00     0.049 A 
ATOM     53  N   UNL A   1      44.576  28.336  28.671  1.00  0.00    -0.248 NA
ATOM     54  C   UNL A   1      44.037  28.122  26.420  1.00  0.00     0.031 C 
ATOM     55  C   UNL A   1      40.333  26.365  28.953  1.00  0.00     0.029 A 
ATOM     56  N   UNL A   1      41.305  28.252  29.595  1.00  0.00    -0.354 N 
ATOM     57  C   UNL A   1      45.373  29.191  27.919  1.00  0.00     0.074 A 
ATOM     58  C   UNL A   1      45.114  28.896  26.535  1.00  0.00     0.031 C 
ATOM     59  C   UNL A   1      39.376  27.133  29.521  1.00  0.00     0.029 A 
ATOM     60  C   UNL A   1      39.964  28.399  29.924  1.00  0.00     0.049 A 
ATOM     61  H   UNL A   1      41.999  28.893  29.872  1.00  0.00     0.167 HD
ATOM     62  C   UNL A   1      45.968  30.265  28.499  1.00  0.00     0.037 A 
ATOM     63  C   UNL A   1      39.376  29.520  30.410  1.00  0.00     0.037 A 
ATOM     64  C   UNL A   1      46.091  30.092  29.923  1.00  0.00     0.049 A 
ATOM     65  C   UNL A   1      40.446  30.387  30.961  1.00  0.00     0.074 A 
ATOM     66  C   UNL A   1      46.723  29.175  30.739  1.00  0.00     0.029 A 
ATOM     67  N   UNL A   1      45.203  30.761  30.723  1.00  0.00    -0.354 N 
ATOM     68  N   UNL A   1      41.121  30.127  32.043  1.00  0.00    -0.248 NA
ATOM     69  C   UNL A   1      41.040  31.385  30.083  1.00  0.00     0.031 C 
ATOM     70  C   UNL A   1      45.881  29.045  31.883  1.00  0.00     0.029 A 
ATOM     71  C   UNL A   1      44.804  29.916  31.725  1.00  0.00     0.049 A 
ATOM     72  H   UNL A   1      44.902  31.691  30.600  1.00  0.00     0.167 HD
ATOM     73  C   UNL A   1      42.405  30.572  31.769  1.00  0.00     0.074 A 
ATOM     74  C   UNL A   1      42.261  31.457  30.619  1.00  0.00     0.031 C 
ATOM     75  C   UNL A   1      43.487  29.948  32.317  1.00  0.00     0.037 A 
BRANCH  62  76
ATOM     76  C   UNL A   1      46.030  31.619  27.835  1.00  0.00     0.064 A 
ATOM     77  C   UNL A   1      44.837  32.206  27.374  1.00  0.00     0.173 A 
ATOM     78  C   UNL A   1      47.224  32.207  27.355  1.00  0.00     0.173 A 
ATOM     79  F   UNL A   1      43.646  31.709  27.742  1.00  0.00    -0.203 F 
ATOM     80  C   UNL A   1      44.840  33.245  26.441  1.00  0.00     0.198 A 
ATOM     81  C   UNL A   1      47.223  33.281  26.470  1.00  0.00     0.198 A 
ATOM     82  F   UNL A   1      48.433  31.698  27.619  1.00  0.00    -0.203 F 
ATOM     83  F   UNL A   1      43.682  33.677  25.924  1.00  0.00    -0.200 F 
ATOM     84  C   UNL A   1      46.032  33.778  25.985  1.00  0.00     0.200 A 
ATOM     85  F   UNL A   1      48.389  33.768  26.024  1.00  0.00    -0.200 F 
ATOM     86  F   UNL A   1      46.039  34.729  25.042  1.00  0.00    -0.200 F 
ENDBRANCH  62  76
BRANCH  63  87
ATOM     87  C   UNL A   1      37.999  30.019  30.184  1.00  0.00     0.064 A 
ATOM     88  C   UNL A   1      37.208  30.455  31.259  1.00  0.00     0.173 A 
ATOM     89  C   UNL A   1      37.533  30.342  28.895  1.00  0.00     0.173 A 
ATOM     90  F   UNL A   1      37.598  30.227  32.522  1.00  0.00    -0.203 F 
ATOM     91  C   UNL A   1      36.041  31.199  31.058  1.00  0.00     0.198 A 
ATOM     92  C   UNL A   1      36.361  31.072  28.695  1.00  0.00     0.198 A 
ATOM     93  F   UNL A   1      38.253  30.042  27.805  1.00  0.00    -0.203 F 
ATOM     94  F   UNL A   1      35.353  31.661  32.112  1.00  0.00    -0.200 F 
ATOM     95  C   UNL A   1      35.625  31.517  29.776  1.00  0.00     0.200 A 
ATOM     96  F   UNL A   1      35.989  31.400  27.449  1.00  0.00    -0.200 F 
ATOM     97  F   UNL A   1      34.543  32.283  29.584  1.00  0.00    -0.200 F 
ENDBRANCH  63  87
BRANCH  75  98
ATOM     98  C   UNL A   1      43.241  29.047  33.495  1.00  0.00     0.064 A 
ATOM     99  C   UNL A   1      42.986  27.668  33.402  1.00  0.00     0.173 A 
ATOM    100  C   UNL A   1      43.362  29.597  34.779  1.00  0.00     0.173 A 
ATOM    101  F   UNL A   1      42.961  27.046  32.216  1.00  0.00    -0.203 F 
ATOM    102  C   UNL A   1      42.797  26.893  34.545  1.00  0.00     0.198 A 
ATOM    103  C   UNL A   1      43.217  28.812  35.918  1.00  0.00     0.198 A 
ATOM    104  F   UNL A   1      43.659  30.897  34.929  1.00  0.00    -0.203 F 
ATOM    105  F   UNL A   1      42.522  25.584  34.433  1.00  0.00    -0.200 F 
ATOM    106  C   UNL A   1      42.918  27.464  35.801  1.00  0.00     0.200 A 
ATOM    107  F   UNL A   1      43.383  29.359  37.130  1.00  0.00    -0.200 F 
ATOM    108  F   UNL A   1      42.768  26.713  36.901  1.00  0.00    -0.200 F 
ENDBRANCH  75  98
ENDBRANCH  49  50
ENDBRANCH  42  44
ENDBRANCH  41  42
ENDBRANCH  40  41
ENDBRANCH  39  40
ENDBRANCH  38  39
ENDBRANCH  37  38
ENDBRANCH   1  37
TORSDOF 21
ENDMDL
