MODEL 1
REMARK VINA RESULT:     -10.6      0.000      0.000
REMARK SMILES C[NH2+][C@]1(C(=O)OCCOCCOCCOC(=O)c2ccc(-c3c4nc(c(-c5c(F)c(F)c(F)c(F)c5F)c5ccc([nH]5)c(-c5c(F)c(F)c(F)c(F)c5F)c5nc(c(-c6c(F)c(F)c(F)c(F)c6F)c6ccc3[nH]6)C=C5)C=C4)cc2)CCC[C@H](Sc2n[nH]c(=O)n2C)C1
REMARK SMILES IDX 10 1 9 2 8 3 7 4 6 5 4 6 5 7 3 8 81 9 93 10 82 11 84 12
REMARK SMILES IDX 83 13 2 14 1 15 85 18 86 19 87 20 91 21 88 22 89 23 92 24
REMARK SMILES IDX 90 26 11 27 12 28 13 29 14 30 15 31 16 32 17 33 18 34 19 35
REMARK SMILES IDX 80 36 20 37 79 38 21 39 22 40 23 41 73 42 24 43 78 44 72 45
REMARK SMILES IDX 74 46 25 47 77 48 71 49 70 50 26 52 58 53 38 54 57 55 39 56
REMARK SMILES IDX 42 57 56 58 75 59 40 60 41 61 55 63 76 64 43 65 27 66 28 67
REMARK SMILES IDX 36 68 29 69 30 70 34 71 37 72 31 73 32 74 35 75 33 76 59 77
REMARK SMILES IDX 60 78 68 79 61 80 62 81 66 82 69 83 63 84 64 85 67 86 65 87
REMARK SMILES IDX 44 88 45 89 53 90 46 91 47 92 51 93 54 94 48 95 49 96 52 97
REMARK SMILES IDX 50 98
REMARK H PARENT 2 16 2 17 88 25 74 51 42 62
REMARK Flexibility Score: inf
ROOT
ATOM      1  C   UNL A   1      41.491  20.895  27.427  1.00  0.00     0.188 C 
ENDROOT
BRANCH   1   2
ATOM      2  O   UNL A   1      40.745  22.104  27.431  1.00  0.00    -0.376 OA
BRANCH   2   3
ATOM      3  C   UNL A   1      40.001  22.424  26.254  1.00  0.00     0.202 C 
BRANCH   3   4
ATOM      4  C   UNL A   1      38.630  23.118  26.390  1.00  0.00     0.261 C 
BRANCH   4   5
ATOM      5  O   UNL A   1      37.753  22.969  25.250  1.00  0.00    -0.459 OA
BRANCH   5   6
ATOM      6  C   UNL A   1      36.737  22.073  25.384  1.00  0.00     0.368 C 
ATOM      7  O   UNL A   1      36.910  20.896  25.698  1.00  0.00    -0.245 OA
BRANCH   6   8
ATOM      8  C   UNL A   1      35.307  22.691  25.211  1.00  0.00     0.195 C 
ATOM      9  C   UNL A   1      35.298  24.248  25.215  1.00  0.00     0.081 C 
ATOM     10  C   UNL A   1      34.815  22.259  23.793  1.00  0.00     0.096 C 
ATOM     11  C   UNL A   1      33.945  24.860  24.829  1.00  0.00     0.008 C 
ATOM     12  C   UNL A   1      33.471  22.855  23.320  1.00  0.00     0.061 C 
ATOM     13  C   UNL A   1      33.492  24.380  23.456  1.00  0.00     0.015 C 
BRANCH   8  14
ATOM     14  N   UNL A   1      34.425  22.226  26.336  1.00  0.00    -0.335 N 
ATOM     15  C   UNL A   1      34.621  22.914  27.614  1.00  0.00     0.331 C 
ATOM     16  H   UNL A   1      33.454  22.359  26.052  1.00  0.00     0.347 HD
ATOM     17  H   UNL A   1      34.673  21.249  26.502  1.00  0.00     0.347 HD
ENDBRANCH   8  14
BRANCH  12  18
ATOM     18  S   UNL A   1      32.128  22.056  24.255  1.00  0.00    -0.082 SA
BRANCH  18  19
ATOM     19  C   UNL A   1      32.329  20.375  23.989  1.00  0.00     0.191 A 
ATOM     20  N   UNL A   1      32.652  19.494  24.887  1.00  0.00    -0.146 NA
ATOM     21  N   UNL A   1      32.146  19.889  22.739  1.00  0.00    -0.273 N 
ATOM     22  N   UNL A   1      32.697  18.324  24.180  1.00  0.00    -0.226 N 
ATOM     23  C   UNL A   1      32.385  18.548  22.846  1.00  0.00     0.343 A 
ATOM     24  C   UNL A   1      31.774  20.538  21.500  1.00  0.00     0.157 C 
ATOM     25  H   UNL A   1      32.920  17.445  24.563  1.00  0.00     0.195 HD
ATOM     26  O   UNL A   1      32.339  17.706  21.961  1.00  0.00    -0.246 OA
ENDBRANCH  18  19
ENDBRANCH  12  18
ENDBRANCH   6   8
ENDBRANCH   5   6
ENDBRANCH   4   5
ENDBRANCH   3   4
ENDBRANCH   2   3
ENDBRANCH   1   2
BRANCH   1  27
ATOM     27  C   UNL A   1      41.611  20.127  26.108  1.00  0.00     0.188 C 
BRANCH  27  28
ATOM     28  O   UNL A   1      42.826  20.312  25.423  1.00  0.00    -0.376 OA
BRANCH  28  29
ATOM     29  C   UNL A   1      43.594  21.481  25.655  1.00  0.00     0.202 C 
BRANCH  29  30
ATOM     30  C   UNL A   1      43.801  22.558  24.567  1.00  0.00     0.261 C 
BRANCH  30  31
ATOM     31  O   UNL A   1      43.242  23.862  24.795  1.00  0.00    -0.460 OA
BRANCH  31  32
ATOM     32  C   UNL A   1      44.091  24.847  25.180  1.00  0.00     0.338 C 
ATOM     33  O   UNL A   1      45.148  25.149  24.658  1.00  0.00    -0.246 OA
BRANCH  32  34
ATOM     34  C   UNL A   1      43.375  25.677  26.184  1.00  0.00     0.060 A 
ATOM     35  C   UNL A   1      43.611  27.061  26.209  1.00  0.00     0.016 A 
ATOM     36  C   UNL A   1      42.438  25.113  27.052  1.00  0.00     0.016 A 
ATOM     37  C   UNL A   1      42.933  27.878  27.118  1.00  0.00     0.010 A 
ATOM     38  C   UNL A   1      41.782  25.927  27.981  1.00  0.00     0.010 A 
ATOM     39  C   UNL A   1      42.048  27.309  28.040  1.00  0.00    -0.014 A 
BRANCH  39  40
ATOM     40  C   UNL A   1      41.562  28.103  29.197  1.00  0.00     0.031 A 
ATOM     41  C   UNL A   1      42.283  27.954  30.510  1.00  0.00     0.074 A 
ATOM     42  C   UNL A   1      40.515  28.941  29.101  1.00  0.00     0.049 A 
ATOM     43  N   UNL A   1      41.998  28.457  31.683  1.00  0.00    -0.248 NA
ATOM     44  C   UNL A   1      43.491  27.114  30.492  1.00  0.00     0.031 C 
ATOM     45  C   UNL A   1      39.760  29.218  27.882  1.00  0.00     0.029 A 
ATOM     46  N   UNL A   1      39.894  29.702  30.063  1.00  0.00    -0.354 N 
ATOM     47  C   UNL A   1      42.982  27.986  32.542  1.00  0.00     0.074 A 
ATOM     48  C   UNL A   1      43.852  27.132  31.765  1.00  0.00     0.031 C 
ATOM     49  C   UNL A   1      38.761  30.071  28.174  1.00  0.00     0.029 A 
ATOM     50  C   UNL A   1      38.784  30.368  29.607  1.00  0.00     0.049 A 
ATOM     51  H   UNL A   1      40.216  29.764  30.991  1.00  0.00     0.167 HD
ATOM     52  C   UNL A   1      43.150  28.246  33.861  1.00  0.00     0.037 A 
ATOM     53  C   UNL A   1      37.874  31.105  30.277  1.00  0.00     0.037 A 
ATOM     54  C   UNL A   1      42.281  29.091  34.637  1.00  0.00     0.049 A 
ATOM     55  C   UNL A   1      38.031  31.311  31.765  1.00  0.00     0.074 A 
ATOM     56  C   UNL A   1      42.374  29.425  35.977  1.00  0.00     0.029 A 
ATOM     57  N   UNL A   1      41.152  29.727  34.145  1.00  0.00    -0.354 N 
ATOM     58  N   UNL A   1      38.972  30.879  32.568  1.00  0.00    -0.248 NA
ATOM     59  C   UNL A   1      36.996  32.110  32.437  1.00  0.00     0.031 C 
ATOM     60  C   UNL A   1      41.268  30.212  36.309  1.00  0.00     0.029 A 
ATOM     61  C   UNL A   1      40.522  30.428  35.161  1.00  0.00     0.049 A 
ATOM     62  H   UNL A   1      40.842  29.685  33.211  1.00  0.00     0.167 HD
ATOM     63  C   UNL A   1      38.664  31.380  33.828  1.00  0.00     0.074 A 
ATOM     64  C   UNL A   1      37.453  32.161  33.681  1.00  0.00     0.031 C 
ATOM     65  C   UNL A   1      39.324  31.212  35.001  1.00  0.00     0.037 A 
BRANCH  52  66
ATOM     66  C   UNL A   1      44.304  27.581  34.555  1.00  0.00     0.064 A 
ATOM     67  C   UNL A   1      45.562  28.195  34.655  1.00  0.00     0.173 A 
ATOM     68  C   UNL A   1      44.140  26.321  35.151  1.00  0.00     0.173 A 
ATOM     69  F   UNL A   1      45.776  29.392  34.089  1.00  0.00    -0.203 F 
ATOM     70  C   UNL A   1      46.620  27.558  35.299  1.00  0.00     0.198 A 
ATOM     71  C   UNL A   1      45.191  25.704  35.824  1.00  0.00     0.198 A 
ATOM     72  F   UNL A   1      42.958  25.691  35.088  1.00  0.00    -0.203 F 
ATOM     73  F   UNL A   1      47.827  28.139  35.333  1.00  0.00    -0.200 F 
ATOM     74  C   UNL A   1      46.432  26.318  35.888  1.00  0.00     0.200 A 
ATOM     75  F   UNL A   1      45.003  24.512  36.406  1.00  0.00    -0.200 F 
ATOM     76  F   UNL A   1      47.449  25.711  36.514  1.00  0.00    -0.200 F 
ENDBRANCH  52  66
BRANCH  53  77
ATOM     77  C   UNL A   1      36.710  31.690  29.556  1.00  0.00     0.064 A 
ATOM     78  C   UNL A   1      35.653  30.884  29.110  1.00  0.00     0.173 A 
ATOM     79  C   UNL A   1      36.647  33.061  29.269  1.00  0.00     0.173 A 
ATOM     80  F   UNL A   1      35.680  29.562  29.333  1.00  0.00    -0.203 F 
ATOM     81  C   UNL A   1      34.590  31.422  28.387  1.00  0.00     0.198 A 
ATOM     82  C   UNL A   1      35.568  33.604  28.574  1.00  0.00     0.198 A 
ATOM     83  F   UNL A   1      37.635  33.877  29.665  1.00  0.00    -0.203 F 
ATOM     84  F   UNL A   1      33.622  30.620  27.926  1.00  0.00    -0.200 F 
ATOM     85  C   UNL A   1      34.545  32.784  28.125  1.00  0.00     0.200 A 
ATOM     86  F   UNL A   1      35.524  34.922  28.332  1.00  0.00    -0.200 F 
ATOM     87  F   UNL A   1      33.522  33.301  27.432  1.00  0.00    -0.200 F 
ENDBRANCH  53  77
BRANCH  65  88
ATOM     88  C   UNL A   1      38.788  31.922  36.214  1.00  0.00     0.064 A 
ATOM     89  C   UNL A   1      37.920  31.295  37.119  1.00  0.00     0.173 A 
ATOM     90  C   UNL A   1      39.189  33.237  36.498  1.00  0.00     0.173 A 
ATOM     91  F   UNL A   1      37.494  30.042  36.891  1.00  0.00    -0.203 F 
ATOM     92  C   UNL A   1      37.450  31.966  38.246  1.00  0.00     0.198 A 
ATOM     93  C   UNL A   1      38.746  33.893  37.644  1.00  0.00     0.198 A 
ATOM     94  F   UNL A   1      40.025  33.883  35.672  1.00  0.00    -0.203 F 
ATOM     95  F   UNL A   1      36.581  31.364  39.069  1.00  0.00    -0.200 F 
ATOM     96  C   UNL A   1      37.871  33.261  38.512  1.00  0.00     0.200 A 
ATOM     97  F   UNL A   1      39.169  35.137  37.908  1.00  0.00    -0.200 F 
ATOM     98  F   UNL A   1      37.427  33.901  39.602  1.00  0.00    -0.200 F 
ENDBRANCH  65  88
ENDBRANCH  39  40
ENDBRANCH  32  34
ENDBRANCH  31  32
ENDBRANCH  30  31
ENDBRANCH  29  30
ENDBRANCH  28  29
ENDBRANCH  27  28
ENDBRANCH   1  27
TORSDOF 20
ENDMDL
MODEL 2
REMARK VINA RESULT:     -10.4      2.224      3.421
REMARK SMILES C[NH2+][C@]1(C(=O)OCCOCCOCCOC(=O)c2ccc(-c3c4nc(c(-c5c(F)c(F)c(F)c(F)c5F)c5ccc([nH]5)c(-c5c(F)c(F)c(F)c(F)c5F)c5nc(c(-c6c(F)c(F)c(F)c(F)c6F)c6ccc3[nH]6)C=C5)C=C4)cc2)CCC[C@H](Sc2n[nH]c(=O)n2C)C1
REMARK SMILES IDX 10 1 9 2 8 3 7 4 6 5 4 6 5 7 3 8 81 9 93 10 82 11 84 12
REMARK SMILES IDX 83 13 2 14 1 15 85 18 86 19 87 20 91 21 88 22 89 23 92 24
REMARK SMILES IDX 90 26 11 27 12 28 13 29 14 30 15 31 16 32 17 33 18 34 19 35
REMARK SMILES IDX 80 36 20 37 79 38 21 39 22 40 23 41 73 42 24 43 78 44 72 45
REMARK SMILES IDX 74 46 25 47 77 48 71 49 70 50 26 52 58 53 38 54 57 55 39 56
REMARK SMILES IDX 42 57 56 58 75 59 40 60 41 61 55 63 76 64 43 65 27 66 28 67
REMARK SMILES IDX 36 68 29 69 30 70 34 71 37 72 31 73 32 74 35 75 33 76 59 77
REMARK SMILES IDX 60 78 68 79 61 80 62 81 66 82 69 83 63 84 64 85 67 86 65 87
REMARK SMILES IDX 44 88 45 89 53 90 46 91 47 92 51 93 54 94 48 95 49 96 52 97
REMARK SMILES IDX 50 98
REMARK H PARENT 2 16 2 17 88 25 74 51 42 62
REMARK Flexibility Score: inf
ROOT
ATOM      1  C   UNL A   1      40.250  21.644  26.307  1.00  0.00     0.188 C 
ENDROOT
BRANCH   1   2
ATOM      2  O   UNL A   1      38.946  21.272  25.883  1.00  0.00    -0.376 OA
BRANCH   2   3
ATOM      3  C   UNL A   1      37.983  22.314  25.717  1.00  0.00     0.202 C 
BRANCH   3   4
ATOM      4  C   UNL A   1      36.742  22.065  24.834  1.00  0.00     0.261 C 
BRANCH   4   5
ATOM      5  O   UNL A   1      35.471  22.251  25.499  1.00  0.00    -0.459 OA
BRANCH   5   6
ATOM      6  C   UNL A   1      34.361  21.951  24.770  1.00  0.00     0.368 C 
ATOM      7  O   UNL A   1      34.003  20.799  24.524  1.00  0.00    -0.245 OA
BRANCH   6   8
ATOM      8  C   UNL A   1      33.506  23.198  24.357  1.00  0.00     0.195 C 
ATOM      9  C   UNL A   1      31.985  22.893  24.225  1.00  0.00     0.081 C 
ATOM     10  C   UNL A   1      33.642  24.226  25.525  1.00  0.00     0.096 C 
ATOM     11  C   UNL A   1      31.117  24.144  24.038  1.00  0.00     0.008 C 
ATOM     12  C   UNL A   1      32.779  25.503  25.422  1.00  0.00     0.061 C 
ATOM     13  C   UNL A   1      31.313  25.130  25.182  1.00  0.00     0.015 C 
BRANCH   8  14
ATOM     14  N   UNL A   1      33.986  23.710  23.027  1.00  0.00    -0.335 N 
ATOM     15  C   UNL A   1      33.237  23.233  21.863  1.00  0.00     0.331 C 
ATOM     16  H   UNL A   1      33.929  24.729  23.043  1.00  0.00     0.347 HD
ATOM     17  H   UNL A   1      34.937  23.355  22.916  1.00  0.00     0.347 HD
ENDBRANCH   8  14
BRANCH  12  18
ATOM     18  S   UNL A   1      33.484  26.570  24.126  1.00  0.00    -0.082 SA
BRANCH  18  19
ATOM     19  C   UNL A   1      32.145  27.385  23.435  1.00  0.00     0.191 A 
ATOM     20  N   UNL A   1      31.582  27.101  22.299  1.00  0.00    -0.146 NA
ATOM     21  N   UNL A   1      31.602  28.427  24.106  1.00  0.00    -0.273 N 
ATOM     22  N   UNL A   1      30.587  28.034  22.197  1.00  0.00    -0.226 N 
ATOM     23  C   UNL A   1      30.582  28.865  23.310  1.00  0.00     0.343 A 
ATOM     24  C   UNL A   1      31.931  29.025  25.383  1.00  0.00     0.157 C 
ATOM     25  H   UNL A   1      29.961  28.107  21.441  1.00  0.00     0.195 HD
ATOM     26  O   UNL A   1      29.814  29.794  23.516  1.00  0.00    -0.246 OA
ENDBRANCH  18  19
ENDBRANCH  12  18
ENDBRANCH   6   8
ENDBRANCH   5   6
ENDBRANCH   4   5
ENDBRANCH   3   4
ENDBRANCH   2   3
ENDBRANCH   1   2
BRANCH   1  27
ATOM     27  C   UNL A   1      40.878  20.870  27.469  1.00  0.00     0.188 C 
BRANCH  27  28
ATOM     28  O   UNL A   1      42.215  20.480  27.267  1.00  0.00    -0.376 OA
BRANCH  28  29
ATOM     29  C   UNL A   1      42.745  20.440  25.953  1.00  0.00     0.202 C 
BRANCH  29  30
ATOM     30  C   UNL A   1      43.996  21.249  25.546  1.00  0.00     0.261 C 
BRANCH  30  31
ATOM     31  O   UNL A   1      44.245  22.492  26.222  1.00  0.00    -0.460 OA
BRANCH  31  32
ATOM     32  C   UNL A   1      44.067  23.635  25.513  1.00  0.00     0.338 C 
ATOM     33  O   UNL A   1      44.187  23.777  24.310  1.00  0.00    -0.246 OA
BRANCH  32  34
ATOM     34  C   UNL A   1      43.430  24.623  26.423  1.00  0.00     0.060 A 
ATOM     35  C   UNL A   1      43.878  25.954  26.396  1.00  0.00     0.016 A 
ATOM     36  C   UNL A   1      42.364  24.261  27.249  1.00  0.00     0.016 A 
ATOM     37  C   UNL A   1      43.282  26.917  27.215  1.00  0.00     0.010 A 
ATOM     38  C   UNL A   1      41.787  25.220  28.088  1.00  0.00     0.010 A 
ATOM     39  C   UNL A   1      42.263  26.545  28.098  1.00  0.00    -0.014 A 
BRANCH  39  40
ATOM     40  C   UNL A   1      41.837  27.471  29.178  1.00  0.00     0.031 A 
ATOM     41  C   UNL A   1      42.588  27.432  30.482  1.00  0.00     0.074 A 
ATOM     42  C   UNL A   1      40.816  28.333  29.021  1.00  0.00     0.049 A 
ATOM     43  N   UNL A   1      42.353  28.063  31.603  1.00  0.00    -0.248 NA
ATOM     44  C   UNL A   1      43.766  26.550  30.522  1.00  0.00     0.031 C 
ATOM     45  C   UNL A   1      40.037  28.511  27.798  1.00  0.00     0.029 A 
ATOM     46  N   UNL A   1      40.248  29.211  29.914  1.00  0.00    -0.354 N 
ATOM     47  C   UNL A   1      43.343  27.646  32.483  1.00  0.00     0.074 A 
ATOM     48  C   UNL A   1      44.162  26.685  31.777  1.00  0.00     0.031 C 
ATOM     49  C   UNL A   1      39.077  29.426  28.025  1.00  0.00     0.029 A 
ATOM     50  C   UNL A   1      39.149  29.867  29.418  1.00  0.00     0.049 A 
ATOM     51  H   UNL A   1      40.598  29.356  30.823  1.00  0.00     0.167 HD
ATOM     52  C   UNL A   1      43.558  28.034  33.763  1.00  0.00     0.037 A 
ATOM     53  C   UNL A   1      38.285  30.702  30.030  1.00  0.00     0.037 A 
ATOM     54  C   UNL A   1      42.739  28.986  34.468  1.00  0.00     0.049 A 
ATOM     55  C   UNL A   1      38.489  31.053  31.484  1.00  0.00     0.074 A 
ATOM     56  C   UNL A   1      42.881  29.452  35.763  1.00  0.00     0.029 A 
ATOM     57  N   UNL A   1      41.619  29.608  33.940  1.00  0.00    -0.354 N 
ATOM     58  N   UNL A   1      39.437  30.672  32.305  1.00  0.00    -0.248 NA
ATOM     59  C   UNL A   1      37.501  31.955  32.095  1.00  0.00     0.031 C 
ATOM     60  C   UNL A   1      41.812  30.309  36.039  1.00  0.00     0.029 A 
ATOM     61  C   UNL A   1      41.043  30.433  34.893  1.00  0.00     0.049 A 
ATOM     62  H   UNL A   1      41.282  29.483  33.023  1.00  0.00     0.167 HD
ATOM     63  C   UNL A   1      39.181  31.311  33.514  1.00  0.00     0.074 A 
ATOM     64  C   UNL A   1      37.995  32.117  33.315  1.00  0.00     0.031 C 
ATOM     65  C   UNL A   1      39.867  31.240  34.681  1.00  0.00     0.037 A 
BRANCH  52  66
ATOM     66  C   UNL A   1      44.706  27.402  34.494  1.00  0.00     0.064 A 
ATOM     67  C   UNL A   1      45.985  27.979  34.504  1.00  0.00     0.173 A 
ATOM     68  C   UNL A   1      44.518  26.214  35.216  1.00  0.00     0.173 A 
ATOM     69  F   UNL A   1      46.223  29.106  33.817  1.00  0.00    -0.203 F 
ATOM     70  C   UNL A   1      47.039  27.373  35.185  1.00  0.00     0.198 A 
ATOM     71  C   UNL A   1      45.565  25.630  35.924  1.00  0.00     0.198 A 
ATOM     72  F   UNL A   1      43.315  25.621  35.242  1.00  0.00    -0.203 F 
ATOM     73  F   UNL A   1      48.265  27.913  35.134  1.00  0.00    -0.200 F 
ATOM     74  C   UNL A   1      46.827  26.205  35.899  1.00  0.00     0.200 A 
ATOM     75  F   UNL A   1      45.354  24.509  36.626  1.00  0.00    -0.200 F 
ATOM     76  F   UNL A   1      47.839  25.628  36.560  1.00  0.00    -0.200 F 
ENDBRANCH  52  66
BRANCH  53  77
ATOM     77  C   UNL A   1      37.122  31.252  29.280  1.00  0.00     0.064 A 
ATOM     78  C   UNL A   1      37.077  32.601  28.900  1.00  0.00     0.173 A 
ATOM     79  C   UNL A   1      36.017  30.450  28.960  1.00  0.00     0.173 A 
ATOM     80  F   UNL A   1      38.095  33.418  29.208  1.00  0.00    -0.203 F 
ATOM     81  C   UNL A   1      35.965  33.131  28.248  1.00  0.00     0.198 A 
ATOM     82  C   UNL A   1      34.919  30.973  28.279  1.00  0.00     0.198 A 
ATOM     83  F   UNL A   1      36.003  29.155  29.307  1.00  0.00    -0.203 F 
ATOM     84  F   UNL A   1      35.927  34.435  27.945  1.00  0.00    -0.200 F 
ATOM     85  C   UNL A   1      34.889  32.315  27.932  1.00  0.00     0.200 A 
ATOM     86  F   UNL A   1      33.886  30.178  27.967  1.00  0.00    -0.200 F 
ATOM     87  F   UNL A   1      33.821  32.823  27.303  1.00  0.00    -0.200 F 
ENDBRANCH  53  77
BRANCH  65  88
ATOM     88  C   UNL A   1      39.390  32.090  35.827  1.00  0.00     0.064 A 
ATOM     89  C   UNL A   1      39.844  33.403  36.017  1.00  0.00     0.173 A 
ATOM     90  C   UNL A   1      38.424  31.597  36.719  1.00  0.00     0.173 A 
ATOM     91  F   UNL A   1      40.775  33.922  35.201  1.00  0.00    -0.203 F 
ATOM     92  C   UNL A   1      39.373  34.179  37.074  1.00  0.00     0.198 A 
ATOM     93  C   UNL A   1      37.929  32.388  37.753  1.00  0.00     0.198 A 
ATOM     94  F   UNL A   1      37.946  30.352  36.579  1.00  0.00    -0.203 F 
ATOM     95  F   UNL A   1      39.860  35.412  37.267  1.00  0.00    -0.200 F 
ATOM     96  C   UNL A   1      38.410  33.674  37.935  1.00  0.00     0.200 A 
ATOM     97  F   UNL A   1      36.985  31.903  38.572  1.00  0.00    -0.200 F 
ATOM     98  F   UNL A   1      37.950  34.426  38.945  1.00  0.00    -0.200 F 
ENDBRANCH  65  88
ENDBRANCH  39  40
ENDBRANCH  32  34
ENDBRANCH  31  32
ENDBRANCH  30  31
ENDBRANCH  29  30
ENDBRANCH  28  29
ENDBRANCH  27  28
ENDBRANCH   1  27
TORSDOF 20
ENDMDL
MODEL 3
REMARK VINA RESULT:     -10.3      5.178     10.154
REMARK SMILES C[NH2+][C@]1(C(=O)OCCOCCOCCOC(=O)c2ccc(-c3c4nc(c(-c5c(F)c(F)c(F)c(F)c5F)c5ccc([nH]5)c(-c5c(F)c(F)c(F)c(F)c5F)c5nc(c(-c6c(F)c(F)c(F)c(F)c6F)c6ccc3[nH]6)C=C5)C=C4)cc2)CCC[C@H](Sc2n[nH]c(=O)n2C)C1
REMARK SMILES IDX 10 1 9 2 8 3 7 4 6 5 4 6 5 7 3 8 81 9 93 10 82 11 84 12
REMARK SMILES IDX 83 13 2 14 1 15 85 18 86 19 87 20 91 21 88 22 89 23 92 24
REMARK SMILES IDX 90 26 11 27 12 28 13 29 14 30 15 31 16 32 17 33 18 34 19 35
REMARK SMILES IDX 80 36 20 37 79 38 21 39 22 40 23 41 73 42 24 43 78 44 72 45
REMARK SMILES IDX 74 46 25 47 77 48 71 49 70 50 26 52 58 53 38 54 57 55 39 56
REMARK SMILES IDX 42 57 56 58 75 59 40 60 41 61 55 63 76 64 43 65 27 66 28 67
REMARK SMILES IDX 36 68 29 69 30 70 34 71 37 72 31 73 32 74 35 75 33 76 59 77
REMARK SMILES IDX 60 78 68 79 61 80 62 81 66 82 69 83 63 84 64 85 67 86 65 87
REMARK SMILES IDX 44 88 45 89 53 90 46 91 47 92 51 93 54 94 48 95 49 96 52 97
REMARK SMILES IDX 50 98
REMARK H PARENT 2 16 2 17 88 25 74 51 42 62
REMARK Flexibility Score: inf
ROOT
ATOM      1  C   UNL A   1      34.536  30.428  27.543  1.00  0.00     0.188 C 
ENDROOT
BRANCH   1   2
ATOM      2  O   UNL A   1      33.964  29.128  27.590  1.00  0.00    -0.376 OA
BRANCH   2   3
ATOM      3  C   UNL A   1      32.948  28.819  26.634  1.00  0.00     0.202 C 
BRANCH   3   4
ATOM      4  C   UNL A   1      31.688  28.053  27.089  1.00  0.00     0.261 C 
BRANCH   4   5
ATOM      5  O   UNL A   1      31.849  26.619  27.192  1.00  0.00    -0.459 OA
BRANCH   5   6
ATOM      6  C   UNL A   1      31.489  25.893  26.099  1.00  0.00     0.368 C 
ATOM      7  O   UNL A   1      30.415  26.035  25.515  1.00  0.00    -0.245 OA
BRANCH   6   8
ATOM      8  C   UNL A   1      32.605  24.926  25.572  1.00  0.00     0.195 C 
ATOM      9  C   UNL A   1      34.037  25.531  25.649  1.00  0.00     0.081 C 
ATOM     10  C   UNL A   1      32.603  23.694  26.533  1.00  0.00     0.096 C 
ATOM     11  C   UNL A   1      35.152  24.522  25.345  1.00  0.00     0.008 C 
ATOM     12  C   UNL A   1      33.712  22.644  26.307  1.00  0.00     0.061 C 
ATOM     13  C   UNL A   1      35.085  23.323  26.282  1.00  0.00     0.015 C 
BRANCH   8  14
ATOM     14  N   UNL A   1      32.328  24.585  24.134  1.00  0.00    -0.335 N 
ATOM     15  C   UNL A   1      32.989  25.443  23.147  1.00  0.00     0.331 C 
ATOM     16  H   UNL A   1      32.636  23.626  23.973  1.00  0.00     0.347 HD
ATOM     17  H   UNL A   1      31.326  24.722  24.000  1.00  0.00     0.347 HD
ENDBRANCH   8  14
BRANCH  12  18
ATOM     18  S   UNL A   1      33.327  21.719  24.786  1.00  0.00    -0.082 SA
BRANCH  18  19
ATOM     19  C   UNL A   1      34.365  20.356  24.811  1.00  0.00     0.191 A 
ATOM     20  N   UNL A   1      35.638  20.371  25.066  1.00  0.00    -0.146 NA
ATOM     21  N   UNL A   1      33.842  19.137  24.542  1.00  0.00    -0.273 N 
ATOM     22  N   UNL A   1      35.999  19.057  24.949  1.00  0.00    -0.226 N 
ATOM     23  C   UNL A   1      34.898  18.275  24.626  1.00  0.00     0.343 A 
ATOM     24  C   UNL A   1      32.491  18.717  24.232  1.00  0.00     0.157 C 
ATOM     25  H   UNL A   1      36.913  18.712  25.077  1.00  0.00     0.195 HD
ATOM     26  O   UNL A   1      34.895  17.065  24.455  1.00  0.00    -0.246 OA
ENDBRANCH  18  19
ENDBRANCH  12  18
ENDBRANCH   6   8
ENDBRANCH   5   6
ENDBRANCH   4   5
ENDBRANCH   3   4
ENDBRANCH   2   3
ENDBRANCH   1   2
BRANCH   1  27
ATOM     27  C   UNL A   1      33.593  31.632  27.593  1.00  0.00     0.188 C 
BRANCH  27  28
ATOM     28  O   UNL A   1      34.187  32.834  28.021  1.00  0.00    -0.376 OA
BRANCH  28  29
ATOM     29  C   UNL A   1      33.586  33.583  29.064  1.00  0.00     0.202 C 
BRANCH  29  30
ATOM     30  C   UNL A   1      34.406  34.507  29.991  1.00  0.00     0.261 C 
BRANCH  30  31
ATOM     31  O   UNL A   1      35.566  33.957  30.636  1.00  0.00    -0.460 OA
BRANCH  31  32
ATOM     32  C   UNL A   1      35.431  32.752  31.243  1.00  0.00     0.338 C 
ATOM     33  O   UNL A   1      34.459  32.341  31.849  1.00  0.00    -0.246 OA
BRANCH  32  34
ATOM     34  C   UNL A   1      36.573  31.907  30.804  1.00  0.00     0.060 A 
ATOM     35  C   UNL A   1      37.244  31.128  31.760  1.00  0.00     0.016 A 
ATOM     36  C   UNL A   1      36.943  31.835  29.459  1.00  0.00     0.016 A 
ATOM     37  C   UNL A   1      38.303  30.299  31.379  1.00  0.00     0.010 A 
ATOM     38  C   UNL A   1      38.020  31.026  29.084  1.00  0.00     0.010 A 
ATOM     39  C   UNL A   1      38.726  30.277  30.045  1.00  0.00    -0.014 A 
BRANCH  39  40
ATOM     40  C   UNL A   1      40.023  29.651  29.684  1.00  0.00     0.031 A 
ATOM     41  C   UNL A   1      41.260  30.507  29.730  1.00  0.00     0.074 A 
ATOM     42  C   UNL A   1      40.119  28.358  29.325  1.00  0.00     0.049 A 
ATOM     43  N   UNL A   1      42.485  30.228  29.371  1.00  0.00    -0.248 NA
ATOM     44  C   UNL A   1      41.081  31.872  30.252  1.00  0.00     0.031 C 
ATOM     45  C   UNL A   1      39.012  27.405  29.286  1.00  0.00     0.029 A 
ATOM     46  N   UNL A   1      41.206  27.630  28.906  1.00  0.00    -0.354 N 
ATOM     47  C   UNL A   1      43.220  31.382  29.611  1.00  0.00     0.074 A 
ATOM     48  C   UNL A   1      42.297  32.375  30.116  1.00  0.00     0.031 C 
ATOM     49  C   UNL A   1      39.474  26.222  28.843  1.00  0.00     0.029 A 
ATOM     50  C   UNL A   1      40.899  26.346  28.531  1.00  0.00     0.049 A 
ATOM     51  H   UNL A   1      42.120  27.995  28.878  1.00  0.00     0.167 HD
ATOM     52  C   UNL A   1      44.545  31.595  29.433  1.00  0.00     0.037 A 
ATOM     53  C   UNL A   1      41.672  25.394  27.971  1.00  0.00     0.037 A 
ATOM     54  C   UNL A   1      45.463  30.610  28.924  1.00  0.00     0.049 A 
ATOM     55  C   UNL A   1      43.129  25.681  27.699  1.00  0.00     0.074 A 
ATOM     56  C   UNL A   1      46.826  30.726  28.718  1.00  0.00     0.029 A 
ATOM     57  N   UNL A   1      45.108  29.329  28.531  1.00  0.00    -0.354 N 
ATOM     58  N   UNL A   1      43.822  26.766  27.945  1.00  0.00    -0.248 NA
ATOM     59  C   UNL A   1      43.912  24.606  27.071  1.00  0.00     0.031 C 
ATOM     60  C   UNL A   1      47.285  29.538  28.143  1.00  0.00     0.029 A 
ATOM     61  C   UNL A   1      46.221  28.654  28.056  1.00  0.00     0.049 A 
ATOM     62  H   UNL A   1      44.198  28.954  28.581  1.00  0.00     0.167 HD
ATOM     63  C   UNL A   1      45.123  26.494  27.536  1.00  0.00     0.074 A 
ATOM     64  C   UNL A   1      45.127  25.135  27.037  1.00  0.00     0.031 C 
ATOM     65  C   UNL A   1      46.217  27.296  27.572  1.00  0.00     0.037 A 
BRANCH  52  66
ATOM     66  C   UNL A   1      45.076  32.960  29.762  1.00  0.00     0.064 A 
ATOM     67  C   UNL A   1      45.585  33.271  31.033  1.00  0.00     0.173 A 
ATOM     68  C   UNL A   1      45.100  33.966  28.784  1.00  0.00     0.173 A 
ATOM     69  F   UNL A   1      45.571  32.351  32.009  1.00  0.00    -0.203 F 
ATOM     70  C   UNL A   1      46.068  34.546  31.319  1.00  0.00     0.198 A 
ATOM     71  C   UNL A   1      45.616  35.228  29.063  1.00  0.00     0.198 A 
ATOM     72  F   UNL A   1      44.628  33.722  27.552  1.00  0.00    -0.203 F 
ATOM     73  F   UNL A   1      46.497  34.835  32.555  1.00  0.00    -0.200 F 
ATOM     74  C   UNL A   1      46.090  35.520  30.333  1.00  0.00     0.200 A 
ATOM     75  F   UNL A   1      45.649  36.164  28.105  1.00  0.00    -0.200 F 
ATOM     76  F   UNL A   1      46.563  36.743  30.607  1.00  0.00    -0.200 F 
ENDBRANCH  52  66
BRANCH  53  77
ATOM     77  C   UNL A   1      41.084  24.076  27.601  1.00  0.00     0.064 A 
ATOM     78  C   UNL A   1      41.525  22.891  28.206  1.00  0.00     0.173 A 
ATOM     79  C   UNL A   1      40.095  23.973  26.613  1.00  0.00     0.173 A 
ATOM     80  F   UNL A   1      42.490  22.932  29.136  1.00  0.00    -0.203 F 
ATOM     81  C   UNL A   1      41.015  21.652  27.821  1.00  0.00     0.198 A 
ATOM     82  C   UNL A   1      39.562  22.737  26.251  1.00  0.00     0.198 A 
ATOM     83  F   UNL A   1      39.642  25.075  25.997  1.00  0.00    -0.203 F 
ATOM     84  F   UNL A   1      41.494  20.531  28.376  1.00  0.00    -0.200 F 
ATOM     85  C   UNL A   1      40.029  21.576  26.848  1.00  0.00     0.200 A 
ATOM     86  F   UNL A   1      38.602  22.670  25.319  1.00  0.00    -0.200 F 
ATOM     87  F   UNL A   1      39.537  20.386  26.480  1.00  0.00    -0.200 F 
ENDBRANCH  53  77
BRANCH  65  88
ATOM     88  C   UNL A   1      47.525  26.717  27.109  1.00  0.00     0.064 A 
ATOM     89  C   UNL A   1      48.369  26.004  27.972  1.00  0.00     0.173 A 
ATOM     90  C   UNL A   1      47.915  26.836  25.765  1.00  0.00     0.173 A 
ATOM     91  F   UNL A   1      48.051  25.868  29.269  1.00  0.00    -0.203 F 
ATOM     92  C   UNL A   1      49.568  25.460  27.516  1.00  0.00     0.198 A 
ATOM     93  C   UNL A   1      49.096  26.260  25.305  1.00  0.00     0.198 A 
ATOM     94  F   UNL A   1      47.141  27.499  24.892  1.00  0.00    -0.203 F 
ATOM     95  F   UNL A   1      50.383  24.828  28.371  1.00  0.00    -0.200 F 
ATOM     96  C   UNL A   1      49.925  25.580  26.181  1.00  0.00     0.200 A 
ATOM     97  F   UNL A   1      49.430  26.363  24.010  1.00  0.00    -0.200 F 
ATOM     98  F   UNL A   1      51.074  25.046  25.742  1.00  0.00    -0.200 F 
ENDBRANCH  65  88
ENDBRANCH  39  40
ENDBRANCH  32  34
ENDBRANCH  31  32
ENDBRANCH  30  31
ENDBRANCH  29  30
ENDBRANCH  28  29
ENDBRANCH  27  28
ENDBRANCH   1  27
TORSDOF 20
ENDMDL
