MODEL 1
REMARK VINA RESULT:      -9.6      0.000      0.000
REMARK SMILES CCOC(=O)[C@@H]1CCCCN1C(=O)N[C@](C)(CC)C(=O)OCCOCCOCCOC(=O)c1ccc(-c2c3nc(c(-c4c(F)c(F)c(F)c(F)c4F)c4ccc([nH]4)c(-c4c(F)c(F)c(F)c(F)c4F)c4nc(c(-c5c(F)c(F)c(F)c(F)c5F)c5ccc2[nH]5)C=C4)C=C3)cc1
REMARK SMILES IDX 24 1 23 2 22 3 21 4 19 5 20 6 15 7 16 8 14 9 12 10 13 11
REMARK SMILES IDX 11 13 6 14 7 15 8 16 10 17 9 18 4 19 5 20 3 21 2 22 1 23
REMARK SMILES IDX 17 24 18 25 25 26 26 27 27 28 28 29 29 30 30 31 31 32 32 33
REMARK SMILES IDX 33 34 34 35 95 36 35 37 94 38 36 39 37 40 38 41 88 42 39 43
REMARK SMILES IDX 93 44 87 45 89 46 40 47 92 48 86 49 85 50 41 52 73 53 53 54
REMARK SMILES IDX 72 55 54 56 57 57 71 58 90 59 55 60 56 61 70 63 91 64 58 65
REMARK SMILES IDX 42 66 43 67 51 68 44 69 45 70 49 71 52 72 46 73 47 74 50 75
REMARK SMILES IDX 48 76 74 77 75 78 83 79 76 80 77 81 81 82 84 83 78 84 79 85
REMARK SMILES IDX 82 86 80 87 59 88 60 89 68 90 61 91 62 92 66 93 69 94 63 95
REMARK SMILES IDX 64 96 67 97 65 98
REMARK H PARENT 14 12 89 51 57 62
REMARK Flexibility Score: inf
ROOT
ATOM      1  O   UNL A   1      30.624  27.833  22.266  1.00  0.00    -0.376 OA
ENDROOT
BRANCH   1   2
ATOM      2  C   UNL A   1      30.713  26.480  22.729  1.00  0.00     0.202 C 
BRANCH   2   3
ATOM      3  C   UNL A   1      29.845  26.111  23.951  1.00  0.00     0.261 C 
BRANCH   3   4
ATOM      4  O   UNL A   1      30.248  24.884  24.610  1.00  0.00    -0.462 OA
BRANCH   4   5
ATOM      5  C   UNL A   1      31.035  25.008  25.721  1.00  0.00     0.331 C 
ATOM      6  O   UNL A   1      30.692  25.599  26.742  1.00  0.00    -0.249 OA
BRANCH   5   7
ATOM      7  C   UNL A   1      32.369  24.172  25.635  1.00  0.00     0.136 C 
ATOM      8  C   UNL A   1      33.474  25.216  25.350  1.00  0.00     0.047 C 
BRANCH   7   9
ATOM      9  N   UNL A   1      32.232  23.363  24.386  1.00  0.00    -0.322 N 
ATOM     10  C   UNL A   1      32.998  22.572  23.605  1.00  0.00     0.319 C 
ATOM     11  O   UNL A   1      32.485  22.214  22.542  1.00  0.00    -0.249 OA
ATOM     12  H   UNL A   1      31.316  23.423  24.030  1.00  0.00     0.166 HD
BRANCH  10  13
ATOM     13  N   UNL A   1      34.234  22.118  23.997  1.00  0.00    -0.311 N 
ATOM     14  C   UNL A   1      34.364  20.679  24.323  1.00  0.00     0.196 C 
ATOM     15  C   UNL A   1      35.495  20.466  25.354  1.00  0.00     0.037 C 
ATOM     16  C   UNL A   1      36.818  21.076  24.907  1.00  0.00     0.005 C 
ATOM     17  C   UNL A   1      35.492  22.672  23.515  1.00  0.00     0.122 C 
ATOM     18  C   UNL A   1      36.617  22.532  24.532  1.00  0.00     0.022 C 
BRANCH  14  19
ATOM     19  C   UNL A   1      33.146  19.948  24.913  1.00  0.00     0.328 C 
ATOM     20  O   UNL A   1      32.105  20.466  25.289  1.00  0.00    -0.250 OA
BRANCH  19  21
ATOM     21  O   UNL A   1      33.476  18.625  25.037  1.00  0.00    -0.464 OA
BRANCH  21  22
ATOM     22  C   UNL A   1      33.900  17.928  23.860  1.00  0.00     0.229 C 
ATOM     23  C   UNL A   1      33.493  16.467  23.862  1.00  0.00     0.049 C 
ENDBRANCH  21  22
ENDBRANCH  19  21
ENDBRANCH  14  19
ENDBRANCH  10  13
ENDBRANCH   7   9
BRANCH   7  24
ATOM     24  C   UNL A   1      32.484  23.246  26.879  1.00  0.00     0.037 C 
ATOM     25  C   UNL A   1      33.877  22.949  27.413  1.00  0.00     0.007 C 
ENDBRANCH   7  24
ENDBRANCH   5   7
ENDBRANCH   4   5
ENDBRANCH   3   4
ENDBRANCH   2   3
ENDBRANCH   1   2
BRANCH   1  26
ATOM     26  C   UNL A   1      31.246  28.810  23.090  1.00  0.00     0.188 C 
BRANCH  26  27
ATOM     27  C   UNL A   1      30.297  29.743  23.851  1.00  0.00     0.188 C 
BRANCH  27  28
ATOM     28  O   UNL A   1      30.899  30.393  24.961  1.00  0.00    -0.376 OA
BRANCH  28  29
ATOM     29  C   UNL A   1      32.013  29.782  25.611  1.00  0.00     0.202 C 
BRANCH  29  30
ATOM     30  C   UNL A   1      32.473  30.352  26.960  1.00  0.00     0.261 C 
BRANCH  30  31
ATOM     31  O   UNL A   1      33.875  30.179  27.246  1.00  0.00    -0.460 OA
BRANCH  31  32
ATOM     32  C   UNL A   1      34.572  31.270  27.648  1.00  0.00     0.338 C 
ATOM     33  O   UNL A   1      34.195  32.422  27.628  1.00  0.00    -0.246 OA
BRANCH  32  34
ATOM     34  C   UNL A   1      35.800  30.804  28.352  1.00  0.00     0.060 A 
ATOM     35  C   UNL A   1      36.926  31.640  28.322  1.00  0.00     0.016 A 
ATOM     36  C   UNL A   1      35.844  29.611  29.079  1.00  0.00     0.016 A 
ATOM     37  C   UNL A   1      38.105  31.263  28.969  1.00  0.00     0.010 A 
ATOM     38  C   UNL A   1      37.028  29.229  29.723  1.00  0.00     0.010 A 
ATOM     39  C   UNL A   1      38.179  30.033  29.637  1.00  0.00    -0.014 A 
BRANCH  39  40
ATOM     40  C   UNL A   1      39.508  29.514  30.057  1.00  0.00     0.031 A 
ATOM     41  C   UNL A   1      40.178  30.143  31.250  1.00  0.00     0.074 A 
ATOM     42  C   UNL A   1      40.082  28.459  29.452  1.00  0.00     0.049 A 
ATOM     43  N   UNL A   1      41.321  29.852  31.819  1.00  0.00    -0.248 NA
ATOM     44  C   UNL A   1      39.452  31.250  31.893  1.00  0.00     0.031 C 
ATOM     45  C   UNL A   1      39.521  27.718  28.326  1.00  0.00     0.029 A 
ATOM     46  N   UNL A   1      41.271  27.821  29.716  1.00  0.00    -0.354 N 
ATOM     47  C   UNL A   1      41.449  30.736  32.883  1.00  0.00     0.074 A 
ATOM     48  C   UNL A   1      40.292  31.603  32.853  1.00  0.00     0.031 C 
ATOM     49  C   UNL A   1      40.360  26.718  28.001  1.00  0.00     0.029 A 
ATOM     50  C   UNL A   1      41.534  26.771  28.872  1.00  0.00     0.049 A 
ATOM     51  H   UNL A   1      41.878  28.093  30.442  1.00  0.00     0.167 HD
ATOM     52  C   UNL A   1      42.431  30.812  33.814  1.00  0.00     0.037 A 
ATOM     53  C   UNL A   1      42.605  25.954  28.804  1.00  0.00     0.037 A 
ATOM     54  C   UNL A   1      43.592  29.960  33.842  1.00  0.00     0.049 A 
ATOM     55  C   UNL A   1      43.739  26.128  29.785  1.00  0.00     0.074 A 
ATOM     56  C   UNL A   1      44.646  29.967  34.739  1.00  0.00     0.029 A 
ATOM     57  N   UNL A   1      43.856  28.953  32.925  1.00  0.00    -0.354 N 
ATOM     58  N   UNL A   1      43.849  26.959  30.793  1.00  0.00    -0.248 NA
ATOM     59  C   UNL A   1      44.898  25.239  29.618  1.00  0.00     0.031 C 
ATOM     60  C   UNL A   1      45.577  29.007  34.329  1.00  0.00     0.029 A 
ATOM     61  C   UNL A   1      45.070  28.350  33.220  1.00  0.00     0.049 A 
ATOM     62  H   UNL A   1      43.267  28.703  32.177  1.00  0.00     0.167 HD
ATOM     63  C   UNL A   1      45.065  26.668  31.401  1.00  0.00     0.074 A 
ATOM     64  C   UNL A   1      45.650  25.573  30.657  1.00  0.00     0.031 C 
ATOM     65  C   UNL A   1      45.644  27.254  32.479  1.00  0.00     0.037 A 
BRANCH  52  66
ATOM     66  C   UNL A   1      42.303  31.885  34.859  1.00  0.00     0.064 A 
ATOM     67  C   UNL A   1      41.665  31.650  36.088  1.00  0.00     0.173 A 
ATOM     68  C   UNL A   1      42.825  33.166  34.628  1.00  0.00     0.173 A 
ATOM     69  F   UNL A   1      41.131  30.448  36.353  1.00  0.00    -0.203 F 
ATOM     70  C   UNL A   1      41.518  32.670  37.026  1.00  0.00     0.198 A 
ATOM     71  C   UNL A   1      42.710  34.171  35.583  1.00  0.00     0.198 A 
ATOM     72  F   UNL A   1      43.448  33.445  33.473  1.00  0.00    -0.203 F 
ATOM     73  F   UNL A   1      40.845  32.440  38.161  1.00  0.00    -0.200 F 
ATOM     74  C   UNL A   1      42.046  33.927  36.776  1.00  0.00     0.200 A 
ATOM     75  F   UNL A   1      43.233  35.383  35.346  1.00  0.00    -0.200 F 
ATOM     76  F   UNL A   1      41.904  34.906  37.679  1.00  0.00    -0.200 F 
ENDBRANCH  52  66
BRANCH  53  77
ATOM     77  C   UNL A   1      42.670  24.888  27.767  1.00  0.00     0.064 A 
ATOM     78  C   UNL A   1      42.185  23.597  28.023  1.00  0.00     0.173 A 
ATOM     79  C   UNL A   1      43.255  25.125  26.514  1.00  0.00     0.173 A 
ATOM     80  F   UNL A   1      41.647  23.310  29.218  1.00  0.00    -0.203 F 
ATOM     81  C   UNL A   1      42.301  22.580  27.076  1.00  0.00     0.198 A 
ATOM     82  C   UNL A   1      43.341  24.117  25.555  1.00  0.00     0.198 A 
ATOM     83  F   UNL A   1      43.743  26.339  26.220  1.00  0.00    -0.203 F 
ATOM     84  F   UNL A   1      41.882  21.343  27.370  1.00  0.00    -0.200 F 
ATOM     85  C   UNL A   1      42.873  22.843  25.840  1.00  0.00     0.200 A 
ATOM     86  F   UNL A   1      43.887  24.378  24.359  1.00  0.00    -0.200 F 
ATOM     87  F   UNL A   1      42.985  21.866  24.931  1.00  0.00    -0.200 F 
ENDBRANCH  53  77
BRANCH  65  88
ATOM     88  C   UNL A   1      46.954  26.687  32.957  1.00  0.00     0.064 A 
ATOM     89  C   UNL A   1      47.019  25.602  33.844  1.00  0.00     0.173 A 
ATOM     90  C   UNL A   1      48.169  27.232  32.506  1.00  0.00     0.173 A 
ATOM     91  F   UNL A   1      45.891  25.048  34.316  1.00  0.00    -0.203 F 
ATOM     92  C   UNL A   1      48.243  25.114  34.296  1.00  0.00     0.198 A 
ATOM     93  C   UNL A   1      49.391  26.717  32.929  1.00  0.00     0.198 A 
ATOM     94  F   UNL A   1      48.171  28.263  31.647  1.00  0.00    -0.203 F 
ATOM     95  F   UNL A   1      48.276  24.122  35.196  1.00  0.00    -0.200 F 
ATOM     96  C   UNL A   1      49.428  25.667  33.833  1.00  0.00     0.200 A 
ATOM     97  F   UNL A   1      50.534  27.241  32.465  1.00  0.00    -0.200 F 
ATOM     98  F   UNL A   1      50.605  25.197  34.268  1.00  0.00    -0.200 F 
ENDBRANCH  65  88
ENDBRANCH  39  40
ENDBRANCH  32  34
ENDBRANCH  31  32
ENDBRANCH  30  31
ENDBRANCH  29  30
ENDBRANCH  28  29
ENDBRANCH  27  28
ENDBRANCH  26  27
ENDBRANCH   1  26
TORSDOF 23
ENDMDL
MODEL 2
REMARK VINA RESULT:      -9.1      6.326     11.032
REMARK SMILES CCOC(=O)[C@@H]1CCCCN1C(=O)N[C@](C)(CC)C(=O)OCCOCCOCCOC(=O)c1ccc(-c2c3nc(c(-c4c(F)c(F)c(F)c(F)c4F)c4ccc([nH]4)c(-c4c(F)c(F)c(F)c(F)c4F)c4nc(c(-c5c(F)c(F)c(F)c(F)c5F)c5ccc2[nH]5)C=C4)C=C3)cc1
REMARK SMILES IDX 24 1 23 2 22 3 21 4 19 5 20 6 15 7 16 8 14 9 12 10 13 11
REMARK SMILES IDX 11 13 6 14 7 15 8 16 10 17 9 18 4 19 5 20 3 21 2 22 1 23
REMARK SMILES IDX 17 24 18 25 25 26 26 27 27 28 28 29 29 30 30 31 31 32 32 33
REMARK SMILES IDX 33 34 34 35 95 36 35 37 94 38 36 39 37 40 38 41 88 42 39 43
REMARK SMILES IDX 93 44 87 45 89 46 40 47 92 48 86 49 85 50 41 52 73 53 53 54
REMARK SMILES IDX 72 55 54 56 57 57 71 58 90 59 55 60 56 61 70 63 91 64 58 65
REMARK SMILES IDX 42 66 43 67 51 68 44 69 45 70 49 71 52 72 46 73 47 74 50 75
REMARK SMILES IDX 48 76 74 77 75 78 83 79 76 80 77 81 81 82 84 83 78 84 79 85
REMARK SMILES IDX 82 86 80 87 59 88 60 89 68 90 61 91 62 92 66 93 69 94 63 95
REMARK SMILES IDX 64 96 67 97 65 98
REMARK H PARENT 14 12 89 51 57 62
REMARK Flexibility Score: inf
ROOT
ATOM      1  O   UNL A   1      39.391  33.502  39.317  1.00  0.00    -0.376 OA
ENDROOT
BRANCH   1   2
ATOM      2  C   UNL A   1      38.189  33.692  38.563  1.00  0.00     0.202 C 
BRANCH   2   3
ATOM      3  C   UNL A   1      37.796  32.556  37.593  1.00  0.00     0.261 C 
BRANCH   3   4
ATOM      4  O   UNL A   1      38.711  32.389  36.481  1.00  0.00    -0.462 OA
BRANCH   4   5
ATOM      5  C   UNL A   1      38.395  31.430  35.559  1.00  0.00     0.331 C 
ATOM      6  O   UNL A   1      38.333  30.229  35.812  1.00  0.00    -0.249 OA
BRANCH   5   7
ATOM      7  C   UNL A   1      37.951  32.025  34.168  1.00  0.00     0.136 C 
ATOM      8  C   UNL A   1      36.686  32.859  34.479  1.00  0.00     0.047 C 
BRANCH   7   9
ATOM      9  N   UNL A   1      37.485  30.845  33.379  1.00  0.00    -0.322 N 
ATOM     10  C   UNL A   1      36.910  30.590  32.185  1.00  0.00     0.319 C 
ATOM     11  O   UNL A   1      36.552  29.425  32.003  1.00  0.00    -0.249 OA
ATOM     12  H   UNL A   1      37.646  30.009  33.874  1.00  0.00     0.166 HD
BRANCH  10  13
ATOM     13  N   UNL A   1      36.803  31.540  31.197  1.00  0.00    -0.311 N 
ATOM     14  C   UNL A   1      37.628  31.358  29.981  1.00  0.00     0.196 C 
ATOM     15  C   UNL A   1      37.944  32.728  29.341  1.00  0.00     0.037 C 
ATOM     16  C   UNL A   1      36.690  33.550  29.068  1.00  0.00     0.005 C 
ATOM     17  C   UNL A   1      35.580  32.275  30.908  1.00  0.00     0.122 C 
ATOM     18  C   UNL A   1      35.855  33.658  30.331  1.00  0.00     0.022 C 
BRANCH  14  19
ATOM     19  C   UNL A   1      38.992  30.660  30.117  1.00  0.00     0.328 C 
ATOM     20  O   UNL A   1      39.866  30.934  30.926  1.00  0.00    -0.250 OA
BRANCH  19  21
ATOM     21  O   UNL A   1      39.092  29.745  29.104  1.00  0.00    -0.464 OA
BRANCH  21  22
ATOM     22  C   UNL A   1      38.807  28.374  29.408  1.00  0.00     0.229 C 
ATOM     23  C   UNL A   1      40.030  27.609  29.876  1.00  0.00     0.049 C 
ENDBRANCH  21  22
ENDBRANCH  19  21
ENDBRANCH  14  19
ENDBRANCH  10  13
ENDBRANCH   7   9
BRANCH   7  24
ATOM     24  C   UNL A   1      39.170  32.700  33.478  1.00  0.00     0.037 C 
ATOM     25  C   UNL A   1      38.933  34.019  32.757  1.00  0.00     0.007 C 
ENDBRANCH   7  24
ENDBRANCH   5   7
ENDBRANCH   4   5
ENDBRANCH   3   4
ENDBRANCH   2   3
ENDBRANCH   1   2
BRANCH   1  26
ATOM     26  C   UNL A   1      39.218  33.020  40.644  1.00  0.00     0.188 C 
BRANCH  26  27
ATOM     27  C   UNL A   1      39.009  34.090  41.721  1.00  0.00     0.188 C 
BRANCH  27  28
ATOM     28  O   UNL A   1      39.642  35.328  41.431  1.00  0.00    -0.376 OA
BRANCH  28  29
ATOM     29  C   UNL A   1      41.003  35.525  41.812  1.00  0.00     0.202 C 
BRANCH  29  30
ATOM     30  C   UNL A   1      42.092  35.343  40.746  1.00  0.00     0.261 C 
BRANCH  30  31
ATOM     31  O   UNL A   1      42.335  36.500  39.922  1.00  0.00    -0.460 OA
BRANCH  31  32
ATOM     32  C   UNL A   1      41.413  36.801  38.976  1.00  0.00     0.338 C 
ATOM     33  O   UNL A   1      40.553  37.653  39.042  1.00  0.00    -0.246 OA
BRANCH  32  34
ATOM     34  C   UNL A   1      41.776  36.075  37.725  1.00  0.00     0.060 A 
ATOM     35  C   UNL A   1      40.737  35.712  36.856  1.00  0.00     0.016 A 
ATOM     36  C   UNL A   1      43.100  35.804  37.370  1.00  0.00     0.016 A 
ATOM     37  C   UNL A   1      41.012  35.037  35.665  1.00  0.00     0.010 A 
ATOM     38  C   UNL A   1      43.378  35.121  36.178  1.00  0.00     0.010 A 
ATOM     39  C   UNL A   1      42.332  34.696  35.339  1.00  0.00    -0.014 A 
BRANCH  39  40
ATOM     40  C   UNL A   1      42.581  33.728  34.238  1.00  0.00     0.031 A 
ATOM     41  C   UNL A   1      42.833  34.267  32.854  1.00  0.00     0.074 A 
ATOM     42  C   UNL A   1      42.661  32.404  34.459  1.00  0.00     0.049 A 
ATOM     43  N   UNL A   1      43.095  33.629  31.741  1.00  0.00    -0.248 NA
ATOM     44  C   UNL A   1      42.790  35.731  32.710  1.00  0.00     0.031 C 
ATOM     45  C   UNL A   1      42.497  31.750  35.755  1.00  0.00     0.029 A 
ATOM     46  N   UNL A   1      42.915  31.370  33.589  1.00  0.00    -0.354 N 
ATOM     47  C   UNL A   1      43.248  34.610  30.770  1.00  0.00     0.074 A 
ATOM     48  C   UNL A   1      43.004  35.882  31.413  1.00  0.00     0.031 C 
ATOM     49  C   UNL A   1      42.666  30.424  35.598  1.00  0.00     0.029 A 
ATOM     50  C   UNL A   1      42.912  30.133  34.185  1.00  0.00     0.049 A 
ATOM     51  H   UNL A   1      43.082  31.504  32.628  1.00  0.00     0.167 HD
ATOM     52  C   UNL A   1      43.578  34.471  29.462  1.00  0.00     0.037 A 
ATOM     53  C   UNL A   1      43.079  28.907  33.649  1.00  0.00     0.037 A 
ATOM     54  C   UNL A   1      43.810  33.207  28.813  1.00  0.00     0.049 A 
ATOM     55  C   UNL A   1      43.339  28.769  32.169  1.00  0.00     0.074 A 
ATOM     56  C   UNL A   1      44.138  32.963  27.491  1.00  0.00     0.029 A 
ATOM     57  N   UNL A   1      43.727  31.970  29.437  1.00  0.00    -0.354 N 
ATOM     58  N   UNL A   1      43.491  29.702  31.259  1.00  0.00    -0.248 NA
ATOM     59  C   UNL A   1      43.456  27.401  31.643  1.00  0.00     0.031 C 
ATOM     60  C   UNL A   1      44.194  31.578  27.301  1.00  0.00     0.029 A 
ATOM     61  C   UNL A   1      43.973  30.959  28.520  1.00  0.00     0.049 A 
ATOM     62  H   UNL A   1      43.525  31.832  30.390  1.00  0.00     0.167 HD
ATOM     63  C   UNL A   1      43.759  29.037  30.068  1.00  0.00     0.074 A 
ATOM     64  C   UNL A   1      43.764  27.622  30.373  1.00  0.00     0.031 C 
ATOM     65  C   UNL A   1      43.983  29.551  28.832  1.00  0.00     0.037 A 
BRANCH  52  66
ATOM     66  C   UNL A   1      43.670  35.726  28.642  1.00  0.00     0.064 A 
ATOM     67  C   UNL A   1      42.538  36.303  28.040  1.00  0.00     0.173 A 
ATOM     68  C   UNL A   1      44.905  36.363  28.453  1.00  0.00     0.173 A 
ATOM     69  F   UNL A   1      41.334  35.725  28.173  1.00  0.00    -0.203 F 
ATOM     70  C   UNL A   1      42.651  37.443  27.247  1.00  0.00     0.198 A 
ATOM     71  C   UNL A   1      45.007  37.523  27.692  1.00  0.00     0.198 A 
ATOM     72  F   UNL A   1      46.018  35.857  29.007  1.00  0.00    -0.203 F 
ATOM     73  F   UNL A   1      41.569  37.934  26.628  1.00  0.00    -0.200 F 
ATOM     74  C   UNL A   1      43.883  38.055  27.079  1.00  0.00     0.200 A 
ATOM     75  F   UNL A   1      46.197  38.122  27.541  1.00  0.00    -0.200 F 
ATOM     76  F   UNL A   1      43.989  39.152  26.316  1.00  0.00    -0.200 F 
ENDBRANCH  52  66
BRANCH  53  77
ATOM     77  C   UNL A   1      43.007  27.696  34.512  1.00  0.00     0.064 A 
ATOM     78  C   UNL A   1      41.811  26.978  34.654  1.00  0.00     0.173 A 
ATOM     79  C   UNL A   1      44.120  27.256  35.243  1.00  0.00     0.173 A 
ATOM     80  F   UNL A   1      40.708  27.378  34.003  1.00  0.00    -0.203 F 
ATOM     81  C   UNL A   1      41.725  25.880  35.510  1.00  0.00     0.198 A 
ATOM     82  C   UNL A   1      44.043  26.139  36.072  1.00  0.00     0.198 A 
ATOM     83  F   UNL A   1      45.287  27.911  35.151  1.00  0.00    -0.203 F 
ATOM     84  F   UNL A   1      40.554  25.249  35.672  1.00  0.00    -0.200 F 
ATOM     85  C   UNL A   1      42.843  25.458  36.213  1.00  0.00     0.200 A 
ATOM     86  F   UNL A   1      45.128  25.728  36.744  1.00  0.00    -0.200 F 
ATOM     87  F   UNL A   1      42.760  24.403  37.036  1.00  0.00    -0.200 F 
ENDBRANCH  53  77
BRANCH  65  88
ATOM     88  C   UNL A   1      44.309  28.584  27.726  1.00  0.00     0.064 A 
ATOM     89  C   UNL A   1      45.605  28.086  27.527  1.00  0.00     0.173 A 
ATOM     90  C   UNL A   1      43.300  28.135  26.857  1.00  0.00     0.173 A 
ATOM     91  F   UNL A   1      46.611  28.487  28.320  1.00  0.00    -0.203 F 
ATOM     92  C   UNL A   1      45.889  27.215  26.478  1.00  0.00     0.198 A 
ATOM     93  C   UNL A   1      43.578  27.234  25.833  1.00  0.00     0.198 A 
ATOM     94  F   UNL A   1      42.037  28.567  27.005  1.00  0.00    -0.203 F 
ATOM     95  F   UNL A   1      47.148  26.808  26.268  1.00  0.00    -0.200 F 
ATOM     96  C   UNL A   1      44.874  26.785  25.636  1.00  0.00     0.200 A 
ATOM     97  F   UNL A   1      42.592  26.805  25.033  1.00  0.00    -0.200 F 
ATOM     98  F   UNL A   1      45.148  25.946  24.627  1.00  0.00    -0.200 F 
ENDBRANCH  65  88
ENDBRANCH  39  40
ENDBRANCH  32  34
ENDBRANCH  31  32
ENDBRANCH  30  31
ENDBRANCH  29  30
ENDBRANCH  28  29
ENDBRANCH  27  28
ENDBRANCH  26  27
ENDBRANCH   1  26
TORSDOF 23
ENDMDL
MODEL 3
REMARK VINA RESULT:      -8.9      6.301     11.362
REMARK SMILES CCOC(=O)[C@@H]1CCCCN1C(=O)N[C@](C)(CC)C(=O)OCCOCCOCCOC(=O)c1ccc(-c2c3nc(c(-c4c(F)c(F)c(F)c(F)c4F)c4ccc([nH]4)c(-c4c(F)c(F)c(F)c(F)c4F)c4nc(c(-c5c(F)c(F)c(F)c(F)c5F)c5ccc2[nH]5)C=C4)C=C3)cc1
REMARK SMILES IDX 24 1 23 2 22 3 21 4 19 5 20 6 15 7 16 8 14 9 12 10 13 11
REMARK SMILES IDX 11 13 6 14 7 15 8 16 10 17 9 18 4 19 5 20 3 21 2 22 1 23
REMARK SMILES IDX 17 24 18 25 25 26 26 27 27 28 28 29 29 30 30 31 31 32 32 33
REMARK SMILES IDX 33 34 34 35 95 36 35 37 94 38 36 39 37 40 38 41 88 42 39 43
REMARK SMILES IDX 93 44 87 45 89 46 40 47 92 48 86 49 85 50 41 52 73 53 53 54
REMARK SMILES IDX 72 55 54 56 57 57 71 58 90 59 55 60 56 61 70 63 91 64 58 65
REMARK SMILES IDX 42 66 43 67 51 68 44 69 45 70 49 71 52 72 46 73 47 74 50 75
REMARK SMILES IDX 48 76 74 77 75 78 83 79 76 80 77 81 81 82 84 83 78 84 79 85
REMARK SMILES IDX 82 86 80 87 59 88 60 89 68 90 61 91 62 92 66 93 69 94 63 95
REMARK SMILES IDX 64 96 67 97 65 98
REMARK H PARENT 14 12 89 51 57 62
REMARK Flexibility Score: inf
ROOT
ATOM      1  O   UNL A   1      38.951  32.352  40.001  1.00  0.00    -0.376 OA
ENDROOT
BRANCH   1   2
ATOM      2  C   UNL A   1      37.817  32.657  39.181  1.00  0.00     0.202 C 
BRANCH   2   3
ATOM      3  C   UNL A   1      37.401  31.582  38.153  1.00  0.00     0.261 C 
BRANCH   3   4
ATOM      4  O   UNL A   1      37.447  32.035  36.777  1.00  0.00    -0.462 OA
BRANCH   4   5
ATOM      5  C   UNL A   1      38.197  31.294  35.906  1.00  0.00     0.331 C 
ATOM      6  O   UNL A   1      38.843  30.300  36.231  1.00  0.00    -0.249 OA
BRANCH   5   7
ATOM      7  C   UNL A   1      38.023  31.735  34.403  1.00  0.00     0.136 C 
ATOM      8  C   UNL A   1      36.805  32.688  34.407  1.00  0.00     0.047 C 
BRANCH   7   9
ATOM      9  N   UNL A   1      37.579  30.499  33.691  1.00  0.00    -0.322 N 
ATOM     10  C   UNL A   1      37.188  30.130  32.453  1.00  0.00     0.319 C 
ATOM     11  O   UNL A   1      36.750  28.982  32.351  1.00  0.00    -0.249 OA
ATOM     12  H   UNL A   1      37.569  29.728  34.303  1.00  0.00     0.166 HD
BRANCH  10  13
ATOM     13  N   UNL A   1      37.345  30.941  31.355  1.00  0.00    -0.311 N 
ATOM     14  C   UNL A   1      38.368  30.554  30.357  1.00  0.00     0.196 C 
ATOM     15  C   UNL A   1      38.905  31.807  29.630  1.00  0.00     0.037 C 
ATOM     16  C   UNL A   1      37.794  32.649  29.016  1.00  0.00     0.005 C 
ATOM     17  C   UNL A   1      36.259  31.695  30.742  1.00  0.00     0.122 C 
ATOM     18  C   UNL A   1      36.746  32.970  30.066  1.00  0.00     0.022 C 
BRANCH  14  19
ATOM     19  C   UNL A   1      39.623  29.810  30.844  1.00  0.00     0.328 C 
ATOM     20  O   UNL A   1      40.574  30.306  31.431  1.00  0.00    -0.250 OA
BRANCH  19  21
ATOM     21  O   UNL A   1      39.531  28.514  30.414  1.00  0.00    -0.464 OA
BRANCH  21  22
ATOM     22  C   UNL A   1      38.676  28.238  29.299  1.00  0.00     0.229 C 
ATOM     23  C   UNL A   1      39.441  28.055  28.002  1.00  0.00     0.049 C 
ENDBRANCH  21  22
ENDBRANCH  19  21
ENDBRANCH  14  19
ENDBRANCH  10  13
ENDBRANCH   7   9
BRANCH   7  24
ATOM     24  C   UNL A   1      39.388  32.229  33.845  1.00  0.00     0.037 C 
ATOM     25  C   UNL A   1      39.382  33.461  32.952  1.00  0.00     0.007 C 
ENDBRANCH   7  24
ENDBRANCH   5   7
ENDBRANCH   4   5
ENDBRANCH   3   4
ENDBRANCH   2   3
ENDBRANCH   1   2
BRANCH   1  26
ATOM     26  C   UNL A   1      38.674  32.125  41.377  1.00  0.00     0.188 C 
BRANCH  26  27
ATOM     27  C   UNL A   1      38.334  33.370  42.204  1.00  0.00     0.188 C 
BRANCH  27  28
ATOM     28  O   UNL A   1      39.255  34.438  42.040  1.00  0.00    -0.376 OA
BRANCH  28  29
ATOM     29  C   UNL A   1      40.640  34.216  42.304  1.00  0.00     0.202 C 
BRANCH  29  30
ATOM     30  C   UNL A   1      41.626  34.286  41.130  1.00  0.00     0.261 C 
BRANCH  30  31
ATOM     31  O   UNL A   1      41.823  35.604  40.579  1.00  0.00    -0.460 OA
BRANCH  31  32
ATOM     32  C   UNL A   1      40.953  36.021  39.627  1.00  0.00     0.338 C 
ATOM     33  O   UNL A   1      40.045  36.812  39.767  1.00  0.00    -0.246 OA
BRANCH  32  34
ATOM     34  C   UNL A   1      41.443  35.536  38.305  1.00  0.00     0.060 A 
ATOM     35  C   UNL A   1      40.489  35.099  37.376  1.00  0.00     0.016 A 
ATOM     36  C   UNL A   1      42.795  35.559  37.949  1.00  0.00     0.016 A 
ATOM     37  C   UNL A   1      40.884  34.640  36.118  1.00  0.00     0.010 A 
ATOM     38  C   UNL A   1      43.193  35.092  36.690  1.00  0.00     0.010 A 
ATOM     39  C   UNL A   1      42.243  34.590  35.782  1.00  0.00    -0.014 A 
BRANCH  39  40
ATOM     40  C   UNL A   1      42.665  33.829  34.576  1.00  0.00     0.031 A 
ATOM     41  C   UNL A   1      42.777  32.330  34.677  1.00  0.00     0.074 A 
ATOM     42  C   UNL A   1      42.873  34.432  33.392  1.00  0.00     0.049 A 
ATOM     43  N   UNL A   1      43.102  31.451  33.764  1.00  0.00    -0.248 NA
ATOM     44  C   UNL A   1      42.470  31.745  35.992  1.00  0.00     0.031 C 
ATOM     45  C   UNL A   1      42.744  35.864  33.135  1.00  0.00     0.029 A 
ATOM     46  N   UNL A   1      43.227  33.902  32.174  1.00  0.00    -0.354 N 
ATOM     47  C   UNL A   1      43.039  30.213  34.391  1.00  0.00     0.074 A 
ATOM     48  C   UNL A   1      42.690  30.458  35.773  1.00  0.00     0.031 C 
ATOM     49  C   UNL A   1      43.006  36.099  31.836  1.00  0.00     0.029 A 
ATOM     50  C   UNL A   1      43.356  34.839  31.179  1.00  0.00     0.049 A 
ATOM     51  H   UNL A   1      43.377  32.939  32.028  1.00  0.00     0.167 HD
ATOM     52  C   UNL A   1      43.236  28.980  33.864  1.00  0.00     0.037 A 
ATOM     53  C   UNL A   1      43.724  34.697  29.890  1.00  0.00     0.037 A 
ATOM     54  C   UNL A   1      43.596  28.730  32.493  1.00  0.00     0.049 A 
ATOM     55  C   UNL A   1      44.045  33.324  29.352  1.00  0.00     0.074 A 
ATOM     56  C   UNL A   1      43.828  27.517  31.869  1.00  0.00     0.029 A 
ATOM     57  N   UNL A   1      43.786  29.714  31.533  1.00  0.00    -0.354 N 
ATOM     58  N   UNL A   1      43.974  32.158  29.949  1.00  0.00    -0.248 NA
ATOM     59  C   UNL A   1      44.493  33.250  27.953  1.00  0.00     0.031 C 
ATOM     60  C   UNL A   1      44.218  27.769  30.549  1.00  0.00     0.029 A 
ATOM     61  C   UNL A   1      44.158  29.135  30.328  1.00  0.00     0.049 A 
ATOM     62  H   UNL A   1      43.672  30.680  31.685  1.00  0.00     0.167 HD
ATOM     63  C   UNL A   1      44.329  31.214  28.992  1.00  0.00     0.074 A 
ATOM     64  C   UNL A   1      44.600  31.942  27.770  1.00  0.00     0.031 C 
ATOM     65  C   UNL A   1      44.420  29.865  29.113  1.00  0.00     0.037 A 
BRANCH  52  66
ATOM     66  C   UNL A   1      43.101  27.808  34.796  1.00  0.00     0.064 A 
ATOM     67  C   UNL A   1      44.146  27.415  35.649  1.00  0.00     0.173 A 
ATOM     68  C   UNL A   1      41.912  27.066  34.836  1.00  0.00     0.173 A 
ATOM     69  F   UNL A   1      45.313  28.078  35.638  1.00  0.00    -0.203 F 
ATOM     70  C   UNL A   1      44.017  26.300  36.474  1.00  0.00     0.198 A 
ATOM     71  C   UNL A   1      41.773  25.975  35.689  1.00  0.00     0.198 A 
ATOM     72  F   UNL A   1      40.880  27.399  34.045  1.00  0.00    -0.203 F 
ATOM     73  F   UNL A   1      45.052  25.904  37.227  1.00  0.00    -0.200 F 
ATOM     74  C   UNL A   1      42.830  25.586  36.498  1.00  0.00     0.200 A 
ATOM     75  F   UNL A   1      40.619  25.294  35.722  1.00  0.00    -0.200 F 
ATOM     76  F   UNL A   1      42.707  24.513  37.292  1.00  0.00    -0.200 F 
ENDBRANCH  52  66
BRANCH  53  77
ATOM     77  C   UNL A   1      43.815  35.888  29.001  1.00  0.00     0.064 A 
ATOM     78  C   UNL A   1      42.702  36.338  28.276  1.00  0.00     0.173 A 
ATOM     79  C   UNL A   1      45.026  36.576  28.826  1.00  0.00     0.173 A 
ATOM     80  F   UNL A   1      41.530  35.694  28.382  1.00  0.00    -0.203 F 
ATOM     81  C   UNL A   1      42.801  37.414  27.395  1.00  0.00     0.198 A 
ATOM     82  C   UNL A   1      45.115  37.673  27.971  1.00  0.00     0.198 A 
ATOM     83  F   UNL A   1      46.123  36.182  29.488  1.00  0.00    -0.203 F 
ATOM     84  F   UNL A   1      41.736  37.785  26.671  1.00  0.00    -0.200 F 
ATOM     85  C   UNL A   1      44.006  38.085  27.248  1.00  0.00     0.200 A 
ATOM     86  F   UNL A   1      46.280  38.323  27.839  1.00  0.00    -0.200 F 
ATOM     87  F   UNL A   1      44.101  39.119  26.402  1.00  0.00    -0.200 F 
ENDBRANCH  53  77
BRANCH  65  88
ATOM     88  C   UNL A   1      44.775  29.080  27.879  1.00  0.00     0.064 A 
ATOM     89  C   UNL A   1      46.097  28.719  27.578  1.00  0.00     0.173 A 
ATOM     90  C   UNL A   1      43.769  28.669  26.987  1.00  0.00     0.173 A 
ATOM     91  F   UNL A   1      47.099  29.093  28.388  1.00  0.00    -0.203 F 
ATOM     92  C   UNL A   1      46.404  28.019  26.414  1.00  0.00     0.198 A 
ATOM     93  C   UNL A   1      44.075  27.935  25.844  1.00  0.00     0.198 A 
ATOM     94  F   UNL A   1      42.485  28.974  27.228  1.00  0.00    -0.203 F 
ATOM     95  F   UNL A   1      47.682  27.745  26.116  1.00  0.00    -0.200 F 
ATOM     96  C   UNL A   1      45.393  27.622  25.552  1.00  0.00     0.200 A 
ATOM     97  F   UNL A   1      43.095  27.537  25.023  1.00  0.00    -0.200 F 
ATOM     98  F   UNL A   1      45.690  26.947  24.432  1.00  0.00    -0.200 F 
ENDBRANCH  65  88
ENDBRANCH  39  40
ENDBRANCH  32  34
ENDBRANCH  31  32
ENDBRANCH  30  31
ENDBRANCH  29  30
ENDBRANCH  28  29
ENDBRANCH  27  28
ENDBRANCH  26  27
ENDBRANCH   1  26
TORSDOF 23
ENDMDL
