MODEL 1
REMARK VINA RESULT:     -10.4      0.000      0.000
REMARK SMILES CCOC(=O)[C@@]1(C)C/C(=N/c2cccc(C(=O)OCCOCCOCCOC(=O)c3ccc(-c4c5nc(c(-c6c(F)c(F)c(F)c(F)c6F)c6ccc([nH]6)c(-c6c(F)c(F)c(F)c(F)c6F)c6nc(c(-c7c(F)c(F)c(F)c(F)c7F)c7ccc4[nH]7)C=C6)C=C5)cc3)c2)C(=O)N1c1ccccc1
REMARK SMILES IDX 22 1 21 2 20 3 19 4 18 5 16 6 17 7 15 8 11 9 12 10 93 11
REMARK SMILES IDX 13 12 14 13 10 14 6 15 7 16 8 17 96 18 9 19 94 20 95 21 4 22
REMARK SMILES IDX 5 23 3 24 2 25 1 26 97 27 98 28 102 29 99 30 101 31 100 32
REMARK SMILES IDX 23 33 24 34 25 35 26 36 27 37 28 38 29 39 30 40 31 41 92 42
REMARK SMILES IDX 32 43 91 44 33 45 34 46 35 47 85 48 36 49 90 50 84 51 86 52
REMARK SMILES IDX 37 53 89 54 83 55 82 56 38 58 70 59 50 60 69 61 51 62 54 63
REMARK SMILES IDX 68 64 87 65 52 66 53 67 67 69 88 70 55 71 39 72 40 73 48 74
REMARK SMILES IDX 41 75 42 76 46 77 49 78 43 79 44 80 47 81 45 82 71 83 72 84
REMARK SMILES IDX 80 85 73 86 74 87 78 88 81 89 75 90 76 91 79 92 77 93 56 94
REMARK SMILES IDX 57 95 65 96 58 97 59 98 63 99 66 100 60 101 61 102 64 103
REMARK SMILES IDX 62 104
REMARK H PARENT 86 57 54 68
REMARK Flexibility Score: inf
ROOT
ATOM      1  C   UNL A   1      33.040  34.814  29.094  1.00  0.00     0.188 C 
ENDROOT
BRANCH   1   2
ATOM      2  O   UNL A   1      34.154  33.936  29.270  1.00  0.00    -0.376 OA
BRANCH   2   3
ATOM      3  C   UNL A   1      35.147  33.945  28.244  1.00  0.00     0.202 C 
BRANCH   3   4
ATOM      4  C   UNL A   1      35.800  32.581  28.021  1.00  0.00     0.261 C 
BRANCH   4   5
ATOM      5  O   UNL A   1      34.895  31.544  28.445  1.00  0.00    -0.460 OA
BRANCH   5   6
ATOM      6  C   UNL A   1      34.785  30.474  27.621  1.00  0.00     0.338 C 
ATOM      7  O   UNL A   1      35.584  29.556  27.519  1.00  0.00    -0.246 OA
BRANCH   6   8
ATOM      8  C   UNL A   1      33.506  30.529  26.867  1.00  0.00     0.062 A 
ATOM      9  C   UNL A   1      31.969  29.683  25.182  1.00  0.00     0.064 A 
ATOM     10  C   UNL A   1      31.042  30.656  25.562  1.00  0.00     0.028 A 
ATOM     11  C   UNL A   1      33.221  29.651  25.812  1.00  0.00     0.044 A 
ATOM     12  C   UNL A   1      31.330  31.555  26.590  1.00  0.00     0.003 A 
ATOM     13  C   UNL A   1      32.554  31.482  27.251  1.00  0.00     0.016 A 
BRANCH   9  14
ATOM     14  N   UNL A   1      31.641  28.815  24.131  1.00  0.00    -0.248 NA
ATOM     15  C   UNL A   1      32.238  25.394  23.639  1.00  0.00     0.148 C 
ATOM     16  C   UNL A   1      33.623  25.562  22.984  1.00  0.00     0.048 C 
ATOM     17  C   UNL A   1      31.351  26.586  23.204  1.00  0.00     0.103 C 
ATOM     18  N   UNL A   1      32.322  25.488  25.118  1.00  0.00    -0.290 N 
ATOM     19  C   UNL A   1      31.602  27.532  24.321  1.00  0.00     0.109 C 
ATOM     20  C   UNL A   1      31.885  26.732  25.567  1.00  0.00     0.273 C 
ATOM     21  O   UNL A   1      31.731  27.184  26.681  1.00  0.00    -0.267 OA
BRANCH  15  22
ATOM     22  C   UNL A   1      31.499  24.155  23.088  1.00  0.00     0.332 C 
ATOM     23  O   UNL A   1      30.279  24.066  23.021  1.00  0.00    -0.249 OA
BRANCH  22  24
ATOM     24  O   UNL A   1      32.360  23.144  22.788  1.00  0.00    -0.464 OA
BRANCH  24  25
ATOM     25  C   UNL A   1      32.114  21.882  23.428  1.00  0.00     0.229 C 
ATOM     26  C   UNL A   1      33.416  21.257  23.887  1.00  0.00     0.049 C 
ENDBRANCH  24  25
ENDBRANCH  22  24
ENDBRANCH  15  22
BRANCH  18  27
ATOM     27  C   UNL A   1      32.858  24.461  25.966  1.00  0.00     0.045 A 
ATOM     28  C   UNL A   1      32.026  23.676  26.780  1.00  0.00     0.026 A 
ATOM     29  C   UNL A   1      34.235  24.193  26.032  1.00  0.00     0.026 A 
ATOM     30  C   UNL A   1      32.542  22.682  27.623  1.00  0.00     0.002 A 
ATOM     31  C   UNL A   1      34.756  23.204  26.877  1.00  0.00     0.002 A 
ATOM     32  C   UNL A   1      33.909  22.449  27.675  1.00  0.00     0.000 A 
ENDBRANCH  18  27
ENDBRANCH   9  14
ENDBRANCH   6   8
ENDBRANCH   5   6
ENDBRANCH   4   5
ENDBRANCH   3   4
ENDBRANCH   2   3
ENDBRANCH   1   2
BRANCH   1  33
ATOM     33  C   UNL A   1      33.301  36.281  29.453  1.00  0.00     0.188 C 
BRANCH  33  34
ATOM     34  O   UNL A   1      32.564  36.664  30.615  1.00  0.00    -0.376 OA
BRANCH  34  35
ATOM     35  C   UNL A   1      33.278  37.513  31.516  1.00  0.00     0.202 C 
BRANCH  35  36
ATOM     36  C   UNL A   1      33.524  36.843  32.872  1.00  0.00     0.261 C 
BRANCH  36  37
ATOM     37  O   UNL A   1      34.799  36.180  32.961  1.00  0.00    -0.460 OA
BRANCH  37  38
ATOM     38  C   UNL A   1      34.757  34.828  32.985  1.00  0.00     0.338 C 
ATOM     39  O   UNL A   1      33.870  34.121  32.537  1.00  0.00    -0.246 OA
BRANCH  38  40
ATOM     40  C   UNL A   1      36.003  34.300  33.587  1.00  0.00     0.060 A 
ATOM     41  C   UNL A   1      35.930  33.731  34.863  1.00  0.00     0.016 A 
ATOM     42  C   UNL A   1      37.240  34.411  32.937  1.00  0.00     0.016 A 
ATOM     43  C   UNL A   1      37.093  33.294  35.499  1.00  0.00     0.010 A 
ATOM     44  C   UNL A   1      38.406  33.987  33.582  1.00  0.00     0.010 A 
ATOM     45  C   UNL A   1      38.339  33.445  34.875  1.00  0.00    -0.014 A 
BRANCH  45  46
ATOM     46  C   UNL A   1      39.574  33.129  35.626  1.00  0.00     0.031 A 
ATOM     47  C   UNL A   1      40.159  34.161  36.546  1.00  0.00     0.074 A 
ATOM     48  C   UNL A   1      40.168  31.929  35.501  1.00  0.00     0.049 A 
ATOM     49  N   UNL A   1      41.138  34.042  37.406  1.00  0.00    -0.248 NA
ATOM     50  C   UNL A   1      39.559  35.502  36.494  1.00  0.00     0.031 C 
ATOM     51  C   UNL A   1      39.720  30.849  34.625  1.00  0.00     0.029 A 
ATOM     52  N   UNL A   1      41.284  31.426  36.118  1.00  0.00    -0.354 N 
ATOM     53  C   UNL A   1      41.240  35.277  38.030  1.00  0.00     0.074 A 
ATOM     54  C   UNL A   1      40.255  36.145  37.421  1.00  0.00     0.031 C 
ATOM     55  C   UNL A   1      40.566  29.811  34.751  1.00  0.00     0.029 A 
ATOM     56  C   UNL A   1      41.599  30.151  35.726  1.00  0.00     0.049 A 
ATOM     57  H   UNL A   1      41.810  31.933  36.779  1.00  0.00     0.167 HD
ATOM     58  C   UNL A   1      42.066  35.646  39.036  1.00  0.00     0.037 A 
ATOM     59  C   UNL A   1      42.605  29.349  36.121  1.00  0.00     0.037 A 
ATOM     60  C   UNL A   1      43.064  34.799  39.629  1.00  0.00     0.049 A 
ATOM     61  C   UNL A   1      43.566  29.812  37.176  1.00  0.00     0.074 A 
ATOM     62  C   UNL A   1      43.883  35.051  40.715  1.00  0.00     0.029 A 
ATOM     63  N   UNL A   1      43.396  33.539  39.158  1.00  0.00    -0.354 N 
ATOM     64  N   UNL A   1      43.573  30.935  37.851  1.00  0.00    -0.248 NA
ATOM     65  C   UNL A   1      44.656  28.890  37.532  1.00  0.00     0.031 C 
ATOM     66  C   UNL A   1      44.737  33.951  40.882  1.00  0.00     0.029 A 
ATOM     67  C   UNL A   1      44.437  33.016  39.905  1.00  0.00     0.049 A 
ATOM     68  H   UNL A   1      42.956  33.083  38.404  1.00  0.00     0.167 HD
ATOM     69  C   UNL A   1      44.647  30.847  38.726  1.00  0.00     0.074 A 
ATOM     70  C   UNL A   1      45.279  29.566  38.488  1.00  0.00     0.031 C 
ATOM     71  C   UNL A   1      45.060  31.745  39.651  1.00  0.00     0.037 A 
BRANCH  58  72
ATOM     72  C   UNL A   1      41.901  37.028  39.574  1.00  0.00     0.064 A 
ATOM     73  C   UNL A   1      42.731  38.069  39.132  1.00  0.00     0.173 A 
ATOM     74  C   UNL A   1      40.911  37.321  40.519  1.00  0.00     0.173 A 
ATOM     75  F   UNL A   1      43.698  37.826  38.237  1.00  0.00    -0.203 F 
ATOM     76  C   UNL A   1      42.576  39.360  39.626  1.00  0.00     0.198 A 
ATOM     77  C   UNL A   1      40.758  38.616  41.009  1.00  0.00     0.198 A 
ATOM     78  F   UNL A   1      40.105  36.351  40.977  1.00  0.00    -0.203 F 
ATOM     79  F   UNL A   1      43.388  40.340  39.204  1.00  0.00    -0.200 F 
ATOM     80  C   UNL A   1      41.590  39.633  40.564  1.00  0.00     0.200 A 
ATOM     81  F   UNL A   1      39.811  38.878  41.922  1.00  0.00    -0.200 F 
ATOM     82  F   UNL A   1      41.448  40.876  41.044  1.00  0.00    -0.200 F 
ENDBRANCH  58  72
BRANCH  59  83
ATOM     83  C   UNL A   1      42.744  28.005  35.517  1.00  0.00     0.064 A 
ATOM     84  C   UNL A   1      41.995  26.922  35.995  1.00  0.00     0.173 A 
ATOM     85  C   UNL A   1      43.628  27.783  34.454  1.00  0.00     0.173 A 
ATOM     86  F   UNL A   1      41.154  27.092  37.024  1.00  0.00    -0.203 F 
ATOM     87  C   UNL A   1      42.130  25.657  35.429  1.00  0.00     0.198 A 
ATOM     88  C   UNL A   1      43.757  26.518  33.886  1.00  0.00     0.198 A 
ATOM     89  F   UNL A   1      44.371  28.792  33.979  1.00  0.00    -0.203 F 
ATOM     90  F   UNL A   1      41.419  24.629  35.911  1.00  0.00    -0.200 F 
ATOM     91  C   UNL A   1      43.010  25.457  34.373  1.00  0.00     0.200 A 
ATOM     92  F   UNL A   1      44.613  26.326  32.872  1.00  0.00    -0.200 F 
ATOM     93  F   UNL A   1      43.144  24.238  33.834  1.00  0.00    -0.200 F 
ENDBRANCH  59  83
BRANCH  71  94
ATOM     94  C   UNL A   1      46.247  31.372  40.480  1.00  0.00     0.064 A 
ATOM     95  C   UNL A   1      47.535  31.795  40.127  1.00  0.00     0.173 A 
ATOM     96  C   UNL A   1      46.089  30.622  41.654  1.00  0.00     0.173 A 
ATOM     97  F   UNL A   1      47.729  32.501  39.005  1.00  0.00    -0.203 F 
ATOM     98  C   UNL A   1      48.631  31.473  40.923  1.00  0.00     0.198 A 
ATOM     99  C   UNL A   1      47.187  30.310  42.451  1.00  0.00     0.198 A 
ATOM    100  F   UNL A   1      44.874  30.196  42.025  1.00  0.00    -0.203 F 
ATOM    101  F   UNL A   1      49.859  31.871  40.562  1.00  0.00    -0.200 F 
ATOM    102  C   UNL A   1      48.456  30.735  42.085  1.00  0.00     0.200 A 
ATOM    103  F   UNL A   1      47.018  29.595  43.572  1.00  0.00    -0.200 F 
ATOM    104  F   UNL A   1      49.512  30.427  42.850  1.00  0.00    -0.200 F 
ENDBRANCH  71  94
ENDBRANCH  45  46
ENDBRANCH  38  40
ENDBRANCH  37  38
ENDBRANCH  36  37
ENDBRANCH  35  36
ENDBRANCH  34  35
ENDBRANCH  33  34
ENDBRANCH   1  33
TORSDOF 22
ENDMDL
MODEL 2
REMARK VINA RESULT:     -10.2      5.335     10.739
REMARK SMILES CCOC(=O)[C@@]1(C)C/C(=N/c2cccc(C(=O)OCCOCCOCCOC(=O)c3ccc(-c4c5nc(c(-c6c(F)c(F)c(F)c(F)c6F)c6ccc([nH]6)c(-c6c(F)c(F)c(F)c(F)c6F)c6nc(c(-c7c(F)c(F)c(F)c(F)c7F)c7ccc4[nH]7)C=C6)C=C5)cc3)c2)C(=O)N1c1ccccc1
REMARK SMILES IDX 22 1 21 2 20 3 19 4 18 5 16 6 17 7 15 8 11 9 12 10 93 11
REMARK SMILES IDX 13 12 14 13 10 14 6 15 7 16 8 17 96 18 9 19 94 20 95 21 4 22
REMARK SMILES IDX 5 23 3 24 2 25 1 26 97 27 98 28 102 29 99 30 101 31 100 32
REMARK SMILES IDX 23 33 24 34 25 35 26 36 27 37 28 38 29 39 30 40 31 41 92 42
REMARK SMILES IDX 32 43 91 44 33 45 34 46 35 47 85 48 36 49 90 50 84 51 86 52
REMARK SMILES IDX 37 53 89 54 83 55 82 56 38 58 70 59 50 60 69 61 51 62 54 63
REMARK SMILES IDX 68 64 87 65 52 66 53 67 67 69 88 70 55 71 39 72 40 73 48 74
REMARK SMILES IDX 41 75 42 76 46 77 49 78 43 79 44 80 47 81 45 82 71 83 72 84
REMARK SMILES IDX 80 85 73 86 74 87 78 88 81 89 75 90 76 91 79 92 77 93 56 94
REMARK SMILES IDX 57 95 65 96 58 97 59 98 63 99 66 100 60 101 61 102 64 103
REMARK SMILES IDX 62 104
REMARK H PARENT 86 57 54 68
REMARK Flexibility Score: inf
ROOT
ATOM      1  C   UNL A   1      33.322  37.110  31.051  1.00  0.00     0.188 C 
ENDROOT
BRANCH   1   2
ATOM      2  O   UNL A   1      33.999  36.697  32.240  1.00  0.00    -0.376 OA
BRANCH   2   3
ATOM      3  C   UNL A   1      33.591  35.453  32.811  1.00  0.00     0.202 C 
BRANCH   3   4
ATOM      4  C   UNL A   1      34.741  34.674  33.449  1.00  0.00     0.261 C 
BRANCH   4   5
ATOM      5  O   UNL A   1      35.541  34.070  32.414  1.00  0.00    -0.460 OA
BRANCH   5   6
ATOM      6  C   UNL A   1      35.366  32.740  32.224  1.00  0.00     0.338 C 
ATOM      7  O   UNL A   1      34.421  32.209  31.662  1.00  0.00    -0.246 OA
BRANCH   6   8
ATOM      8  C   UNL A   1      36.529  31.982  32.755  1.00  0.00     0.062 A 
ATOM      9  C   UNL A   1      38.523  31.800  34.134  1.00  0.00     0.064 A 
ATOM     10  C   UNL A   1      38.634  30.456  33.769  1.00  0.00     0.028 A 
ATOM     11  C   UNL A   1      37.489  32.572  33.589  1.00  0.00     0.044 A 
ATOM     12  C   UNL A   1      37.701  29.869  32.913  1.00  0.00     0.003 A 
ATOM     13  C   UNL A   1      36.641  30.627  32.418  1.00  0.00     0.016 A 
BRANCH   9  14
ATOM     14  N   UNL A   1      39.496  32.349  34.981  1.00  0.00    -0.248 NA
ATOM     15  C   UNL A   1      39.396  33.328  38.348  1.00  0.00     0.148 C 
ATOM     16  C   UNL A   1      38.903  34.765  38.086  1.00  0.00     0.048 C 
ATOM     17  C   UNL A   1      40.339  32.923  37.189  1.00  0.00     0.103 C 
ATOM     18  N   UNL A   1      38.277  32.354  38.301  1.00  0.00    -0.290 N 
ATOM     19  C   UNL A   1      39.373  32.268  36.270  1.00  0.00     0.109 C 
ATOM     20  C   UNL A   1      38.273  31.652  37.097  1.00  0.00     0.273 C 
ATOM     21  O   UNL A   1      37.586  30.739  36.693  1.00  0.00    -0.267 OA
BRANCH  15  22
ATOM     22  C   UNL A   1      40.293  33.259  39.603  1.00  0.00     0.332 C 
ATOM     23  O   UNL A   1      40.755  32.216  40.050  1.00  0.00    -0.249 OA
BRANCH  22  24
ATOM     24  O   UNL A   1      40.416  34.474  40.205  1.00  0.00    -0.464 OA
BRANCH  24  25
ATOM     25  C   UNL A   1      40.114  34.528  41.607  1.00  0.00     0.229 C 
ATOM     26  C   UNL A   1      38.617  34.617  41.825  1.00  0.00     0.049 C 
ENDBRANCH  24  25
ENDBRANCH  22  24
ENDBRANCH  15  22
BRANCH  18  27
ATOM     27  C   UNL A   1      37.284  32.210  39.328  1.00  0.00     0.045 A 
ATOM     28  C   UNL A   1      36.035  32.844  39.232  1.00  0.00     0.026 A 
ATOM     29  C   UNL A   1      37.512  31.440  40.481  1.00  0.00     0.026 A 
ATOM     30  C   UNL A   1      35.066  32.722  40.237  1.00  0.00     0.002 A 
ATOM     31  C   UNL A   1      36.548  31.320  41.491  1.00  0.00     0.002 A 
ATOM     32  C   UNL A   1      35.324  31.964  41.370  1.00  0.00     0.000 A 
ENDBRANCH  18  27
ENDBRANCH   9  14
ENDBRANCH   6   8
ENDBRANCH   5   6
ENDBRANCH   4   5
ENDBRANCH   3   4
ENDBRANCH   2   3
ENDBRANCH   1   2
BRANCH   1  33
ATOM     33  C   UNL A   1      32.631  35.987  30.269  1.00  0.00     0.188 C 
BRANCH  33  34
ATOM     34  O   UNL A   1      33.289  35.751  29.023  1.00  0.00    -0.376 OA
BRANCH  34  35
ATOM     35  C   UNL A   1      34.283  34.724  29.063  1.00  0.00     0.202 C 
BRANCH  35  36
ATOM     36  C   UNL A   1      33.984  33.590  28.078  1.00  0.00     0.261 C 
BRANCH  36  37
ATOM     37  O   UNL A   1      35.131  32.771  27.782  1.00  0.00    -0.460 OA
BRANCH  37  38
ATOM     38  C   UNL A   1      35.005  31.457  28.076  1.00  0.00     0.338 C 
ATOM     39  O   UNL A   1      34.018  30.764  27.897  1.00  0.00    -0.246 OA
BRANCH  38  40
ATOM     40  C   UNL A   1      36.289  30.936  28.600  1.00  0.00     0.060 A 
ATOM     41  C   UNL A   1      37.334  31.843  28.806  1.00  0.00     0.016 A 
ATOM     42  C   UNL A   1      36.491  29.569  28.832  1.00  0.00     0.016 A 
ATOM     43  C   UNL A   1      38.584  31.384  29.223  1.00  0.00     0.010 A 
ATOM     44  C   UNL A   1      37.749  29.108  29.234  1.00  0.00     0.010 A 
ATOM     45  C   UNL A   1      38.806  30.013  29.411  1.00  0.00    -0.014 A 
BRANCH  45  46
ATOM     46  C   UNL A   1      40.176  29.527  29.692  1.00  0.00     0.031 A 
ATOM     47  C   UNL A   1      41.086  30.353  30.554  1.00  0.00     0.074 A 
ATOM     48  C   UNL A   1      40.606  28.356  29.192  1.00  0.00     0.049 A 
ATOM     49  N   UNL A   1      42.259  30.049  31.047  1.00  0.00    -0.248 NA
ATOM     50  C   UNL A   1      40.609  31.697  30.913  1.00  0.00     0.031 C 
ATOM     51  C   UNL A   1      39.837  27.470  28.322  1.00  0.00     0.029 A 
ATOM     52  N   UNL A   1      41.809  27.716  29.351  1.00  0.00    -0.354 N 
ATOM     53  C   UNL A   1      42.639  31.142  31.811  1.00  0.00     0.074 A 
ATOM     54  C   UNL A   1      41.594  32.136  31.683  1.00  0.00     0.031 C 
ATOM     55  C   UNL A   1      40.594  26.404  28.010  1.00  0.00     0.029 A 
ATOM     56  C   UNL A   1      41.890  26.527  28.672  1.00  0.00     0.049 A 
ATOM     57  H   UNL A   1      42.543  28.076  29.899  1.00  0.00     0.167 HD
ATOM     58  C   UNL A   1      43.749  31.294  32.570  1.00  0.00     0.037 A 
ATOM     59  C   UNL A   1      42.898  25.638  28.605  1.00  0.00     0.037 A 
ATOM     60  C   UNL A   1      44.802  30.324  32.683  1.00  0.00     0.049 A 
ATOM     61  C   UNL A   1      44.159  25.869  29.385  1.00  0.00     0.074 A 
ATOM     62  C   UNL A   1      45.920  30.346  33.499  1.00  0.00     0.029 A 
ATOM     63  N   UNL A   1      44.879  29.164  31.928  1.00  0.00    -0.354 N 
ATOM     64  N   UNL A   1      44.454  26.846  30.207  1.00  0.00    -0.248 NA
ATOM     65  C   UNL A   1      45.225  24.867  29.235  1.00  0.00     0.031 C 
ATOM     66  C   UNL A   1      46.692  29.211  33.213  1.00  0.00     0.029 A 
ATOM     67  C   UNL A   1      46.045  28.483  32.227  1.00  0.00     0.049 A 
ATOM     68  H   UNL A   1      44.203  28.870  31.275  1.00  0.00     0.167 HD
ATOM     69  C   UNL A   1      45.724  26.567  30.690  1.00  0.00     0.074 A 
ATOM     70  C   UNL A   1      46.153  25.335  30.060  1.00  0.00     0.031 C 
ATOM     71  C   UNL A   1      46.461  27.265  31.586  1.00  0.00     0.037 A 
BRANCH  58  72
ATOM     72  C   UNL A   1      43.861  32.556  33.359  1.00  0.00     0.064 A 
ATOM     73  C   UNL A   1      43.446  32.600  34.698  1.00  0.00     0.173 A 
ATOM     74  C   UNL A   1      44.392  33.719  32.788  1.00  0.00     0.173 A 
ATOM     75  F   UNL A   1      42.921  31.511  35.277  1.00  0.00    -0.203 F 
ATOM     76  C   UNL A   1      43.555  33.772  35.438  1.00  0.00     0.198 A 
ATOM     77  C   UNL A   1      44.501  34.890  33.533  1.00  0.00     0.198 A 
ATOM     78  F   UNL A   1      44.788  33.722  31.506  1.00  0.00    -0.203 F 
ATOM     79  F   UNL A   1      43.139  33.801  36.712  1.00  0.00    -0.200 F 
ATOM     80  C   UNL A   1      44.083  34.916  34.856  1.00  0.00     0.200 A 
ATOM     81  F   UNL A   1      45.003  35.997  32.968  1.00  0.00    -0.200 F 
ATOM     82  F   UNL A   1      44.180  36.047  35.568  1.00  0.00    -0.200 F 
ENDBRANCH  58  72
BRANCH  59  83
ATOM     83  C   UNL A   1      42.744  24.427  27.769  1.00  0.00     0.064 A 
ATOM     84  C   UNL A   1      42.360  23.205  28.337  1.00  0.00     0.173 A 
ATOM     85  C   UNL A   1      42.981  24.471  26.389  1.00  0.00     0.173 A 
ATOM     86  F   UNL A   1      42.145  23.120  29.657  1.00  0.00    -0.203 F 
ATOM     87  C   UNL A   1      42.220  22.066  27.549  1.00  0.00     0.198 A 
ATOM     88  C   UNL A   1      42.835  23.332  25.603  1.00  0.00     0.198 A 
ATOM     89  F   UNL A   1      43.364  25.619  25.812  1.00  0.00    -0.203 F 
ATOM     90  F   UNL A   1      41.868  20.903  28.113  1.00  0.00    -0.200 F 
ATOM     91  C   UNL A   1      42.456  22.130  26.183  1.00  0.00     0.200 A 
ATOM     92  F   UNL A   1      43.071  23.395  24.285  1.00  0.00    -0.200 F 
ATOM     93  F   UNL A   1      42.327  21.031  25.427  1.00  0.00    -0.200 F 
ENDBRANCH  59  83
BRANCH  71  94
ATOM     94  C   UNL A   1      47.802  26.710  31.945  1.00  0.00     0.064 A 
ATOM     95  C   UNL A   1      47.935  25.729  32.935  1.00  0.00     0.173 A 
ATOM     96  C   UNL A   1      48.953  27.133  31.266  1.00  0.00     0.173 A 
ATOM     97  F   UNL A   1      46.860  25.308  33.617  1.00  0.00    -0.203 F 
ATOM     98  C   UNL A   1      49.183  25.191  33.239  1.00  0.00     0.198 A 
ATOM     99  C   UNL A   1      50.198  26.587  31.568  1.00  0.00     0.198 A 
ATOM    100  F   UNL A   1      48.870  28.073  30.313  1.00  0.00    -0.203 F 
ATOM    101  F   UNL A   1      49.295  24.265  34.202  1.00  0.00    -0.200 F 
ATOM    102  C   UNL A   1      50.311  25.618  32.554  1.00  0.00     0.200 A 
ATOM    103  F   UNL A   1      51.289  27.001  30.908  1.00  0.00    -0.200 F 
ATOM    104  F   UNL A   1      51.512  25.099  32.849  1.00  0.00    -0.200 F 
ENDBRANCH  71  94
ENDBRANCH  45  46
ENDBRANCH  38  40
ENDBRANCH  37  38
ENDBRANCH  36  37
ENDBRANCH  35  36
ENDBRANCH  34  35
ENDBRANCH  33  34
ENDBRANCH   1  33
TORSDOF 22
ENDMDL
MODEL 3
REMARK VINA RESULT:     -10.2      5.244     11.149
REMARK SMILES CCOC(=O)[C@@]1(C)C/C(=N/c2cccc(C(=O)OCCOCCOCCOC(=O)c3ccc(-c4c5nc(c(-c6c(F)c(F)c(F)c(F)c6F)c6ccc([nH]6)c(-c6c(F)c(F)c(F)c(F)c6F)c6nc(c(-c7c(F)c(F)c(F)c(F)c7F)c7ccc4[nH]7)C=C6)C=C5)cc3)c2)C(=O)N1c1ccccc1
REMARK SMILES IDX 22 1 21 2 20 3 19 4 18 5 16 6 17 7 15 8 11 9 12 10 93 11
REMARK SMILES IDX 13 12 14 13 10 14 6 15 7 16 8 17 96 18 9 19 94 20 95 21 4 22
REMARK SMILES IDX 5 23 3 24 2 25 1 26 97 27 98 28 102 29 99 30 101 31 100 32
REMARK SMILES IDX 23 33 24 34 25 35 26 36 27 37 28 38 29 39 30 40 31 41 92 42
REMARK SMILES IDX 32 43 91 44 33 45 34 46 35 47 85 48 36 49 90 50 84 51 86 52
REMARK SMILES IDX 37 53 89 54 83 55 82 56 38 58 70 59 50 60 69 61 51 62 54 63
REMARK SMILES IDX 68 64 87 65 52 66 53 67 67 69 88 70 55 71 39 72 40 73 48 74
REMARK SMILES IDX 41 75 42 76 46 77 49 78 43 79 44 80 47 81 45 82 71 83 72 84
REMARK SMILES IDX 80 85 73 86 74 87 78 88 81 89 75 90 76 91 79 92 77 93 56 94
REMARK SMILES IDX 57 95 65 96 58 97 59 98 63 99 66 100 60 101 61 102 64 103
REMARK SMILES IDX 62 104
REMARK H PARENT 86 57 54 68
REMARK Flexibility Score: inf
ROOT
ATOM      1  C   UNL A   1      33.701  36.733  29.592  1.00  0.00     0.188 C 
ENDROOT
BRANCH   1   2
ATOM      2  O   UNL A   1      33.734  37.194  30.944  1.00  0.00    -0.376 OA
BRANCH   2   3
ATOM      3  C   UNL A   1      32.955  36.461  31.890  1.00  0.00     0.202 C 
BRANCH   3   4
ATOM      4  C   UNL A   1      33.743  36.050  33.134  1.00  0.00     0.261 C 
BRANCH   4   5
ATOM      5  O   UNL A   1      34.774  35.117  32.759  1.00  0.00    -0.460 OA
BRANCH   5   6
ATOM      6  C   UNL A   1      34.590  33.834  33.154  1.00  0.00     0.338 C 
ATOM      7  O   UNL A   1      33.517  33.282  33.337  1.00  0.00    -0.246 OA
BRANCH   6   8
ATOM      8  C   UNL A   1      35.898  33.141  33.292  1.00  0.00     0.062 A 
ATOM      9  C   UNL A   1      38.097  32.888  34.298  1.00  0.00     0.064 A 
ATOM     10  C   UNL A   1      38.290  31.726  33.548  1.00  0.00     0.028 A 
ATOM     11  C   UNL A   1      36.912  33.617  34.134  1.00  0.00     0.044 A 
ATOM     12  C   UNL A   1      37.298  31.262  32.682  1.00  0.00     0.003 A 
ATOM     13  C   UNL A   1      36.098  31.960  32.565  1.00  0.00     0.016 A 
BRANCH   9  14
ATOM     14  N   UNL A   1      39.130  33.325  35.140  1.00  0.00    -0.248 NA
ATOM     15  C   UNL A   1      39.323  33.695  38.623  1.00  0.00     0.148 C 
ATOM     16  C   UNL A   1      38.767  35.131  38.666  1.00  0.00     0.048 C 
ATOM     17  C   UNL A   1      40.163  33.541  37.331  1.00  0.00     0.103 C 
ATOM     18  N   UNL A   1      38.234  32.694  38.503  1.00  0.00    -0.290 N 
ATOM     19  C   UNL A   1      39.133  33.014  36.400  1.00  0.00     0.109 C 
ATOM     20  C   UNL A   1      38.135  32.214  37.198  1.00  0.00     0.273 C 
ATOM     21  O   UNL A   1      37.439  31.355  36.700  1.00  0.00    -0.267 OA
BRANCH  15  22
ATOM     22  C   UNL A   1      40.337  33.448  39.761  1.00  0.00     0.332 C 
ATOM     23  O   UNL A   1      40.787  32.343  40.042  1.00  0.00    -0.249 OA
BRANCH  22  24
ATOM     24  O   UNL A   1      40.585  34.581  40.473  1.00  0.00    -0.464 OA
BRANCH  24  25
ATOM     25  C   UNL A   1      41.952  35.017  40.529  1.00  0.00     0.229 C 
ATOM     26  C   UNL A   1      42.095  36.396  39.918  1.00  0.00     0.049 C 
ENDBRANCH  24  25
ENDBRANCH  22  24
ENDBRANCH  15  22
BRANCH  18  27
ATOM     27  C   UNL A   1      37.348  32.328  39.572  1.00  0.00     0.045 A 
ATOM     28  C   UNL A   1      36.024  32.792  39.616  1.00  0.00     0.026 A 
ATOM     29  C   UNL A   1      37.759  31.499  40.629  1.00  0.00     0.026 A 
ATOM     30  C   UNL A   1      35.157  32.453  40.664  1.00  0.00     0.002 A 
ATOM     31  C   UNL A   1      36.898  31.162  41.681  1.00  0.00     0.002 A 
ATOM     32  C   UNL A   1      35.596  31.641  41.701  1.00  0.00     0.000 A 
ENDBRANCH  18  27
ENDBRANCH   9  14
ENDBRANCH   6   8
ENDBRANCH   5   6
ENDBRANCH   4   5
ENDBRANCH   3   4
ENDBRANCH   2   3
ENDBRANCH   1   2
BRANCH   1  33
ATOM     33  C   UNL A   1      32.439  35.958  29.196  1.00  0.00     0.188 C 
BRANCH  33  34
ATOM     34  O   UNL A   1      32.764  34.635  28.767  1.00  0.00    -0.376 OA
BRANCH  34  35
ATOM     35  C   UNL A   1      34.086  34.210  29.104  1.00  0.00     0.202 C 
BRANCH  35  36
ATOM     36  C   UNL A   1      34.533  32.997  28.282  1.00  0.00     0.261 C 
BRANCH  36  37
ATOM     37  O   UNL A   1      34.597  31.779  29.045  1.00  0.00    -0.460 OA
BRANCH  37  38
ATOM     38  C   UNL A   1      34.682  30.638  28.324  1.00  0.00     0.338 C 
ATOM     39  O   UNL A   1      33.805  30.150  27.632  1.00  0.00    -0.246 OA
BRANCH  38  40
ATOM     40  C   UNL A   1      36.048  30.076  28.436  1.00  0.00     0.060 A 
ATOM     41  C   UNL A   1      36.424  29.493  29.650  1.00  0.00     0.016 A 
ATOM     42  C   UNL A   1      36.972  30.168  27.386  1.00  0.00     0.016 A 
ATOM     43  C   UNL A   1      37.727  29.022  29.824  1.00  0.00     0.010 A 
ATOM     44  C   UNL A   1      38.280  29.712  27.567  1.00  0.00     0.010 A 
ATOM     45  C   UNL A   1      38.669  29.155  28.794  1.00  0.00    -0.014 A 
BRANCH  45  46
ATOM     46  C   UNL A   1      40.084  28.804  29.051  1.00  0.00     0.031 A 
ATOM     47  C   UNL A   1      40.949  29.756  29.823  1.00  0.00     0.074 A 
ATOM     48  C   UNL A   1      40.594  27.641  28.609  1.00  0.00     0.049 A 
ATOM     49  N   UNL A   1      42.161  29.582  30.287  1.00  0.00    -0.248 NA
ATOM     50  C   UNL A   1      40.373  31.077  30.115  1.00  0.00     0.031 C 
ATOM     51  C   UNL A   1      39.873  26.640  27.826  1.00  0.00     0.029 A 
ATOM     52  N   UNL A   1      41.851  27.113  28.760  1.00  0.00    -0.354 N 
ATOM     53  C   UNL A   1      42.473  30.750  30.966  1.00  0.00     0.074 A 
ATOM     54  C   UNL A   1      41.344  31.645  30.817  1.00  0.00     0.031 C 
ATOM     55  C   UNL A   1      40.706  25.621  27.552  1.00  0.00     0.029 A 
ATOM     56  C   UNL A   1      42.009  25.894  28.154  1.00  0.00     0.049 A 
ATOM     57  H   UNL A   1      42.571  27.568  29.254  1.00  0.00     0.167 HD
ATOM     58  C   UNL A   1      43.591  31.042  31.669  1.00  0.00     0.037 A 
ATOM     59  C   UNL A   1      43.085  25.088  28.102  1.00  0.00     0.037 A 
ATOM     60  C   UNL A   1      44.726  30.171  31.801  1.00  0.00     0.049 A 
ATOM     61  C   UNL A   1      44.348  25.472  28.816  1.00  0.00     0.074 A 
ATOM     62  C   UNL A   1      45.865  30.338  32.569  1.00  0.00     0.029 A 
ATOM     63  N   UNL A   1      44.874  28.975  31.117  1.00  0.00    -0.354 N 
ATOM     64  N   UNL A   1      44.587  26.522  29.563  1.00  0.00    -0.248 NA
ATOM     65  C   UNL A   1      45.490  24.553  28.687  1.00  0.00     0.031 C 
ATOM     66  C   UNL A   1      46.720  29.254  32.324  1.00  0.00     0.029 A 
ATOM     67  C   UNL A   1      46.103  28.413  31.412  1.00  0.00     0.049 A 
ATOM     68  H   UNL A   1      44.204  28.584  30.512  1.00  0.00     0.167 HD
ATOM     69  C   UNL A   1      45.893  26.380  30.011  1.00  0.00     0.074 A 
ATOM     70  C   UNL A   1      46.402  25.149  29.443  1.00  0.00     0.031 C 
ATOM     71  C   UNL A   1      46.598  27.193  30.832  1.00  0.00     0.037 A 
BRANCH  58  72
ATOM     72  C   UNL A   1      43.623  32.358  32.372  1.00  0.00     0.064 A 
ATOM     73  C   UNL A   1      44.061  33.512  31.706  1.00  0.00     0.173 A 
ATOM     74  C   UNL A   1      43.209  32.475  33.704  1.00  0.00     0.173 A 
ATOM     75  F   UNL A   1      44.478  33.439  30.434  1.00  0.00    -0.203 F 
ATOM     76  C   UNL A   1      44.087  34.742  32.356  1.00  0.00     0.198 A 
ATOM     77  C   UNL A   1      43.234  33.709  34.350  1.00  0.00     0.198 A 
ATOM     78  F   UNL A   1      42.796  31.393  34.381  1.00  0.00    -0.203 F 
ATOM     79  F   UNL A   1      44.523  35.832  31.709  1.00  0.00    -0.200 F 
ATOM     80  C   UNL A   1      43.673  34.839  33.677  1.00  0.00     0.200 A 
ATOM     81  F   UNL A   1      42.843  33.802  35.629  1.00  0.00    -0.200 F 
ATOM     82  F   UNL A   1      43.706  36.023  34.303  1.00  0.00    -0.200 F 
ENDBRANCH  58  72
BRANCH  59  83
ATOM     83  C   UNL A   1      43.006  23.816  27.350  1.00  0.00     0.064 A 
ATOM     84  C   UNL A   1      43.380  23.753  26.001  1.00  0.00     0.173 A 
ATOM     85  C   UNL A   1      42.555  22.643  27.968  1.00  0.00     0.173 A 
ATOM     86  F   UNL A   1      43.798  24.860  25.371  1.00  0.00    -0.203 F 
ATOM     87  C   UNL A   1      43.301  22.557  25.294  1.00  0.00     0.198 A 
ATOM     88  C   UNL A   1      42.482  21.446  27.260  1.00  0.00     0.198 A 
ATOM     89  F   UNL A   1      42.175  22.666  29.253  1.00  0.00    -0.203 F 
ATOM     90  F   UNL A   1      43.647  22.521  24.000  1.00  0.00    -0.200 F 
ATOM     91  C   UNL A   1      42.854  21.403  25.925  1.00  0.00     0.200 A 
ATOM     92  F   UNL A   1      42.043  20.336  27.869  1.00  0.00    -0.200 F 
ATOM     93  F   UNL A   1      42.772  20.254  25.241  1.00  0.00    -0.200 F 
ENDBRANCH  59  83
BRANCH  71  94
ATOM     94  C   UNL A   1      47.993  26.775  31.172  1.00  0.00     0.064 A 
ATOM     95  C   UNL A   1      49.091  27.298  30.477  1.00  0.00     0.173 A 
ATOM     96  C   UNL A   1      48.233  25.879  32.222  1.00  0.00     0.173 A 
ATOM     97  F   UNL A   1      48.903  28.147  29.457  1.00  0.00    -0.203 F 
ATOM     98  C   UNL A   1      50.389  26.932  30.821  1.00  0.00     0.198 A 
ATOM     99  C   UNL A   1      49.534  25.522  32.569  1.00  0.00     0.198 A 
ATOM    100  F   UNL A   1      47.210  25.354  32.911  1.00  0.00    -0.203 F 
ATOM    101  F   UNL A   1      51.429  27.428  30.136  1.00  0.00    -0.200 F 
ATOM    102  C   UNL A   1      50.609  26.047  31.868  1.00  0.00     0.200 A 
ATOM    103  F   UNL A   1      49.746  24.666  33.578  1.00  0.00    -0.200 F 
ATOM    104  F   UNL A   1      51.860  25.696  32.198  1.00  0.00    -0.200 F 
ENDBRANCH  71  94
ENDBRANCH  45  46
ENDBRANCH  38  40
ENDBRANCH  37  38
ENDBRANCH  36  37
ENDBRANCH  35  36
ENDBRANCH  34  35
ENDBRANCH  33  34
ENDBRANCH   1  33
TORSDOF 22
ENDMDL
