MODEL 1
REMARK VINA RESULT:     -11.1      0.000      0.000
REMARK SMILES CCc1cc(OC(F)(F)F)cc2c1O[C@@H](C(F)(F)F)C(C(=O)OCCOCCOCCOC(=O)c1ccc(-c3c4nc(c(-c5c(F)c(F)c(F)c(F)c5F)c5ccc([nH]5)c(-c5c(F)c(F)c(F)c(F)c5F)c5nc(c(-c6c(F)c(F)c(F)c(F)c6F)c6ccc3[nH]6)C=C5)C=C4)cc1)=C2
REMARK SMILES IDX 27 1 26 2 25 3 24 4 23 5 21 6 22 7 20 8 3 9 4 10 13 11 5 12
REMARK SMILES IDX 12 13 14 14 11 15 98 16 15 17 2 18 1 19 6 20 7 21 8 22 9 23
REMARK SMILES IDX 10 24 16 25 17 26 18 27 19 28 28 29 29 30 30 31 31 32 32 33
REMARK SMILES IDX 33 34 34 35 35 36 36 37 97 38 37 39 96 40 38 41 39 42 40 43
REMARK SMILES IDX 90 44 41 45 95 46 89 47 91 48 42 49 94 50 88 51 87 52 43 54
REMARK SMILES IDX 75 55 55 56 74 57 56 58 59 59 73 60 92 61 57 62 58 63 72 65
REMARK SMILES IDX 93 66 60 67 44 68 45 69 53 70 46 71 47 72 51 73 54 74 48 75
REMARK SMILES IDX 49 76 52 77 50 78 76 79 77 80 85 81 78 82 79 83 83 84 86 85
REMARK SMILES IDX 80 86 81 87 84 88 82 89 61 90 62 91 70 92 63 93 64 94 68 95
REMARK SMILES IDX 71 96 65 97 66 98 69 99 67 100
REMARK H PARENT 91 53 59 64
REMARK Flexibility Score: inf
ROOT
ATOM      1  C   UNL A   1      39.893  20.083  26.045  1.00  0.00     0.188 C 
ENDROOT
BRANCH   1   2
ATOM      2  O   UNL A   1      39.732  21.438  26.424  1.00  0.00    -0.376 OA
BRANCH   2   3
ATOM      3  C   UNL A   1      38.762  22.203  25.732  1.00  0.00     0.202 C 
BRANCH   3   4
ATOM      4  C   UNL A   1      37.289  21.883  26.022  1.00  0.00     0.261 C 
BRANCH   4   5
ATOM      5  O   UNL A   1      36.355  22.905  25.641  1.00  0.00    -0.460 OA
BRANCH   5   6
ATOM      6  C   UNL A   1      35.124  22.864  26.191  1.00  0.00     0.338 C 
ATOM      7  O   UNL A   1      34.793  22.220  27.172  1.00  0.00    -0.246 OA
BRANCH   6   8
ATOM      8  C   UNL A   1      34.240  23.817  25.488  1.00  0.00     0.087 C 
ATOM      9  C   UNL A   1      32.233  26.434  22.908  1.00  0.00    -0.002 A 
ATOM     10  C   UNL A   1      32.171  27.801  23.238  1.00  0.00     0.054 A 
ATOM     11  C   UNL A   1      32.884  25.561  23.793  1.00  0.00     0.131 A 
ATOM     12  C   UNL A   1      32.774  28.292  24.400  1.00  0.00     0.130 A 
ATOM     13  C   UNL A   1      33.525  26.045  24.942  1.00  0.00     0.021 A 
ATOM     14  O   UNL A   1      32.929  24.234  23.459  1.00  0.00    -0.475 OA
ATOM     15  C   UNL A   1      33.448  27.407  25.249  1.00  0.00     0.058 A 
ATOM     16  C   UNL A   1      34.359  25.134  25.728  1.00  0.00     0.027 C 
ATOM     17  C   UNL A   1      33.178  23.308  24.545  1.00  0.00     0.316 C 
BRANCH   9  18
ATOM     18  C   UNL A   1      31.570  25.959  21.630  1.00  0.00     0.036 C 
ATOM     19  C   UNL A   1      32.530  25.583  20.506  1.00  0.00     0.009 C 
ENDBRANCH   9  18
BRANCH  12  20
ATOM     20  O   UNL A   1      32.786  29.596  24.811  1.00  0.00    -0.406 OA
BRANCH  20  21
ATOM     21  C   UNL A   1      31.656  30.074  25.523  1.00  0.00     0.573 C 
ATOM     22  F   UNL A   1      31.898  31.283  26.073  1.00  0.00    -0.132 F 
ATOM     23  F   UNL A   1      30.574  30.152  24.721  1.00  0.00    -0.132 F 
ATOM     24  F   UNL A   1      31.374  29.208  26.523  1.00  0.00    -0.132 F 
ENDBRANCH  20  21
ENDBRANCH  12  20
BRANCH  17  25
ATOM     25  C   UNL A   1      33.356  21.909  23.936  1.00  0.00     0.430 C 
ATOM     26  F   UNL A   1      32.456  21.683  22.948  1.00  0.00    -0.167 F 
ATOM     27  F   UNL A   1      34.577  21.805  23.347  1.00  0.00    -0.167 F 
ATOM     28  F   UNL A   1      33.267  20.917  24.843  1.00  0.00    -0.167 F 
ENDBRANCH  17  25
ENDBRANCH   6   8
ENDBRANCH   5   6
ENDBRANCH   4   5
ENDBRANCH   3   4
ENDBRANCH   2   3
ENDBRANCH   1   2
BRANCH   1  29
ATOM     29  C   UNL A   1      41.332  19.567  26.250  1.00  0.00     0.188 C 
BRANCH  29  30
ATOM     30  O   UNL A   1      42.247  19.574  25.160  1.00  0.00    -0.376 OA
BRANCH  30  31
ATOM     31  C   UNL A   1      43.645  19.569  25.422  1.00  0.00     0.202 C 
BRANCH  31  32
ATOM     32  C   UNL A   1      44.389  20.907  25.376  1.00  0.00     0.261 C 
BRANCH  32  33
ATOM     33  O   UNL A   1      43.740  21.971  26.094  1.00  0.00    -0.460 OA
BRANCH  33  34
ATOM     34  C   UNL A   1      43.435  23.065  25.356  1.00  0.00     0.338 C 
ATOM     35  O   UNL A   1      43.471  23.179  24.142  1.00  0.00    -0.246 OA
BRANCH  34  36
ATOM     36  C   UNL A   1      42.874  24.116  26.226  1.00  0.00     0.060 A 
ATOM     37  C   UNL A   1      43.481  25.379  26.208  1.00  0.00     0.016 A 
ATOM     38  C   UNL A   1      41.820  23.849  27.101  1.00  0.00     0.016 A 
ATOM     39  C   UNL A   1      43.049  26.377  27.081  1.00  0.00     0.010 A 
ATOM     40  C   UNL A   1      41.403  24.844  27.993  1.00  0.00     0.010 A 
ATOM     41  C   UNL A   1      42.030  26.102  28.004  1.00  0.00    -0.014 A 
BRANCH  41  42
ATOM     42  C   UNL A   1      41.715  27.083  29.070  1.00  0.00     0.031 A 
ATOM     43  C   UNL A   1      42.531  27.079  30.331  1.00  0.00     0.074 A 
ATOM     44  C   UNL A   1      40.715  27.968  28.917  1.00  0.00     0.049 A 
ATOM     45  N   UNL A   1      42.391  27.799  31.415  1.00  0.00    -0.248 NA
ATOM     46  C   UNL A   1      43.660  26.135  30.374  1.00  0.00     0.031 C 
ATOM     47  C   UNL A   1      39.881  28.104  27.725  1.00  0.00     0.029 A 
ATOM     48  N   UNL A   1      40.224  28.913  29.784  1.00  0.00    -0.354 N 
ATOM     49  C   UNL A   1      43.410  27.398  32.268  1.00  0.00     0.074 A 
ATOM     50  C   UNL A   1      44.148  26.355  31.586  1.00  0.00     0.031 C 
ATOM     51  C   UNL A   1      38.964  29.063  27.944  1.00  0.00     0.029 A 
ATOM     52  C   UNL A   1      39.129  29.583  29.301  1.00  0.00     0.049 A 
ATOM     53  H   UNL A   1      40.621  29.093  30.666  1.00  0.00     0.167 HD
ATOM     54  C   UNL A   1      43.706  27.860  33.506  1.00  0.00     0.037 A 
ATOM     55  C   UNL A   1      38.332  30.490  29.899  1.00  0.00     0.037 A 
ATOM     56  C   UNL A   1      42.967  28.888  34.190  1.00  0.00     0.049 A 
ATOM     57  C   UNL A   1      38.628  30.923  31.312  1.00  0.00     0.074 A 
ATOM     58  C   UNL A   1      43.203  29.436  35.438  1.00  0.00     0.029 A 
ATOM     59  N   UNL A   1      41.838  29.516  33.684  1.00  0.00    -0.354 N 
ATOM     60  N   UNL A   1      39.608  30.559  32.104  1.00  0.00    -0.248 NA
ATOM     61  C   UNL A   1      37.703  31.894  31.916  1.00  0.00     0.031 C 
ATOM     62  C   UNL A   1      42.188  30.360  35.709  1.00  0.00     0.029 A 
ATOM     63  C   UNL A   1      41.348  30.423  34.609  1.00  0.00     0.049 A 
ATOM     64  H   UNL A   1      41.443  29.341  32.799  1.00  0.00     0.167 HD
ATOM     65  C   UNL A   1      39.433  31.271  33.284  1.00  0.00     0.074 A 
ATOM     66  C   UNL A   1      38.259  32.097  33.102  1.00  0.00     0.031 C 
ATOM     67  C   UNL A   1      40.179  31.243  34.416  1.00  0.00     0.037 A 
BRANCH  54  68
ATOM     68  C   UNL A   1      44.869  27.234  34.217  1.00  0.00     0.064 A 
ATOM     69  C   UNL A   1      44.715  26.092  35.015  1.00  0.00     0.173 A 
ATOM     70  C   UNL A   1      46.158  27.766  34.069  1.00  0.00     0.173 A 
ATOM     71  F   UNL A   1      43.498  25.557  35.199  1.00  0.00    -0.203 F 
ATOM     72  C   UNL A   1      45.807  25.515  35.657  1.00  0.00     0.198 A 
ATOM     73  C   UNL A   1      47.252  27.171  34.692  1.00  0.00     0.198 A 
ATOM     74  F   UNL A   1      46.358  28.856  33.314  1.00  0.00    -0.203 F 
ATOM     75  F   UNL A   1      45.631  24.447  36.446  1.00  0.00    -0.200 F 
ATOM     76  C   UNL A   1      47.076  26.051  35.489  1.00  0.00     0.200 A 
ATOM     77  F   UNL A   1      48.478  27.685  34.521  1.00  0.00    -0.200 F 
ATOM     78  F   UNL A   1      48.128  25.491  36.103  1.00  0.00    -0.200 F 
ENDBRANCH  54  68
BRANCH  55  79
ATOM     79  C   UNL A   1      37.156  31.037  29.174  1.00  0.00     0.064 A 
ATOM     80  C   UNL A   1      37.123  32.373  28.752  1.00  0.00     0.173 A 
ATOM     81  C   UNL A   1      36.031  30.240  28.915  1.00  0.00     0.173 A 
ATOM     82  F   UNL A   1      38.162  33.181  29.009  1.00  0.00    -0.203 F 
ATOM     83  C   UNL A   1      36.002  32.896  28.112  1.00  0.00     0.198 A 
ATOM     84  C   UNL A   1      34.921  30.758  28.251  1.00  0.00     0.198 A 
ATOM     85  F   UNL A   1      36.011  28.958  29.307  1.00  0.00    -0.203 F 
ATOM     86  F   UNL A   1      35.976  34.189  27.763  1.00  0.00    -0.200 F 
ATOM     87  C   UNL A   1      34.905  32.087  27.856  1.00  0.00     0.200 A 
ATOM     88  F   UNL A   1      33.865  29.972  28.004  1.00  0.00    -0.200 F 
ATOM     89  F   UNL A   1      33.826  32.592  27.244  1.00  0.00    -0.200 F 
ENDBRANCH  55  79
BRANCH  67  90
ATOM     90  C   UNL A   1      39.767  32.150  35.537  1.00  0.00     0.064 A 
ATOM     91  C   UNL A   1      40.304  33.438  35.676  1.00  0.00     0.173 A 
ATOM     92  C   UNL A   1      38.792  31.743  36.461  1.00  0.00     0.173 A 
ATOM     93  F   UNL A   1      41.250  33.869  34.828  1.00  0.00    -0.203 F 
ATOM     94  C   UNL A   1      39.895  34.277  36.710  1.00  0.00     0.198 A 
ATOM     95  C   UNL A   1      38.366  32.594  37.476  1.00  0.00     0.198 A 
ATOM     96  F   UNL A   1      38.241  30.523  36.369  1.00  0.00    -0.203 F 
ATOM     97  F   UNL A   1      40.451  35.489  36.847  1.00  0.00    -0.200 F 
ATOM     98  C   UNL A   1      38.921  33.857  37.603  1.00  0.00     0.200 A 
ATOM     99  F   UNL A   1      37.416  32.191  38.332  1.00  0.00    -0.200 F 
ATOM    100  F   UNL A   1      38.524  34.669  38.593  1.00  0.00    -0.200 F 
ENDBRANCH  67  90
ENDBRANCH  41  42
ENDBRANCH  34  36
ENDBRANCH  33  34
ENDBRANCH  32  33
ENDBRANCH  31  32
ENDBRANCH  30  31
ENDBRANCH  29  30
ENDBRANCH   1  29
TORSDOF 21
ENDMDL
MODEL 2
REMARK VINA RESULT:     -10.9      2.965      9.419
REMARK SMILES CCc1cc(OC(F)(F)F)cc2c1O[C@@H](C(F)(F)F)C(C(=O)OCCOCCOCCOC(=O)c1ccc(-c3c4nc(c(-c5c(F)c(F)c(F)c(F)c5F)c5ccc([nH]5)c(-c5c(F)c(F)c(F)c(F)c5F)c5nc(c(-c6c(F)c(F)c(F)c(F)c6F)c6ccc3[nH]6)C=C5)C=C4)cc1)=C2
REMARK SMILES IDX 27 1 26 2 25 3 24 4 23 5 21 6 22 7 20 8 3 9 4 10 13 11 5 12
REMARK SMILES IDX 12 13 14 14 11 15 98 16 15 17 2 18 1 19 6 20 7 21 8 22 9 23
REMARK SMILES IDX 10 24 16 25 17 26 18 27 19 28 28 29 29 30 30 31 31 32 32 33
REMARK SMILES IDX 33 34 34 35 35 36 36 37 97 38 37 39 96 40 38 41 39 42 40 43
REMARK SMILES IDX 90 44 41 45 95 46 89 47 91 48 42 49 94 50 88 51 87 52 43 54
REMARK SMILES IDX 75 55 55 56 74 57 56 58 59 59 73 60 92 61 57 62 58 63 72 65
REMARK SMILES IDX 93 66 60 67 44 68 45 69 53 70 46 71 47 72 51 73 54 74 48 75
REMARK SMILES IDX 49 76 52 77 50 78 76 79 77 80 85 81 78 82 79 83 83 84 86 85
REMARK SMILES IDX 80 86 81 87 84 88 82 89 61 90 62 91 70 92 63 93 64 94 68 95
REMARK SMILES IDX 71 96 65 97 66 98 69 99 67 100
REMARK H PARENT 91 53 59 64
REMARK Flexibility Score: inf
ROOT
ATOM      1  C   UNL A   1      34.845  33.106  28.599  1.00  0.00     0.188 C 
ENDROOT
BRANCH   1   2
ATOM      2  O   UNL A   1      34.219  31.837  28.648  1.00  0.00    -0.376 OA
BRANCH   2   3
ATOM      3  C   UNL A   1      34.560  30.897  27.645  1.00  0.00     0.202 C 
BRANCH   3   4
ATOM      4  C   UNL A   1      33.437  29.980  27.142  1.00  0.00     0.261 C 
BRANCH   4   5
ATOM      5  O   UNL A   1      33.851  28.661  26.755  1.00  0.00    -0.460 OA
BRANCH   5   6
ATOM      6  C   UNL A   1      33.669  28.299  25.468  1.00  0.00     0.338 C 
ATOM      7  O   UNL A   1      33.812  29.015  24.491  1.00  0.00    -0.246 OA
BRANCH   6   8
ATOM      8  C   UNL A   1      33.375  26.853  25.401  1.00  0.00     0.087 C 
ATOM      9  C   UNL A   1      32.185  22.868  25.889  1.00  0.00    -0.002 A 
ATOM     10  C   UNL A   1      33.172  21.881  26.075  1.00  0.00     0.054 A 
ATOM     11  C   UNL A   1      32.596  24.196  25.699  1.00  0.00     0.131 A 
ATOM     12  C   UNL A   1      34.529  22.213  26.108  1.00  0.00     0.130 A 
ATOM     13  C   UNL A   1      33.951  24.549  25.767  1.00  0.00     0.021 A 
ATOM     14  O   UNL A   1      31.623  25.142  25.513  1.00  0.00    -0.475 OA
ATOM     15  C   UNL A   1      34.912  23.550  25.951  1.00  0.00     0.058 A 
ATOM     16  C   UNL A   1      34.318  25.966  25.764  1.00  0.00     0.027 C 
ATOM     17  C   UNL A   1      32.042  26.376  24.880  1.00  0.00     0.316 C 
BRANCH   9  18
ATOM     18  C   UNL A   1      30.727  22.452  25.872  1.00  0.00     0.036 C 
ATOM     19  C   UNL A   1      29.911  22.910  27.076  1.00  0.00     0.009 C 
ENDBRANCH   9  18
BRANCH  12  20
ATOM     20  O   UNL A   1      35.566  21.342  26.293  1.00  0.00    -0.406 OA
BRANCH  20  21
ATOM     21  C   UNL A   1      36.459  21.140  25.209  1.00  0.00     0.573 C 
ATOM     22  F   UNL A   1      35.901  21.514  24.037  1.00  0.00    -0.132 F 
ATOM     23  F   UNL A   1      37.611  21.818  25.396  1.00  0.00    -0.132 F 
ATOM     24  F   UNL A   1      36.756  19.823  25.129  1.00  0.00    -0.132 F 
ENDBRANCH  20  21
ENDBRANCH  12  20
BRANCH  17  25
ATOM     25  C   UNL A   1      30.854  27.350  24.922  1.00  0.00     0.430 C 
ATOM     26  F   UNL A   1      30.823  28.137  23.819  1.00  0.00    -0.167 F 
ATOM     27  F   UNL A   1      29.682  26.661  24.910  1.00  0.00    -0.167 F 
ATOM     28  F   UNL A   1      30.844  28.132  26.018  1.00  0.00    -0.167 F 
ENDBRANCH  17  25
ENDBRANCH   6   8
ENDBRANCH   5   6
ENDBRANCH   4   5
ENDBRANCH   3   4
ENDBRANCH   2   3
ENDBRANCH   1   2
BRANCH   1  29
ATOM     29  C   UNL A   1      33.876  34.240  28.206  1.00  0.00     0.188 C 
BRANCH  29  30
ATOM     30  O   UNL A   1      34.363  35.570  28.070  1.00  0.00    -0.376 OA
BRANCH  30  31
ATOM     31  C   UNL A   1      33.700  36.630  28.748  1.00  0.00     0.202 C 
BRANCH  31  32
ATOM     32  C   UNL A   1      32.545  36.270  29.686  1.00  0.00     0.261 C 
BRANCH  32  33
ATOM     33  O   UNL A   1      32.734  36.693  31.048  1.00  0.00    -0.460 OA
BRANCH  33  34
ATOM     34  C   UNL A   1      32.539  35.734  31.985  1.00  0.00     0.338 C 
ATOM     35  O   UNL A   1      31.510  35.482  32.589  1.00  0.00    -0.246 OA
BRANCH  34  36
ATOM     36  C   UNL A   1      33.738  34.880  32.085  1.00  0.00     0.060 A 
ATOM     37  C   UNL A   1      33.600  33.620  32.682  1.00  0.00     0.016 A 
ATOM     38  C   UNL A   1      34.991  35.335  31.672  1.00  0.00     0.016 A 
ATOM     39  C   UNL A   1      34.720  32.815  32.887  1.00  0.00     0.010 A 
ATOM     40  C   UNL A   1      36.118  34.537  31.901  1.00  0.00     0.010 A 
ATOM     41  C   UNL A   1      35.991  33.286  32.529  1.00  0.00    -0.014 A 
BRANCH  41  42
ATOM     42  C   UNL A   1      37.200  32.531  32.936  1.00  0.00     0.031 A 
ATOM     43  C   UNL A   1      37.869  32.869  34.238  1.00  0.00     0.074 A 
ATOM     44  C   UNL A   1      37.697  31.555  32.157  1.00  0.00     0.049 A 
ATOM     45  N   UNL A   1      38.968  32.385  34.759  1.00  0.00    -0.248 NA
ATOM     46  C   UNL A   1      37.206  33.889  35.066  1.00  0.00     0.031 C 
ATOM     47  C   UNL A   1      37.115  31.101  30.896  1.00  0.00     0.029 A 
ATOM     48  N   UNL A   1      38.818  30.777  32.312  1.00  0.00    -0.354 N 
ATOM     49  C   UNL A   1      39.130  33.041  35.972  1.00  0.00     0.074 A 
ATOM     50  C   UNL A   1      38.029  33.972  36.102  1.00  0.00     0.031 C 
ATOM     51  C   UNL A   1      37.899  30.139  30.378  1.00  0.00     0.029 A 
ATOM     52  C   UNL A   1      39.050  29.933  31.256  1.00  0.00     0.049 A 
ATOM     53  H   UNL A   1      39.400  30.822  33.105  1.00  0.00     0.167 HD
ATOM     54  C   UNL A   1      40.106  32.878  36.897  1.00  0.00     0.037 A 
ATOM     55  C   UNL A   1      40.089  29.111  31.013  1.00  0.00     0.037 A 
ATOM     56  C   UNL A   1      41.207  31.960  36.766  1.00  0.00     0.049 A 
ATOM     57  C   UNL A   1      41.211  29.013  32.016  1.00  0.00     0.074 A 
ATOM     58  C   UNL A   1      42.234  31.710  37.659  1.00  0.00     0.029 A 
ATOM     59  N   UNL A   1      41.429  31.150  35.663  1.00  0.00    -0.354 N 
ATOM     60  N   UNL A   1      41.344  29.616  33.173  1.00  0.00    -0.248 NA
ATOM     61  C   UNL A   1      42.328  28.120  31.676  1.00  0.00     0.031 C 
ATOM     62  C   UNL A   1      43.105  30.785  37.075  1.00  0.00     0.029 A 
ATOM     63  C   UNL A   1      42.595  30.421  35.839  1.00  0.00     0.049 A 
ATOM     64  H   UNL A   1      40.846  31.099  34.871  1.00  0.00     0.167 HD
ATOM     65  C   UNL A   1      42.542  29.158  33.708  1.00  0.00     0.074 A 
ATOM     66  C   UNL A   1      43.093  28.218  32.755  1.00  0.00     0.031 C 
ATOM     67  C   UNL A   1      43.132  29.487  34.883  1.00  0.00     0.037 A 
BRANCH  54  68
ATOM     68  C   UNL A   1      40.041  33.733  38.127  1.00  0.00     0.064 A 
ATOM     69  C   UNL A   1      40.781  34.918  38.238  1.00  0.00     0.173 A 
ATOM     70  C   UNL A   1      39.202  33.377  39.193  1.00  0.00     0.173 A 
ATOM     71  F   UNL A   1      41.610  35.291  37.250  1.00  0.00    -0.203 F 
ATOM     72  C   UNL A   1      40.699  35.708  39.381  1.00  0.00     0.198 A 
ATOM     73  C   UNL A   1      39.104  34.183  40.325  1.00  0.00     0.198 A 
ATOM     74  F   UNL A   1      38.472  32.254  39.135  1.00  0.00    -0.203 F 
ATOM     75  F   UNL A   1      41.445  36.817  39.482  1.00  0.00    -0.200 F 
ATOM     76  C   UNL A   1      39.856  35.344  40.421  1.00  0.00     0.200 A 
ATOM     77  F   UNL A   1      38.282  33.834  41.324  1.00  0.00    -0.200 F 
ATOM     78  F   UNL A   1      39.774  36.108  41.518  1.00  0.00    -0.200 F 
ENDBRANCH  54  68
BRANCH  55  79
ATOM     79  C   UNL A   1      40.136  28.328  29.752  1.00  0.00     0.064 A 
ATOM     80  C   UNL A   1      40.816  28.812  28.625  1.00  0.00     0.173 A 
ATOM     81  C   UNL A   1      39.479  27.095  29.639  1.00  0.00     0.173 A 
ATOM     82  F   UNL A   1      41.430  30.003  28.675  1.00  0.00    -0.203 F 
ATOM     83  C   UNL A   1      40.822  28.098  27.429  1.00  0.00     0.198 A 
ATOM     84  C   UNL A   1      39.508  26.369  28.450  1.00  0.00     0.198 A 
ATOM     85  F   UNL A   1      38.807  26.594  30.686  1.00  0.00    -0.203 F 
ATOM     86  F   UNL A   1      41.437  28.606  26.352  1.00  0.00    -0.200 F 
ATOM     87  C   UNL A   1      40.174  26.875  27.344  1.00  0.00     0.200 A 
ATOM     88  F   UNL A   1      38.883  25.187  28.374  1.00  0.00    -0.200 F 
ATOM     89  F   UNL A   1      40.177  26.191  26.192  1.00  0.00    -0.200 F 
ENDBRANCH  55  79
BRANCH  67  90
ATOM     90  C   UNL A   1      44.426  28.807  35.221  1.00  0.00     0.064 A 
ATOM     91  C   UNL A   1      45.664  29.372  34.882  1.00  0.00     0.173 A 
ATOM     92  C   UNL A   1      44.430  27.597  35.931  1.00  0.00     0.173 A 
ATOM     93  F   UNL A   1      45.714  30.520  34.190  1.00  0.00    -0.203 F 
ATOM     94  C   UNL A   1      46.857  28.739  35.223  1.00  0.00     0.198 A 
ATOM     95  C   UNL A   1      45.624  26.981  36.294  1.00  0.00     0.198 A 
ATOM     96  F   UNL A   1      43.273  27.017  36.286  1.00  0.00    -0.203 F 
ATOM     97  F   UNL A   1      48.028  29.277  34.852  1.00  0.00    -0.200 F 
ATOM     98  C   UNL A   1      46.836  27.550  35.935  1.00  0.00     0.200 A 
ATOM     99  F   UNL A   1      45.602  25.837  36.993  1.00  0.00    -0.200 F 
ATOM    100  F   UNL A   1      47.986  26.946  36.268  1.00  0.00    -0.200 F 
ENDBRANCH  67  90
ENDBRANCH  41  42
ENDBRANCH  34  36
ENDBRANCH  33  34
ENDBRANCH  32  33
ENDBRANCH  31  32
ENDBRANCH  30  31
ENDBRANCH  29  30
ENDBRANCH   1  29
TORSDOF 21
ENDMDL
MODEL 3
REMARK VINA RESULT:     -10.8      4.770      6.721
REMARK SMILES CCc1cc(OC(F)(F)F)cc2c1O[C@@H](C(F)(F)F)C(C(=O)OCCOCCOCCOC(=O)c1ccc(-c3c4nc(c(-c5c(F)c(F)c(F)c(F)c5F)c5ccc([nH]5)c(-c5c(F)c(F)c(F)c(F)c5F)c5nc(c(-c6c(F)c(F)c(F)c(F)c6F)c6ccc3[nH]6)C=C5)C=C4)cc1)=C2
REMARK SMILES IDX 27 1 26 2 25 3 24 4 23 5 21 6 22 7 20 8 3 9 4 10 13 11 5 12
REMARK SMILES IDX 12 13 14 14 11 15 98 16 15 17 2 18 1 19 6 20 7 21 8 22 9 23
REMARK SMILES IDX 10 24 16 25 17 26 18 27 19 28 28 29 29 30 30 31 31 32 32 33
REMARK SMILES IDX 33 34 34 35 35 36 36 37 97 38 37 39 96 40 38 41 39 42 40 43
REMARK SMILES IDX 90 44 41 45 95 46 89 47 91 48 42 49 94 50 88 51 87 52 43 54
REMARK SMILES IDX 75 55 55 56 74 57 56 58 59 59 73 60 92 61 57 62 58 63 72 65
REMARK SMILES IDX 93 66 60 67 44 68 45 69 53 70 46 71 47 72 51 73 54 74 48 75
REMARK SMILES IDX 49 76 52 77 50 78 76 79 77 80 85 81 78 82 79 83 83 84 86 85
REMARK SMILES IDX 80 86 81 87 84 88 82 89 61 90 62 91 70 92 63 93 64 94 68 95
REMARK SMILES IDX 71 96 65 97 66 98 69 99 67 100
REMARK H PARENT 91 53 59 64
REMARK Flexibility Score: inf
ROOT
ATOM      1  C   UNL A   1      40.018  21.743  26.117  1.00  0.00     0.188 C 
ENDROOT
BRANCH   1   2
ATOM      2  O   UNL A   1      38.603  21.738  26.176  1.00  0.00    -0.376 OA
BRANCH   2   3
ATOM      3  C   UNL A   1      37.905  22.602  25.297  1.00  0.00     0.202 C 
BRANCH   3   4
ATOM      4  C   UNL A   1      36.910  21.950  24.328  1.00  0.00     0.261 C 
BRANCH   4   5
ATOM      5  O   UNL A   1      35.711  22.702  24.084  1.00  0.00    -0.460 OA
BRANCH   5   6
ATOM      6  C   UNL A   1      34.761  22.696  25.042  1.00  0.00     0.338 C 
ATOM      7  O   UNL A   1      34.656  21.886  25.947  1.00  0.00    -0.246 OA
BRANCH   6   8
ATOM      8  C   UNL A   1      33.915  23.899  24.903  1.00  0.00     0.087 C 
ATOM      9  C   UNL A   1      31.794  27.332  23.783  1.00  0.00    -0.002 A 
ATOM     10  C   UNL A   1      32.098  28.555  24.412  1.00  0.00     0.054 A 
ATOM     11  C   UNL A   1      32.492  26.182  24.185  1.00  0.00     0.131 A 
ATOM     12  C   UNL A   1      33.095  28.637  25.387  1.00  0.00     0.130 A 
ATOM     13  C   UNL A   1      33.520  26.258  25.135  1.00  0.00     0.021 A 
ATOM     14  O   UNL A   1      32.178  25.001  23.568  1.00  0.00    -0.475 OA
ATOM     15  C   UNL A   1      33.801  27.483  25.746  1.00  0.00     0.058 A 
ATOM     16  C   UNL A   1      34.352  25.078  25.377  1.00  0.00     0.027 C 
ATOM     17  C   UNL A   1      32.547  23.791  24.276  1.00  0.00     0.316 C 
BRANCH   9  18
ATOM     18  C   UNL A   1      30.709  27.302  22.725  1.00  0.00     0.036 C 
ATOM     19  C   UNL A   1      29.586  28.315  22.924  1.00  0.00     0.009 C 
ENDBRANCH   9  18
BRANCH  12  20
ATOM     20  O   UNL A   1      33.480  29.769  26.051  1.00  0.00    -0.406 OA
BRANCH  20  21
ATOM     21  C   UNL A   1      32.569  30.327  26.985  1.00  0.00     0.573 C 
ATOM     22  F   UNL A   1      31.709  31.176  26.383  1.00  0.00    -0.132 F 
ATOM     23  F   UNL A   1      31.877  29.361  27.625  1.00  0.00    -0.132 F 
ATOM     24  F   UNL A   1      33.268  31.024  27.910  1.00  0.00    -0.132 F 
ENDBRANCH  20  21
ENDBRANCH  12  20
BRANCH  17  25
ATOM     25  C   UNL A   1      32.264  22.601  23.346  1.00  0.00     0.430 C 
ATOM     26  F   UNL A   1      33.218  22.483  22.391  1.00  0.00    -0.167 F 
ATOM     27  F   UNL A   1      32.307  21.437  24.048  1.00  0.00    -0.167 F 
ATOM     28  F   UNL A   1      31.057  22.663  22.752  1.00  0.00    -0.167 F 
ENDBRANCH  17  25
ENDBRANCH   6   8
ENDBRANCH   5   6
ENDBRANCH   4   5
ENDBRANCH   3   4
ENDBRANCH   2   3
ENDBRANCH   1   2
BRANCH   1  29
ATOM     29  C   UNL A   1      40.650  20.471  26.716  1.00  0.00     0.188 C 
BRANCH  29  30
ATOM     30  O   UNL A   1      41.460  19.632  25.899  1.00  0.00    -0.376 OA
BRANCH  30  31
ATOM     31  C   UNL A   1      42.291  18.654  26.511  1.00  0.00     0.202 C 
BRANCH  31  32
ATOM     32  C   UNL A   1      43.505  18.151  25.724  1.00  0.00     0.261 C 
BRANCH  32  33
ATOM     33  O   UNL A   1      43.693  18.792  24.451  1.00  0.00    -0.460 OA
BRANCH  33  34
ATOM     34  C   UNL A   1      44.861  19.462  24.306  1.00  0.00     0.338 C 
ATOM     35  O   UNL A   1      45.876  19.079  23.748  1.00  0.00    -0.246 OA
BRANCH  34  36
ATOM     36  C   UNL A   1      44.709  20.847  24.794  1.00  0.00     0.060 A 
ATOM     37  C   UNL A   1      44.559  21.866  23.843  1.00  0.00     0.016 A 
ATOM     38  C   UNL A   1      44.788  21.151  26.153  1.00  0.00     0.016 A 
ATOM     39  C   UNL A   1      44.508  23.199  24.248  1.00  0.00     0.010 A 
ATOM     40  C   UNL A   1      44.761  22.491  26.556  1.00  0.00     0.010 A 
ATOM     41  C   UNL A   1      44.645  23.521  25.606  1.00  0.00    -0.014 A 
BRANCH  41  42
ATOM     42  C   UNL A   1      44.804  24.936  26.017  1.00  0.00     0.031 A 
ATOM     43  C   UNL A   1      46.158  25.578  25.918  1.00  0.00     0.074 A 
ATOM     44  C   UNL A   1      43.755  25.643  26.472  1.00  0.00     0.049 A 
ATOM     45  N   UNL A   1      46.540  26.776  26.281  1.00  0.00    -0.248 NA
ATOM     46  C   UNL A   1      47.227  24.757  25.327  1.00  0.00     0.031 C 
ATOM     47  C   UNL A   1      42.383  25.151  26.572  1.00  0.00     0.029 A 
ATOM     48  N   UNL A   1      43.690  26.929  26.949  1.00  0.00    -0.354 N 
ATOM     49  C   UNL A   1      47.890  26.854  25.964  1.00  0.00     0.074 A 
ATOM     50  C   UNL A   1      48.267  25.575  25.400  1.00  0.00     0.031 C 
ATOM     51  C   UNL A   1      41.613  26.117  27.103  1.00  0.00     0.029 A 
ATOM     52  C   UNL A   1      42.445  27.281  27.406  1.00  0.00     0.049 A 
ATOM     53  H   UNL A   1      44.462  27.540  26.962  1.00  0.00     0.167 HD
ATOM     54  C   UNL A   1      48.736  27.898  26.126  1.00  0.00     0.037 A 
ATOM     55  C   UNL A   1      42.033  28.404  28.026  1.00  0.00     0.037 A 
ATOM     56  C   UNL A   1      48.366  29.166  26.697  1.00  0.00     0.049 A 
ATOM     57  C   UNL A   1      43.015  29.519  28.277  1.00  0.00     0.074 A 
ATOM     58  C   UNL A   1      49.149  30.292  26.883  1.00  0.00     0.029 A 
ATOM     59  N   UNL A   1      47.104  29.472  27.185  1.00  0.00    -0.354 N 
ATOM     60  N   UNL A   1      44.283  29.596  27.952  1.00  0.00    -0.248 NA
ATOM     61  C   UNL A   1      42.508  30.704  28.985  1.00  0.00     0.031 C 
ATOM     62  C   UNL A   1      48.375  31.262  27.529  1.00  0.00     0.029 A 
ATOM     63  C   UNL A   1      47.096  30.758  27.701  1.00  0.00     0.049 A 
ATOM     64  H   UNL A   1      46.329  28.865  27.168  1.00  0.00     0.167 HD
ATOM     65  C   UNL A   1      44.717  30.841  28.390  1.00  0.00     0.074 A 
ATOM     66  C   UNL A   1      43.575  31.491  28.996  1.00  0.00     0.031 C 
ATOM     67  C   UNL A   1      45.951  31.395  28.299  1.00  0.00     0.037 A 
BRANCH  54  68
ATOM     68  C   UNL A   1      50.161  27.704  25.702  1.00  0.00     0.064 A 
ATOM     69  C   UNL A   1      51.174  27.430  26.632  1.00  0.00     0.173 A 
ATOM     70  C   UNL A   1      50.510  27.758  24.344  1.00  0.00     0.173 A 
ATOM     71  F   UNL A   1      50.892  27.384  27.943  1.00  0.00    -0.203 F 
ATOM     72  C   UNL A   1      52.490  27.239  26.220  1.00  0.00     0.198 A 
ATOM     73  C   UNL A   1      51.823  27.541  23.935  1.00  0.00     0.198 A 
ATOM     74  F   UNL A   1      49.577  28.014  23.416  1.00  0.00    -0.203 F 
ATOM     75  F   UNL A   1      53.450  27.017  27.129  1.00  0.00    -0.200 F 
ATOM     76  C   UNL A   1      52.812  27.287  24.871  1.00  0.00     0.200 A 
ATOM     77  F   UNL A   1      52.130  27.579  22.631  1.00  0.00    -0.200 F 
ATOM     78  F   UNL A   1      54.079  27.096  24.476  1.00  0.00    -0.200 F 
ENDBRANCH  54  68
BRANCH  55  79
ATOM     79  C   UNL A   1      40.624  28.525  28.481  1.00  0.00     0.064 A 
ATOM     80  C   UNL A   1      39.621  28.985  27.617  1.00  0.00     0.173 A 
ATOM     81  C   UNL A   1      40.259  28.210  29.798  1.00  0.00     0.173 A 
ATOM     82  F   UNL A   1      39.930  29.331  26.359  1.00  0.00    -0.203 F 
ATOM     83  C   UNL A   1      38.308  29.140  28.058  1.00  0.00     0.198 A 
ATOM     84  C   UNL A   1      38.941  28.341  30.230  1.00  0.00     0.198 A 
ATOM     85  F   UNL A   1      41.184  27.774  30.666  1.00  0.00    -0.203 F 
ATOM     86  F   UNL A   1      37.379  29.629  27.226  1.00  0.00    -0.200 F 
ATOM     87  C   UNL A   1      37.968  28.812  29.361  1.00  0.00     0.200 A 
ATOM     88  F   UNL A   1      38.616  28.020  31.490  1.00  0.00    -0.200 F 
ATOM     89  F   UNL A   1      36.707  28.966  29.785  1.00  0.00    -0.200 F 
ENDBRANCH  55  79
BRANCH  67  90
ATOM     90  C   UNL A   1      46.126  32.784  28.840  1.00  0.00     0.064 A 
ATOM     91  C   UNL A   1      46.554  33.012  30.156  1.00  0.00     0.173 A 
ATOM     92  C   UNL A   1      45.906  33.900  28.018  1.00  0.00     0.173 A 
ATOM     93  F   UNL A   1      46.764  31.979  30.986  1.00  0.00    -0.203 F 
ATOM     94  C   UNL A   1      46.734  34.307  30.636  1.00  0.00     0.198 A 
ATOM     95  C   UNL A   1      46.114  35.192  28.493  1.00  0.00     0.198 A 
ATOM     96  F   UNL A   1      45.503  33.737  26.749  1.00  0.00    -0.203 F 
ATOM     97  F   UNL A   1      47.104  34.502  31.909  1.00  0.00    -0.200 F 
ATOM     98  C   UNL A   1      46.521  35.395  29.802  1.00  0.00     0.200 A 
ATOM     99  F   UNL A   1      45.919  36.242  27.682  1.00  0.00    -0.200 F 
ATOM    100  F   UNL A   1      46.702  36.640  30.264  1.00  0.00    -0.200 F 
ENDBRANCH  67  90
ENDBRANCH  41  42
ENDBRANCH  34  36
ENDBRANCH  33  34
ENDBRANCH  32  33
ENDBRANCH  31  32
ENDBRANCH  30  31
ENDBRANCH  29  30
ENDBRANCH   1  29
TORSDOF 21
ENDMDL
