MODEL 1
REMARK VINA RESULT:     -10.3      0.000      0.000
REMARK SMILES Cc1nn(C)c2c1NC(=O)[C@@H](CCC(=O)OCCOCCOCCOC(=O)c1ccc(-c3c4nc(c(-c5c(F)c(F)c(F)c(F)c5F)c5ccc([nH]5)c(-c5c(F)c(F)c(F)c(F)c5F)c5nc(c(-c6c(F)c(F)c(F)c(F)c6F)c6ccc3[nH]6)C=C5)C=C4)cc1)N2
REMARK SMILES IDX 20 1 19 2 18 3 17 4 16 5 14 6 15 7 13 8 12 9 11 10 1 11 2 12
REMARK SMILES IDX 3 13 7 14 4 15 6 16 8 17 5 18 91 19 9 20 10 23 21 24 22 25
REMARK SMILES IDX 23 26 24 27 25 28 26 29 27 30 28 31 29 32 90 33 30 34 89 35
REMARK SMILES IDX 31 36 32 37 33 38 83 39 34 40 88 41 82 42 84 43 35 44 87 45
REMARK SMILES IDX 81 46 80 47 36 49 68 50 48 51 67 52 49 53 52 54 66 55 85 56
REMARK SMILES IDX 50 57 51 58 65 60 86 61 53 62 37 63 38 64 46 65 39 66 40 67
REMARK SMILES IDX 44 68 47 69 41 70 42 71 45 72 43 73 69 74 70 75 78 76 71 77
REMARK SMILES IDX 72 78 76 79 79 80 73 81 74 82 77 83 75 84 54 85 55 86 63 87
REMARK SMILES IDX 56 88 57 89 61 90 64 91 58 92 59 93 62 94 60 95
REMARK H PARENT 8 21 91 22 84 48 52 59
REMARK Flexibility Score: inf
ROOT
ATOM      1  C   UNL A   1      31.032  28.359  22.998  1.00  0.00     0.188 C 
ENDROOT
BRANCH   1   2
ATOM      2  O   UNL A   1      30.075  27.553  23.677  1.00  0.00    -0.376 OA
BRANCH   2   3
ATOM      3  C   UNL A   1      30.409  26.179  23.873  1.00  0.00     0.202 C 
BRANCH   3   4
ATOM      4  C   UNL A   1      30.136  25.646  25.282  1.00  0.00     0.261 C 
BRANCH   4   5
ATOM      5  O   UNL A   1      30.625  24.290  25.368  1.00  0.00    -0.463 OA
BRANCH   5   6
ATOM      6  C   UNL A   1      30.850  23.804  26.601  1.00  0.00     0.305 C 
ATOM      7  O   UNL A   1      29.969  23.352  27.327  1.00  0.00    -0.252 OA
BRANCH   6   8
ATOM      8  C   UNL A   1      32.322  23.721  26.981  1.00  0.00     0.125 C 
BRANCH   8   9
ATOM      9  C   UNL A   1      32.948  22.562  27.787  1.00  0.00     0.047 C 
BRANCH   9  10
ATOM     10  C   UNL A   1      34.092  21.727  27.170  1.00  0.00     0.171 C 
ATOM     11  C   UNL A   1      32.099  21.363  22.348  1.00  0.00     0.071 C 
ATOM     12  C   UNL A   1      32.609  20.594  23.506  1.00  0.00     0.085 A 
ATOM     13  N   UNL A   1      32.176  19.345  23.762  1.00  0.00    -0.174 NA
ATOM     14  C   UNL A   1      33.427  21.072  24.544  1.00  0.00     0.107 A 
ATOM     15  N   UNL A   1      32.682  19.070  24.992  1.00  0.00    -0.251 N 
ATOM     16  C   UNL A   1      33.292  20.156  25.552  1.00  0.00     0.149 A 
ATOM     17  N   UNL A   1      34.156  22.224  24.721  1.00  0.00    -0.320 N 
ATOM     18  C   UNL A   1      32.514  17.750  25.544  1.00  0.00     0.176 C 
ATOM     19  N   UNL A   1      33.656  20.354  26.835  1.00  0.00    -0.357 N 
ATOM     20  C   UNL A   1      34.687  22.512  25.964  1.00  0.00     0.247 C 
ATOM     21  H   UNL A   1      34.298  22.841  23.967  1.00  0.00     0.170 HD
ATOM     22  H   UNL A   1      33.633  19.633  27.505  1.00  0.00     0.163 HD
ATOM     23  O   UNL A   1      35.468  23.453  26.114  1.00  0.00    -0.272 OA
ENDBRANCH   9  10
ENDBRANCH   8   9
ENDBRANCH   6   8
ENDBRANCH   5   6
ENDBRANCH   4   5
ENDBRANCH   3   4
ENDBRANCH   2   3
ENDBRANCH   1   2
BRANCH   1  24
ATOM     24  C   UNL A   1      32.284  28.798  23.777  1.00  0.00     0.188 C 
BRANCH  24  25
ATOM     25  O   UNL A   1      32.226  29.721  24.853  1.00  0.00    -0.376 OA
BRANCH  25  26
ATOM     26  C   UNL A   1      32.752  29.326  26.101  1.00  0.00     0.202 C 
BRANCH  26  27
ATOM     27  C   UNL A   1      33.367  30.425  26.972  1.00  0.00     0.261 C 
BRANCH  27  28
ATOM     28  O   UNL A   1      34.674  30.130  27.483  1.00  0.00    -0.460 OA
BRANCH  28  29
ATOM     29  C   UNL A   1      35.469  31.209  27.667  1.00  0.00     0.338 C 
ATOM     30  O   UNL A   1      35.166  32.390  27.546  1.00  0.00    -0.246 OA
BRANCH  29  31
ATOM     31  C   UNL A   1      36.781  30.776  28.162  1.00  0.00     0.060 A 
ATOM     32  C   UNL A   1      37.174  29.443  27.991  1.00  0.00     0.016 A 
ATOM     33  C   UNL A   1      37.578  31.665  28.880  1.00  0.00     0.016 A 
ATOM     34  C   UNL A   1      38.370  28.996  28.547  1.00  0.00     0.010 A 
ATOM     35  C   UNL A   1      38.752  31.203  29.468  1.00  0.00     0.010 A 
ATOM     36  C   UNL A   1      39.157  29.866  29.315  1.00  0.00    -0.014 A 
BRANCH  36  37
ATOM     37  C   UNL A   1      40.387  29.349  29.959  1.00  0.00     0.031 A 
ATOM     38  C   UNL A   1      41.662  30.018  29.573  1.00  0.00     0.074 A 
ATOM     39  C   UNL A   1      40.346  28.770  31.180  1.00  0.00     0.049 A 
ATOM     40  N   UNL A   1      42.001  31.174  30.065  1.00  0.00    -0.248 NA
ATOM     41  C   UNL A   1      42.504  29.577  28.465  1.00  0.00     0.031 C 
ATOM     42  C   UNL A   1      39.255  28.983  32.141  1.00  0.00     0.029 A 
ATOM     43  N   UNL A   1      41.315  28.114  31.908  1.00  0.00    -0.354 N 
ATOM     44  C   UNL A   1      43.007  31.676  29.269  1.00  0.00     0.074 A 
ATOM     45  C   UNL A   1      43.327  30.630  28.322  1.00  0.00     0.031 C 
ATOM     46  C   UNL A   1      39.687  28.638  33.369  1.00  0.00     0.029 A 
ATOM     47  C   UNL A   1      41.015  28.039  33.268  1.00  0.00     0.049 A 
ATOM     48  H   UNL A   1      42.133  27.739  31.510  1.00  0.00     0.167 HD
ATOM     49  C   UNL A   1      43.474  32.944  29.403  1.00  0.00     0.037 A 
ATOM     50  C   UNL A   1      41.924  28.080  34.280  1.00  0.00     0.037 A 
ATOM     51  C   UNL A   1      42.850  33.744  30.416  1.00  0.00     0.049 A 
ATOM     52  C   UNL A   1      42.502  29.462  34.133  1.00  0.00     0.074 A 
ATOM     53  C   UNL A   1      41.814  34.652  30.479  1.00  0.00     0.029 A 
ATOM     54  N   UNL A   1      43.266  33.600  31.718  1.00  0.00    -0.354 N 
ATOM     55  N   UNL A   1      41.963  30.569  34.570  1.00  0.00    -0.248 NA
ATOM     56  C   UNL A   1      43.592  29.650  33.176  1.00  0.00     0.031 C 
ATOM     57  C   UNL A   1      41.376  34.640  31.841  1.00  0.00     0.029 A 
ATOM     58  C   UNL A   1      42.139  33.676  32.499  1.00  0.00     0.049 A 
ATOM     59  H   UNL A   1      44.191  33.468  32.029  1.00  0.00     0.167 HD
ATOM     60  C   UNL A   1      42.481  31.578  33.754  1.00  0.00     0.074 A 
ATOM     61  C   UNL A   1      43.513  30.954  32.956  1.00  0.00     0.031 C 
ATOM     62  C   UNL A   1      41.912  32.812  33.633  1.00  0.00     0.037 A 
BRANCH  49  63
ATOM     63  C   UNL A   1      44.589  33.512  28.632  1.00  0.00     0.064 A 
ATOM     64  C   UNL A   1      45.886  33.364  29.139  1.00  0.00     0.173 A 
ATOM     65  C   UNL A   1      44.386  34.369  27.548  1.00  0.00     0.173 A 
ATOM     66  F   UNL A   1      46.104  32.561  30.194  1.00  0.00    -0.203 F 
ATOM     67  C   UNL A   1      46.947  34.080  28.603  1.00  0.00     0.198 A 
ATOM     68  C   UNL A   1      45.454  35.083  27.009  1.00  0.00     0.198 A 
ATOM     69  F   UNL A   1      43.155  34.551  27.049  1.00  0.00    -0.203 F 
ATOM     70  F   UNL A   1      48.171  33.956  29.134  1.00  0.00    -0.200 F 
ATOM     71  C   UNL A   1      46.729  34.949  27.544  1.00  0.00     0.200 A 
ATOM     72  F   UNL A   1      45.245  35.931  25.990  1.00  0.00    -0.200 F 
ATOM     73  F   UNL A   1      47.746  35.668  27.051  1.00  0.00    -0.200 F 
ENDBRANCH  49  63
BRANCH  50  74
ATOM     74  C   UNL A   1      42.746  26.842  34.463  1.00  0.00     0.064 A 
ATOM     75  C   UNL A   1      42.756  26.225  35.733  1.00  0.00     0.173 A 
ATOM     76  C   UNL A   1      43.541  26.231  33.482  1.00  0.00     0.173 A 
ATOM     77  F   UNL A   1      42.119  26.798  36.767  1.00  0.00    -0.203 F 
ATOM     78  C   UNL A   1      43.418  25.019  35.968  1.00  0.00     0.198 A 
ATOM     79  C   UNL A   1      44.179  25.008  33.706  1.00  0.00     0.198 A 
ATOM     80  F   UNL A   1      43.721  26.797  32.283  1.00  0.00    -0.203 F 
ATOM     81  F   UNL A   1      43.378  24.459  37.185  1.00  0.00    -0.200 F 
ATOM     82  C   UNL A   1      44.104  24.395  34.944  1.00  0.00     0.200 A 
ATOM     83  F   UNL A   1      44.853  24.420  32.709  1.00  0.00    -0.200 F 
ATOM     84  F   UNL A   1      44.702  23.212  35.149  1.00  0.00    -0.200 F 
ENDBRANCH  50  74
BRANCH  62  85
ATOM     85  C   UNL A   1      40.804  33.102  34.586  1.00  0.00     0.064 A 
ATOM     86  C   UNL A   1      41.068  33.752  35.799  1.00  0.00     0.173 A 
ATOM     87  C   UNL A   1      39.473  32.765  34.294  1.00  0.00     0.173 A 
ATOM     88  F   UNL A   1      42.323  34.102  36.120  1.00  0.00    -0.203 F 
ATOM     89  C   UNL A   1      40.036  34.072  36.677  1.00  0.00     0.198 A 
ATOM     90  C   UNL A   1      38.442  33.110  35.162  1.00  0.00     0.198 A 
ATOM     91  F   UNL A   1      39.161  32.123  33.157  1.00  0.00    -0.203 F 
ATOM     92  F   UNL A   1      40.307  34.700  37.828  1.00  0.00    -0.200 F 
ATOM     93  C   UNL A   1      38.723  33.763  36.351  1.00  0.00     0.200 A 
ATOM     94  F   UNL A   1      37.171  32.828  34.837  1.00  0.00    -0.200 F 
ATOM     95  F   UNL A   1      37.727  34.106  37.180  1.00  0.00    -0.200 F 
ENDBRANCH  62  85
ENDBRANCH  36  37
ENDBRANCH  29  31
ENDBRANCH  28  29
ENDBRANCH  27  28
ENDBRANCH  26  27
ENDBRANCH  25  26
ENDBRANCH  24  25
ENDBRANCH   1  24
TORSDOF 19
ENDMDL
MODEL 2
REMARK VINA RESULT:      -9.9      1.578      2.208
REMARK SMILES Cc1nn(C)c2c1NC(=O)[C@@H](CCC(=O)OCCOCCOCCOC(=O)c1ccc(-c3c4nc(c(-c5c(F)c(F)c(F)c(F)c5F)c5ccc([nH]5)c(-c5c(F)c(F)c(F)c(F)c5F)c5nc(c(-c6c(F)c(F)c(F)c(F)c6F)c6ccc3[nH]6)C=C5)C=C4)cc1)N2
REMARK SMILES IDX 20 1 19 2 18 3 17 4 16 5 14 6 15 7 13 8 12 9 11 10 1 11 2 12
REMARK SMILES IDX 3 13 7 14 4 15 6 16 8 17 5 18 91 19 9 20 10 23 21 24 22 25
REMARK SMILES IDX 23 26 24 27 25 28 26 29 27 30 28 31 29 32 90 33 30 34 89 35
REMARK SMILES IDX 31 36 32 37 33 38 83 39 34 40 88 41 82 42 84 43 35 44 87 45
REMARK SMILES IDX 81 46 80 47 36 49 68 50 48 51 67 52 49 53 52 54 66 55 85 56
REMARK SMILES IDX 50 57 51 58 65 60 86 61 53 62 37 63 38 64 46 65 39 66 40 67
REMARK SMILES IDX 44 68 47 69 41 70 42 71 45 72 43 73 69 74 70 75 78 76 71 77
REMARK SMILES IDX 72 78 76 79 79 80 73 81 74 82 77 83 75 84 54 85 55 86 63 87
REMARK SMILES IDX 56 88 57 89 61 90 64 91 58 92 59 93 62 94 60 95
REMARK H PARENT 8 21 91 22 84 48 52 59
REMARK Flexibility Score: inf
ROOT
ATOM      1  C   UNL A   1      30.919  27.295  26.153  1.00  0.00     0.188 C 
ENDROOT
BRANCH   1   2
ATOM      2  O   UNL A   1      30.300  26.092  26.597  1.00  0.00    -0.376 OA
BRANCH   2   3
ATOM      3  C   UNL A   1      30.581  24.907  25.853  1.00  0.00     0.202 C 
BRANCH   3   4
ATOM      4  C   UNL A   1      30.081  23.611  26.496  1.00  0.00     0.261 C 
BRANCH   4   5
ATOM      5  O   UNL A   1      30.958  22.531  26.107  1.00  0.00    -0.463 OA
BRANCH   5   6
ATOM      6  C   UNL A   1      32.189  22.524  26.649  1.00  0.00     0.305 C 
ATOM      7  O   UNL A   1      32.452  23.000  27.749  1.00  0.00    -0.252 OA
BRANCH   6   8
ATOM      8  C   UNL A   1      33.221  21.744  25.846  1.00  0.00     0.125 C 
BRANCH   8   9
ATOM      9  C   UNL A   1      33.303  20.203  25.800  1.00  0.00     0.047 C 
BRANCH   9  10
ATOM     10  C   UNL A   1      33.814  19.498  24.524  1.00  0.00     0.171 C 
ATOM     11  C   UNL A   1      31.693  14.814  25.482  1.00  0.00     0.071 C 
ATOM     12  C   UNL A   1      32.954  15.532  25.189  1.00  0.00     0.085 A 
ATOM     13  N   UNL A   1      34.142  15.064  25.617  1.00  0.00    -0.174 NA
ATOM     14  C   UNL A   1      33.086  16.809  24.617  1.00  0.00     0.107 A 
ATOM     15  N   UNL A   1      35.004  16.082  25.360  1.00  0.00    -0.251 N 
ATOM     16  C   UNL A   1      34.362  17.202  24.918  1.00  0.00     0.149 A 
ATOM     17  N   UNL A   1      32.210  17.658  23.983  1.00  0.00    -0.320 N 
ATOM     18  C   UNL A   1      36.413  15.884  25.586  1.00  0.00     0.176 C 
ATOM     19  N   UNL A   1      34.827  18.465  24.830  1.00  0.00    -0.357 N 
ATOM     20  C   UNL A   1      32.587  18.962  23.727  1.00  0.00     0.247 C 
ATOM     21  H   UNL A   1      31.318  17.339  23.714  1.00  0.00     0.170 HD
ATOM     22  H   UNL A   1      35.777  18.685  24.961  1.00  0.00     0.163 HD
ATOM     23  O   UNL A   1      31.887  19.698  23.029  1.00  0.00    -0.272 OA
ENDBRANCH   9  10
ENDBRANCH   8   9
ENDBRANCH   6   8
ENDBRANCH   5   6
ENDBRANCH   4   5
ENDBRANCH   3   4
ENDBRANCH   2   3
ENDBRANCH   1   2
BRANCH   1  24
ATOM     24  C   UNL A   1      31.890  28.001  27.115  1.00  0.00     0.188 C 
BRANCH  24  25
ATOM     25  O   UNL A   1      32.686  29.105  26.716  1.00  0.00    -0.376 OA
BRANCH  25  26
ATOM     26  C   UNL A   1      32.316  30.391  27.165  1.00  0.00     0.202 C 
BRANCH  26  27
ATOM     27  C   UNL A   1      33.384  31.485  27.085  1.00  0.00     0.261 C 
BRANCH  27  28
ATOM     28  O   UNL A   1      34.443  31.366  28.045  1.00  0.00    -0.460 OA
BRANCH  28  29
ATOM     29  C   UNL A   1      35.453  32.253  27.891  1.00  0.00     0.338 C 
ATOM     30  O   UNL A   1      35.376  33.416  27.511  1.00  0.00    -0.246 OA
BRANCH  29  31
ATOM     31  C   UNL A   1      36.709  31.655  28.359  1.00  0.00     0.060 A 
ATOM     32  C   UNL A   1      36.997  30.322  28.039  1.00  0.00     0.016 A 
ATOM     33  C   UNL A   1      37.552  32.383  29.195  1.00  0.00     0.016 A 
ATOM     34  C   UNL A   1      38.134  29.714  28.564  1.00  0.00     0.010 A 
ATOM     35  C   UNL A   1      38.665  31.758  29.751  1.00  0.00     0.010 A 
ATOM     36  C   UNL A   1      38.964  30.418  29.448  1.00  0.00    -0.014 A 
BRANCH  36  37
ATOM     37  C   UNL A   1      40.127  29.727  30.054  1.00  0.00     0.031 A 
ATOM     38  C   UNL A   1      41.463  30.067  29.484  1.00  0.00     0.074 A 
ATOM     39  C   UNL A   1      40.099  29.307  31.338  1.00  0.00     0.049 A 
ATOM     40  N   UNL A   1      42.075  31.172  29.794  1.00  0.00    -0.248 NA
ATOM     41  C   UNL A   1      42.079  29.339  28.378  1.00  0.00     0.031 C 
ATOM     42  C   UNL A   1      39.179  29.850  32.347  1.00  0.00     0.029 A 
ATOM     43  N   UNL A   1      40.989  28.546  32.065  1.00  0.00    -0.354 N 
ATOM     44  C   UNL A   1      43.072  31.360  28.863  1.00  0.00     0.074 A 
ATOM     45  C   UNL A   1      43.076  30.173  28.036  1.00  0.00     0.031 C 
ATOM     46  C   UNL A   1      39.660  29.557  33.571  1.00  0.00     0.029 A 
ATOM     47  C   UNL A   1      40.824  28.685  33.442  1.00  0.00     0.049 A 
ATOM     48  H   UNL A   1      41.669  27.965  31.654  1.00  0.00     0.167 HD
ATOM     49  C   UNL A   1      43.794  32.508  28.796  1.00  0.00     0.037 A 
ATOM     50  C   UNL A   1      41.823  28.644  34.365  1.00  0.00     0.037 A 
ATOM     51  C   UNL A   1      43.452  33.527  29.743  1.00  0.00     0.049 A 
ATOM     52  C   UNL A   1      42.647  29.848  33.996  1.00  0.00     0.074 A 
ATOM     53  C   UNL A   1      42.630  34.634  29.772  1.00  0.00     0.029 A 
ATOM     54  N   UNL A   1      43.965  33.443  31.015  1.00  0.00    -0.354 N 
ATOM     55  N   UNL A   1      42.388  31.085  34.328  1.00  0.00    -0.248 NA
ATOM     56  C   UNL A   1      43.646  29.696  32.939  1.00  0.00     0.031 C 
ATOM     57  C   UNL A   1      42.344  34.864  31.154  1.00  0.00     0.029 A 
ATOM     58  C   UNL A   1      42.963  33.839  31.867  1.00  0.00     0.049 A 
ATOM     59  H   UNL A   1      44.872  33.154  31.266  1.00  0.00     0.167 HD
ATOM     60  C   UNL A   1      43.009  31.867  33.351  1.00  0.00     0.074 A 
ATOM     61  C   UNL A   1      43.806  30.955  32.560  1.00  0.00     0.031 C 
ATOM     62  C   UNL A   1      42.688  33.172  33.118  1.00  0.00     0.037 A 
BRANCH  49  63
ATOM     63  C   UNL A   1      44.913  32.741  27.871  1.00  0.00     0.064 A 
ATOM     64  C   UNL A   1      46.196  32.351  28.276  1.00  0.00     0.173 A 
ATOM     65  C   UNL A   1      44.781  33.521  26.721  1.00  0.00     0.173 A 
ATOM     66  F   UNL A   1      46.352  31.616  29.390  1.00  0.00    -0.203 F 
ATOM     67  C   UNL A   1      47.321  32.760  27.572  1.00  0.00     0.198 A 
ATOM     68  C   UNL A   1      45.912  33.927  26.013  1.00  0.00     0.198 A 
ATOM     69  F   UNL A   1      43.570  33.929  26.314  1.00  0.00    -0.203 F 
ATOM     70  F   UNL A   1      48.540  32.412  28.005  1.00  0.00    -0.200 F 
ATOM     71  C   UNL A   1      47.179  33.558  26.447  1.00  0.00     0.200 A 
ATOM     72  F   UNL A   1      45.778  34.705  24.930  1.00  0.00    -0.200 F 
ATOM     73  F   UNL A   1      48.266  33.984  25.789  1.00  0.00    -0.200 F 
ENDBRANCH  49  63
BRANCH  50  74
ATOM     74  C   UNL A   1      42.396  27.287  34.640  1.00  0.00     0.064 A 
ATOM     75  C   UNL A   1      42.176  26.712  35.910  1.00  0.00     0.173 A 
ATOM     76  C   UNL A   1      43.163  26.524  33.748  1.00  0.00     0.173 A 
ATOM     77  F   UNL A   1      41.552  27.412  36.870  1.00  0.00    -0.203 F 
ATOM     78  C   UNL A   1      42.593  25.416  36.221  1.00  0.00     0.198 A 
ATOM     79  C   UNL A   1      43.554  25.216  34.045  1.00  0.00     0.198 A 
ATOM     80  F   UNL A   1      43.554  27.019  32.567  1.00  0.00    -0.203 F 
ATOM     81  F   UNL A   1      42.339  24.903  37.433  1.00  0.00    -0.200 F 
ATOM     82  C   UNL A   1      43.256  24.657  35.275  1.00  0.00     0.200 A 
ATOM     83  F   UNL A   1      44.209  24.495  33.125  1.00  0.00    -0.200 F 
ATOM     84  F   UNL A   1      43.616  23.395  35.549  1.00  0.00    -0.200 F 
ENDBRANCH  50  74
BRANCH  62  85
ATOM     85  C   UNL A   1      41.766  33.791  34.111  1.00  0.00     0.064 A 
ATOM     86  C   UNL A   1      42.280  34.473  35.222  1.00  0.00     0.173 A 
ATOM     87  C   UNL A   1      40.372  33.740  33.955  1.00  0.00     0.173 A 
ATOM     88  F   UNL A   1      43.606  34.556  35.411  1.00  0.00    -0.203 F 
ATOM     89  C   UNL A   1      41.431  35.096  36.132  1.00  0.00     0.198 A 
ATOM     90  C   UNL A   1      39.529  34.388  34.852  1.00  0.00     0.198 A 
ATOM     91  F   UNL A   1      39.821  33.085  32.921  1.00  0.00    -0.203 F 
ATOM     92  F   UNL A   1      41.942  35.749  37.185  1.00  0.00    -0.200 F 
ATOM     93  C   UNL A   1      40.058  35.066  35.938  1.00  0.00     0.200 A 
ATOM     94  F   UNL A   1      38.202  34.373  34.653  1.00  0.00    -0.200 F 
ATOM     95  F   UNL A   1      39.244  35.700  36.795  1.00  0.00    -0.200 F 
ENDBRANCH  62  85
ENDBRANCH  36  37
ENDBRANCH  29  31
ENDBRANCH  28  29
ENDBRANCH  27  28
ENDBRANCH  26  27
ENDBRANCH  25  26
ENDBRANCH  24  25
ENDBRANCH   1  24
TORSDOF 19
ENDMDL
MODEL 3
REMARK VINA RESULT:      -9.7      3.204      7.620
REMARK SMILES Cc1nn(C)c2c1NC(=O)[C@@H](CCC(=O)OCCOCCOCCOC(=O)c1ccc(-c3c4nc(c(-c5c(F)c(F)c(F)c(F)c5F)c5ccc([nH]5)c(-c5c(F)c(F)c(F)c(F)c5F)c5nc(c(-c6c(F)c(F)c(F)c(F)c6F)c6ccc3[nH]6)C=C5)C=C4)cc1)N2
REMARK SMILES IDX 20 1 19 2 18 3 17 4 16 5 14 6 15 7 13 8 12 9 11 10 1 11 2 12
REMARK SMILES IDX 3 13 7 14 4 15 6 16 8 17 5 18 91 19 9 20 10 23 21 24 22 25
REMARK SMILES IDX 23 26 24 27 25 28 26 29 27 30 28 31 29 32 90 33 30 34 89 35
REMARK SMILES IDX 31 36 32 37 33 38 83 39 34 40 88 41 82 42 84 43 35 44 87 45
REMARK SMILES IDX 81 46 80 47 36 49 68 50 48 51 67 52 49 53 52 54 66 55 85 56
REMARK SMILES IDX 50 57 51 58 65 60 86 61 53 62 37 63 38 64 46 65 39 66 40 67
REMARK SMILES IDX 44 68 47 69 41 70 42 71 45 72 43 73 69 74 70 75 78 76 71 77
REMARK SMILES IDX 72 78 76 79 79 80 73 81 74 82 77 83 75 84 54 85 55 86 63 87
REMARK SMILES IDX 56 88 57 89 61 90 64 91 58 92 59 93 62 94 60 95
REMARK H PARENT 8 21 91 22 84 48 52 59
REMARK Flexibility Score: inf
ROOT
ATOM      1  C   UNL A   1      35.645  23.678  25.534  1.00  0.00     0.188 C 
ENDROOT
BRANCH   1   2
ATOM      2  O   UNL A   1      34.781  24.137  24.499  1.00  0.00    -0.376 OA
BRANCH   2   3
ATOM      3  C   UNL A   1      33.894  25.207  24.824  1.00  0.00     0.202 C 
BRANCH   3   4
ATOM      4  C   UNL A   1      32.494  24.770  25.263  1.00  0.00     0.261 C 
BRANCH   4   5
ATOM      5  O   UNL A   1      32.281  23.405  24.844  1.00  0.00    -0.463 OA
BRANCH   5   6
ATOM      6  C   UNL A   1      31.718  22.577  25.741  1.00  0.00     0.305 C 
ATOM      7  O   UNL A   1      30.994  22.954  26.658  1.00  0.00    -0.252 OA
BRANCH   6   8
ATOM      8  C   UNL A   1      31.931  21.098  25.446  1.00  0.00     0.125 C 
BRANCH   8   9
ATOM      9  C   UNL A   1      33.293  20.379  25.546  1.00  0.00     0.047 C 
BRANCH   9  10
ATOM     10  C   UNL A   1      33.846  19.605  24.328  1.00  0.00     0.171 C 
ATOM     11  C   UNL A   1      31.715  14.971  25.485  1.00  0.00     0.071 C 
ATOM     12  C   UNL A   1      32.981  15.679  25.190  1.00  0.00     0.085 A 
ATOM     13  N   UNL A   1      34.157  15.243  25.680  1.00  0.00    -0.174 NA
ATOM     14  C   UNL A   1      33.126  16.922  24.551  1.00  0.00     0.107 A 
ATOM     15  N   UNL A   1      35.023  16.249  25.392  1.00  0.00    -0.251 N 
ATOM     16  C   UNL A   1      34.391  17.339  24.868  1.00  0.00     0.149 A 
ATOM     17  N   UNL A   1      32.266  17.729  23.844  1.00  0.00    -0.320 N 
ATOM     18  C   UNL A   1      36.425  16.072  25.672  1.00  0.00     0.176 C 
ATOM     19  N   UNL A   1      34.852  18.597  24.723  1.00  0.00    -0.357 N 
ATOM     20  C   UNL A   1      32.646  19.019  23.525  1.00  0.00     0.247 C 
ATOM     21  H   UNL A   1      31.384  17.390  23.567  1.00  0.00     0.170 HD
ATOM     22  H   UNL A   1      35.798  18.829  24.870  1.00  0.00     0.163 HD
ATOM     23  O   UNL A   1      31.964  19.709  22.766  1.00  0.00    -0.272 OA
ENDBRANCH   9  10
ENDBRANCH   8   9
ENDBRANCH   6   8
ENDBRANCH   5   6
ENDBRANCH   4   5
ENDBRANCH   3   4
ENDBRANCH   2   3
ENDBRANCH   1   2
BRANCH   1  24
ATOM     24  C   UNL A   1      36.965  23.005  25.122  1.00  0.00     0.188 C 
BRANCH  24  25
ATOM     25  O   UNL A   1      37.205  21.620  25.317  1.00  0.00    -0.376 OA
BRANCH  25  26
ATOM     26  C   UNL A   1      38.531  21.201  25.562  1.00  0.00     0.202 C 
BRANCH  26  27
ATOM     27  C   UNL A   1      39.472  22.221  26.207  1.00  0.00     0.261 C 
BRANCH  27  28
ATOM     28  O   UNL A   1      39.987  21.841  27.491  1.00  0.00    -0.460 OA
BRANCH  28  29
ATOM     29  C   UNL A   1      41.336  21.839  27.584  1.00  0.00     0.338 C 
ATOM     30  O   UNL A   1      42.087  20.872  27.528  1.00  0.00    -0.246 OA
BRANCH  29  31
ATOM     31  C   UNL A   1      41.827  23.220  27.659  1.00  0.00     0.060 A 
ATOM     32  C   UNL A   1      41.151  24.147  28.461  1.00  0.00     0.016 A 
ATOM     33  C   UNL A   1      42.897  23.618  26.860  1.00  0.00     0.016 A 
ATOM     34  C   UNL A   1      41.545  25.483  28.459  1.00  0.00     0.010 A 
ATOM     35  C   UNL A   1      43.260  24.961  26.830  1.00  0.00     0.010 A 
ATOM     36  C   UNL A   1      42.586  25.908  27.621  1.00  0.00    -0.014 A 
BRANCH  36  37
ATOM     37  C   UNL A   1      42.938  27.346  27.579  1.00  0.00     0.031 A 
ATOM     38  C   UNL A   1      41.796  28.301  27.490  1.00  0.00     0.074 A 
ATOM     39  C   UNL A   1      44.074  27.804  28.152  1.00  0.00     0.049 A 
ATOM     40  N   UNL A   1      41.076  28.602  28.531  1.00  0.00    -0.248 NA
ATOM     41  C   UNL A   1      41.242  28.782  26.228  1.00  0.00     0.031 C 
ATOM     42  C   UNL A   1      44.801  27.076  29.201  1.00  0.00     0.029 A 
ATOM     43  N   UNL A   1      44.664  29.049  28.132  1.00  0.00    -0.354 N 
ATOM     44  C   UNL A   1      39.922  29.195  28.070  1.00  0.00     0.074 A 
ATOM     45  C   UNL A   1      40.090  29.339  26.640  1.00  0.00     0.031 C 
ATOM     46  C   UNL A   1      45.608  27.941  29.846  1.00  0.00     0.029 A 
ATOM     47  C   UNL A   1      45.577  29.235  29.169  1.00  0.00     0.049 A 
ATOM     48  H   UNL A   1      44.463  29.735  27.455  1.00  0.00     0.167 HD
ATOM     49  C   UNL A   1      38.876  29.479  28.888  1.00  0.00     0.037 A 
ATOM     50  C   UNL A   1      45.813  30.411  29.812  1.00  0.00     0.037 A 
ATOM     51  C   UNL A   1      39.032  29.113  30.265  1.00  0.00     0.049 A 
ATOM     52  C   UNL A   1      44.487  30.687  30.468  1.00  0.00     0.074 A 
ATOM     53  C   UNL A   1      38.712  28.031  31.057  1.00  0.00     0.029 A 
ATOM     54  N   UNL A   1      39.731  29.956  31.095  1.00  0.00    -0.354 N 
ATOM     55  N   UNL A   1      44.060  30.160  31.586  1.00  0.00    -0.248 NA
ATOM     56  C   UNL A   1      43.455  31.353  29.674  1.00  0.00     0.031 C 
ATOM     57  C   UNL A   1      39.622  28.079  32.159  1.00  0.00     0.029 A 
ATOM     58  C   UNL A   1      40.476  29.156  31.927  1.00  0.00     0.049 A 
ATOM     59  H   UNL A   1      39.704  30.940  31.093  1.00  0.00     0.167 HD
ATOM     60  C   UNL A   1      42.666  30.215  31.510  1.00  0.00     0.074 A 
ATOM     61  C   UNL A   1      42.363  31.006  30.337  1.00  0.00     0.031 C 
ATOM     62  C   UNL A   1      41.842  29.456  32.287  1.00  0.00     0.037 A 
BRANCH  49  63
ATOM     63  C   UNL A   1      37.649  30.172  28.469  1.00  0.00     0.064 A 
ATOM     64  C   UNL A   1      37.539  31.542  28.740  1.00  0.00     0.173 A 
ATOM     65  C   UNL A   1      36.520  29.484  28.019  1.00  0.00     0.173 A 
ATOM     66  F   UNL A   1      38.605  32.222  29.191  1.00  0.00    -0.203 F 
ATOM     67  C   UNL A   1      36.324  32.200  28.601  1.00  0.00     0.198 A 
ATOM     68  C   UNL A   1      35.303  30.148  27.877  1.00  0.00     0.198 A 
ATOM     69  F   UNL A   1      36.583  28.168  27.769  1.00  0.00    -0.203 F 
ATOM     70  F   UNL A   1      36.234  33.501  28.909  1.00  0.00    -0.200 F 
ATOM     71  C   UNL A   1      35.204  31.500  28.180  1.00  0.00     0.200 A 
ATOM     72  F   UNL A   1      34.216  29.473  27.478  1.00  0.00    -0.200 F 
ATOM     73  F   UNL A   1      34.024  32.127  28.082  1.00  0.00    -0.200 F 
ENDBRANCH  49  63
BRANCH  50  74
ATOM     74  C   UNL A   1      46.593  31.427  29.037  1.00  0.00     0.064 A 
ATOM     75  C   UNL A   1      47.881  31.778  29.496  1.00  0.00     0.173 A 
ATOM     76  C   UNL A   1      46.154  32.095  27.884  1.00  0.00     0.173 A 
ATOM     77  F   UNL A   1      48.343  31.279  30.654  1.00  0.00    -0.203 F 
ATOM     78  C   UNL A   1      48.713  32.645  28.786  1.00  0.00     0.198 A 
ATOM     79  C   UNL A   1      46.996  32.939  27.155  1.00  0.00     0.198 A 
ATOM     80  F   UNL A   1      44.903  31.951  27.431  1.00  0.00    -0.203 F 
ATOM     81  F   UNL A   1      49.938  32.928  29.251  1.00  0.00    -0.200 F 
ATOM     82  C   UNL A   1      48.280  33.201  27.597  1.00  0.00     0.200 A 
ATOM     83  F   UNL A   1      46.559  33.484  26.011  1.00  0.00    -0.200 F 
ATOM     84  F   UNL A   1      49.092  33.995  26.885  1.00  0.00    -0.200 F 
ENDBRANCH  50  74
BRANCH  62  85
ATOM     85  C   UNL A   1      42.512  28.698  33.381  1.00  0.00     0.064 A 
ATOM     86  C   UNL A   1      43.088  27.447  33.123  1.00  0.00     0.173 A 
ATOM     87  C   UNL A   1      42.614  29.216  34.681  1.00  0.00     0.173 A 
ATOM     88  F   UNL A   1      43.023  26.913  31.893  1.00  0.00    -0.203 F 
ATOM     89  C   UNL A   1      43.758  26.750  34.124  1.00  0.00     0.198 A 
ATOM     90  C   UNL A   1      43.309  28.529  35.671  1.00  0.00     0.198 A 
ATOM     91  F   UNL A   1      42.065  30.400  34.994  1.00  0.00    -0.203 F 
ATOM     92  F   UNL A   1      44.309  25.558  33.856  1.00  0.00    -0.200 F 
ATOM     93  C   UNL A   1      43.881  27.298  35.393  1.00  0.00     0.200 A 
ATOM     94  F   UNL A   1      43.442  29.068  36.893  1.00  0.00    -0.200 F 
ATOM     95  F   UNL A   1      44.560  26.643  36.345  1.00  0.00    -0.200 F 
ENDBRANCH  62  85
ENDBRANCH  36  37
ENDBRANCH  29  31
ENDBRANCH  28  29
ENDBRANCH  27  28
ENDBRANCH  26  27
ENDBRANCH  25  26
ENDBRANCH  24  25
ENDBRANCH   1  24
TORSDOF 19
ENDMDL
