MODEL 1
REMARK VINA RESULT:     -14.5      0.000      0.000
REMARK SMILES Cc1ccccc1C(=O)Nc1ccc(N2CCCCC2)cc1C(=O)OCCOCCOCCOC(=O)c1ccc(-c2c3nc(c(-c4c(F)c(F)c(F)c(F)c4F)c4ccc([nH]4)c(-c4c(F)c(F)c(F)c(F)c4F)c4nc(c(-c5c(F)c(F)c(F)c(F)c5F)c5ccc2[nH]5)C=C4)C=C3)cc1
REMARK SMILES IDX 29 1 28 2 27 3 26 4 25 5 23 6 24 7 22 8 11 9 12 10 13 11
REMARK SMILES IDX 21 12 14 13 10 14 8 15 9 16 7 18 1 19 2 20 3 21 4 22 6 23
REMARK SMILES IDX 5 24 15 25 16 26 20 27 17 28 19 29 18 30 30 31 31 32 32 33
REMARK SMILES IDX 33 34 34 35 35 36 36 37 37 38 38 39 99 40 39 41 98 42 40 43
REMARK SMILES IDX 41 44 42 45 92 46 43 47 97 48 91 49 93 50 44 51 96 52 90 53
REMARK SMILES IDX 89 54 45 56 77 57 57 58 76 59 58 60 61 61 75 62 94 63 59 64
REMARK SMILES IDX 60 65 74 67 95 68 62 69 46 70 47 71 55 72 48 73 49 74 53 75
REMARK SMILES IDX 56 76 50 77 51 78 54 79 52 80 78 81 79 82 87 83 80 84 81 85
REMARK SMILES IDX 85 86 88 87 82 88 83 89 86 90 84 91 63 92 64 93 72 94 65 95
REMARK SMILES IDX 66 96 70 97 73 98 67 99 68 100 71 101 69 102
REMARK H PARENT 10 17 93 55 61 66
REMARK Flexibility Score: inf
ROOT
ATOM      1  C   UNL A   1      39.146  24.016  27.223  1.00  0.00     0.188 C 
ENDROOT
BRANCH   1   2
ATOM      2  O   UNL A   1      38.480  24.026  25.929  1.00  0.00    -0.376 OA
BRANCH   2   3
ATOM      3  C   UNL A   1      37.122  23.716  25.504  1.00  0.00     0.202 C 
BRANCH   3   4
ATOM      4  C   UNL A   1      35.578  22.862  26.073  1.00  0.00     0.261 C 
BRANCH   4   5
ATOM      5  O   UNL A   1      33.728  23.035  26.313  1.00  0.00    -0.460 OA
BRANCH   5   6
ATOM      6  C   UNL A   1      32.294  22.368  25.686  1.00  0.00     0.340 C 
ATOM      7  O   UNL A   1      31.110  22.409  26.044  1.00  0.00    -0.246 OA
BRANCH   6   8
ATOM      8  C   UNL A   1      32.208  21.766  24.378  1.00  0.00     0.085 A 
ATOM      9  C   UNL A   1      32.060  22.287  23.025  1.00  0.00     0.056 A 
ATOM     10  C   UNL A   1      31.937  21.198  22.146  1.00  0.00     0.029 A 
ATOM     11  C   UNL A   1      32.257  19.828  22.558  1.00  0.00     0.028 A 
ATOM     12  C   UNL A   1      32.291  20.438  24.779  1.00  0.00     0.043 A 
ATOM     13  C   UNL A   1      32.524  19.456  23.886  1.00  0.00     0.038 A 
BRANCH   9  14
ATOM     14  N   UNL A   1      31.940  23.806  22.496  1.00  0.00    -0.321 N 
ATOM     15  C   UNL A   1      32.642  25.229  22.829  1.00  0.00     0.255 C 
ATOM     16  O   UNL A   1      33.080  25.885  21.881  1.00  0.00    -0.269 OA
ATOM     17  H   UNL A   1      31.264  23.891  21.784  1.00  0.00     0.170 HD
BRANCH  15  18
ATOM     18  C   UNL A   1      32.684  25.901  24.354  1.00  0.00     0.043 A 
ATOM     19  C   UNL A   1      30.309  25.598  23.967  1.00  0.00     0.045 C 
ATOM     20  C   UNL A   1      31.515  26.958  24.026  1.00  0.00    -0.038 A 
ATOM     21  C   UNL A   1      31.379  28.822  24.912  1.00  0.00     0.004 A 
ATOM     22  C   UNL A   1      32.237  29.272  26.216  1.00  0.00     0.000 A 
ATOM     23  C   UNL A   1      33.634  26.369  25.822  1.00  0.00     0.014 A 
ATOM     24  C   UNL A   1      33.326  28.050  26.680  1.00  0.00     0.001 A 
ENDBRANCH  15  18
ENDBRANCH   9  14
BRANCH  13  25
ATOM     25  N   UNL A   1      33.085  18.276  24.386  1.00  0.00    -0.372 N 
ATOM     26  C   UNL A   1      32.132  17.443  25.143  1.00  0.00     0.116 C 
ATOM     27  C   UNL A   1      33.850  17.426  23.418  1.00  0.00     0.116 C 
ATOM     28  C   UNL A   1      32.920  16.407  25.945  1.00  0.00     0.021 C 
ATOM     29  C   UNL A   1      34.741  16.466  24.170  1.00  0.00     0.021 C 
ATOM     30  C   UNL A   1      33.911  15.594  25.103  1.00  0.00     0.004 C 
ENDBRANCH  13  25
ENDBRANCH   6   8
ENDBRANCH   5   6
ENDBRANCH   4   5
ENDBRANCH   3   4
ENDBRANCH   2   3
ENDBRANCH   1   2
BRANCH   1  31
ATOM     31  C   UNL A   1      40.491  23.333  27.690  1.00  0.00     0.188 C 
BRANCH  31  32
ATOM     32  O   UNL A   1      40.538  21.912  27.732  1.00  0.00    -0.376 OA
BRANCH  32  33
ATOM     33  C   UNL A   1      40.440  21.148  26.467  1.00  0.00     0.202 C 
BRANCH  33  34
ATOM     34  C   UNL A   1      41.429  19.693  26.089  1.00  0.00     0.261 C 
BRANCH  34  35
ATOM     35  O   UNL A   1      43.043  19.661  25.294  1.00  0.00    -0.460 OA
BRANCH  35  36
ATOM     36  C   UNL A   1      44.288  20.589  24.911  1.00  0.00     0.338 C 
ATOM     37  O   UNL A   1      45.238  20.028  24.366  1.00  0.00    -0.246 OA
BRANCH  36  38
ATOM     38  C   UNL A   1      44.461  22.357  25.314  1.00  0.00     0.060 A 
ATOM     39  C   UNL A   1      43.491  23.774  24.632  1.00  0.00     0.016 A 
ATOM     40  C   UNL A   1      45.751  23.009  26.762  1.00  0.00     0.016 A 
ATOM     41  C   UNL A   1      44.073  25.413  25.374  1.00  0.00     0.010 A 
ATOM     42  C   UNL A   1      46.137  24.379  27.216  1.00  0.00     0.010 A 
ATOM     43  C   UNL A   1      45.457  25.532  26.695  1.00  0.00    -0.014 A 
BRANCH  43  44
ATOM     44  C   UNL A   1      46.108  26.631  28.122  1.00  0.00     0.031 A 
ATOM     45  C   UNL A   1      47.696  26.361  28.985  1.00  0.00     0.074 A 
ATOM     46  C   UNL A   1      45.412  27.650  28.733  1.00  0.00     0.049 A 
ATOM     47  N   UNL A   1      47.720  26.020  30.249  1.00  0.00    -0.248 NA
ATOM     48  C   UNL A   1      49.087  25.947  28.425  1.00  0.00     0.031 C 
ATOM     49  C   UNL A   1      46.003  28.643  29.629  1.00  0.00     0.029 A 
ATOM     50  N   UNL A   1      44.109  28.130  28.604  1.00  0.00    -0.354 N 
ATOM     51  C   UNL A   1      48.952  25.452  30.528  1.00  0.00     0.074 A 
ATOM     52  C   UNL A   1      49.513  25.059  29.304  1.00  0.00     0.031 C 
ATOM     53  C   UNL A   1      45.062  29.511  30.045  1.00  0.00     0.029 A 
ATOM     54  C   UNL A   1      43.766  29.087  29.549  1.00  0.00     0.049 A 
ATOM     55  H   UNL A   1      43.489  27.818  27.906  1.00  0.00     0.167 HD
ATOM     56  C   UNL A   1      49.619  25.764  31.664  1.00  0.00     0.037 A 
ATOM     57  C   UNL A   1      42.624  29.023  30.299  1.00  0.00     0.037 A 
ATOM     58  C   UNL A   1      48.759  26.679  32.399  1.00  0.00     0.049 A 
ATOM     59  C   UNL A   1      42.974  28.367  31.626  1.00  0.00     0.074 A 
ATOM     60  C   UNL A   1      48.610  28.056  32.303  1.00  0.00     0.029 A 
ATOM     61  N   UNL A   1      47.522  26.193  32.812  1.00  0.00    -0.354 N 
ATOM     62  N   UNL A   1      44.185  27.973  31.927  1.00  0.00    -0.248 NA
ATOM     63  C   UNL A   1      42.042  28.144  32.725  1.00  0.00     0.031 C 
ATOM     64  C   UNL A   1      47.282  28.383  32.713  1.00  0.00     0.029 A 
ATOM     65  C   UNL A   1      46.631  27.217  33.077  1.00  0.00     0.049 A 
ATOM     66  H   UNL A   1      47.307  25.237  32.903  1.00  0.00     0.167 HD
ATOM     67  C   UNL A   1      44.219  27.434  33.174  1.00  0.00     0.074 A 
ATOM     68  C   UNL A   1      42.858  27.605  33.650  1.00  0.00     0.031 C 
ATOM     69  C   UNL A   1      45.355  26.886  33.704  1.00  0.00     0.037 A 
BRANCH  56  70
ATOM     70  C   UNL A   1      51.126  25.608  31.746  1.00  0.00     0.064 A 
ATOM     71  C   UNL A   1      51.675  24.443  32.301  1.00  0.00     0.173 A 
ATOM     72  C   UNL A   1      52.085  26.581  31.356  1.00  0.00     0.173 A 
ATOM     73  F   UNL A   1      50.891  23.418  32.659  1.00  0.00    -0.203 F 
ATOM     74  C   UNL A   1      53.050  24.289  32.510  1.00  0.00     0.198 A 
ATOM     75  C   UNL A   1      53.449  26.466  31.650  1.00  0.00     0.198 A 
ATOM     76  F   UNL A   1      51.744  27.662  30.637  1.00  0.00    -0.203 F 
ATOM     77  F   UNL A   1      53.516  23.135  33.007  1.00  0.00    -0.200 F 
ATOM     78  C   UNL A   1      53.933  25.310  32.216  1.00  0.00     0.200 A 
ATOM     79  F   UNL A   1      54.285  27.478  31.368  1.00  0.00    -0.200 F 
ATOM     80  F   UNL A   1      55.247  25.165  32.444  1.00  0.00    -0.200 F 
ENDBRANCH  56  70
BRANCH  57  81
ATOM     81  C   UNL A   1      41.361  28.862  29.497  1.00  0.00     0.064 A 
ATOM     82  C   UNL A   1      40.778  27.566  29.459  1.00  0.00     0.173 A 
ATOM     83  C   UNL A   1      40.485  29.934  29.488  1.00  0.00     0.173 A 
ATOM     84  F   UNL A   1      41.568  26.484  29.464  1.00  0.00    -0.203 F 
ATOM     85  C   UNL A   1      39.400  27.361  29.627  1.00  0.00     0.198 A 
ATOM     86  C   UNL A   1      39.208  29.674  29.977  1.00  0.00     0.198 A 
ATOM     87  F   UNL A   1      40.957  31.189  29.545  1.00  0.00    -0.203 F 
ATOM     88  F   UNL A   1      38.896  26.126  29.750  1.00  0.00    -0.200 F 
ATOM     89  C   UNL A   1      38.613  28.431  29.956  1.00  0.00     0.200 A 
ATOM     90  F   UNL A   1      38.834  30.413  31.018  1.00  0.00    -0.200 F 
ATOM     91  F   UNL A   1      37.415  28.259  30.540  1.00  0.00    -0.200 F 
ENDBRANCH  57  81
BRANCH  69  92
ATOM     92  C   UNL A   1      45.392  26.024  34.945  1.00  0.00     0.064 A 
ATOM     93  C   UNL A   1      45.640  26.520  36.230  1.00  0.00     0.173 A 
ATOM     94  C   UNL A   1      45.048  24.647  34.886  1.00  0.00     0.173 A 
ATOM     95  F   UNL A   1      45.781  27.831  36.468  1.00  0.00    -0.203 F 
ATOM     96  C   UNL A   1      45.705  25.679  37.339  1.00  0.00     0.198 A 
ATOM     97  C   UNL A   1      44.971  23.844  36.015  1.00  0.00     0.198 A 
ATOM     98  F   UNL A   1      44.764  24.021  33.735  1.00  0.00    -0.203 F 
ATOM     99  F   UNL A   1      46.094  26.177  38.520  1.00  0.00    -0.200 F 
ATOM    100  C   UNL A   1      45.357  24.346  37.235  1.00  0.00     0.200 A 
ATOM    101  F   UNL A   1      44.527  22.584  35.905  1.00  0.00    -0.200 F 
ATOM    102  F   UNL A   1      45.385  23.550  38.310  1.00  0.00    -0.200 F 
ENDBRANCH  69  92
ENDBRANCH  43  44
ENDBRANCH  36  38
ENDBRANCH  35  36
ENDBRANCH  34  35
ENDBRANCH  33  34
ENDBRANCH  32  33
ENDBRANCH  31  32
ENDBRANCH   1  31
TORSDOF 20
ENDMDL
MODEL 2
REMARK VINA RESULT:     -13.6      3.234      8.066
REMARK SMILES Cc1ccccc1C(=O)Nc1ccc(N2CCCCC2)cc1C(=O)OCCOCCOCCOC(=O)c1ccc(-c2c3nc(c(-c4c(F)c(F)c(F)c(F)c4F)c4ccc([nH]4)c(-c4c(F)c(F)c(F)c(F)c4F)c4nc(c(-c5c(F)c(F)c(F)c(F)c5F)c5ccc2[nH]5)C=C4)C=C3)cc1
REMARK SMILES IDX 29 1 28 2 27 3 26 4 25 5 23 6 24 7 22 8 11 9 12 10 13 11
REMARK SMILES IDX 21 12 14 13 10 14 8 15 9 16 7 18 1 19 2 20 3 21 4 22 6 23
REMARK SMILES IDX 5 24 15 25 16 26 20 27 17 28 19 29 18 30 30 31 31 32 32 33
REMARK SMILES IDX 33 34 34 35 35 36 36 37 37 38 38 39 99 40 39 41 98 42 40 43
REMARK SMILES IDX 41 44 42 45 92 46 43 47 97 48 91 49 93 50 44 51 96 52 90 53
REMARK SMILES IDX 89 54 45 56 77 57 57 58 76 59 58 60 61 61 75 62 94 63 59 64
REMARK SMILES IDX 60 65 74 67 95 68 62 69 46 70 47 71 55 72 48 73 49 74 53 75
REMARK SMILES IDX 56 76 50 77 51 78 54 79 52 80 78 81 79 82 87 83 80 84 81 85
REMARK SMILES IDX 85 86 88 87 82 88 83 89 86 90 84 91 63 92 64 93 72 94 65 95
REMARK SMILES IDX 66 96 70 97 73 98 67 99 68 100 71 101 69 102
REMARK H PARENT 10 17 93 55 61 66
REMARK Flexibility Score: inf
ROOT
ATOM      1  C   UNL A   1      39.590  28.483  28.084  1.00  0.00     0.188 C 
ENDROOT
BRANCH   1   2
ATOM      2  O   UNL A   1      38.790  29.696  27.999  1.00  0.00    -0.376 OA
BRANCH   2   3
ATOM      3  C   UNL A   1      37.402  29.952  27.635  1.00  0.00     0.202 C 
BRANCH   3   4
ATOM      4  C   UNL A   1      35.676  29.374  27.983  1.00  0.00     0.261 C 
BRANCH   4   5
ATOM      5  O   UNL A   1      34.101  28.699  27.224  1.00  0.00    -0.460 OA
BRANCH   5   6
ATOM      6  C   UNL A   1      32.946  29.162  26.064  1.00  0.00     0.340 C 
ATOM      7  O   UNL A   1      32.337  30.217  25.845  1.00  0.00    -0.246 OA
BRANCH   6   8
ATOM      8  C   UNL A   1      32.630  28.367  24.903  1.00  0.00     0.085 A 
ATOM      9  C   UNL A   1      33.040  27.054  24.425  1.00  0.00     0.056 A 
ATOM     10  C   UNL A   1      32.466  26.846  23.160  1.00  0.00     0.029 A 
ATOM     11  C   UNL A   1      31.391  27.700  22.646  1.00  0.00     0.028 A 
ATOM     12  C   UNL A   1      31.768  29.270  24.289  1.00  0.00     0.043 A 
ATOM     13  C   UNL A   1      30.976  28.890  23.268  1.00  0.00     0.038 A 
BRANCH   9  14
ATOM     14  N   UNL A   1      34.043  25.971  25.076  1.00  0.00    -0.321 N 
ATOM     15  C   UNL A   1      34.523  24.459  24.742  1.00  0.00     0.255 C 
ATOM     16  O   UNL A   1      35.737  24.236  24.722  1.00  0.00    -0.269 OA
ATOM     17  H   UNL A   1      34.479  26.320  25.888  1.00  0.00     0.170 HD
BRANCH  15  18
ATOM     18  C   UNL A   1      33.472  23.179  24.554  1.00  0.00     0.043 A 
ATOM     19  C   UNL A   1      33.996  23.100  26.921  1.00  0.00     0.045 C 
ATOM     20  C   UNL A   1      34.393  22.172  25.408  1.00  0.00    -0.038 A 
ATOM     21  C   UNL A   1      34.465  20.131  25.076  1.00  0.00     0.004 A 
ATOM     22  C   UNL A   1      33.400  19.323  24.154  1.00  0.00     0.000 A 
ATOM     23  C   UNL A   1      32.258  22.298  23.540  1.00  0.00     0.014 A 
ATOM     24  C   UNL A   1      32.296  20.391  23.421  1.00  0.00     0.001 A 
ENDBRANCH  15  18
ENDBRANCH   9  14
BRANCH  13  25
ATOM     25  N   UNL A   1      29.825  29.655  23.051  1.00  0.00    -0.372 N 
ATOM     26  C   UNL A   1      29.759  30.873  23.879  1.00  0.00     0.116 C 
ATOM     27  C   UNL A   1      29.489  29.985  21.629  1.00  0.00     0.116 C 
ATOM     28  C   UNL A   1      28.328  31.409  23.845  1.00  0.00     0.021 C 
ATOM     29  C   UNL A   1      28.041  30.404  21.527  1.00  0.00     0.021 C 
ATOM     30  C   UNL A   1      27.771  31.600  22.429  1.00  0.00     0.004 C 
ENDBRANCH  13  25
ENDBRANCH   6   8
ENDBRANCH   5   6
ENDBRANCH   4   5
ENDBRANCH   3   4
ENDBRANCH   2   3
ENDBRANCH   1   2
BRANCH   1  31
ATOM     31  C   UNL A   1      40.384  27.686  26.976  1.00  0.00     0.188 C 
BRANCH  31  32
ATOM     32  O   UNL A   1      40.551  26.285  27.155  1.00  0.00    -0.376 OA
BRANCH  32  33
ATOM     33  C   UNL A   1      39.432  25.487  27.709  1.00  0.00     0.202 C 
BRANCH  33  34
ATOM     34  C   UNL A   1      38.604  24.159  26.821  1.00  0.00     0.261 C 
BRANCH  34  35
ATOM     35  O   UNL A   1      39.287  22.547  26.407  1.00  0.00    -0.460 OA
BRANCH  35  36
ATOM     36  C   UNL A   1      40.605  21.652  26.550  1.00  0.00     0.338 C 
ATOM     37  O   UNL A   1      40.457  20.438  26.411  1.00  0.00    -0.246 OA
BRANCH  36  38
ATOM     38  C   UNL A   1      42.259  22.260  27.011  1.00  0.00     0.060 A 
ATOM     39  C   UNL A   1      43.837  22.073  26.068  1.00  0.00     0.016 A 
ATOM     40  C   UNL A   1      42.558  23.407  28.678  1.00  0.00     0.016 A 
ATOM     41  C   UNL A   1      45.277  22.880  26.991  1.00  0.00     0.010 A 
ATOM     42  C   UNL A   1      43.797  23.948  29.313  1.00  0.00     0.010 A 
ATOM     43  C   UNL A   1      45.068  23.802  28.659  1.00  0.00    -0.014 A 
BRANCH  43  44
ATOM     44  C   UNL A   1      45.853  25.162  29.755  1.00  0.00     0.031 A 
ATOM     45  C   UNL A   1      45.450  25.420  31.518  1.00  0.00     0.074 A 
ATOM     46  C   UNL A   1      46.697  26.158  29.318  1.00  0.00     0.049 A 
ATOM     47  N   UNL A   1      44.846  26.514  31.912  1.00  0.00    -0.248 NA
ATOM     48  C   UNL A   1      45.205  24.388  32.656  1.00  0.00     0.031 C 
ATOM     49  C   UNL A   1      47.491  27.021  30.192  1.00  0.00     0.029 A 
ATOM     50  N   UNL A   1      47.156  26.538  28.057  1.00  0.00    -0.354 N 
ATOM     51  C   UNL A   1      44.267  26.276  33.147  1.00  0.00     0.074 A 
ATOM     52  C   UNL A   1      44.163  24.885  33.295  1.00  0.00     0.031 C 
ATOM     53  C   UNL A   1      48.222  27.879  29.456  1.00  0.00     0.029 A 
ATOM     54  C   UNL A   1      47.877  27.723  28.054  1.00  0.00     0.049 A 
ATOM     55  H   UNL A   1      46.983  26.012  27.242  1.00  0.00     0.167 HD
ATOM     56  C   UNL A   1      44.347  27.194  34.139  1.00  0.00     0.037 A 
ATOM     57  C   UNL A   1      47.621  28.755  27.193  1.00  0.00     0.037 A 
ATOM     58  C   UNL A   1      45.057  28.333  33.581  1.00  0.00     0.049 A 
ATOM     59  C   UNL A   1      46.706  29.740  27.904  1.00  0.00     0.074 A 
ATOM     60  C   UNL A   1      46.419  28.583  33.462  1.00  0.00     0.029 A 
ATOM     61  N   UNL A   1      44.459  28.990  32.509  1.00  0.00    -0.354 N 
ATOM     62  N   UNL A   1      46.291  29.566  29.133  1.00  0.00    -0.248 NA
ATOM     63  C   UNL A   1      46.225  30.997  27.342  1.00  0.00     0.031 C 
ATOM     64  C   UNL A   1      46.612  29.438  32.335  1.00  0.00     0.029 A 
ATOM     65  C   UNL A   1      45.376  29.726  31.782  1.00  0.00     0.049 A 
ATOM     66  H   UNL A   1      43.500  28.936  32.295  1.00  0.00     0.167 HD
ATOM     67  C   UNL A   1      45.498  30.597  29.523  1.00  0.00     0.074 A 
ATOM     68  C   UNL A   1      45.524  31.492  28.379  1.00  0.00     0.031 C 
ATOM     69  C   UNL A   1      44.882  30.627  30.745  1.00  0.00     0.037 A 
BRANCH  56  70
ATOM     70  C   UNL A   1      44.220  26.777  35.593  1.00  0.00     0.064 A 
ATOM     71  C   UNL A   1      42.949  26.568  36.148  1.00  0.00     0.173 A 
ATOM     72  C   UNL A   1      45.294  26.623  36.511  1.00  0.00     0.173 A 
ATOM     73  F   UNL A   1      41.850  26.622  35.385  1.00  0.00    -0.203 F 
ATOM     74  C   UNL A   1      42.761  26.296  37.508  1.00  0.00     0.198 A 
ATOM     75  C   UNL A   1      45.101  26.444  37.886  1.00  0.00     0.198 A 
ATOM     76  F   UNL A   1      46.573  26.598  36.105  1.00  0.00    -0.203 F 
ATOM     77  F   UNL A   1      41.524  26.065  37.969  1.00  0.00    -0.200 F 
ATOM     78  C   UNL A   1      43.831  26.266  38.382  1.00  0.00     0.200 A 
ATOM     79  F   UNL A   1      46.155  26.434  38.717  1.00  0.00    -0.200 F 
ATOM     80  F   UNL A   1      43.639  26.031  39.688  1.00  0.00    -0.200 F 
ENDBRANCH  56  70
BRANCH  57  81
ATOM     81  C   UNL A   1      47.600  28.360  25.741  1.00  0.00     0.064 A 
ATOM     82  C   UNL A   1      48.814  27.877  25.182  1.00  0.00     0.173 A 
ATOM     83  C   UNL A   1      46.431  27.790  25.265  1.00  0.00     0.173 A 
ATOM     84  F   UNL A   1      49.982  28.386  25.596  1.00  0.00    -0.203 F 
ATOM     85  C   UNL A   1      48.859  26.739  24.361  1.00  0.00     0.198 A 
ATOM     86  C   UNL A   1      46.555  26.506  24.743  1.00  0.00     0.198 A 
ATOM     87  F   UNL A   1      45.245  28.176  25.760  1.00  0.00    -0.203 F 
ATOM     88  F   UNL A   1      50.029  26.209  23.981  1.00  0.00    -0.200 F 
ATOM     89  C   UNL A   1      47.716  26.006  24.194  1.00  0.00     0.200 A 
ATOM     90  F   UNL A   1      45.816  25.574  25.339  1.00  0.00    -0.200 F 
ATOM     91  F   UNL A   1      47.766  24.721  23.804  1.00  0.00    -0.200 F 
ENDBRANCH  57  81
BRANCH  69  92
ATOM     92  C   UNL A   1      43.775  31.584  31.123  1.00  0.00     0.064 A 
ATOM     93  C   UNL A   1      43.985  32.783  31.814  1.00  0.00     0.173 A 
ATOM     94  C   UNL A   1      42.442  31.369  30.679  1.00  0.00     0.173 A 
ATOM     95  F   UNL A   1      45.215  33.216  32.121  1.00  0.00    -0.203 F 
ATOM     96  C   UNL A   1      42.926  33.612  32.177  1.00  0.00     0.198 A 
ATOM     97  C   UNL A   1      41.418  32.273  30.918  1.00  0.00     0.198 A 
ATOM     98  F   UNL A   1      42.077  30.280  29.988  1.00  0.00    -0.203 F 
ATOM     99  F   UNL A   1      43.160  34.668  32.968  1.00  0.00    -0.200 F 
ATOM    100  C   UNL A   1      41.647  33.366  31.718  1.00  0.00     0.200 A 
ATOM    101  F   UNL A   1      40.211  32.069  30.371  1.00  0.00    -0.200 F 
ATOM    102  F   UNL A   1      40.640  34.187  32.039  1.00  0.00    -0.200 F 
ENDBRANCH  69  92
ENDBRANCH  43  44
ENDBRANCH  36  38
ENDBRANCH  35  36
ENDBRANCH  34  35
ENDBRANCH  33  34
ENDBRANCH  32  33
ENDBRANCH  31  32
ENDBRANCH   1  31
TORSDOF 20
ENDMDL
MODEL 3
REMARK VINA RESULT:     -13.4      4.146     10.169
REMARK SMILES Cc1ccccc1C(=O)Nc1ccc(N2CCCCC2)cc1C(=O)OCCOCCOCCOC(=O)c1ccc(-c2c3nc(c(-c4c(F)c(F)c(F)c(F)c4F)c4ccc([nH]4)c(-c4c(F)c(F)c(F)c(F)c4F)c4nc(c(-c5c(F)c(F)c(F)c(F)c5F)c5ccc2[nH]5)C=C4)C=C3)cc1
REMARK SMILES IDX 29 1 28 2 27 3 26 4 25 5 23 6 24 7 22 8 11 9 12 10 13 11
REMARK SMILES IDX 21 12 14 13 10 14 8 15 9 16 7 18 1 19 2 20 3 21 4 22 6 23
REMARK SMILES IDX 5 24 15 25 16 26 20 27 17 28 19 29 18 30 30 31 31 32 32 33
REMARK SMILES IDX 33 34 34 35 35 36 36 37 37 38 38 39 99 40 39 41 98 42 40 43
REMARK SMILES IDX 41 44 42 45 92 46 43 47 97 48 91 49 93 50 44 51 96 52 90 53
REMARK SMILES IDX 89 54 45 56 77 57 57 58 76 59 58 60 61 61 75 62 94 63 59 64
REMARK SMILES IDX 60 65 74 67 95 68 62 69 46 70 47 71 55 72 48 73 49 74 53 75
REMARK SMILES IDX 56 76 50 77 51 78 54 79 52 80 78 81 79 82 87 83 80 84 81 85
REMARK SMILES IDX 85 86 88 87 82 88 83 89 86 90 84 91 63 92 64 93 72 94 65 95
REMARK SMILES IDX 66 96 70 97 73 98 67 99 68 100 71 101 69 102
REMARK H PARENT 10 17 93 55 61 66
REMARK Flexibility Score: inf
ROOT
ATOM      1  C   UNL A   1      42.704  21.770  25.979  1.00  0.00     0.188 C 
ENDROOT
BRANCH   1   2
ATOM      2  O   UNL A   1      41.647  21.798  26.980  1.00  0.00    -0.376 OA
BRANCH   2   3
ATOM      3  C   UNL A   1      40.353  22.465  27.046  1.00  0.00     0.202 C 
BRANCH   3   4
ATOM      4  C   UNL A   1      38.684  22.485  26.241  1.00  0.00     0.261 C 
BRANCH   4   5
ATOM      5  O   UNL A   1      37.426  23.544  25.343  1.00  0.00    -0.460 OA
BRANCH   5   6
ATOM      6  C   UNL A   1      35.945  23.350  24.529  1.00  0.00     0.340 C 
ATOM      7  O   UNL A   1      35.644  23.189  23.339  1.00  0.00    -0.246 OA
BRANCH   6   8
ATOM      8  C   UNL A   1      34.697  23.100  25.207  1.00  0.00     0.085 A 
ATOM      9  C   UNL A   1      33.669  23.949  25.794  1.00  0.00     0.056 A 
ATOM     10  C   UNL A   1      32.714  23.123  26.409  1.00  0.00     0.029 A 
ATOM     11  C   UNL A   1      32.660  21.679  26.158  1.00  0.00     0.028 A 
ATOM     12  C   UNL A   1      34.740  21.710  25.169  1.00  0.00     0.043 A 
ATOM     13  C   UNL A   1      33.648  20.974  25.451  1.00  0.00     0.038 A 
BRANCH   9  14
ATOM     14  N   UNL A   1      33.568  25.556  25.887  1.00  0.00    -0.321 N 
ATOM     15  C   UNL A   1      32.383  26.663  25.922  1.00  0.00     0.255 C 
ATOM     16  O   UNL A   1      32.423  27.513  26.816  1.00  0.00    -0.269 OA
ATOM     17  H   UNL A   1      34.458  25.975  25.936  1.00  0.00     0.170 HD
BRANCH  15  18
ATOM     18  C   UNL A   1      31.203  26.786  24.752  1.00  0.00     0.043 A 
ATOM     19  C   UNL A   1      33.165  27.667  23.630  1.00  0.00     0.045 C 
ATOM     20  C   UNL A   1      31.618  28.290  24.355  1.00  0.00    -0.038 A 
ATOM     21  C   UNL A   1      30.277  29.691  23.635  1.00  0.00     0.004 A 
ATOM     22  C   UNL A   1      28.778  29.334  23.120  1.00  0.00     0.000 A 
ATOM     23  C   UNL A   1      29.546  26.357  24.162  1.00  0.00     0.014 A 
ATOM     24  C   UNL A   1      28.432  27.684  23.354  1.00  0.00     0.001 A 
ENDBRANCH  15  18
ENDBRANCH   9  14
BRANCH  13  25
ATOM     25  N   UNL A   1      33.611  19.681  24.919  1.00  0.00    -0.372 N 
ATOM     26  C   UNL A   1      32.718  19.545  23.754  1.00  0.00     0.116 C 
ATOM     27  C   UNL A   1      34.929  19.028  24.631  1.00  0.00     0.116 C 
ATOM     28  C   UNL A   1      32.463  18.058  23.504  1.00  0.00     0.021 C 
ATOM     29  C   UNL A   1      34.745  17.535  24.499  1.00  0.00     0.021 C 
ATOM     30  C   UNL A   1      33.743  17.220  23.396  1.00  0.00     0.004 C 
ENDBRANCH  13  25
ENDBRANCH   6   8
ENDBRANCH   5   6
ENDBRANCH   4   5
ENDBRANCH   3   4
ENDBRANCH   2   3
ENDBRANCH   1   2
BRANCH   1  31
ATOM     31  C   UNL A   1      43.618  20.588  25.471  1.00  0.00     0.188 C 
BRANCH  31  32
ATOM     32  O   UNL A   1      45.022  20.806  25.420  1.00  0.00    -0.376 OA
BRANCH  32  33
ATOM     33  C   UNL A   1      45.566  21.797  24.463  1.00  0.00     0.202 C 
BRANCH  33  34
ATOM     34  C   UNL A   1      45.798  23.541  24.840  1.00  0.00     0.261 C 
BRANCH  34  35
ATOM     35  O   UNL A   1      44.536  24.823  24.840  1.00  0.00    -0.460 OA
BRANCH  35  36
ATOM     36  C   UNL A   1      43.180  25.270  25.562  1.00  0.00     0.338 C 
ATOM     37  O   UNL A   1      42.168  25.279  24.862  1.00  0.00    -0.246 OA
BRANCH  36  38
ATOM     38  C   UNL A   1      43.035  25.871  27.275  1.00  0.00     0.060 A 
ATOM     39  C   UNL A   1      43.700  25.084  28.810  1.00  0.00     0.016 A 
ATOM     40  C   UNL A   1      42.171  27.671  27.716  1.00  0.00     0.016 A 
ATOM     41  C   UNL A   1      43.264  26.109  30.339  1.00  0.00     0.010 A 
ATOM     42  C   UNL A   1      41.856  28.341  29.014  1.00  0.00     0.010 A 
ATOM     43  C   UNL A   1      42.302  27.765  30.252  1.00  0.00    -0.014 A 
BRANCH  43  44
ATOM     44  C   UNL A   1      42.021  29.413  31.186  1.00  0.00     0.031 A 
ATOM     45  C   UNL A   1      40.501  30.420  31.059  1.00  0.00     0.074 A 
ATOM     46  C   UNL A   1      42.959  30.077  31.943  1.00  0.00     0.049 A 
ATOM     47  N   UNL A   1      40.532  31.610  30.514  1.00  0.00    -0.248 NA
ATOM     48  C   UNL A   1      39.009  29.985  31.002  1.00  0.00     0.031 C 
ATOM     49  C   UNL A   1      42.664  31.181  32.856  1.00  0.00     0.029 A 
ATOM     50  N   UNL A   1      44.313  29.858  32.198  1.00  0.00    -0.354 N 
ATOM     51  C   UNL A   1      39.245  31.954  30.136  1.00  0.00     0.074 A 
ATOM     52  C   UNL A   1      38.502  30.767  30.067  1.00  0.00     0.031 C 
ATOM     53  C   UNL A   1      43.793  31.600  33.457  1.00  0.00     0.029 A 
ATOM     54  C   UNL A   1      44.927  30.884  32.900  1.00  0.00     0.049 A 
ATOM     55  H   UNL A   1      44.789  29.047  31.905  1.00  0.00     0.167 HD
ATOM     56  C   UNL A   1      38.766  33.200  30.361  1.00  0.00     0.037 A 
ATOM     57  C   UNL A   1      46.100  31.465  32.505  1.00  0.00     0.037 A 
ATOM     58  C   UNL A   1      39.855  33.950  30.967  1.00  0.00     0.049 A 
ATOM     59  C   UNL A   1      45.757  32.711  31.703  1.00  0.00     0.074 A 
ATOM     60  C   UNL A   1      40.263  34.045  32.291  1.00  0.00     0.029 A 
ATOM     61  N   UNL A   1      41.006  34.123  30.205  1.00  0.00    -0.354 N 
ATOM     62  N   UNL A   1      44.527  33.101  31.486  1.00  0.00    -0.248 NA
ATOM     63  C   UNL A   1      46.729  33.636  31.130  1.00  0.00     0.031 C 
ATOM     64  C   UNL A   1      41.662  34.327  32.300  1.00  0.00     0.029 A 
ATOM     65  C   UNL A   1      42.102  34.425  30.991  1.00  0.00     0.049 A 
ATOM     66  H   UNL A   1      41.036  34.041  29.224  1.00  0.00     0.167 HD
ATOM     67  C   UNL A   1      44.508  34.245  30.754  1.00  0.00     0.074 A 
ATOM     68  C   UNL A   1      45.916  34.566  30.595  1.00  0.00     0.031 C 
ATOM     69  C   UNL A   1      43.343  34.827  30.335  1.00  0.00     0.037 A 
BRANCH  56  70
ATOM     70  C   UNL A   1      37.272  33.449  30.465  1.00  0.00     0.064 A 
ATOM     71  C   UNL A   1      36.515  33.629  29.298  1.00  0.00     0.173 A 
ATOM     72  C   UNL A   1      36.533  33.582  31.672  1.00  0.00     0.173 A 
ATOM     73  F   UNL A   1      37.070  33.474  28.090  1.00  0.00    -0.203 F 
ATOM     74  C   UNL A   1      35.159  33.974  29.331  1.00  0.00     0.198 A 
ATOM     75  C   UNL A   1      35.204  34.019  31.705  1.00  0.00     0.198 A 
ATOM     76  F   UNL A   1      37.058  33.253  32.862  1.00  0.00    -0.203 F 
ATOM     77  F   UNL A   1      34.480  34.092  28.182  1.00  0.00    -0.200 F 
ATOM     78  C   UNL A   1      34.512  34.202  30.531  1.00  0.00     0.200 A 
ATOM     79  F   UNL A   1      34.600  34.247  32.883  1.00  0.00    -0.200 F 
ATOM     80  F   UNL A   1      33.219  34.559  30.553  1.00  0.00    -0.200 F 
ENDBRANCH  56  70
BRANCH  57  81
ATOM     81  C   UNL A   1      47.224  30.493  32.262  1.00  0.00     0.064 A 
ATOM     82  C   UNL A   1      47.523  30.173  30.910  1.00  0.00     0.173 A 
ATOM     83  C   UNL A   1      48.297  30.546  33.136  1.00  0.00     0.173 A 
ATOM     84  F   UNL A   1      46.532  30.104  30.011  1.00  0.00    -0.203 F 
ATOM     85  C   UNL A   1      48.839  30.129  30.425  1.00  0.00     0.198 A 
ATOM     86  C   UNL A   1      49.533  30.822  32.558  1.00  0.00     0.198 A 
ATOM     87  F   UNL A   1      48.099  30.865  34.424  1.00  0.00    -0.203 F 
ATOM     88  F   UNL A   1      49.088  29.986  29.117  1.00  0.00    -0.200 F 
ATOM     89  C   UNL A   1      49.856  30.525  31.252  1.00  0.00     0.200 A 
ATOM     90  F   UNL A   1      50.145  31.912  33.011  1.00  0.00    -0.200 F 
ATOM     91  F   UNL A   1      51.041  30.916  30.755  1.00  0.00    -0.200 F 
ENDBRANCH  57  81
BRANCH  69  92
ATOM     92  C   UNL A   1      43.257  35.918  29.292  1.00  0.00     0.064 A 
ATOM     93  C   UNL A   1      43.399  37.281  29.577  1.00  0.00     0.173 A 
ATOM     94  C   UNL A   1      43.143  35.600  27.912  1.00  0.00     0.173 A 
ATOM     95  F   UNL A   1      43.713  37.717  30.804  1.00  0.00    -0.203 F 
ATOM     96  C   UNL A   1      43.271  38.253  28.588  1.00  0.00     0.198 A 
ATOM     97  C   UNL A   1      43.162  36.565  26.916  1.00  0.00     0.198 A 
ATOM     98  F   UNL A   1      43.017  34.341  27.468  1.00  0.00    -0.203 F 
ATOM     99  F   UNL A   1      43.264  39.547  28.934  1.00  0.00    -0.200 F 
ATOM    100  C   UNL A   1      43.166  37.896  27.257  1.00  0.00     0.200 A 
ATOM    101  F   UNL A   1      43.170  36.191  25.628  1.00  0.00    -0.200 F 
ATOM    102  F   UNL A   1      43.080  38.834  26.306  1.00  0.00    -0.200 F 
ENDBRANCH  69  92
ENDBRANCH  43  44
ENDBRANCH  36  38
ENDBRANCH  35  36
ENDBRANCH  34  35
ENDBRANCH  33  34
ENDBRANCH  32  33
ENDBRANCH  31  32
ENDBRANCH   1  31
TORSDOF 20
ENDMDL
