MODEL 1
REMARK VINA RESULT:      -9.7      0.000      0.000
REMARK SMILES COCCCNC(=O)/C(C#N)=C/c1ccc(C(=O)OCCOCCOCCOC(=O)c2ccc(-c3c4nc(c(-c5c(F)c(F)c(F)c(F)c5F)c5ccc([nH]5)c(-c5c(F)c(F)c(F)c(F)c5F)c5nc(c(-c6c(F)c(F)c(F)c(F)c6F)c6ccc3[nH]6)C=C5)C=C4)cc2)cc1
REMARK SMILES IDX 21 1 20 2 19 3 17 4 18 5 16 6 13 7 14 8 95 9 15 10 94 11
REMARK SMILES IDX 12 12 9 13 7 14 6 15 8 17 5 18 4 19 3 20 2 21 1 22 10 23
REMARK SMILES IDX 11 24 22 25 23 26 24 27 25 28 26 29 27 30 28 31 29 32 30 33
REMARK SMILES IDX 31 34 32 35 93 36 33 37 92 38 34 39 35 40 36 41 86 42 37 43
REMARK SMILES IDX 91 44 85 45 87 46 38 47 90 48 84 49 83 50 39 52 71 53 51 54
REMARK SMILES IDX 70 55 52 56 55 57 69 58 88 59 53 60 54 61 68 63 89 64 56 65
REMARK SMILES IDX 40 66 41 67 49 68 42 69 43 70 47 71 50 72 44 73 45 74 48 75
REMARK SMILES IDX 46 76 72 77 73 78 81 79 74 80 75 81 79 82 82 83 76 84 77 85
REMARK SMILES IDX 80 86 78 87 57 88 58 89 66 90 59 91 60 92 64 93 67 94 61 95
REMARK SMILES IDX 62 96 65 97 63 98
REMARK H PARENT 6 16 87 51 55 62
REMARK Flexibility Score: inf
ROOT
ATOM      1  C   UNL A   1      33.705  17.392  23.000  1.00  0.00     0.202 C 
ENDROOT
BRANCH   1   2
ATOM      2  C   UNL A   1      32.409  18.166  23.317  1.00  0.00     0.261 C 
BRANCH   2   3
ATOM      3  O   UNL A   1      32.452  19.587  23.179  1.00  0.00    -0.460 OA
BRANCH   3   4
ATOM      4  C   UNL A   1      32.241  20.295  24.316  1.00  0.00     0.338 C 
ATOM      5  O   UNL A   1      32.038  19.846  25.431  1.00  0.00    -0.246 OA
BRANCH   4   6
ATOM      6  C   UNL A   1      32.529  21.725  24.058  1.00  0.00     0.060 A 
ATOM      7  C   UNL A   1      32.914  24.423  23.481  1.00  0.00    -0.024 A 
ATOM      8  C   UNL A   1      31.770  24.024  24.178  1.00  0.00     0.009 A 
ATOM      9  C   UNL A   1      33.944  23.499  23.240  1.00  0.00     0.009 A 
ATOM     10  C   UNL A   1      31.580  22.674  24.467  1.00  0.00     0.016 A 
ATOM     11  C   UNL A   1      33.733  22.144  23.483  1.00  0.00     0.016 A 
BRANCH   7  12
ATOM     12  C   UNL A   1      32.880  25.687  22.726  1.00  0.00     0.033 C 
ATOM     13  C   UNL A   1      33.301  26.833  23.317  1.00  0.00     0.117 C 
BRANCH  13  14
ATOM     14  C   UNL A   1      33.354  28.078  22.489  1.00  0.00     0.261 C 
ATOM     15  N   UNL A   1      32.428  29.080  22.583  1.00  0.00    -0.351 N 
ATOM     16  H   UNL A   1      32.649  29.878  22.051  1.00  0.00     0.163 HD
ATOM     17  O   UNL A   1      34.267  28.245  21.675  1.00  0.00    -0.268 OA
BRANCH  15  18
ATOM     18  C   UNL A   1      31.174  29.193  23.320  1.00  0.00     0.118 C 
BRANCH  18  19
ATOM     19  C   UNL A   1      29.935  28.768  22.546  1.00  0.00     0.050 C 
BRANCH  19  20
ATOM     20  C   UNL A   1      28.885  29.837  22.292  1.00  0.00     0.161 C 
BRANCH  20  21
ATOM     21  O   UNL A   1      29.000  30.449  21.012  1.00  0.00    -0.385 OA
ATOM     22  C   UNL A   1      27.951  31.345  20.681  1.00  0.00     0.194 C 
ENDBRANCH  20  21
ENDBRANCH  19  20
ENDBRANCH  18  19
ENDBRANCH  15  18
ENDBRANCH  13  14
BRANCH  13  23
ATOM     23  C   UNL A   1      33.700  26.817  24.683  1.00  0.00     0.105 C 
ATOM     24  N   UNL A   1      33.973  26.783  25.816  1.00  0.00    -0.192 NA
ENDBRANCH  13  23
ENDBRANCH   7  12
ENDBRANCH   4   6
ENDBRANCH   3   4
ENDBRANCH   2   3
ENDBRANCH   1   2
BRANCH   1  25
ATOM     25  O   UNL A   1      34.798  17.216  23.888  1.00  0.00    -0.376 OA
BRANCH  25  26
ATOM     26  C   UNL A   1      35.082  18.166  24.891  1.00  0.00     0.188 C 
BRANCH  26  27
ATOM     27  C   UNL A   1      36.345  19.038  24.757  1.00  0.00     0.188 C 
BRANCH  27  28
ATOM     28  O   UNL A   1      36.271  20.378  25.174  1.00  0.00    -0.376 OA
BRANCH  28  29
ATOM     29  C   UNL A   1      37.025  21.363  24.490  1.00  0.00     0.202 C 
BRANCH  29  30
ATOM     30  C   UNL A   1      37.685  22.609  25.129  1.00  0.00     0.261 C 
BRANCH  30  31
ATOM     31  O   UNL A   1      38.316  22.484  26.408  1.00  0.00    -0.460 OA
BRANCH  31  32
ATOM     32  C   UNL A   1      39.625  22.839  26.464  1.00  0.00     0.338 C 
ATOM     33  O   UNL A   1      40.578  22.221  26.024  1.00  0.00    -0.246 OA
BRANCH  32  34
ATOM     34  C   UNL A   1      39.729  24.217  26.986  1.00  0.00     0.060 A 
ATOM     35  C   UNL A   1      40.318  25.213  26.189  1.00  0.00     0.016 A 
ATOM     36  C   UNL A   1      39.292  24.513  28.275  1.00  0.00     0.016 A 
ATOM     37  C   UNL A   1      40.486  26.505  26.687  1.00  0.00     0.010 A 
ATOM     38  C   UNL A   1      39.488  25.800  28.783  1.00  0.00     0.010 A 
ATOM     39  C   UNL A   1      40.112  26.794  28.005  1.00  0.00    -0.014 A 
BRANCH  39  40
ATOM     40  C   UNL A   1      40.530  28.070  28.636  1.00  0.00     0.031 A 
ATOM     41  C   UNL A   1      41.968  28.227  29.051  1.00  0.00     0.074 A 
ATOM     42  C   UNL A   1      39.657  29.070  28.844  1.00  0.00     0.049 A 
ATOM     43  N   UNL A   1      42.545  29.198  29.711  1.00  0.00    -0.248 NA
ATOM     44  C   UNL A   1      42.875  27.132  28.675  1.00  0.00     0.031 C 
ATOM     45  C   UNL A   1      38.252  29.061  28.446  1.00  0.00     0.029 A 
ATOM     46  N   UNL A   1      39.826  30.285  29.463  1.00  0.00    -0.354 N 
ATOM     47  C   UNL A   1      43.875  28.822  29.846  1.00  0.00     0.074 A 
ATOM     48  C   UNL A   1      44.013  27.521  29.228  1.00  0.00     0.031 C 
ATOM     49  C   UNL A   1      37.679  30.209  28.847  1.00  0.00     0.029 A 
ATOM     50  C   UNL A   1      38.665  31.011  29.569  1.00  0.00     0.049 A 
ATOM     51  H   UNL A   1      40.695  30.602  29.799  1.00  0.00     0.167 HD
ATOM     52  C   UNL A   1      44.891  29.504  30.428  1.00  0.00     0.037 A 
ATOM     53  C   UNL A   1      38.423  32.174  30.208  1.00  0.00     0.037 A 
ATOM     54  C   UNL A   1      44.746  30.796  31.047  1.00  0.00     0.049 A 
ATOM     55  C   UNL A   1      39.552  32.873  30.926  1.00  0.00     0.074 A 
ATOM     56  C   UNL A   1      45.716  31.578  31.648  1.00  0.00     0.029 A 
ATOM     57  N   UNL A   1      43.548  31.489  31.160  1.00  0.00    -0.354 N 
ATOM     58  N   UNL A   1      40.812  32.528  31.030  1.00  0.00    -0.248 NA
ATOM     59  C   UNL A   1      39.221  34.130  31.615  1.00  0.00     0.031 C 
ATOM     60  C   UNL A   1      45.094  32.707  32.190  1.00  0.00     0.029 A 
ATOM     61  C   UNL A   1      43.751  32.673  31.853  1.00  0.00     0.049 A 
ATOM     62  H   UNL A   1      42.683  31.185  30.803  1.00  0.00     0.167 HD
ATOM     63  C   UNL A   1      41.430  33.538  31.759  1.00  0.00     0.074 A 
ATOM     64  C   UNL A   1      40.408  34.517  32.061  1.00  0.00     0.031 C 
ATOM     65  C   UNL A   1      42.728  33.647  32.140  1.00  0.00     0.037 A 
BRANCH  52  66
ATOM     66  C   UNL A   1      46.243  28.846  30.458  1.00  0.00     0.064 A 
ATOM     67  C   UNL A   1      46.652  28.037  31.529  1.00  0.00     0.173 A 
ATOM     68  C   UNL A   1      47.132  29.007  29.384  1.00  0.00     0.173 A 
ATOM     69  F   UNL A   1      45.847  27.858  32.587  1.00  0.00    -0.203 F 
ATOM     70  C   UNL A   1      47.913  27.446  31.540  1.00  0.00     0.198 A 
ATOM     71  C   UNL A   1      48.375  28.383  29.381  1.00  0.00     0.198 A 
ATOM     72  F   UNL A   1      46.791  29.765  28.331  1.00  0.00    -0.203 F 
ATOM     73  F   UNL A   1      48.305  26.727  32.602  1.00  0.00    -0.200 F 
ATOM     74  C   UNL A   1      48.770  27.612  30.463  1.00  0.00     0.200 A 
ATOM     75  F   UNL A   1      49.193  28.529  28.329  1.00  0.00    -0.200 F 
ATOM     76  F   UNL A   1      49.980  27.036  30.471  1.00  0.00    -0.200 F 
ENDBRANCH  52  66
BRANCH  53  77
ATOM     77  C   UNL A   1      37.051  32.750  30.215  1.00  0.00     0.064 A 
ATOM     78  C   UNL A   1      36.619  33.606  29.191  1.00  0.00     0.173 A 
ATOM     79  C   UNL A   1      36.151  32.479  31.257  1.00  0.00     0.173 A 
ATOM     80  F   UNL A   1      37.450  33.918  28.186  1.00  0.00    -0.203 F 
ATOM     81  C   UNL A   1      35.353  34.187  29.223  1.00  0.00     0.198 A 
ATOM     82  C   UNL A   1      34.872  33.031  31.269  1.00  0.00     0.198 A 
ATOM     83  F   UNL A   1      36.513  31.670  32.264  1.00  0.00    -0.203 F 
ATOM     84  F   UNL A   1      34.990  35.048  28.263  1.00  0.00    -0.200 F 
ATOM     85  C   UNL A   1      34.478  33.894  30.258  1.00  0.00     0.200 A 
ATOM     86  F   UNL A   1      34.025  32.734  32.264  1.00  0.00    -0.200 F 
ATOM     87  F   UNL A   1      33.260  34.451  30.287  1.00  0.00    -0.200 F 
ENDBRANCH  53  77
BRANCH  65  88
ATOM     88  C   UNL A   1      43.137  34.894  32.878  1.00  0.00     0.064 A 
ATOM     89  C   UNL A   1      43.194  34.948  34.279  1.00  0.00     0.173 A 
ATOM     90  C   UNL A   1      43.521  36.041  32.164  1.00  0.00     0.173 A 
ATOM     91  F   UNL A   1      42.828  33.885  35.012  1.00  0.00    -0.203 F 
ATOM     92  C   UNL A   1      43.585  36.112  34.936  1.00  0.00     0.198 A 
ATOM     93  C   UNL A   1      43.952  37.189  32.824  1.00  0.00     0.198 A 
ATOM     94  F   UNL A   1      43.498  36.045  30.824  1.00  0.00    -0.203 F 
ATOM     95  F   UNL A   1      43.574  36.158  36.276  1.00  0.00    -0.200 F 
ATOM     96  C   UNL A   1      43.973  37.228  34.209  1.00  0.00     0.200 A 
ATOM     97  F   UNL A   1      44.347  38.258  32.119  1.00  0.00    -0.200 F 
ATOM     98  F   UNL A   1      44.361  38.343  34.844  1.00  0.00    -0.200 F 
ENDBRANCH  65  88
ENDBRANCH  39  40
ENDBRANCH  32  34
ENDBRANCH  31  32
ENDBRANCH  30  31
ENDBRANCH  29  30
ENDBRANCH  28  29
ENDBRANCH  27  28
ENDBRANCH  26  27
ENDBRANCH  25  26
ENDBRANCH   1  25
TORSDOF 24
ENDMDL
MODEL 2
REMARK VINA RESULT:      -9.6      4.108      9.978
REMARK SMILES COCCCNC(=O)/C(C#N)=C/c1ccc(C(=O)OCCOCCOCCOC(=O)c2ccc(-c3c4nc(c(-c5c(F)c(F)c(F)c(F)c5F)c5ccc([nH]5)c(-c5c(F)c(F)c(F)c(F)c5F)c5nc(c(-c6c(F)c(F)c(F)c(F)c6F)c6ccc3[nH]6)C=C5)C=C4)cc2)cc1
REMARK SMILES IDX 21 1 20 2 19 3 17 4 18 5 16 6 13 7 14 8 95 9 15 10 94 11
REMARK SMILES IDX 12 12 9 13 7 14 6 15 8 17 5 18 4 19 3 20 2 21 1 22 10 23
REMARK SMILES IDX 11 24 22 25 23 26 24 27 25 28 26 29 27 30 28 31 29 32 30 33
REMARK SMILES IDX 31 34 32 35 93 36 33 37 92 38 34 39 35 40 36 41 86 42 37 43
REMARK SMILES IDX 91 44 85 45 87 46 38 47 90 48 84 49 83 50 39 52 71 53 51 54
REMARK SMILES IDX 70 55 52 56 55 57 69 58 88 59 53 60 54 61 68 63 89 64 56 65
REMARK SMILES IDX 40 66 41 67 49 68 42 69 43 70 47 71 50 72 44 73 45 74 48 75
REMARK SMILES IDX 46 76 72 77 73 78 81 79 74 80 75 81 79 82 82 83 76 84 77 85
REMARK SMILES IDX 80 86 78 87 57 88 58 89 66 90 59 91 60 92 64 93 67 94 61 95
REMARK SMILES IDX 62 96 65 97 63 98
REMARK H PARENT 6 16 87 51 55 62
REMARK Flexibility Score: inf
ROOT
ATOM      1  C   UNL A   1      33.537  31.435  27.617  1.00  0.00     0.202 C 
ENDROOT
BRANCH   1   2
ATOM      2  C   UNL A   1      33.288  30.009  27.084  1.00  0.00     0.261 C 
BRANCH   2   3
ATOM      3  O   UNL A   1      33.161  29.860  25.669  1.00  0.00    -0.460 OA
BRANCH   3   4
ATOM      4  C   UNL A   1      32.122  29.099  25.249  1.00  0.00     0.338 C 
ATOM      5  O   UNL A   1      31.032  29.492  24.868  1.00  0.00    -0.246 OA
BRANCH   4   6
ATOM      6  C   UNL A   1      32.579  27.699  25.086  1.00  0.00     0.060 A 
ATOM      7  C   UNL A   1      33.457  25.059  24.960  1.00  0.00    -0.024 A 
ATOM      8  C   UNL A   1      32.318  25.371  25.708  1.00  0.00     0.009 A 
ATOM      9  C   UNL A   1      34.041  26.033  24.134  1.00  0.00     0.009 A 
ATOM     10  C   UNL A   1      31.879  26.693  25.768  1.00  0.00     0.016 A 
ATOM     11  C   UNL A   1      33.634  27.361  24.232  1.00  0.00     0.016 A 
BRANCH   7  12
ATOM     12  C   UNL A   1      34.218  23.844  25.301  1.00  0.00     0.033 C 
ATOM     13  C   UNL A   1      34.365  22.864  24.374  1.00  0.00     0.117 C 
BRANCH  13  14
ATOM     14  C   UNL A   1      35.232  21.692  24.715  1.00  0.00     0.261 C 
ATOM     15  N   UNL A   1      34.759  20.563  25.323  1.00  0.00    -0.351 N 
ATOM     16  H   UNL A   1      35.423  19.840  25.392  1.00  0.00     0.163 HD
ATOM     17  O   UNL A   1      36.436  21.712  24.445  1.00  0.00    -0.268 OA
BRANCH  15  18
ATOM     18  C   UNL A   1      33.459  20.223  25.890  1.00  0.00     0.118 C 
BRANCH  18  19
ATOM     19  C   UNL A   1      32.528  19.469  24.952  1.00  0.00     0.050 C 
BRANCH  19  20
ATOM     20  C   UNL A   1      33.179  18.538  23.943  1.00  0.00     0.161 C 
BRANCH  20  21
ATOM     21  O   UNL A   1      32.933  17.160  24.203  1.00  0.00    -0.385 OA
ATOM     22  C   UNL A   1      34.005  16.289  23.879  1.00  0.00     0.194 C 
ENDBRANCH  20  21
ENDBRANCH  19  20
ENDBRANCH  18  19
ENDBRANCH  15  18
ENDBRANCH  13  14
BRANCH  13  23
ATOM     23  C   UNL A   1      33.721  22.984  23.112  1.00  0.00     0.105 C 
ATOM     24  N   UNL A   1      33.243  23.065  22.051  1.00  0.00    -0.192 NA
ENDBRANCH  13  23
ENDBRANCH   7  12
ENDBRANCH   4   6
ENDBRANCH   3   4
ENDBRANCH   2   3
ENDBRANCH   1   2
BRANCH   1  25
ATOM     25  O   UNL A   1      34.804  32.065  27.725  1.00  0.00    -0.376 OA
BRANCH  25  26
ATOM     26  C   UNL A   1      34.911  33.444  28.001  1.00  0.00     0.188 C 
BRANCH  26  27
ATOM     27  C   UNL A   1      33.650  34.220  28.427  1.00  0.00     0.188 C 
BRANCH  27  28
ATOM     28  O   UNL A   1      33.808  35.311  29.299  1.00  0.00    -0.376 OA
BRANCH  28  29
ATOM     29  C   UNL A   1      33.415  35.182  30.654  1.00  0.00     0.202 C 
BRANCH  29  30
ATOM     30  C   UNL A   1      34.247  34.525  31.783  1.00  0.00     0.261 C 
BRANCH  30  31
ATOM     31  O   UNL A   1      35.553  34.021  31.482  1.00  0.00    -0.460 OA
BRANCH  31  32
ATOM     32  C   UNL A   1      35.756  32.703  31.734  1.00  0.00     0.338 C 
ATOM     33  O   UNL A   1      34.935  31.888  32.114  1.00  0.00    -0.246 OA
BRANCH  32  34
ATOM     34  C   UNL A   1      37.116  32.331  31.292  1.00  0.00     0.060 A 
ATOM     35  C   UNL A   1      37.536  32.674  29.996  1.00  0.00     0.016 A 
ATOM     36  C   UNL A   1      37.953  31.604  32.135  1.00  0.00     0.016 A 
ATOM     37  C   UNL A   1      38.791  32.275  29.534  1.00  0.00     0.010 A 
ATOM     38  C   UNL A   1      39.198  31.180  31.661  1.00  0.00     0.010 A 
ATOM     39  C   UNL A   1      39.611  31.487  30.351  1.00  0.00    -0.014 A 
BRANCH  39  40
ATOM     40  C   UNL A   1      40.815  30.829  29.785  1.00  0.00     0.031 A 
ATOM     41  C   UNL A   1      42.059  31.653  29.593  1.00  0.00     0.074 A 
ATOM     42  C   UNL A   1      40.809  29.530  29.441  1.00  0.00     0.049 A 
ATOM     43  N   UNL A   1      43.192  31.334  29.023  1.00  0.00    -0.248 NA
ATOM     44  C   UNL A   1      42.011  33.030  30.108  1.00  0.00     0.031 C 
ATOM     45  C   UNL A   1      39.686  28.614  29.620  1.00  0.00     0.029 A 
ATOM     46  N   UNL A   1      41.782  28.762  28.848  1.00  0.00    -0.354 N 
ATOM     47  C   UNL A   1      43.983  32.473  29.095  1.00  0.00     0.074 A 
ATOM     48  C   UNL A   1      43.190  33.501  29.733  1.00  0.00     0.031 C 
ATOM     49  C   UNL A   1      40.026  27.409  29.130  1.00  0.00     0.029 A 
ATOM     50  C   UNL A   1      41.372  27.483  28.563  1.00  0.00     0.049 A 
ATOM     51  H   UNL A   1      42.686  29.097  28.647  1.00  0.00     0.167 HD
ATOM     52  C   UNL A   1      45.259  32.645  28.671  1.00  0.00     0.037 A 
ATOM     53  C   UNL A   1      42.000  26.498  27.889  1.00  0.00     0.037 A 
ATOM     54  C   UNL A   1      46.041  31.619  28.031  1.00  0.00     0.049 A 
ATOM     55  C   UNL A   1      43.388  26.741  27.348  1.00  0.00     0.074 A 
ATOM     56  C   UNL A   1      47.348  31.686  27.581  1.00  0.00     0.029 A 
ATOM     57  N   UNL A   1      45.582  30.343  27.732  1.00  0.00    -0.354 N 
ATOM     58  N   UNL A   1      44.142  27.810  27.439  1.00  0.00    -0.248 NA
ATOM     59  C   UNL A   1      44.015  25.633  26.611  1.00  0.00     0.031 C 
ATOM     60  C   UNL A   1      47.654  30.480  26.944  1.00  0.00     0.029 A 
ATOM     61  C   UNL A   1      46.569  29.628  27.073  1.00  0.00     0.049 A 
ATOM     62  H   UNL A   1      44.688  29.999  27.956  1.00  0.00     0.167 HD
ATOM     63  C   UNL A   1      45.339  27.492  26.808  1.00  0.00     0.074 A 
ATOM     64  C   UNL A   1      45.217  26.125  26.348  1.00  0.00     0.031 C 
ATOM     65  C   UNL A   1      46.442  28.262  26.629  1.00  0.00     0.037 A 
BRANCH  52  66
ATOM     66  C   UNL A   1      45.875  34.004  28.850  1.00  0.00     0.064 A 
ATOM     67  C   UNL A   1      45.713  35.025  27.901  1.00  0.00     0.173 A 
ATOM     68  C   UNL A   1      46.616  34.298  30.005  1.00  0.00     0.173 A 
ATOM     69  F   UNL A   1      45.023  34.796  26.774  1.00  0.00    -0.203 F 
ATOM     70  C   UNL A   1      46.301  36.275  28.084  1.00  0.00     0.198 A 
ATOM     71  C   UNL A   1      47.169  35.560  30.203  1.00  0.00     0.198 A 
ATOM     72  F   UNL A   1      46.798  33.363  30.949  1.00  0.00    -0.203 F 
ATOM     73  F   UNL A   1      46.183  37.213  27.135  1.00  0.00    -0.200 F 
ATOM     74  C   UNL A   1      47.022  36.543  29.238  1.00  0.00     0.200 A 
ATOM     75  F   UNL A   1      47.848  35.823  31.329  1.00  0.00    -0.200 F 
ATOM     76  F   UNL A   1      47.579  37.748  29.416  1.00  0.00    -0.200 F 
ENDBRANCH  52  66
BRANCH  53  77
ATOM     77  C   UNL A   1      41.321  25.192  27.670  1.00  0.00     0.064 A 
ATOM     78  C   UNL A   1      41.756  24.030  28.324  1.00  0.00     0.173 A 
ATOM     79  C   UNL A   1      40.240  25.072  26.784  1.00  0.00     0.173 A 
ATOM     80  F   UNL A   1      42.803  24.087  29.160  1.00  0.00    -0.203 F 
ATOM     81  C   UNL A   1      41.155  22.798  28.080  1.00  0.00     0.198 A 
ATOM     82  C   UNL A   1      39.615  23.845  26.569  1.00  0.00     0.198 A 
ATOM     83  F   UNL A   1      39.784  26.150  26.128  1.00  0.00    -0.203 F 
ATOM     84  F   UNL A   1      41.631  21.694  28.673  1.00  0.00    -0.200 F 
ATOM     85  C   UNL A   1      40.080  22.706  27.208  1.00  0.00     0.200 A 
ATOM     86  F   UNL A   1      38.568  23.765  25.736  1.00  0.00    -0.200 F 
ATOM     87  F   UNL A   1      39.500  21.521  26.976  1.00  0.00    -0.200 F 
ENDBRANCH  53  77
BRANCH  65  88
ATOM     88  C   UNL A   1      47.632  27.633  25.955  1.00  0.00     0.064 A 
ATOM     89  C   UNL A   1      47.767  27.594  24.559  1.00  0.00     0.173 A 
ATOM     90  C   UNL A   1      48.677  27.097  26.727  1.00  0.00     0.173 A 
ATOM     91  F   UNL A   1      46.795  28.081  23.772  1.00  0.00    -0.203 F 
ATOM     92  C   UNL A   1      48.884  27.013  23.963  1.00  0.00     0.198 A 
ATOM     93  C   UNL A   1      49.811  26.556  26.128  1.00  0.00     0.198 A 
ATOM     94  F   UNL A   1      48.608  27.116  28.066  1.00  0.00    -0.203 F 
ATOM     95  F   UNL A   1      48.962  26.935  22.626  1.00  0.00    -0.200 F 
ATOM     96  C   UNL A   1      49.909  26.504  24.746  1.00  0.00     0.200 A 
ATOM     97  F   UNL A   1      50.809  26.084  26.887  1.00  0.00    -0.200 F 
ATOM     98  F   UNL A   1      50.987  25.956  24.169  1.00  0.00    -0.200 F 
ENDBRANCH  65  88
ENDBRANCH  39  40
ENDBRANCH  32  34
ENDBRANCH  31  32
ENDBRANCH  30  31
ENDBRANCH  29  30
ENDBRANCH  28  29
ENDBRANCH  27  28
ENDBRANCH  26  27
ENDBRANCH  25  26
ENDBRANCH   1  25
TORSDOF 24
ENDMDL
MODEL 3
REMARK VINA RESULT:      -9.5      3.138      8.067
REMARK SMILES COCCCNC(=O)/C(C#N)=C/c1ccc(C(=O)OCCOCCOCCOC(=O)c2ccc(-c3c4nc(c(-c5c(F)c(F)c(F)c(F)c5F)c5ccc([nH]5)c(-c5c(F)c(F)c(F)c(F)c5F)c5nc(c(-c6c(F)c(F)c(F)c(F)c6F)c6ccc3[nH]6)C=C5)C=C4)cc2)cc1
REMARK SMILES IDX 21 1 20 2 19 3 17 4 18 5 16 6 13 7 14 8 95 9 15 10 94 11
REMARK SMILES IDX 12 12 9 13 7 14 6 15 8 17 5 18 4 19 3 20 2 21 1 22 10 23
REMARK SMILES IDX 11 24 22 25 23 26 24 27 25 28 26 29 27 30 28 31 29 32 30 33
REMARK SMILES IDX 31 34 32 35 93 36 33 37 92 38 34 39 35 40 36 41 86 42 37 43
REMARK SMILES IDX 91 44 85 45 87 46 38 47 90 48 84 49 83 50 39 52 71 53 51 54
REMARK SMILES IDX 70 55 52 56 55 57 69 58 88 59 53 60 54 61 68 63 89 64 56 65
REMARK SMILES IDX 40 66 41 67 49 68 42 69 43 70 47 71 50 72 44 73 45 74 48 75
REMARK SMILES IDX 46 76 72 77 73 78 81 79 74 80 75 81 79 82 82 83 76 84 77 85
REMARK SMILES IDX 80 86 78 87 57 88 58 89 66 90 59 91 60 92 64 93 67 94 61 95
REMARK SMILES IDX 62 96 65 97 63 98
REMARK H PARENT 6 16 87 51 55 62
REMARK Flexibility Score: inf
ROOT
ATOM      1  C   UNL A   1      32.539  18.979  23.339  1.00  0.00     0.202 C 
ENDROOT
BRANCH   1   2
ATOM      2  C   UNL A   1      32.541  20.472  23.724  1.00  0.00     0.261 C 
BRANCH   2   3
ATOM      3  O   UNL A   1      31.858  20.832  24.925  1.00  0.00    -0.460 OA
BRANCH   3   4
ATOM      4  C   UNL A   1      32.631  21.350  25.910  1.00  0.00     0.338 C 
ATOM      5  O   UNL A   1      33.415  20.744  26.621  1.00  0.00    -0.246 OA
BRANCH   4   6
ATOM      6  C   UNL A   1      32.569  22.829  25.850  1.00  0.00     0.060 A 
ATOM      7  C   UNL A   1      32.401  25.594  25.563  1.00  0.00    -0.024 A 
ATOM      8  C   UNL A   1      31.271  24.808  25.323  1.00  0.00     0.009 A 
ATOM      9  C   UNL A   1      33.552  25.015  26.121  1.00  0.00     0.009 A 
ATOM     10  C   UNL A   1      31.357  23.424  25.469  1.00  0.00     0.016 A 
ATOM     11  C   UNL A   1      33.655  23.630  26.219  1.00  0.00     0.016 A 
BRANCH   7  12
ATOM     12  C   UNL A   1      32.491  26.920  24.925  1.00  0.00     0.033 C 
ATOM     13  C   UNL A   1      32.132  28.026  25.625  1.00  0.00     0.117 C 
BRANCH  13  14
ATOM     14  C   UNL A   1      32.336  29.364  24.987  1.00  0.00     0.261 C 
ATOM     15  N   UNL A   1      31.388  29.977  24.216  1.00  0.00    -0.351 N 
ATOM     16  H   UNL A   1      31.625  30.894  23.948  1.00  0.00     0.163 HD
ATOM     17  O   UNL A   1      33.398  29.973  25.146  1.00  0.00    -0.268 OA
BRANCH  15  18
ATOM     18  C   UNL A   1      30.093  29.534  23.713  1.00  0.00     0.118 C 
BRANCH  18  19
ATOM     19  C   UNL A   1      29.644  30.201  22.421  1.00  0.00     0.050 C 
BRANCH  19  20
ATOM     20  C   UNL A   1      28.215  29.941  21.975  1.00  0.00     0.161 C 
BRANCH  20  21
ATOM     21  O   UNL A   1      27.972  30.303  20.620  1.00  0.00    -0.385 OA
ATOM     22  C   UNL A   1      27.821  31.694  20.390  1.00  0.00     0.194 C 
ENDBRANCH  20  21
ENDBRANCH  19  20
ENDBRANCH  18  19
ENDBRANCH  15  18
ENDBRANCH  13  14
BRANCH  13  23
ATOM     23  C   UNL A   1      31.604  27.888  26.939  1.00  0.00     0.105 C 
ATOM     24  N   UNL A   1      31.226  27.763  28.035  1.00  0.00    -0.192 NA
ENDBRANCH  13  23
ENDBRANCH   7  12
ENDBRANCH   4   6
ENDBRANCH   3   4
ENDBRANCH   2   3
ENDBRANCH   1   2
BRANCH   1  25
ATOM     25  O   UNL A   1      33.562  18.046  23.650  1.00  0.00    -0.376 OA
BRANCH  25  26
ATOM     26  C   UNL A   1      34.421  18.246  24.750  1.00  0.00     0.188 C 
BRANCH  26  27
ATOM     27  C   UNL A   1      35.937  18.367  24.503  1.00  0.00     0.188 C 
BRANCH  27  28
ATOM     28  O   UNL A   1      36.579  19.551  24.902  1.00  0.00    -0.376 OA
BRANCH  28  29
ATOM     29  C   UNL A   1      37.990  19.642  24.813  1.00  0.00     0.202 C 
BRANCH  29  30
ATOM     30  C   UNL A   1      38.897  20.573  25.655  1.00  0.00     0.261 C 
BRANCH  30  31
ATOM     31  O   UNL A   1      39.770  19.996  26.633  1.00  0.00    -0.460 OA
BRANCH  31  32
ATOM     32  C   UNL A   1      41.052  19.790  26.239  1.00  0.00     0.338 C 
ATOM     33  O   UNL A   1      41.486  18.855  25.591  1.00  0.00    -0.246 OA
BRANCH  32  34
ATOM     34  C   UNL A   1      41.852  20.992  26.555  1.00  0.00     0.060 A 
ATOM     35  C   UNL A   1      42.153  21.285  27.896  1.00  0.00     0.016 A 
ATOM     36  C   UNL A   1      42.258  21.851  25.537  1.00  0.00     0.016 A 
ATOM     37  C   UNL A   1      42.849  22.450  28.221  1.00  0.00     0.010 A 
ATOM     38  C   UNL A   1      42.930  23.031  25.867  1.00  0.00     0.010 A 
ATOM     39  C   UNL A   1      43.203  23.352  27.210  1.00  0.00    -0.014 A 
BRANCH  39  40
ATOM     40  C   UNL A   1      43.692  24.708  27.560  1.00  0.00     0.031 A 
ATOM     41  C   UNL A   1      42.702  25.716  28.077  1.00  0.00     0.074 A 
ATOM     42  C   UNL A   1      44.985  25.046  27.418  1.00  0.00     0.049 A 
ATOM     43  N   UNL A   1      42.867  26.986  28.346  1.00  0.00    -0.248 NA
ATOM     44  C   UNL A   1      41.337  25.222  28.314  1.00  0.00     0.031 C 
ATOM     45  C   UNL A   1      46.049  24.150  26.973  1.00  0.00     0.029 A 
ATOM     46  N   UNL A   1      45.617  26.250  27.618  1.00  0.00    -0.354 N 
ATOM     47  C   UNL A   1      41.625  27.445  28.765  1.00  0.00     0.074 A 
ATOM     48  C   UNL A   1      40.710  26.328  28.683  1.00  0.00     0.031 C 
ATOM     49  C   UNL A   1      47.201  24.840  26.916  1.00  0.00     0.029 A 
ATOM     50  C   UNL A   1      46.946  26.234  27.275  1.00  0.00     0.049 A 
ATOM     51  H   UNL A   1      45.160  27.047  27.972  1.00  0.00     0.167 HD
ATOM     52  C   UNL A   1      41.281  28.686  29.186  1.00  0.00     0.037 A 
ATOM     53  C   UNL A   1      47.844  27.239  27.225  1.00  0.00     0.037 A 
ATOM     54  C   UNL A   1      42.195  29.796  29.259  1.00  0.00     0.049 A 
ATOM     55  C   UNL A   1      47.415  28.634  27.613  1.00  0.00     0.074 A 
ATOM     56  C   UNL A   1      41.951  31.089  29.688  1.00  0.00     0.029 A 
ATOM     57  N   UNL A   1      43.529  29.750  28.876  1.00  0.00    -0.354 N 
ATOM     58  N   UNL A   1      46.248  29.059  28.031  1.00  0.00    -0.248 NA
ATOM     59  C   UNL A   1      48.436  29.690  27.524  1.00  0.00     0.031 C 
ATOM     60  C   UNL A   1      43.113  31.842  29.495  1.00  0.00     0.029 A 
ATOM     61  C   UNL A   1      44.108  31.000  29.026  1.00  0.00     0.049 A 
ATOM     62  H   UNL A   1      43.994  28.947  28.546  1.00  0.00     0.167 HD
ATOM     63  C   UNL A   1      46.403  30.416  28.291  1.00  0.00     0.074 A 
ATOM     64  C   UNL A   1      47.781  30.742  27.994  1.00  0.00     0.031 C 
ATOM     65  C   UNL A   1      45.486  31.311  28.738  1.00  0.00     0.037 A 
BRANCH  52  66
ATOM     66  C   UNL A   1      39.844  28.921  29.561  1.00  0.00     0.064 A 
ATOM     67  C   UNL A   1      39.362  28.669  30.854  1.00  0.00     0.173 A 
ATOM     68  C   UNL A   1      38.941  29.432  28.615  1.00  0.00     0.173 A 
ATOM     69  F   UNL A   1      40.179  28.169  31.794  1.00  0.00    -0.203 F 
ATOM     70  C   UNL A   1      38.024  28.885  31.176  1.00  0.00     0.198 A 
ATOM     71  C   UNL A   1      37.614  29.683  28.952  1.00  0.00     0.198 A 
ATOM     72  F   UNL A   1      39.347  29.697  27.365  1.00  0.00    -0.203 F 
ATOM     73  F   UNL A   1      37.574  28.579  32.401  1.00  0.00    -0.200 F 
ATOM     74  C   UNL A   1      37.153  29.399  30.227  1.00  0.00     0.200 A 
ATOM     75  F   UNL A   1      36.780  30.200  28.038  1.00  0.00    -0.200 F 
ATOM     76  F   UNL A   1      35.868  29.614  30.541  1.00  0.00    -0.200 F 
ENDBRANCH  52  66
BRANCH  53  77
ATOM     77  C   UNL A   1      49.237  26.974  26.774  1.00  0.00     0.064 A 
ATOM     78  C   UNL A   1      49.584  27.041  25.416  1.00  0.00     0.173 A 
ATOM     79  C   UNL A   1      50.245  26.623  27.684  1.00  0.00     0.173 A 
ATOM     80  F   UNL A   1      48.650  27.346  24.502  1.00  0.00    -0.203 F 
ATOM     81  C   UNL A   1      50.874  26.742  24.986  1.00  0.00     0.198 A 
ATOM     82  C   UNL A   1      51.545  26.361  27.257  1.00  0.00     0.198 A 
ATOM     83  F   UNL A   1      49.968  26.540  28.995  1.00  0.00    -0.203 F 
ATOM     84  F   UNL A   1      51.161  26.756  23.677  1.00  0.00    -0.200 F 
ATOM     85  C   UNL A   1      51.856  26.409  25.907  1.00  0.00     0.200 A 
ATOM     86  F   UNL A   1      52.493  26.053  28.152  1.00  0.00    -0.200 F 
ATOM     87  F   UNL A   1      53.098  26.125  25.493  1.00  0.00    -0.200 F 
ENDBRANCH  53  77
BRANCH  65  88
ATOM     88  C   UNL A   1      45.951  32.721  28.992  1.00  0.00     0.064 A 
ATOM     89  C   UNL A   1      46.500  33.117  30.221  1.00  0.00     0.173 A 
ATOM     90  C   UNL A   1      45.884  33.680  27.968  1.00  0.00     0.173 A 
ATOM     91  F   UNL A   1      46.579  32.245  31.238  1.00  0.00    -0.203 F 
ATOM     92  C   UNL A   1      46.931  34.426  30.426  1.00  0.00     0.198 A 
ATOM     93  C   UNL A   1      46.355  34.976  28.163  1.00  0.00     0.198 A 
ATOM     94  F   UNL A   1      45.379  33.357  26.769  1.00  0.00    -0.203 F 
ATOM     95  F   UNL A   1      47.397  34.795  31.628  1.00  0.00    -0.200 F 
ATOM     96  C   UNL A   1      46.867  35.351  29.394  1.00  0.00     0.200 A 
ATOM     97  F   UNL A   1      46.312  35.862  27.158  1.00  0.00    -0.200 F 
ATOM     98  F   UNL A   1      47.294  36.607  29.591  1.00  0.00    -0.200 F 
ENDBRANCH  65  88
ENDBRANCH  39  40
ENDBRANCH  32  34
ENDBRANCH  31  32
ENDBRANCH  30  31
ENDBRANCH  29  30
ENDBRANCH  28  29
ENDBRANCH  27  28
ENDBRANCH  26  27
ENDBRANCH  25  26
ENDBRANCH   1  25
TORSDOF 24
ENDMDL
