MODEL 1
REMARK VINA RESULT:     -10.0      0.000      0.000
REMARK SMILES CC[C@H](Oc1ccc(C)nc1C[NH3+])C(=O)OCCOCCOCCOC(=O)c1ccc(-c2c3nc(c(-c4c(F)c(F)c(F)c(F)c4F)c4ccc([nH]4)c(-c4c(F)c(F)c(F)c(F)c4F)c4nc(c(-c5c(F)c(F)c(F)c(F)c5F)c5ccc2[nH]5)C=C4)C=C3)cc1
REMARK SMILES IDX 20 1 19 2 18 3 17 4 16 5 14 6 15 7 3 8 2 9 1 10 4 11 5 12
REMARK SMILES IDX 6 13 11 14 7 15 10 16 8 17 9 18 12 19 13 20 21 24 22 25
REMARK SMILES IDX 23 26 24 27 25 28 26 29 27 30 28 31 29 32 90 33 30 34 89 35
REMARK SMILES IDX 31 36 32 37 33 38 83 39 34 40 88 41 82 42 84 43 35 44 87 45
REMARK SMILES IDX 81 46 80 47 36 49 68 50 48 51 67 52 49 53 52 54 66 55 85 56
REMARK SMILES IDX 50 57 51 58 65 60 86 61 53 62 37 63 38 64 46 65 39 66 40 67
REMARK SMILES IDX 44 68 47 69 41 70 42 71 45 72 43 73 69 74 70 75 78 76 71 77
REMARK SMILES IDX 72 78 76 79 79 80 73 81 74 82 77 83 75 84 54 85 55 86 63 87
REMARK SMILES IDX 56 88 57 89 61 90 64 91 58 92 59 93 62 94 60 95
REMARK H PARENT 13 21 13 22 13 23 84 48 52 59
REMARK Flexibility Score: inf
ROOT
ATOM      1  C   UNL A   1      39.436  21.824  26.127  1.00  0.00     0.188 C 
ENDROOT
BRANCH   1   2
ATOM      2  O   UNL A   1      38.185  21.511  25.551  1.00  0.00    -0.376 OA
BRANCH   2   3
ATOM      3  C   UNL A   1      37.387  22.552  25.001  1.00  0.00     0.202 C 
BRANCH   3   4
ATOM      4  C   UNL A   1      36.384  23.314  25.874  1.00  0.00     0.261 C 
BRANCH   4   5
ATOM      5  O   UNL A   1      35.149  22.608  26.100  1.00  0.00    -0.461 OA
BRANCH   5   6
ATOM      6  C   UNL A   1      34.214  22.706  25.114  1.00  0.00     0.347 C 
ATOM      7  O   UNL A   1      34.099  21.878  24.213  1.00  0.00    -0.248 OA
BRANCH   6   8
ATOM      8  C   UNL A   1      33.241  23.905  25.292  1.00  0.00     0.282 C 
BRANCH   8   9
ATOM      9  C   UNL A   1      31.830  23.281  25.443  1.00  0.00     0.054 C 
ATOM     10  C   UNL A   1      31.417  23.010  26.884  1.00  0.00     0.008 C 
ENDBRANCH   8   9
BRANCH   8  11
ATOM     11  O   UNL A   1      33.443  24.876  24.242  1.00  0.00    -0.477 OA
BRANCH  11  12
ATOM     12  C   UNL A   1      33.004  26.151  24.467  1.00  0.00     0.147 A 
ATOM     13  C   UNL A   1      32.868  26.559  25.792  1.00  0.00     0.050 A 
ATOM     14  C   UNL A   1      32.509  27.009  23.477  1.00  0.00     0.136 A 
ATOM     15  C   UNL A   1      32.389  27.828  26.098  1.00  0.00     0.027 A 
ATOM     16  N   UNL A   1      32.065  28.270  23.771  1.00  0.00    -0.248 NA
ATOM     17  C   UNL A   1      32.018  28.665  25.061  1.00  0.00     0.038 A 
ATOM     18  C   UNL A   1      31.432  30.014  25.344  1.00  0.00     0.067 C 
BRANCH  14  19
ATOM     19  C   UNL A   1      32.295  26.604  22.036  1.00  0.00     0.320 C 
BRANCH  19  20
ATOM     20  N   UNL A   1      31.765  25.242  21.893  1.00  0.00    -0.352 N 
ATOM     21  H   UNL A   1      32.369  24.588  22.390  1.00  0.00     0.344 HD
ATOM     22  H   UNL A   1      31.733  24.992  20.905  1.00  0.00     0.344 HD
ATOM     23  H   UNL A   1      30.823  25.200  22.284  1.00  0.00     0.344 HD
ENDBRANCH  19  20
ENDBRANCH  14  19
ENDBRANCH  11  12
ENDBRANCH   8  11
ENDBRANCH   6   8
ENDBRANCH   5   6
ENDBRANCH   4   5
ENDBRANCH   3   4
ENDBRANCH   2   3
ENDBRANCH   1   2
BRANCH   1  24
ATOM     24  C   UNL A   1      40.408  20.696  26.507  1.00  0.00     0.188 C 
BRANCH  24  25
ATOM     25  O   UNL A   1      41.685  20.991  27.014  1.00  0.00    -0.376 OA
BRANCH  25  26
ATOM     26  C   UNL A   1      42.859  20.758  26.259  1.00  0.00     0.202 C 
BRANCH  26  27
ATOM     27  C   UNL A   1      43.465  21.714  25.215  1.00  0.00     0.261 C 
BRANCH  27  28
ATOM     28  O   UNL A   1      42.788  22.944  24.960  1.00  0.00    -0.460 OA
BRANCH  28  29
ATOM     29  C   UNL A   1      43.550  24.054  25.064  1.00  0.00     0.338 C 
ATOM     30  O   UNL A   1      44.534  24.349  24.392  1.00  0.00    -0.246 OA
BRANCH  29  31
ATOM     31  C   UNL A   1      42.893  24.990  25.988  1.00  0.00     0.060 A 
ATOM     32  C   UNL A   1      43.388  26.299  26.076  1.00  0.00     0.016 A 
ATOM     33  C   UNL A   1      41.813  24.582  26.773  1.00  0.00     0.016 A 
ATOM     34  C   UNL A   1      42.816  27.201  26.969  1.00  0.00     0.010 A 
ATOM     35  C   UNL A   1      41.258  25.480  27.687  1.00  0.00     0.010 A 
ATOM     36  C   UNL A   1      41.776  26.783  27.808  1.00  0.00    -0.014 A 
BRANCH  36  37
ATOM     37  C   UNL A   1      41.356  27.640  28.941  1.00  0.00     0.031 A 
ATOM     38  C   UNL A   1      42.122  27.541  30.230  1.00  0.00     0.074 A 
ATOM     39  C   UNL A   1      40.325  28.492  28.826  1.00  0.00     0.049 A 
ATOM     40  N   UNL A   1      41.902  28.134  31.376  1.00  0.00    -0.248 NA
ATOM     41  C   UNL A   1      43.292  26.649  30.226  1.00  0.00     0.031 C 
ATOM     42  C   UNL A   1      39.538  28.711  27.615  1.00  0.00     0.029 A 
ATOM     43  N   UNL A   1      39.757  29.327  29.756  1.00  0.00    -0.354 N 
ATOM     44  C   UNL A   1      42.901  27.682  32.228  1.00  0.00     0.074 A 
ATOM     45  C   UNL A   1      43.711  26.747  31.478  1.00  0.00     0.031 C 
ATOM     46  C   UNL A   1      38.574  29.611  27.881  1.00  0.00     0.029 A 
ATOM     47  C   UNL A   1      38.658  30.004  29.287  1.00  0.00     0.049 A 
ATOM     48  H   UNL A   1      40.104  29.431  30.671  1.00  0.00     0.167 HD
ATOM     49  C   UNL A   1      43.123  28.020  33.519  1.00  0.00     0.037 A 
ATOM     50  C   UNL A   1      37.806  30.824  29.933  1.00  0.00     0.037 A 
ATOM     51  C   UNL A   1      42.312  28.946  34.265  1.00  0.00     0.049 A 
ATOM     52  C   UNL A   1      38.027  31.121  31.394  1.00  0.00     0.074 A 
ATOM     53  C   UNL A   1      42.465  29.367  35.574  1.00  0.00     0.029 A 
ATOM     54  N   UNL A   1      41.188  29.587  33.766  1.00  0.00    -0.354 N 
ATOM     55  N   UNL A   1      38.985  30.709  32.190  1.00  0.00    -0.248 NA
ATOM     56  C   UNL A   1      37.045  31.998  32.049  1.00  0.00     0.031 C 
ATOM     57  C   UNL A   1      41.403  30.222  35.884  1.00  0.00     0.029 A 
ATOM     58  C   UNL A   1      40.622  30.380  34.751  1.00  0.00     0.049 A 
ATOM     59  H   UNL A   1      40.845  29.494  32.848  1.00  0.00     0.167 HD
ATOM     60  C   UNL A   1      38.741  31.301  33.424  1.00  0.00     0.074 A 
ATOM     61  C   UNL A   1      37.548  32.108  33.270  1.00  0.00     0.031 C 
ATOM     62  C   UNL A   1      39.441  31.188  34.579  1.00  0.00     0.037 A 
BRANCH  49  63
ATOM     63  C   UNL A   1      44.272  27.357  34.218  1.00  0.00     0.064 A 
ATOM     64  C   UNL A   1      45.546  27.944  34.263  1.00  0.00     0.173 A 
ATOM     65  C   UNL A   1      44.090  26.130  34.873  1.00  0.00     0.173 A 
ATOM     66  F   UNL A   1      45.776  29.108  33.636  1.00  0.00    -0.203 F 
ATOM     67  C   UNL A   1      46.601  27.313  34.919  1.00  0.00     0.198 A 
ATOM     68  C   UNL A   1      45.139  25.518  35.553  1.00  0.00     0.198 A 
ATOM     69  F   UNL A   1      42.891  25.528  34.861  1.00  0.00    -0.203 F 
ATOM     70  F   UNL A   1      47.821  27.868  34.911  1.00  0.00    -0.200 F 
ATOM     71  C   UNL A   1      46.394  26.106  35.570  1.00  0.00     0.200 A 
ATOM     72  F   UNL A   1      44.935  24.357  36.190  1.00  0.00    -0.200 F 
ATOM     73  F   UNL A   1      47.409  25.504  36.207  1.00  0.00    -0.200 F 
ENDBRANCH  49  63
BRANCH  50  74
ATOM     74  C   UNL A   1      36.650  31.415  29.209  1.00  0.00     0.064 A 
ATOM     75  C   UNL A   1      36.631  32.774  28.865  1.00  0.00     0.173 A 
ATOM     76  C   UNL A   1      35.528  30.643  28.875  1.00  0.00     0.173 A 
ATOM     77  F   UNL A   1      37.668  33.560  29.190  1.00  0.00    -0.203 F 
ATOM     78  C   UNL A   1      35.528  33.341  28.232  1.00  0.00     0.198 A 
ATOM     79  C   UNL A   1      34.436  31.205  28.216  1.00  0.00     0.198 A 
ATOM     80  F   UNL A   1      35.493  29.340  29.188  1.00  0.00    -0.203 F 
ATOM     81  F   UNL A   1      35.516  34.653  27.961  1.00  0.00    -0.200 F 
ATOM     82  C   UNL A   1      34.434  32.556  27.902  1.00  0.00     0.200 A 
ATOM     83  F   UNL A   1      33.385  30.440  27.893  1.00  0.00    -0.200 F 
ATOM     84  F   UNL A   1      33.372  33.102  27.294  1.00  0.00    -0.200 F 
ENDBRANCH  50  74
BRANCH  62  85
ATOM     85  C   UNL A   1      38.968  31.987  35.759  1.00  0.00     0.064 A 
ATOM     86  C   UNL A   1      38.184  31.416  36.772  1.00  0.00     0.173 A 
ATOM     87  C   UNL A   1      39.345  33.332  35.900  1.00  0.00     0.173 A 
ATOM     88  F   UNL A   1      37.785  30.139  36.678  1.00  0.00    -0.203 F 
ATOM     89  C   UNL A   1      37.776  32.169  37.871  1.00  0.00     0.198 A 
ATOM     90  C   UNL A   1      38.962  34.072  37.015  1.00  0.00     0.198 A 
ATOM     91  F   UNL A   1      40.102  33.924  34.964  1.00  0.00    -0.203 F 
ATOM     92  F   UNL A   1      36.990  31.615  38.805  1.00  0.00    -0.200 F 
ATOM     93  C   UNL A   1      38.173  33.492  37.996  1.00  0.00     0.200 A 
ATOM     94  F   UNL A   1      39.359  35.346  37.140  1.00  0.00    -0.200 F 
ATOM     95  F   UNL A   1      37.787  34.212  39.058  1.00  0.00    -0.200 F 
ENDBRANCH  62  85
ENDBRANCH  36  37
ENDBRANCH  29  31
ENDBRANCH  28  29
ENDBRANCH  27  28
ENDBRANCH  26  27
ENDBRANCH  25  26
ENDBRANCH  24  25
ENDBRANCH   1  24
TORSDOF 22
ENDMDL
MODEL 2
REMARK VINA RESULT:      -9.9      3.098      8.317
REMARK SMILES CC[C@H](Oc1ccc(C)nc1C[NH3+])C(=O)OCCOCCOCCOC(=O)c1ccc(-c2c3nc(c(-c4c(F)c(F)c(F)c(F)c4F)c4ccc([nH]4)c(-c4c(F)c(F)c(F)c(F)c4F)c4nc(c(-c5c(F)c(F)c(F)c(F)c5F)c5ccc2[nH]5)C=C4)C=C3)cc1
REMARK SMILES IDX 20 1 19 2 18 3 17 4 16 5 14 6 15 7 3 8 2 9 1 10 4 11 5 12
REMARK SMILES IDX 6 13 11 14 7 15 10 16 8 17 9 18 12 19 13 20 21 24 22 25
REMARK SMILES IDX 23 26 24 27 25 28 26 29 27 30 28 31 29 32 90 33 30 34 89 35
REMARK SMILES IDX 31 36 32 37 33 38 83 39 34 40 88 41 82 42 84 43 35 44 87 45
REMARK SMILES IDX 81 46 80 47 36 49 68 50 48 51 67 52 49 53 52 54 66 55 85 56
REMARK SMILES IDX 50 57 51 58 65 60 86 61 53 62 37 63 38 64 46 65 39 66 40 67
REMARK SMILES IDX 44 68 47 69 41 70 42 71 45 72 43 73 69 74 70 75 78 76 71 77
REMARK SMILES IDX 72 78 76 79 79 80 73 81 74 82 77 83 75 84 54 85 55 86 63 87
REMARK SMILES IDX 56 88 57 89 61 90 64 91 58 92 59 93 62 94 60 95
REMARK H PARENT 13 21 13 22 13 23 84 48 52 59
REMARK Flexibility Score: inf
ROOT
ATOM      1  C   UNL A   1      33.325  27.509  22.945  1.00  0.00     0.188 C 
ENDROOT
BRANCH   1   2
ATOM      2  O   UNL A   1      32.687  26.505  23.707  1.00  0.00    -0.376 OA
BRANCH   2   3
ATOM      3  C   UNL A   1      33.391  25.881  24.774  1.00  0.00     0.202 C 
BRANCH   3   4
ATOM      4  C   UNL A   1      34.693  25.117  24.512  1.00  0.00     0.261 C 
BRANCH   4   5
ATOM      5  O   UNL A   1      34.509  23.706  24.285  1.00  0.00    -0.461 OA
BRANCH   5   6
ATOM      6  C   UNL A   1      33.756  23.368  23.201  1.00  0.00     0.347 C 
ATOM      7  O   UNL A   1      34.011  23.748  22.061  1.00  0.00    -0.248 OA
BRANCH   6   8
ATOM      8  C   UNL A   1      32.605  22.374  23.525  1.00  0.00     0.282 C 
BRANCH   8   9
ATOM      9  C   UNL A   1      31.307  23.220  23.523  1.00  0.00     0.054 C 
ATOM     10  C   UNL A   1      30.718  23.465  24.908  1.00  0.00     0.008 C 
ENDBRANCH   8   9
BRANCH   8  11
ATOM     11  O   UNL A   1      32.916  21.614  24.713  1.00  0.00    -0.477 OA
BRANCH  11  12
ATOM     12  C   UNL A   1      33.314  20.317  24.548  1.00  0.00     0.147 A 
ATOM     13  C   UNL A   1      32.321  19.361  24.346  1.00  0.00     0.050 A 
ATOM     14  C   UNL A   1      34.620  19.853  24.747  1.00  0.00     0.136 A 
ATOM     15  C   UNL A   1      32.648  18.016  24.210  1.00  0.00     0.027 A 
ATOM     16  N   UNL A   1      34.951  18.535  24.584  1.00  0.00    -0.248 NA
ATOM     17  C   UNL A   1      33.976  17.642  24.312  1.00  0.00     0.038 A 
ATOM     18  C   UNL A   1      34.368  16.199  24.241  1.00  0.00     0.067 C 
BRANCH  14  19
ATOM     19  C   UNL A   1      35.750  20.708  25.277  1.00  0.00     0.320 C 
BRANCH  19  20
ATOM     20  N   UNL A   1      35.377  21.483  26.466  1.00  0.00    -0.352 N 
ATOM     21  H   UNL A   1      36.143  21.463  27.140  1.00  0.00     0.344 HD
ATOM     22  H   UNL A   1      34.542  21.077  26.889  1.00  0.00     0.344 HD
ATOM     23  H   UNL A   1      35.186  22.449  26.198  1.00  0.00     0.344 HD
ENDBRANCH  19  20
ENDBRANCH  14  19
ENDBRANCH  11  12
ENDBRANCH   8  11
ENDBRANCH   6   8
ENDBRANCH   5   6
ENDBRANCH   4   5
ENDBRANCH   3   4
ENDBRANCH   2   3
ENDBRANCH   1   2
BRANCH   1  24
ATOM     24  C   UNL A   1      32.790  28.949  22.975  1.00  0.00     0.188 C 
BRANCH  24  25
ATOM     25  O   UNL A   1      31.491  29.221  23.436  1.00  0.00    -0.376 OA
BRANCH  25  26
ATOM     26  C   UNL A   1      31.197  29.332  24.816  1.00  0.00     0.202 C 
BRANCH  26  27
ATOM     27  C   UNL A   1      31.611  30.495  25.736  1.00  0.00     0.261 C 
BRANCH  27  28
ATOM     28  O   UNL A   1      32.745  30.310  26.581  1.00  0.00    -0.460 OA
BRANCH  28  29
ATOM     29  C   UNL A   1      33.259  31.441  27.113  1.00  0.00     0.338 C 
ATOM     30  O   UNL A   1      32.688  32.516  27.272  1.00  0.00    -0.246 OA
BRANCH  29  31
ATOM     31  C   UNL A   1      34.580  31.135  27.681  1.00  0.00     0.060 A 
ATOM     32  C   UNL A   1      34.890  29.798  27.969  1.00  0.00     0.016 A 
ATOM     33  C   UNL A   1      35.498  32.153  27.945  1.00  0.00     0.016 A 
ATOM     34  C   UNL A   1      36.116  29.477  28.545  1.00  0.00     0.010 A 
ATOM     35  C   UNL A   1      36.716  31.832  28.547  1.00  0.00     0.010 A 
ATOM     36  C   UNL A   1      37.017  30.497  28.875  1.00  0.00    -0.014 A 
BRANCH  36  37
ATOM     37  C   UNL A   1      38.187  30.194  29.732  1.00  0.00     0.031 A 
ATOM     38  C   UNL A   1      39.236  29.259  29.200  1.00  0.00     0.074 A 
ATOM     39  C   UNL A   1      38.318  30.741  30.951  1.00  0.00     0.049 A 
ATOM     40  N   UNL A   1      40.307  28.790  29.787  1.00  0.00    -0.248 NA
ATOM     41  C   UNL A   1      39.048  28.787  27.819  1.00  0.00     0.031 C 
ATOM     42  C   UNL A   1      37.393  31.696  31.555  1.00  0.00     0.029 A 
ATOM     43  N   UNL A   1      39.288  30.557  31.905  1.00  0.00    -0.354 N 
ATOM     44  C   UNL A   1      40.915  27.965  28.850  1.00  0.00     0.074 A 
ATOM     45  C   UNL A   1      40.083  27.975  27.667  1.00  0.00     0.031 C 
ATOM     46  C   UNL A   1      37.831  32.004  32.790  1.00  0.00     0.029 A 
ATOM     47  C   UNL A   1      39.047  31.240  33.072  1.00  0.00     0.049 A 
ATOM     48  H   UNL A   1      40.080  29.989  31.767  1.00  0.00     0.167 HD
ATOM     49  C   UNL A   1      42.067  27.264  28.967  1.00  0.00     0.037 A 
ATOM     50  C   UNL A   1      39.720  31.225  34.239  1.00  0.00     0.037 A 
ATOM     51  C   UNL A   1      42.891  27.251  30.146  1.00  0.00     0.049 A 
ATOM     52  C   UNL A   1      40.955  30.372  34.371  1.00  0.00     0.074 A 
ATOM     53  C   UNL A   1      44.085  26.586  30.357  1.00  0.00     0.029 A 
ATOM     54  N   UNL A   1      42.598  27.930  31.320  1.00  0.00    -0.354 N 
ATOM     55  N   UNL A   1      41.539  29.611  33.476  1.00  0.00    -0.248 NA
ATOM     56  C   UNL A   1      41.627  30.375  35.679  1.00  0.00     0.031 C 
ATOM     57  C   UNL A   1      44.488  26.819  31.676  1.00  0.00     0.029 A 
ATOM     58  C   UNL A   1      43.575  27.677  32.268  1.00  0.00     0.049 A 
ATOM     59  H   UNL A   1      41.812  28.507  31.458  1.00  0.00     0.167 HD
ATOM     60  C   UNL A   1      42.659  29.074  34.100  1.00  0.00     0.074 A 
ATOM     61  C   UNL A   1      42.679  29.603  35.448  1.00  0.00     0.031 C 
ATOM     62  C   UNL A   1      43.588  28.221  33.602  1.00  0.00     0.037 A 
BRANCH  49  63
ATOM     63  C   UNL A   1      42.486  26.426  27.796  1.00  0.00     0.064 A 
ATOM     64  C   UNL A   1      43.415  26.890  26.852  1.00  0.00     0.173 A 
ATOM     65  C   UNL A   1      41.971  25.132  27.631  1.00  0.00     0.173 A 
ATOM     66  F   UNL A   1      43.923  28.127  26.956  1.00  0.00    -0.203 F 
ATOM     67  C   UNL A   1      43.794  26.095  25.772  1.00  0.00     0.198 A 
ATOM     68  C   UNL A   1      42.374  24.330  26.567  1.00  0.00     0.198 A 
ATOM     69  F   UNL A   1      41.081  24.642  28.507  1.00  0.00    -0.203 F 
ATOM     70  F   UNL A   1      44.647  26.575  24.856  1.00  0.00    -0.200 F 
ATOM     71  C   UNL A   1      43.280  24.815  25.636  1.00  0.00     0.200 A 
ATOM     72  F   UNL A   1      41.884  23.089  26.443  1.00  0.00    -0.200 F 
ATOM     73  F   UNL A   1      43.650  24.049  24.599  1.00  0.00    -0.200 F 
ENDBRANCH  49  63
BRANCH  50  74
ATOM     74  C   UNL A   1      39.233  32.033  35.388  1.00  0.00     0.064 A 
ATOM     75  C   UNL A   1      39.574  33.387  35.515  1.00  0.00     0.173 A 
ATOM     76  C   UNL A   1      38.446  31.462  36.399  1.00  0.00     0.173 A 
ATOM     77  F   UNL A   1      40.351  33.971  34.590  1.00  0.00    -0.203 F 
ATOM     78  C   UNL A   1      39.162  34.133  36.617  1.00  0.00     0.198 A 
ATOM     79  C   UNL A   1      38.011  32.216  37.486  1.00  0.00     0.198 A 
ATOM     80  F   UNL A   1      38.098  30.169  36.328  1.00  0.00    -0.203 F 
ATOM     81  F   UNL A   1      39.545  35.411  36.739  1.00  0.00    -0.200 F 
ATOM     82  C   UNL A   1      38.376  33.549  37.599  1.00  0.00     0.200 A 
ATOM     83  F   UNL A   1      37.245  31.649  38.428  1.00  0.00    -0.200 F 
ATOM     84  F   UNL A   1      37.981  34.267  38.659  1.00  0.00    -0.200 F 
ENDBRANCH  50  74
BRANCH  62  85
ATOM     85  C   UNL A   1      44.731  27.839  34.498  1.00  0.00     0.064 A 
ATOM     86  C   UNL A   1      45.902  28.607  34.570  1.00  0.00     0.173 A 
ATOM     87  C   UNL A   1      44.631  26.714  35.331  1.00  0.00     0.173 A 
ATOM     88  F   UNL A   1      46.053  29.683  33.785  1.00  0.00    -0.203 F 
ATOM     89  C   UNL A   1      46.940  28.248  35.428  1.00  0.00     0.198 A 
ATOM     90  C   UNL A   1      45.657  26.377  36.209  1.00  0.00     0.198 A 
ATOM     91  F   UNL A   1      43.529  25.950  35.307  1.00  0.00    -0.203 F 
ATOM     92  F   UNL A   1      48.069  28.972  35.448  1.00  0.00    -0.200 F 
ATOM     93  C   UNL A   1      46.814  27.140  36.251  1.00  0.00     0.200 A 
ATOM     94  F   UNL A   1      45.526  25.314  37.015  1.00  0.00    -0.200 F 
ATOM     95  F   UNL A   1      47.810  26.803  37.081  1.00  0.00    -0.200 F 
ENDBRANCH  62  85
ENDBRANCH  36  37
ENDBRANCH  29  31
ENDBRANCH  28  29
ENDBRANCH  27  28
ENDBRANCH  26  27
ENDBRANCH  25  26
ENDBRANCH  24  25
ENDBRANCH   1  24
TORSDOF 22
ENDMDL
MODEL 3
REMARK VINA RESULT:      -9.8      1.054      2.235
REMARK SMILES CC[C@H](Oc1ccc(C)nc1C[NH3+])C(=O)OCCOCCOCCOC(=O)c1ccc(-c2c3nc(c(-c4c(F)c(F)c(F)c(F)c4F)c4ccc([nH]4)c(-c4c(F)c(F)c(F)c(F)c4F)c4nc(c(-c5c(F)c(F)c(F)c(F)c5F)c5ccc2[nH]5)C=C4)C=C3)cc1
REMARK SMILES IDX 20 1 19 2 18 3 17 4 16 5 14 6 15 7 3 8 2 9 1 10 4 11 5 12
REMARK SMILES IDX 6 13 11 14 7 15 10 16 8 17 9 18 12 19 13 20 21 24 22 25
REMARK SMILES IDX 23 26 24 27 25 28 26 29 27 30 28 31 29 32 90 33 30 34 89 35
REMARK SMILES IDX 31 36 32 37 33 38 83 39 34 40 88 41 82 42 84 43 35 44 87 45
REMARK SMILES IDX 81 46 80 47 36 49 68 50 48 51 67 52 49 53 52 54 66 55 85 56
REMARK SMILES IDX 50 57 51 58 65 60 86 61 53 62 37 63 38 64 46 65 39 66 40 67
REMARK SMILES IDX 44 68 47 69 41 70 42 71 45 72 43 73 69 74 70 75 78 76 71 77
REMARK SMILES IDX 72 78 76 79 79 80 73 81 74 82 77 83 75 84 54 85 55 86 63 87
REMARK SMILES IDX 56 88 57 89 61 90 64 91 58 92 59 93 62 94 60 95
REMARK H PARENT 13 21 13 22 13 23 84 48 52 59
REMARK Flexibility Score: inf
ROOT
ATOM      1  C   UNL A   1      38.290  21.476  25.380  1.00  0.00     0.188 C 
ENDROOT
BRANCH   1   2
ATOM      2  O   UNL A   1      37.080  21.956  25.930  1.00  0.00    -0.376 OA
BRANCH   2   3
ATOM      3  C   UNL A   1      35.861  21.748  25.226  1.00  0.00     0.202 C 
BRANCH   3   4
ATOM      4  C   UNL A   1      34.572  22.447  25.669  1.00  0.00     0.261 C 
BRANCH   4   5
ATOM      5  O   UNL A   1      33.378  21.915  25.062  1.00  0.00    -0.461 OA
BRANCH   5   6
ATOM      6  C   UNL A   1      32.886  22.611  23.999  1.00  0.00     0.347 C 
ATOM      7  O   UNL A   1      33.266  22.431  22.844  1.00  0.00    -0.248 OA
BRANCH   6   8
ATOM      8  C   UNL A   1      31.728  23.580  24.369  1.00  0.00     0.282 C 
BRANCH   8   9
ATOM      9  C   UNL A   1      30.895  22.845  25.450  1.00  0.00     0.054 C 
ATOM     10  C   UNL A   1      31.066  23.405  26.858  1.00  0.00     0.008 C 
ENDBRANCH   8   9
BRANCH   8  11
ATOM     11  O   UNL A   1      31.045  24.025  23.176  1.00  0.00    -0.477 OA
BRANCH  11  12
ATOM     12  C   UNL A   1      30.806  25.364  23.047  1.00  0.00     0.147 A 
ATOM     13  C   UNL A   1      29.661  25.874  23.656  1.00  0.00     0.050 A 
ATOM     14  C   UNL A   1      31.519  26.223  22.202  1.00  0.00     0.136 A 
ATOM     15  C   UNL A   1      29.332  27.220  23.534  1.00  0.00     0.027 A 
ATOM     16  N   UNL A   1      31.217  27.555  22.103  1.00  0.00    -0.248 NA
ATOM     17  C   UNL A   1      30.145  28.035  22.768  1.00  0.00     0.038 A 
ATOM     18  C   UNL A   1      29.793  29.474  22.551  1.00  0.00     0.067 C 
BRANCH  14  19
ATOM     19  C   UNL A   1      32.588  25.763  21.235  1.00  0.00     0.320 C 
BRANCH  19  20
ATOM     20  N   UNL A   1      32.089  25.586  19.866  1.00  0.00    -0.352 N 
ATOM     21  H   UNL A   1      31.623  24.682  19.788  1.00  0.00     0.344 HD
ATOM     22  H   UNL A   1      32.871  25.624  19.212  1.00  0.00     0.344 HD
ATOM     23  H   UNL A   1      31.426  26.330  19.646  1.00  0.00     0.344 HD
ENDBRANCH  19  20
ENDBRANCH  14  19
ENDBRANCH  11  12
ENDBRANCH   8  11
ENDBRANCH   6   8
ENDBRANCH   5   6
ENDBRANCH   4   5
ENDBRANCH   3   4
ENDBRANCH   2   3
ENDBRANCH   1   2
BRANCH   1  24
ATOM     24  C   UNL A   1      39.613  21.702  26.129  1.00  0.00     0.188 C 
BRANCH  24  25
ATOM     25  O   UNL A   1      40.622  20.725  26.110  1.00  0.00    -0.376 OA
BRANCH  25  26
ATOM     26  C   UNL A   1      41.956  21.022  26.480  1.00  0.00     0.202 C 
BRANCH  26  27
ATOM     27  C   UNL A   1      42.999  21.733  25.599  1.00  0.00     0.261 C 
BRANCH  27  28
ATOM     28  O   UNL A   1      42.606  22.927  24.925  1.00  0.00    -0.460 OA
BRANCH  28  29
ATOM     29  C   UNL A   1      43.438  23.979  25.083  1.00  0.00     0.338 C 
ATOM     30  O   UNL A   1      44.461  24.222  24.449  1.00  0.00    -0.246 OA
BRANCH  29  31
ATOM     31  C   UNL A   1      42.816  24.935  26.010  1.00  0.00     0.060 A 
ATOM     32  C   UNL A   1      43.377  26.216  26.124  1.00  0.00     0.016 A 
ATOM     33  C   UNL A   1      41.705  24.573  26.773  1.00  0.00     0.016 A 
ATOM     34  C   UNL A   1      42.839  27.134  27.022  1.00  0.00     0.010 A 
ATOM     35  C   UNL A   1      41.183  25.485  27.692  1.00  0.00     0.010 A 
ATOM     36  C   UNL A   1      41.765  26.758  27.840  1.00  0.00    -0.014 A 
BRANCH  36  37
ATOM     37  C   UNL A   1      41.373  27.620  28.978  1.00  0.00     0.031 A 
ATOM     38  C   UNL A   1      42.162  27.517  30.253  1.00  0.00     0.074 A 
ATOM     39  C   UNL A   1      40.347  28.480  28.881  1.00  0.00     0.049 A 
ATOM     40  N   UNL A   1      41.968  28.114  31.402  1.00  0.00    -0.248 NA
ATOM     41  C   UNL A   1      43.324  26.616  30.229  1.00  0.00     0.031 C 
ATOM     42  C   UNL A   1      39.539  28.703  27.685  1.00  0.00     0.029 A 
ATOM     43  N   UNL A   1      39.802  29.321  29.820  1.00  0.00    -0.354 N 
ATOM     44  C   UNL A   1      42.979  27.655  32.236  1.00  0.00     0.074 A 
ATOM     45  C   UNL A   1      43.768  26.713  31.473  1.00  0.00     0.031 C 
ATOM     46  C   UNL A   1      38.587  29.611  27.967  1.00  0.00     0.029 A 
ATOM     47  C   UNL A   1      38.700  30.005  29.371  1.00  0.00     0.049 A 
ATOM     48  H   UNL A   1      40.166  29.423  30.729  1.00  0.00     0.167 HD
ATOM     49  C   UNL A   1      43.227  27.993  33.523  1.00  0.00     0.037 A 
ATOM     50  C   UNL A   1      37.866  30.832  30.031  1.00  0.00     0.037 A 
ATOM     51  C   UNL A   1      42.437  28.927  34.281  1.00  0.00     0.049 A 
ATOM     52  C   UNL A   1      38.117  31.130  31.487  1.00  0.00     0.074 A 
ATOM     53  C   UNL A   1      42.618  29.348  35.587  1.00  0.00     0.029 A 
ATOM     54  N   UNL A   1      41.309  29.576  33.803  1.00  0.00    -0.354 N 
ATOM     55  N   UNL A   1      39.086  30.712  32.265  1.00  0.00    -0.248 NA
ATOM     56  C   UNL A   1      37.153  32.016  32.158  1.00  0.00     0.031 C 
ATOM     57  C   UNL A   1      41.568  30.212  35.915  1.00  0.00     0.029 A 
ATOM     58  C   UNL A   1      40.767  30.374  34.797  1.00  0.00     0.049 A 
ATOM     59  H   UNL A   1      40.948  29.484  32.892  1.00  0.00     0.167 HD
ATOM     60  C   UNL A   1      38.869  31.307  33.503  1.00  0.00     0.074 A 
ATOM     61  C   UNL A   1      37.680  32.124  33.370  1.00  0.00     0.031 C 
ATOM     62  C   UNL A   1      39.590  31.191  34.645  1.00  0.00     0.037 A 
BRANCH  49  63
ATOM     63  C   UNL A   1      44.384  27.323  34.201  1.00  0.00     0.064 A 
ATOM     64  C   UNL A   1      44.219  26.151  34.956  1.00  0.00     0.173 A 
ATOM     65  C   UNL A   1      45.679  27.846  34.075  1.00  0.00     0.173 A 
ATOM     66  F   UNL A   1      42.997  25.621  35.122  1.00  0.00    -0.203 F 
ATOM     67  C   UNL A   1      45.306  25.541  35.577  1.00  0.00     0.198 A 
ATOM     68  C   UNL A   1      46.768  27.217  34.673  1.00  0.00     0.198 A 
ATOM     69  F   UNL A   1      45.890  28.964  33.365  1.00  0.00    -0.203 F 
ATOM     70  F   UNL A   1      45.119  24.449  36.330  1.00  0.00    -0.200 F 
ATOM     71  C   UNL A   1      46.579  26.070  35.428  1.00  0.00     0.200 A 
ATOM     72  F   UNL A   1      47.998  27.724  34.520  1.00  0.00    -0.200 F 
ATOM     73  F   UNL A   1      47.626  25.478  36.022  1.00  0.00    -0.200 F 
ENDBRANCH  49  63
BRANCH  50  74
ATOM     74  C   UNL A   1      36.701  31.431  29.327  1.00  0.00     0.064 A 
ATOM     75  C   UNL A   1      35.612  30.642  28.933  1.00  0.00     0.173 A 
ATOM     76  C   UNL A   1      36.667  32.796  29.006  1.00  0.00     0.173 A 
ATOM     77  F   UNL A   1      35.612  29.325  29.191  1.00  0.00    -0.203 F 
ATOM     78  C   UNL A   1      34.542  31.190  28.229  1.00  0.00     0.198 A 
ATOM     79  C   UNL A   1      35.584  33.349  28.327  1.00  0.00     0.198 A 
ATOM     80  F   UNL A   1      37.687  33.593  29.354  1.00  0.00    -0.203 F 
ATOM     81  F   UNL A   1      33.538  30.403  27.821  1.00  0.00    -0.200 F 
ATOM     82  C   UNL A   1      34.526  32.544  27.932  1.00  0.00     0.200 A 
ATOM     83  F   UNL A   1      35.569  34.660  28.048  1.00  0.00    -0.200 F 
ATOM     84  F   UNL A   1      33.497  33.072  27.254  1.00  0.00    -0.200 F 
ENDBRANCH  50  74
BRANCH  62  85
ATOM     85  C   UNL A   1      39.144  31.996  35.833  1.00  0.00     0.064 A 
ATOM     86  C   UNL A   1      39.569  33.318  36.030  1.00  0.00     0.173 A 
ATOM     87  C   UNL A   1      38.242  31.451  36.759  1.00  0.00     0.173 A 
ATOM     88  F   UNL A   1      40.441  33.881  35.182  1.00  0.00    -0.203 F 
ATOM     89  C   UNL A   1      39.123  34.056  37.125  1.00  0.00     0.198 A 
ATOM     90  C   UNL A   1      37.775  32.201  37.834  1.00  0.00     0.198 A 
ATOM     91  F   UNL A   1      37.798  30.193  36.611  1.00  0.00    -0.203 F 
ATOM     92  F   UNL A   1      39.577  35.303  37.318  1.00  0.00    -0.200 F 
ATOM     93  C   UNL A   1      38.221  33.500  38.020  1.00  0.00     0.200 A 
ATOM     94  F   UNL A   1      36.891  31.667  38.689  1.00  0.00    -0.200 F 
ATOM     95  F   UNL A   1      37.787  34.215  39.067  1.00  0.00    -0.200 F 
ENDBRANCH  62  85
ENDBRANCH  36  37
ENDBRANCH  29  31
ENDBRANCH  28  29
ENDBRANCH  27  28
ENDBRANCH  26  27
ENDBRANCH  25  26
ENDBRANCH  24  25
ENDBRANCH   1  24
TORSDOF 22
ENDMDL
