MODEL 1
REMARK VINA RESULT:     -13.5      0.000      0.000
REMARK SMILES Cc1cc(C(=O)OCCOCCOCCOC(=O)c2ccc(-c3c4nc(c(-c5c(F)c(F)c(F)c(F)c5F)c5ccc([nH]5)c(-c5c(F)c(F)c(F)c(F)c5F)c5nc(c(-c6c(F)c(F)c(F)c(F)c6F)c6ccc3[nH]6)C=C5)C=C4)cc2)ccc1NS(=O)(=O)c1c(F)cccc1F
REMARK SMILES IDX 11 1 10 2 9 3 8 4 7 5 5 6 6 7 4 8 1 9 2 10 3 11 84 12 83 13
REMARK SMILES IDX 82 14 85 15 86 17 87 18 88 19 89 20 90 21 95 22 91 23 92 24
REMARK SMILES IDX 94 25 96 26 93 27 12 28 13 29 14 30 15 31 16 32 17 33 18 34
REMARK SMILES IDX 19 35 20 36 81 37 21 38 80 39 22 40 23 41 24 42 74 43 25 44
REMARK SMILES IDX 79 45 73 46 75 47 26 48 78 49 72 50 71 51 27 53 59 54 39 55
REMARK SMILES IDX 58 56 40 57 43 58 57 59 76 60 41 61 42 62 56 64 77 65 44 66
REMARK SMILES IDX 28 67 29 68 37 69 30 70 31 71 35 72 38 73 32 74 33 75 36 76
REMARK SMILES IDX 34 77 60 78 61 79 69 80 62 81 63 82 67 83 70 84 64 85 65 86
REMARK SMILES IDX 68 87 66 88 45 89 46 90 54 91 47 92 48 93 52 94 55 95 49 96
REMARK SMILES IDX 50 97 53 98 51 99
REMARK H PARENT 85 16 75 52 43 63
REMARK Flexibility Score: inf
ROOT
ATOM      1  C   UNL A   1      32.817  36.037  30.199  1.00  0.00     0.188 C 
ENDROOT
BRANCH   1   2
ATOM      2  O   UNL A   1      32.795  34.706  29.705  1.00  0.00    -0.376 OA
BRANCH   2   3
ATOM      3  C   UNL A   1      33.211  34.213  28.438  1.00  0.00     0.202 C 
BRANCH   3   4
ATOM      4  C   UNL A   1      33.366  32.606  27.908  1.00  0.00     0.261 C 
BRANCH   4   5
ATOM      5  O   UNL A   1      34.559  31.563  27.292  1.00  0.00    -0.460 OA
BRANCH   5   6
ATOM      6  C   UNL A   1      34.922  30.206  27.182  1.00  0.00     0.338 C 
ATOM      7  O   UNL A   1      36.004  29.647  27.305  1.00  0.00    -0.246 OA
BRANCH   6   8
ATOM      8  C   UNL A   1      33.992  29.068  27.232  1.00  0.00     0.060 A 
ATOM      9  C   UNL A   1      33.795  25.828  25.170  1.00  0.00     0.046 C 
ATOM     10  C   UNL A   1      33.424  26.900  26.165  1.00  0.00    -0.026 A 
ATOM     11  C   UNL A   1      34.342  27.906  26.479  1.00  0.00     0.021 A 
ATOM     12  C   UNL A   1      32.147  27.057  26.685  1.00  0.00     0.052 A 
ATOM     13  C   UNL A   1      31.704  28.334  27.050  1.00  0.00     0.028 A 
ATOM     14  C   UNL A   1      32.634  29.339  27.346  1.00  0.00     0.018 A 
BRANCH  12  15
ATOM     15  N   UNL A   1      31.369  25.890  26.951  1.00  0.00    -0.279 N 
ATOM     16  H   UNL A   1      31.487  25.394  27.792  1.00  0.00     0.180 HD
BRANCH  15  17
ATOM     17  S   UNL A   1      30.228  25.364  25.788  1.00  0.00     0.267 S 
ATOM     18  O   UNL A   1      29.029  25.091  26.550  1.00  0.00    -0.201 OA
ATOM     19  O   UNL A   1      30.227  26.374  24.750  1.00  0.00    -0.201 OA
BRANCH  17  20
ATOM     20  C   UNL A   1      30.792  23.864  25.051  1.00  0.00     0.158 A 
ATOM     21  C   UNL A   1      31.212  22.820  25.870  1.00  0.00     0.146 A 
ATOM     22  C   UNL A   1      30.999  23.767  23.680  1.00  0.00     0.146 A 
ATOM     23  F   UNL A   1      30.991  22.823  27.189  1.00  0.00    -0.205 F 
ATOM     24  C   UNL A   1      31.931  21.743  25.346  1.00  0.00     0.041 A 
ATOM     25  C   UNL A   1      31.730  22.696  23.146  1.00  0.00     0.041 A 
ATOM     26  F   UNL A   1      30.621  24.747  22.848  1.00  0.00    -0.205 F 
ATOM     27  C   UNL A   1      32.221  21.696  23.985  1.00  0.00     0.006 A 
ENDBRANCH  17  20
ENDBRANCH  15  17
ENDBRANCH  12  15
ENDBRANCH   6   8
ENDBRANCH   5   6
ENDBRANCH   4   5
ENDBRANCH   3   4
ENDBRANCH   2   3
ENDBRANCH   1   2
BRANCH   1  28
ATOM     28  C   UNL A   1      32.275  36.402  31.562  1.00  0.00     0.188 C 
BRANCH  28  29
ATOM     29  O   UNL A   1      32.990  35.702  32.562  1.00  0.00    -0.376 OA
BRANCH  29  30
ATOM     30  C   UNL A   1      34.310  36.190  32.761  1.00  0.00     0.202 C 
BRANCH  30  31
ATOM     31  C   UNL A   1      35.265  35.095  33.256  1.00  0.00     0.261 C 
BRANCH  31  32
ATOM     32  O   UNL A   1      35.722  34.316  32.130  1.00  0.00    -0.460 OA
BRANCH  32  33
ATOM     33  C   UNL A   1      35.041  33.156  31.894  1.00  0.00     0.338 C 
ATOM     34  O   UNL A   1      34.161  32.694  32.608  1.00  0.00    -0.246 OA
BRANCH  33  35
ATOM     35  C   UNL A   1      35.742  32.391  30.828  1.00  0.00     0.060 A 
ATOM     36  C   UNL A   1      36.021  31.033  30.900  1.00  0.00     0.016 A 
ATOM     37  C   UNL A   1      36.378  33.058  29.834  1.00  0.00     0.016 A 
ATOM     38  C   UNL A   1      37.162  30.468  30.215  1.00  0.00     0.010 A 
ATOM     39  C   UNL A   1      37.501  32.454  29.232  1.00  0.00     0.010 A 
ATOM     40  C   UNL A   1      38.125  31.212  29.510  1.00  0.00    -0.014 A 
BRANCH  40  41
ATOM     41  C   UNL A   1      39.724  30.643  29.282  1.00  0.00     0.031 A 
ATOM     42  C   UNL A   1      40.420  29.332  28.546  1.00  0.00     0.074 A 
ATOM     43  C   UNL A   1      40.740  31.349  29.839  1.00  0.00     0.049 A 
ATOM     44  N   UNL A   1      41.067  28.376  29.201  1.00  0.00    -0.248 NA
ATOM     45  C   UNL A   1      40.416  28.945  27.110  1.00  0.00     0.031 C 
ATOM     46  C   UNL A   1      42.176  31.060  29.778  1.00  0.00     0.029 A 
ATOM     47  N   UNL A   1      40.667  32.436  30.714  1.00  0.00    -0.354 N 
ATOM     48  C   UNL A   1      41.353  27.328  28.319  1.00  0.00     0.074 A 
ATOM     49  C   UNL A   1      40.778  27.668  27.068  1.00  0.00     0.031 C 
ATOM     50  C   UNL A   1      42.768  31.656  30.825  1.00  0.00     0.029 A 
ATOM     51  C   UNL A   1      41.722  32.278  31.617  1.00  0.00     0.049 A 
ATOM     52  H   UNL A   1      40.006  33.164  30.699  1.00  0.00     0.167 HD
ATOM     53  C   UNL A   1      42.250  26.323  28.524  1.00  0.00     0.037 A 
ATOM     54  C   UNL A   1      41.478  32.096  32.943  1.00  0.00     0.037 A 
ATOM     55  C   UNL A   1      43.135  26.705  29.583  1.00  0.00     0.049 A 
ATOM     56  C   UNL A   1      42.092  30.830  33.480  1.00  0.00     0.074 A 
ATOM     57  C   UNL A   1      44.253  27.521  29.529  1.00  0.00     0.029 A 
ATOM     58  N   UNL A   1      42.706  26.671  30.892  1.00  0.00    -0.354 N 
ATOM     59  N   UNL A   1      42.461  29.820  32.743  1.00  0.00    -0.248 NA
ATOM     60  C   UNL A   1      42.317  30.604  34.904  1.00  0.00     0.031 C 
ATOM     61  C   UNL A   1      44.439  28.069  30.815  1.00  0.00     0.029 A 
ATOM     62  C   UNL A   1      43.496  27.507  31.655  1.00  0.00     0.049 A 
ATOM     63  H   UNL A   1      41.953  26.133  31.229  1.00  0.00     0.167 HD
ATOM     64  C   UNL A   1      42.909  28.814  33.558  1.00  0.00     0.074 A 
ATOM     65  C   UNL A   1      42.835  29.365  34.895  1.00  0.00     0.031 C 
ATOM     66  C   UNL A   1      43.283  27.594  33.080  1.00  0.00     0.037 A 
BRANCH  53  67
ATOM     67  C   UNL A   1      42.551  25.294  27.451  1.00  0.00     0.064 A 
ATOM     68  C   UNL A   1      41.939  24.026  27.433  1.00  0.00     0.173 A 
ATOM     69  C   UNL A   1      43.521  25.513  26.447  1.00  0.00     0.173 A 
ATOM     70  F   UNL A   1      40.947  23.723  28.279  1.00  0.00    -0.203 F 
ATOM     71  C   UNL A   1      42.359  23.010  26.565  1.00  0.00     0.198 A 
ATOM     72  C   UNL A   1      43.959  24.488  25.599  1.00  0.00     0.198 A 
ATOM     73  F   UNL A   1      44.103  26.717  26.315  1.00  0.00    -0.203 F 
ATOM     74  F   UNL A   1      41.779  21.802  26.622  1.00  0.00    -0.200 F 
ATOM     75  C   UNL A   1      43.394  23.229  25.675  1.00  0.00     0.200 A 
ATOM     76  F   UNL A   1      44.967  24.712  24.740  1.00  0.00    -0.200 F 
ATOM     77  F   UNL A   1      43.849  22.230  24.904  1.00  0.00    -0.200 F 
ENDBRANCH  53  67
BRANCH  54  78
ATOM     78  C   UNL A   1      40.231  32.751  33.449  1.00  0.00     0.064 A 
ATOM     79  C   UNL A   1      39.033  31.999  33.445  1.00  0.00     0.173 A 
ATOM     80  C   UNL A   1      40.229  33.942  34.191  1.00  0.00     0.173 A 
ATOM     81  F   UNL A   1      38.972  30.838  32.773  1.00  0.00    -0.203 F 
ATOM     82  C   UNL A   1      37.933  32.361  34.221  1.00  0.00     0.198 A 
ATOM     83  C   UNL A   1      39.111  34.315  34.953  1.00  0.00     0.198 A 
ATOM     84  F   UNL A   1      41.334  34.693  34.274  1.00  0.00    -0.203 F 
ATOM     85  F   UNL A   1      36.873  31.543  34.301  1.00  0.00    -0.200 F 
ATOM     86  C   UNL A   1      37.976  33.514  34.983  1.00  0.00     0.200 A 
ATOM     87  F   UNL A   1      39.169  35.396  35.743  1.00  0.00    -0.200 F 
ATOM     88  F   UNL A   1      36.962  33.808  35.810  1.00  0.00    -0.200 F 
ENDBRANCH  54  78
BRANCH  66  89
ATOM     89  C   UNL A   1      43.535  26.360  33.902  1.00  0.00     0.064 A 
ATOM     90  C   UNL A   1      42.536  25.715  34.643  1.00  0.00     0.173 A 
ATOM     91  C   UNL A   1      44.774  25.678  33.803  1.00  0.00     0.173 A 
ATOM     92  F   UNL A   1      41.294  26.213  34.717  1.00  0.00    -0.203 F 
ATOM     93  C   UNL A   1      42.771  24.499  35.283  1.00  0.00     0.198 A 
ATOM     94  C   UNL A   1      44.982  24.433  34.388  1.00  0.00     0.198 A 
ATOM     95  F   UNL A   1      45.802  26.186  33.106  1.00  0.00    -0.203 F 
ATOM     96  F   UNL A   1      41.798  23.938  36.014  1.00  0.00    -0.200 F 
ATOM     97  C   UNL A   1      43.985  23.850  35.142  1.00  0.00     0.200 A 
ATOM     98  F   UNL A   1      46.143  23.791  34.195  1.00  0.00    -0.200 F 
ATOM     99  F   UNL A   1      44.184  22.655  35.714  1.00  0.00    -0.200 F 
ENDBRANCH  66  89
ENDBRANCH  40  41
ENDBRANCH  33  35
ENDBRANCH  32  33
ENDBRANCH  31  32
ENDBRANCH  30  31
ENDBRANCH  29  30
ENDBRANCH  28  29
ENDBRANCH   1  28
TORSDOF 20
ENDMDL
MODEL 2
REMARK VINA RESULT:     -13.5      1.692      2.471
REMARK SMILES Cc1cc(C(=O)OCCOCCOCCOC(=O)c2ccc(-c3c4nc(c(-c5c(F)c(F)c(F)c(F)c5F)c5ccc([nH]5)c(-c5c(F)c(F)c(F)c(F)c5F)c5nc(c(-c6c(F)c(F)c(F)c(F)c6F)c6ccc3[nH]6)C=C5)C=C4)cc2)ccc1NS(=O)(=O)c1c(F)cccc1F
REMARK SMILES IDX 11 1 10 2 9 3 8 4 7 5 5 6 6 7 4 8 1 9 2 10 3 11 84 12 83 13
REMARK SMILES IDX 82 14 85 15 86 17 87 18 88 19 89 20 90 21 95 22 91 23 92 24
REMARK SMILES IDX 94 25 96 26 93 27 12 28 13 29 14 30 15 31 16 32 17 33 18 34
REMARK SMILES IDX 19 35 20 36 81 37 21 38 80 39 22 40 23 41 24 42 74 43 25 44
REMARK SMILES IDX 79 45 73 46 75 47 26 48 78 49 72 50 71 51 27 53 59 54 39 55
REMARK SMILES IDX 58 56 40 57 43 58 57 59 76 60 41 61 42 62 56 64 77 65 44 66
REMARK SMILES IDX 28 67 29 68 37 69 30 70 31 71 35 72 38 73 32 74 33 75 36 76
REMARK SMILES IDX 34 77 60 78 61 79 69 80 62 81 63 82 67 83 70 84 64 85 65 86
REMARK SMILES IDX 68 87 66 88 45 89 46 90 54 91 47 92 48 93 52 94 55 95 49 96
REMARK SMILES IDX 50 97 53 98 51 99
REMARK H PARENT 85 16 75 52 43 63
REMARK Flexibility Score: inf
ROOT
ATOM      1  C   UNL A   1      32.743  36.234  30.771  1.00  0.00     0.188 C 
ENDROOT
BRANCH   1   2
ATOM      2  O   UNL A   1      32.711  35.015  30.043  1.00  0.00    -0.376 OA
BRANCH   2   3
ATOM      3  C   UNL A   1      33.457  34.638  28.893  1.00  0.00     0.202 C 
BRANCH   3   4
ATOM      4  C   UNL A   1      33.366  33.212  27.974  1.00  0.00     0.261 C 
BRANCH   4   5
ATOM      5  O   UNL A   1      34.364  31.920  27.500  1.00  0.00    -0.460 OA
BRANCH   5   6
ATOM      6  C   UNL A   1      34.480  30.516  27.526  1.00  0.00     0.338 C 
ATOM      7  O   UNL A   1      35.189  29.776  28.194  1.00  0.00    -0.246 OA
BRANCH   6   8
ATOM      8  C   UNL A   1      33.495  29.570  26.979  1.00  0.00     0.060 A 
ATOM      9  C   UNL A   1      33.910  26.264  25.060  1.00  0.00     0.046 C 
ATOM     10  C   UNL A   1      33.246  27.461  25.695  1.00  0.00    -0.026 A 
ATOM     11  C   UNL A   1      33.986  28.308  26.525  1.00  0.00     0.021 A 
ATOM     12  C   UNL A   1      31.962  27.884  25.380  1.00  0.00     0.052 A 
ATOM     13  C   UNL A   1      31.645  29.244  25.470  1.00  0.00     0.028 A 
ATOM     14  C   UNL A   1      32.404  30.088  26.291  1.00  0.00     0.018 A 
BRANCH  12  15
ATOM     15  N   UNL A   1      30.969  26.900  25.095  1.00  0.00    -0.279 N 
ATOM     16  H   UNL A   1      30.633  26.312  25.809  1.00  0.00     0.180 HD
BRANCH  15  17
ATOM     17  S   UNL A   1      30.370  26.754  23.499  1.00  0.00     0.267 S 
ATOM     18  O   UNL A   1      31.553  26.639  22.674  1.00  0.00    -0.201 OA
ATOM     19  O   UNL A   1      29.394  25.685  23.539  1.00  0.00    -0.201 OA
BRANCH  17  20
ATOM     20  C   UNL A   1      29.507  28.228  23.060  1.00  0.00     0.158 A 
ATOM     21  C   UNL A   1      28.126  28.283  23.224  1.00  0.00     0.146 A 
ATOM     22  C   UNL A   1      30.146  29.264  22.386  1.00  0.00     0.146 A 
ATOM     23  F   UNL A   1      27.459  27.351  23.912  1.00  0.00    -0.205 F 
ATOM     24  C   UNL A   1      27.374  29.297  22.627  1.00  0.00     0.041 A 
ATOM     25  C   UNL A   1      29.398  30.280  21.775  1.00  0.00     0.041 A 
ATOM     26  F   UNL A   1      31.472  29.256  22.195  1.00  0.00    -0.205 F 
ATOM     27  C   UNL A   1      28.006  30.281  21.873  1.00  0.00     0.006 A 
ENDBRANCH  17  20
ENDBRANCH  15  17
ENDBRANCH  12  15
ENDBRANCH   6   8
ENDBRANCH   5   6
ENDBRANCH   4   5
ENDBRANCH   3   4
ENDBRANCH   2   3
ENDBRANCH   1   2
BRANCH   1  28
ATOM     28  C   UNL A   1      32.163  36.361  32.162  1.00  0.00     0.188 C 
BRANCH  28  29
ATOM     29  O   UNL A   1      33.087  35.864  33.110  1.00  0.00    -0.376 OA
BRANCH  29  30
ATOM     30  C   UNL A   1      34.437  36.199  32.816  1.00  0.00     0.202 C 
BRANCH  30  31
ATOM     31  C   UNL A   1      35.425  35.155  33.356  1.00  0.00     0.261 C 
BRANCH  31  32
ATOM     32  O   UNL A   1      35.893  34.332  32.266  1.00  0.00    -0.460 OA
BRANCH  32  33
ATOM     33  C   UNL A   1      35.165  33.203  32.020  1.00  0.00     0.338 C 
ATOM     34  O   UNL A   1      34.235  32.797  32.705  1.00  0.00    -0.246 OA
BRANCH  33  35
ATOM     35  C   UNL A   1      35.869  32.386  30.995  1.00  0.00     0.060 A 
ATOM     36  C   UNL A   1      36.190  31.045  31.155  1.00  0.00     0.016 A 
ATOM     37  C   UNL A   1      36.466  33.001  29.945  1.00  0.00     0.016 A 
ATOM     38  C   UNL A   1      37.335  30.468  30.488  1.00  0.00     0.010 A 
ATOM     39  C   UNL A   1      37.597  32.390  29.365  1.00  0.00     0.010 A 
ATOM     40  C   UNL A   1      38.262  31.188  29.714  1.00  0.00    -0.014 A 
BRANCH  40  41
ATOM     41  C   UNL A   1      39.873  30.651  29.494  1.00  0.00     0.031 A 
ATOM     42  C   UNL A   1      40.599  29.355  28.758  1.00  0.00     0.074 A 
ATOM     43  C   UNL A   1      40.873  31.376  30.057  1.00  0.00     0.049 A 
ATOM     44  N   UNL A   1      41.260  28.411  29.415  1.00  0.00    -0.248 NA
ATOM     45  C   UNL A   1      40.609  28.971  27.321  1.00  0.00     0.031 C 
ATOM     46  C   UNL A   1      42.314  31.115  30.003  1.00  0.00     0.029 A 
ATOM     47  N   UNL A   1      40.773  32.459  30.934  1.00  0.00    -0.354 N 
ATOM     48  C   UNL A   1      41.572  27.371  28.533  1.00  0.00     0.074 A 
ATOM     49  C   UNL A   1      40.997  27.702  27.280  1.00  0.00     0.031 C 
ATOM     50  C   UNL A   1      42.888  31.721  31.054  1.00  0.00     0.029 A 
ATOM     51  C   UNL A   1      41.826  32.320  31.842  1.00  0.00     0.049 A 
ATOM     52  H   UNL A   1      40.099  33.175  30.917  1.00  0.00     0.167 HD
ATOM     53  C   UNL A   1      42.488  26.383  28.741  1.00  0.00     0.037 A 
ATOM     54  C   UNL A   1      41.579  32.131  33.166  1.00  0.00     0.037 A 
ATOM     55  C   UNL A   1      43.359  26.780  29.805  1.00  0.00     0.049 A 
ATOM     56  C   UNL A   1      42.215  30.877  33.704  1.00  0.00     0.074 A 
ATOM     57  C   UNL A   1      44.461  27.618  29.759  1.00  0.00     0.029 A 
ATOM     58  N   UNL A   1      42.924  26.735  31.111  1.00  0.00    -0.354 N 
ATOM     59  N   UNL A   1      42.607  29.875  32.967  1.00  0.00    -0.248 NA
ATOM     60  C   UNL A   1      42.437  30.651  35.129  1.00  0.00     0.031 C 
ATOM     61  C   UNL A   1      44.629  28.167  31.047  1.00  0.00     0.029 A 
ATOM     62  C   UNL A   1      43.693  27.584  31.881  1.00  0.00     0.049 A 
ATOM     63  H   UNL A   1      42.180  26.182  31.443  1.00  0.00     0.167 HD
ATOM     64  C   UNL A   1      43.071  28.876  33.783  1.00  0.00     0.074 A 
ATOM     65  C   UNL A   1      42.978  29.423  35.121  1.00  0.00     0.031 C 
ATOM     66  C   UNL A   1      43.471  27.665  33.305  1.00  0.00     0.037 A 
BRANCH  53  67
ATOM     67  C   UNL A   1      42.814  25.362  27.668  1.00  0.00     0.064 A 
ATOM     68  C   UNL A   1      43.814  25.582  26.700  1.00  0.00     0.173 A 
ATOM     69  C   UNL A   1      42.085  24.161  27.523  1.00  0.00     0.173 A 
ATOM     70  F   UNL A   1      44.629  26.641  26.774  1.00  0.00    -0.203 F 
ATOM     71  C   UNL A   1      43.981  24.734  25.598  1.00  0.00     0.198 A 
ATOM     72  C   UNL A   1      42.234  23.328  26.406  1.00  0.00     0.198 A 
ATOM     73  F   UNL A   1      41.169  23.806  28.441  1.00  0.00    -0.203 F 
ATOM     74  F   UNL A   1      44.913  25.015  24.676  1.00  0.00    -0.200 F 
ATOM     75  C   UNL A   1      43.167  23.630  25.431  1.00  0.00     0.200 A 
ATOM     76  F   UNL A   1      41.436  22.260  26.254  1.00  0.00    -0.200 F 
ATOM     77  F   UNL A   1      43.273  22.867  24.332  1.00  0.00    -0.200 F 
ENDBRANCH  53  67
BRANCH  54  78
ATOM     78  C   UNL A   1      40.317  32.760  33.666  1.00  0.00     0.064 A 
ATOM     79  C   UNL A   1      39.139  31.978  33.678  1.00  0.00     0.173 A 
ATOM     80  C   UNL A   1      40.285  33.962  34.391  1.00  0.00     0.173 A 
ATOM     81  F   UNL A   1      39.106  30.805  33.023  1.00  0.00    -0.203 F 
ATOM     82  C   UNL A   1      38.032  32.322  34.452  1.00  0.00     0.198 A 
ATOM     83  C   UNL A   1      39.161  34.316  35.152  1.00  0.00     0.198 A 
ATOM     84  F   UNL A   1      41.371  34.743  34.459  1.00  0.00    -0.203 F 
ATOM     85  F   UNL A   1      36.995  31.477  34.548  1.00  0.00    -0.200 F 
ATOM     86  C   UNL A   1      38.047  33.487  35.198  1.00  0.00     0.200 A 
ATOM     87  F   UNL A   1      39.193  35.411  35.926  1.00  0.00    -0.200 F 
ATOM     88  F   UNL A   1      37.028  33.766  36.023  1.00  0.00    -0.200 F 
ENDBRANCH  54  78
BRANCH  66  89
ATOM     89  C   UNL A   1      43.743  26.435  34.126  1.00  0.00     0.064 A 
ATOM     90  C   UNL A   1      42.737  25.712  34.781  1.00  0.00     0.173 A 
ATOM     91  C   UNL A   1      45.028  25.836  34.109  1.00  0.00     0.173 A 
ATOM     92  F   UNL A   1      41.462  26.127  34.768  1.00  0.00    -0.203 F 
ATOM     93  C   UNL A   1      43.004  24.502  35.419  1.00  0.00     0.198 A 
ATOM     94  C   UNL A   1      45.274  24.596  34.691  1.00  0.00     0.198 A 
ATOM     95  F   UNL A   1      46.069  26.423  33.499  1.00  0.00    -0.203 F 
ATOM     96  F   UNL A   1      42.019  23.865  36.067  1.00  0.00    -0.200 F 
ATOM     97  C   UNL A   1      44.265  23.935  35.360  1.00  0.00     0.200 A 
ATOM     98  F   UNL A   1      46.486  24.035  34.577  1.00  0.00    -0.200 F 
ATOM     99  F   UNL A   1      44.500  22.745  35.928  1.00  0.00    -0.200 F 
ENDBRANCH  66  89
ENDBRANCH  40  41
ENDBRANCH  33  35
ENDBRANCH  32  33
ENDBRANCH  31  32
ENDBRANCH  30  31
ENDBRANCH  29  30
ENDBRANCH  28  29
ENDBRANCH   1  28
TORSDOF 20
ENDMDL
MODEL 3
REMARK VINA RESULT:     -13.2      3.854     10.448
REMARK SMILES Cc1cc(C(=O)OCCOCCOCCOC(=O)c2ccc(-c3c4nc(c(-c5c(F)c(F)c(F)c(F)c5F)c5ccc([nH]5)c(-c5c(F)c(F)c(F)c(F)c5F)c5nc(c(-c6c(F)c(F)c(F)c(F)c6F)c6ccc3[nH]6)C=C5)C=C4)cc2)ccc1NS(=O)(=O)c1c(F)cccc1F
REMARK SMILES IDX 11 1 10 2 9 3 8 4 7 5 5 6 6 7 4 8 1 9 2 10 3 11 84 12 83 13
REMARK SMILES IDX 82 14 85 15 86 17 87 18 88 19 89 20 90 21 95 22 91 23 92 24
REMARK SMILES IDX 94 25 96 26 93 27 12 28 13 29 14 30 15 31 16 32 17 33 18 34
REMARK SMILES IDX 19 35 20 36 81 37 21 38 80 39 22 40 23 41 24 42 74 43 25 44
REMARK SMILES IDX 79 45 73 46 75 47 26 48 78 49 72 50 71 51 27 53 59 54 39 55
REMARK SMILES IDX 58 56 40 57 43 58 57 59 76 60 41 61 42 62 56 64 77 65 44 66
REMARK SMILES IDX 28 67 29 68 37 69 30 70 31 71 35 72 38 73 32 74 33 75 36 76
REMARK SMILES IDX 34 77 60 78 61 79 69 80 62 81 63 82 67 83 70 84 64 85 65 86
REMARK SMILES IDX 68 87 66 88 45 89 46 90 54 91 47 92 48 93 52 94 55 95 49 96
REMARK SMILES IDX 50 97 53 98 51 99
REMARK H PARENT 85 16 75 52 43 63
REMARK Flexibility Score: inf
ROOT
ATOM      1  C   UNL A   1      41.593  19.735  26.493  1.00  0.00     0.188 C 
ENDROOT
BRANCH   1   2
ATOM      2  O   UNL A   1      40.261  19.706  26.001  1.00  0.00    -0.376 OA
BRANCH   2   3
ATOM      3  C   UNL A   1      39.230  20.673  26.147  1.00  0.00     0.202 C 
BRANCH   3   4
ATOM      4  C   UNL A   1      38.157  21.285  24.979  1.00  0.00     0.261 C 
BRANCH   4   5
ATOM      5  O   UNL A   1      37.117  22.611  24.756  1.00  0.00    -0.460 OA
BRANCH   5   6
ATOM      6  C   UNL A   1      36.278  23.239  23.814  1.00  0.00     0.338 C 
ATOM      7  O   UNL A   1      36.146  23.068  22.610  1.00  0.00    -0.246 OA
BRANCH   6   8
ATOM      8  C   UNL A   1      35.084  24.035  24.135  1.00  0.00     0.060 A 
ATOM      9  C   UNL A   1      33.239  26.786  22.182  1.00  0.00     0.046 C 
ATOM     10  C   UNL A   1      33.610  25.853  23.308  1.00  0.00    -0.026 A 
ATOM     11  C   UNL A   1      34.517  24.814  23.080  1.00  0.00     0.021 A 
ATOM     12  C   UNL A   1      33.230  26.053  24.628  1.00  0.00     0.052 A 
ATOM     13  C   UNL A   1      34.059  25.595  25.659  1.00  0.00     0.028 A 
ATOM     14  C   UNL A   1      34.976  24.565  25.415  1.00  0.00     0.018 A 
BRANCH  12  15
ATOM     15  N   UNL A   1      31.942  26.608  24.892  1.00  0.00    -0.279 N 
ATOM     16  H   UNL A   1      31.789  27.575  24.802  1.00  0.00     0.180 HD
BRANCH  15  17
ATOM     17  S   UNL A   1      30.667  25.570  25.369  1.00  0.00     0.267 S 
ATOM     18  O   UNL A   1      30.644  25.660  26.814  1.00  0.00    -0.201 OA
ATOM     19  O   UNL A   1      29.516  25.973  24.588  1.00  0.00    -0.201 OA
BRANCH  17  20
ATOM     20  C   UNL A   1      31.055  23.914  24.905  1.00  0.00     0.158 A 
ATOM     21  C   UNL A   1      31.495  23.020  25.877  1.00  0.00     0.146 A 
ATOM     22  C   UNL A   1      31.108  23.533  23.568  1.00  0.00     0.146 A 
ATOM     23  F   UNL A   1      31.417  23.300  27.182  1.00  0.00    -0.205 F 
ATOM     24  C   UNL A   1      32.086  21.806  25.519  1.00  0.00     0.041 A 
ATOM     25  C   UNL A   1      31.710  22.322  23.199  1.00  0.00     0.041 A 
ATOM     26  F   UNL A   1      30.703  24.358  22.593  1.00  0.00    -0.205 F 
ATOM     27  C   UNL A   1      32.225  21.468  24.175  1.00  0.00     0.006 A 
ENDBRANCH  17  20
ENDBRANCH  15  17
ENDBRANCH  12  15
ENDBRANCH   6   8
ENDBRANCH   5   6
ENDBRANCH   4   5
ENDBRANCH   3   4
ENDBRANCH   2   3
ENDBRANCH   1   2
BRANCH   1  28
ATOM     28  C   UNL A   1      42.670  18.814  25.966  1.00  0.00     0.188 C 
BRANCH  28  29
ATOM     29  O   UNL A   1      43.188  19.331  24.756  1.00  0.00    -0.376 OA
BRANCH  29  30
ATOM     30  C   UNL A   1      44.598  19.508  24.772  1.00  0.00     0.202 C 
BRANCH  30  31
ATOM     31  C   UNL A   1      45.011  20.920  24.334  1.00  0.00     0.261 C 
BRANCH  31  32
ATOM     32  O   UNL A   1      43.879  21.808  24.458  1.00  0.00    -0.460 OA
BRANCH  32  33
ATOM     33  C   UNL A   1      44.169  23.142  24.468  1.00  0.00     0.338 C 
ATOM     34  O   UNL A   1      45.264  23.631  24.223  1.00  0.00    -0.246 OA
BRANCH  33  35
ATOM     35  C   UNL A   1      43.052  23.876  25.122  1.00  0.00     0.060 A 
ATOM     36  C   UNL A   1      42.819  25.236  24.970  1.00  0.00     0.016 A 
ATOM     37  C   UNL A   1      42.356  23.280  26.121  1.00  0.00     0.016 A 
ATOM     38  C   UNL A   1      42.180  26.005  26.012  1.00  0.00     0.010 A 
ATOM     39  C   UNL A   1      41.784  24.097  27.119  1.00  0.00     0.010 A 
ATOM     40  C   UNL A   1      41.824  25.504  27.278  1.00  0.00    -0.014 A 
BRANCH  40  41
ATOM     41  C   UNL A   1      41.685  26.519  28.650  1.00  0.00     0.031 A 
ATOM     42  C   UNL A   1      40.534  27.550  29.248  1.00  0.00     0.074 A 
ATOM     43  C   UNL A   1      42.741  26.598  29.498  1.00  0.00     0.049 A 
ATOM     44  N   UNL A   1      40.695  28.864  29.333  1.00  0.00    -0.248 NA
ATOM     45  C   UNL A   1      39.156  27.252  29.721  1.00  0.00     0.031 C 
ATOM     46  C   UNL A   1      42.852  27.390  30.726  1.00  0.00     0.029 A 
ATOM     47  N   UNL A   1      44.022  26.061  29.344  1.00  0.00    -0.354 N 
ATOM     48  C   UNL A   1      39.477  29.454  29.687  1.00  0.00     0.074 A 
ATOM     49  C   UNL A   1      38.515  28.415  29.755  1.00  0.00     0.031 C 
ATOM     50  C   UNL A   1      44.155  27.593  30.977  1.00  0.00     0.029 A 
ATOM     51  C   UNL A   1      44.903  27.001  29.883  1.00  0.00     0.049 A 
ATOM     52  H   UNL A   1      44.256  25.196  28.938  1.00  0.00     0.167 HD
ATOM     53  C   UNL A   1      39.301  30.720  30.162  1.00  0.00     0.037 A 
ATOM     54  C   UNL A   1      45.831  27.611  29.098  1.00  0.00     0.037 A 
ATOM     55  C   UNL A   1      40.563  31.220  30.617  1.00  0.00     0.049 A 
ATOM     56  C   UNL A   1      45.723  29.112  29.127  1.00  0.00     0.074 A 
ATOM     57  C   UNL A   1      41.204  30.993  31.823  1.00  0.00     0.029 A 
ATOM     58  N   UNL A   1      41.515  31.629  29.709  1.00  0.00    -0.354 N 
ATOM     59  N   UNL A   1      44.661  29.768  29.506  1.00  0.00    -0.248 NA
ATOM     60  C   UNL A   1      46.809  29.992  28.708  1.00  0.00     0.031 C 
ATOM     61  C   UNL A   1      42.586  31.171  31.608  1.00  0.00     0.029 A 
ATOM     62  C   UNL A   1      42.760  31.598  30.305  1.00  0.00     0.049 A 
ATOM     63  H   UNL A   1      41.335  31.900  28.780  1.00  0.00     0.167 HD
ATOM     64  C   UNL A   1      44.882  31.110  29.340  1.00  0.00     0.074 A 
ATOM     65  C   UNL A   1      46.250  31.200  28.875  1.00  0.00     0.031 C 
ATOM     66  C   UNL A   1      43.919  32.045  29.571  1.00  0.00     0.037 A 
BRANCH  53  67
ATOM     67  C   UNL A   1      37.940  31.220  30.610  1.00  0.00     0.064 A 
ATOM     68  C   UNL A   1      37.030  31.820  29.719  1.00  0.00     0.173 A 
ATOM     69  C   UNL A   1      37.532  31.184  31.962  1.00  0.00     0.173 A 
ATOM     70  F   UNL A   1      37.262  31.843  28.402  1.00  0.00    -0.203 F 
ATOM     71  C   UNL A   1      35.864  32.456  30.165  1.00  0.00     0.198 A 
ATOM     72  C   UNL A   1      36.380  31.844  32.409  1.00  0.00     0.198 A 
ATOM     73  F   UNL A   1      38.281  30.555  32.883  1.00  0.00    -0.203 F 
ATOM     74  F   UNL A   1      35.055  33.059  29.282  1.00  0.00    -0.200 F 
ATOM     75  C   UNL A   1      35.559  32.501  31.512  1.00  0.00     0.200 A 
ATOM     76  F   UNL A   1      36.095  31.883  33.721  1.00  0.00    -0.200 F 
ATOM     77  F   UNL A   1      34.486  33.182  31.943  1.00  0.00    -0.200 F 
ENDBRANCH  53  67
BRANCH  54  78
ATOM     78  C   UNL A   1      46.321  26.788  27.948  1.00  0.00     0.064 A 
ATOM     79  C   UNL A   1      45.820  27.078  26.657  1.00  0.00     0.173 A 
ATOM     80  C   UNL A   1      47.449  25.955  28.016  1.00  0.00     0.173 A 
ATOM     81  F   UNL A   1      44.755  27.886  26.517  1.00  0.00    -0.203 F 
ATOM     82  C   UNL A   1      46.468  26.650  25.500  1.00  0.00     0.198 A 
ATOM     83  C   UNL A   1      48.086  25.507  26.849  1.00  0.00     0.198 A 
ATOM     84  F   UNL A   1      48.005  25.661  29.197  1.00  0.00    -0.203 F 
ATOM     85  F   UNL A   1      46.041  27.070  24.300  1.00  0.00    -0.200 F 
ATOM     86  C   UNL A   1      47.608  25.872  25.596  1.00  0.00     0.200 A 
ATOM     87  F   UNL A   1      49.226  24.807  26.935  1.00  0.00    -0.200 F 
ATOM     88  F   UNL A   1      48.291  25.546  24.489  1.00  0.00    -0.200 F 
ENDBRANCH  54  78
BRANCH  66  89
ATOM     89  C   UNL A   1      43.980  33.495  29.175  1.00  0.00     0.064 A 
ATOM     90  C   UNL A   1      43.904  33.930  27.845  1.00  0.00     0.173 A 
ATOM     91  C   UNL A   1      43.923  34.508  30.165  1.00  0.00     0.173 A 
ATOM     92  F   UNL A   1      43.840  33.057  26.830  1.00  0.00    -0.203 F 
ATOM     93  C   UNL A   1      43.825  35.284  27.523  1.00  0.00     0.198 A 
ATOM     94  C   UNL A   1      43.779  35.853  29.839  1.00  0.00     0.198 A 
ATOM     95  F   UNL A   1      43.971  34.216  31.473  1.00  0.00    -0.203 F 
ATOM     96  F   UNL A   1      43.794  35.656  26.236  1.00  0.00    -0.200 F 
ATOM     97  C   UNL A   1      43.745  36.243  28.516  1.00  0.00     0.200 A 
ATOM     98  F   UNL A   1      43.646  36.764  30.814  1.00  0.00    -0.200 F 
ATOM     99  F   UNL A   1      43.615  37.538  28.199  1.00  0.00    -0.200 F 
ENDBRANCH  66  89
ENDBRANCH  40  41
ENDBRANCH  33  35
ENDBRANCH  32  33
ENDBRANCH  31  32
ENDBRANCH  30  31
ENDBRANCH  29  30
ENDBRANCH  28  29
ENDBRANCH   1  28
TORSDOF 20
ENDMDL
