MODEL 1
REMARK VINA RESULT:     -12.0      0.000      0.000
REMARK SMILES Cc1ccc(OCC(=O)NNC(=O)[C@H]2CCCC[C@@H]2C(=O)OCCOCCOCCOC(=O)c2ccc(-c3c4nc(c(-c5c(F)c(F)c(F)c(F)c5F)c5ccc([nH]5)c(-c5c(F)c(F)c(F)c(F)c5F)c5nc(c(-c6c(F)c(F)c(F)c(F)c6F)c6ccc3[nH]6)C=C5)C=C4)cc2)cc1
REMARK SMILES IDX 25 1 24 2 23 3 22 4 20 5 21 6 19 7 14 8 15 9 16 10 18 11
REMARK SMILES IDX 17 12 12 13 11 14 13 16 10 17 8 18 9 19 7 21 6 22 5 23 1 24
REMARK SMILES IDX 2 25 3 26 98 27 4 28 97 29 26 30 27 31 28 32 29 33 30 34
REMARK SMILES IDX 31 35 32 36 33 37 34 38 35 39 96 40 36 41 95 42 37 43 38 44
REMARK SMILES IDX 39 45 89 46 40 47 94 48 88 49 90 50 41 51 93 52 87 53 86 54
REMARK SMILES IDX 42 56 74 57 54 58 73 59 55 60 58 61 72 62 91 63 56 64 57 65
REMARK SMILES IDX 71 67 92 68 59 69 43 70 44 71 52 72 45 73 46 74 50 75 53 76
REMARK SMILES IDX 47 77 48 78 51 79 49 80 75 81 76 82 84 83 77 84 78 85 82 86
REMARK SMILES IDX 85 87 79 88 80 89 83 90 81 91 60 92 61 93 69 94 62 95 63 96
REMARK SMILES IDX 67 97 70 98 64 99 65 100 68 101 66 102
REMARK H PARENT 11 15 10 20 90 55 58 66
REMARK Flexibility Score: inf
ROOT
ATOM      1  O   UNL A   1      35.055  31.803  27.894  1.00  0.00    -0.376 OA
ENDROOT
BRANCH   1   2
ATOM      2  C   UNL A   1      35.022  30.414  27.630  1.00  0.00     0.202 C 
BRANCH   2   3
ATOM      3  C   UNL A   1      33.629  29.878  27.156  1.00  0.00     0.261 C 
BRANCH   3   4
ATOM      4  O   UNL A   1      33.385  28.411  27.077  1.00  0.00    -0.463 OA
BRANCH   4   5
ATOM      5  C   UNL A   1      32.161  27.829  27.135  1.00  0.00     0.309 C 
ATOM      6  O   UNL A   1      31.368  28.132  28.026  1.00  0.00    -0.252 OA
BRANCH   5   7
ATOM      7  C   UNL A   1      31.788  26.604  26.061  1.00  0.00     0.111 C 
ATOM      8  C   UNL A   1      30.466  25.796  25.577  1.00  0.00     0.094 C 
ATOM      9  C   UNL A   1      30.351  24.252  25.874  1.00  0.00     0.014 C 
ATOM     10  C   UNL A   1      31.610  23.517  26.275  1.00  0.00     0.001 C 
ATOM     11  C   UNL A   1      33.009  25.694  26.004  1.00  0.00     0.016 C 
ATOM     12  C   UNL A   1      32.843  24.327  26.636  1.00  0.00     0.001 C 
BRANCH   8  13
ATOM     13  C   UNL A   1      30.439  25.691  24.035  1.00  0.00     0.242 C 
ATOM     14  N   UNL A   1      30.515  26.830  23.263  1.00  0.00    -0.267 N 
ATOM     15  H   UNL A   1      29.755  27.040  22.673  1.00  0.00     0.191 HD
ATOM     16  O   UNL A   1      29.993  24.675  23.493  1.00  0.00    -0.273 OA
BRANCH  14  17
ATOM     17  N   UNL A   1      31.603  27.706  23.268  1.00  0.00    -0.265 N 
ATOM     18  C   UNL A   1      32.785  27.403  22.611  1.00  0.00     0.276 C 
ATOM     19  O   UNL A   1      33.732  28.192  22.637  1.00  0.00    -0.269 OA
ATOM     20  H   UNL A   1      31.528  28.561  23.750  1.00  0.00     0.191 HD
BRANCH  18  21
ATOM     21  C   UNL A   1      32.866  26.098  21.787  1.00  0.00     0.331 C 
BRANCH  21  22
ATOM     22  O   UNL A   1      34.026  25.296  21.943  1.00  0.00    -0.484 OA
BRANCH  22  23
ATOM     23  C   UNL A   1      33.891  24.105  22.607  1.00  0.00     0.120 A 
ATOM     24  C   UNL A   1      33.845  20.458  24.908  1.00  0.00     0.044 C 
ATOM     25  C   UNL A   1      33.866  21.714  24.089  1.00  0.00    -0.051 A 
ATOM     26  C   UNL A   1      34.939  22.603  24.201  1.00  0.00     0.007 A 
ATOM     27  C   UNL A   1      32.813  22.029  23.226  1.00  0.00     0.007 A 
ATOM     28  C   UNL A   1      34.946  23.790  23.466  1.00  0.00     0.047 A 
ATOM     29  C   UNL A   1      32.825  23.217  22.486  1.00  0.00     0.047 A 
ENDBRANCH  22  23
ENDBRANCH  21  22
ENDBRANCH  18  21
ENDBRANCH  14  17
ENDBRANCH   8  13
ENDBRANCH   5   7
ENDBRANCH   4   5
ENDBRANCH   3   4
ENDBRANCH   2   3
ENDBRANCH   1   2
BRANCH   1  30
ATOM     30  C   UNL A   1      33.809  32.488  28.025  1.00  0.00     0.188 C 
BRANCH  30  31
ATOM     31  C   UNL A   1      33.890  34.017  28.078  1.00  0.00     0.188 C 
BRANCH  31  32
ATOM     32  O   UNL A   1      32.737  34.547  28.707  1.00  0.00    -0.376 OA
BRANCH  32  33
ATOM     33  C   UNL A   1      32.885  35.837  29.275  1.00  0.00     0.202 C 
BRANCH  33  34
ATOM     34  C   UNL A   1      32.860  35.806  30.805  1.00  0.00     0.261 C 
BRANCH  34  35
ATOM     35  O   UNL A   1      34.119  35.280  31.281  1.00  0.00    -0.460 OA
BRANCH  35  36
ATOM     36  C   UNL A   1      34.141  34.901  32.590  1.00  0.00     0.338 C 
ATOM     37  O   UNL A   1      33.927  35.646  33.537  1.00  0.00    -0.246 OA
BRANCH  36  38
ATOM     38  C   UNL A   1      34.784  33.551  32.716  1.00  0.00     0.060 A 
ATOM     39  C   UNL A   1      35.705  33.287  33.722  1.00  0.00     0.016 A 
ATOM     40  C   UNL A   1      34.746  32.648  31.680  1.00  0.00     0.016 A 
ATOM     41  C   UNL A   1      36.717  32.288  33.545  1.00  0.00     0.010 A 
ATOM     42  C   UNL A   1      35.835  31.756  31.517  1.00  0.00     0.010 A 
ATOM     43  C   UNL A   1      36.940  31.579  32.347  1.00  0.00    -0.014 A 
BRANCH  43  44
ATOM     44  C   UNL A   1      38.366  30.994  31.869  1.00  0.00     0.031 A 
ATOM     45  C   UNL A   1      38.808  29.683  31.101  1.00  0.00     0.074 A 
ATOM     46  C   UNL A   1      39.429  31.822  31.976  1.00  0.00     0.049 A 
ATOM     47  N   UNL A   1      39.609  29.502  30.068  1.00  0.00    -0.248 NA
ATOM     48  C   UNL A   1      38.438  28.374  31.597  1.00  0.00     0.031 C 
ATOM     49  C   UNL A   1      40.771  31.679  31.419  1.00  0.00     0.029 A 
ATOM     50  N   UNL A   1      39.556  32.925  32.818  1.00  0.00    -0.354 N 
ATOM     51  C   UNL A   1      39.667  28.134  29.721  1.00  0.00     0.074 A 
ATOM     52  C   UNL A   1      38.763  27.487  30.653  1.00  0.00     0.031 C 
ATOM     53  C   UNL A   1      41.626  32.359  32.193  1.00  0.00     0.029 A 
ATOM     54  C   UNL A   1      40.871  32.896  33.305  1.00  0.00     0.049 A 
ATOM     55  H   UNL A   1      38.862  33.590  33.028  1.00  0.00     0.167 HD
ATOM     56  C   UNL A   1      40.811  27.430  29.435  1.00  0.00     0.037 A 
ATOM     57  C   UNL A   1      41.046  32.625  34.629  1.00  0.00     0.037 A 
ATOM     58  C   UNL A   1      41.912  27.843  30.280  1.00  0.00     0.049 A 
ATOM     59  C   UNL A   1      41.663  31.262  34.871  1.00  0.00     0.074 A 
ATOM     60  C   UNL A   1      43.030  28.631  30.115  1.00  0.00     0.029 A 
ATOM     61  N   UNL A   1      41.844  27.534  31.630  1.00  0.00    -0.354 N 
ATOM     62  N   UNL A   1      41.949  30.394  33.937  1.00  0.00    -0.248 NA
ATOM     63  C   UNL A   1      41.936  30.744  36.210  1.00  0.00     0.031 C 
ATOM     64  C   UNL A   1      43.554  28.906  31.413  1.00  0.00     0.029 A 
ATOM     65  C   UNL A   1      42.787  28.235  32.351  1.00  0.00     0.049 A 
ATOM     66  H   UNL A   1      41.205  26.897  32.023  1.00  0.00     0.167 HD
ATOM     67  C   UNL A   1      42.412  29.244  34.513  1.00  0.00     0.074 A 
ATOM     68  C   UNL A   1      42.358  29.499  35.941  1.00  0.00     0.031 C 
ATOM     69  C   UNL A   1      42.803  28.151  33.800  1.00  0.00     0.037 A 
BRANCH  56  70
ATOM     70  C   UNL A   1      40.837  26.168  28.559  1.00  0.00     0.064 A 
ATOM     71  C   UNL A   1      41.951  25.298  28.588  1.00  0.00     0.173 A 
ATOM     72  C   UNL A   1      39.844  25.813  27.616  1.00  0.00     0.173 A 
ATOM     73  F   UNL A   1      42.984  25.530  29.412  1.00  0.00    -0.203 F 
ATOM     74  C   UNL A   1      42.067  24.178  27.746  1.00  0.00     0.198 A 
ATOM     75  C   UNL A   1      39.951  24.678  26.790  1.00  0.00     0.198 A 
ATOM     76  F   UNL A   1      38.741  26.559  27.456  1.00  0.00    -0.203 F 
ATOM     77  F   UNL A   1      43.168  23.414  27.795  1.00  0.00    -0.200 F 
ATOM     78  C   UNL A   1      41.066  23.866  26.849  1.00  0.00     0.200 A 
ATOM     79  F   UNL A   1      38.966  24.381  25.928  1.00  0.00    -0.200 F 
ATOM     80  F   UNL A   1      41.181  22.803  26.038  1.00  0.00    -0.200 F 
ENDBRANCH  56  70
BRANCH  57  81
ATOM     81  C   UNL A   1      40.018  33.316  35.477  1.00  0.00     0.064 A 
ATOM     82  C   UNL A   1      39.033  32.503  36.093  1.00  0.00     0.173 A 
ATOM     83  C   UNL A   1      40.175  34.611  35.986  1.00  0.00     0.173 A 
ATOM     84  F   UNL A   1      38.839  31.244  35.663  1.00  0.00    -0.203 F 
ATOM     85  C   UNL A   1      38.369  32.903  37.249  1.00  0.00     0.198 A 
ATOM     86  C   UNL A   1      39.459  35.031  37.114  1.00  0.00     0.198 A 
ATOM     87  F   UNL A   1      41.107  35.434  35.486  1.00  0.00    -0.203 F 
ATOM     88  F   UNL A   1      37.599  32.027  37.911  1.00  0.00    -0.200 F 
ATOM     89  C   UNL A   1      38.594  34.164  37.770  1.00  0.00     0.200 A 
ATOM     90  F   UNL A   1      39.697  36.245  37.629  1.00  0.00    -0.200 F 
ATOM     91  F   UNL A   1      38.039  34.510  38.940  1.00  0.00    -0.200 F 
ENDBRANCH  57  81
BRANCH  69  92
ATOM     92  C   UNL A   1      43.314  26.918  34.470  1.00  0.00     0.064 A 
ATOM     93  C   UNL A   1      44.688  26.651  34.565  1.00  0.00     0.173 A 
ATOM     94  C   UNL A   1      42.439  25.918  34.929  1.00  0.00     0.173 A 
ATOM     95  F   UNL A   1      45.586  27.545  34.124  1.00  0.00    -0.203 F 
ATOM     96  C   UNL A   1      45.162  25.459  35.109  1.00  0.00     0.198 A 
ATOM     97  C   UNL A   1      42.913  24.706  35.430  1.00  0.00     0.198 A 
ATOM     98  F   UNL A   1      41.109  26.108  34.910  1.00  0.00    -0.203 F 
ATOM     99  F   UNL A   1      46.482  25.258  35.221  1.00  0.00    -0.200 F 
ATOM    100  C   UNL A   1      44.275  24.481  35.525  1.00  0.00     0.200 A 
ATOM    101  F   UNL A   1      42.046  23.762  35.820  1.00  0.00    -0.200 F 
ATOM    102  F   UNL A   1      44.733  23.323  36.021  1.00  0.00    -0.200 F 
ENDBRANCH  69  92
ENDBRANCH  43  44
ENDBRANCH  36  38
ENDBRANCH  35  36
ENDBRANCH  34  35
ENDBRANCH  33  34
ENDBRANCH  32  33
ENDBRANCH  31  32
ENDBRANCH  30  31
ENDBRANCH   1  30
TORSDOF 22
ENDMDL
MODEL 2
REMARK VINA RESULT:     -11.8      1.624      2.716
REMARK SMILES Cc1ccc(OCC(=O)NNC(=O)[C@H]2CCCC[C@@H]2C(=O)OCCOCCOCCOC(=O)c2ccc(-c3c4nc(c(-c5c(F)c(F)c(F)c(F)c5F)c5ccc([nH]5)c(-c5c(F)c(F)c(F)c(F)c5F)c5nc(c(-c6c(F)c(F)c(F)c(F)c6F)c6ccc3[nH]6)C=C5)C=C4)cc2)cc1
REMARK SMILES IDX 25 1 24 2 23 3 22 4 20 5 21 6 19 7 14 8 15 9 16 10 18 11
REMARK SMILES IDX 17 12 12 13 11 14 13 16 10 17 8 18 9 19 7 21 6 22 5 23 1 24
REMARK SMILES IDX 2 25 3 26 98 27 4 28 97 29 26 30 27 31 28 32 29 33 30 34
REMARK SMILES IDX 31 35 32 36 33 37 34 38 35 39 96 40 36 41 95 42 37 43 38 44
REMARK SMILES IDX 39 45 89 46 40 47 94 48 88 49 90 50 41 51 93 52 87 53 86 54
REMARK SMILES IDX 42 56 74 57 54 58 73 59 55 60 58 61 72 62 91 63 56 64 57 65
REMARK SMILES IDX 71 67 92 68 59 69 43 70 44 71 52 72 45 73 46 74 50 75 53 76
REMARK SMILES IDX 47 77 48 78 51 79 49 80 75 81 76 82 84 83 77 84 78 85 82 86
REMARK SMILES IDX 85 87 79 88 80 89 83 90 81 91 60 92 61 93 69 94 62 95 63 96
REMARK SMILES IDX 67 97 70 98 64 99 65 100 68 101 66 102
REMARK H PARENT 11 15 10 20 90 55 58 66
REMARK Flexibility Score: inf
ROOT
ATOM      1  O   UNL A   1      35.776  31.040  27.962  1.00  0.00    -0.376 OA
ENDROOT
BRANCH   1   2
ATOM      2  C   UNL A   1      35.460  29.671  28.127  1.00  0.00     0.202 C 
BRANCH   2   3
ATOM      3  C   UNL A   1      34.434  29.112  27.084  1.00  0.00     0.261 C 
BRANCH   3   4
ATOM      4  O   UNL A   1      32.972  29.261  27.327  1.00  0.00    -0.463 OA
BRANCH   4   5
ATOM      5  C   UNL A   1      32.048  28.303  27.070  1.00  0.00     0.309 C 
ATOM      6  O   UNL A   1      31.369  27.830  27.983  1.00  0.00    -0.252 OA
BRANCH   5   7
ATOM      7  C   UNL A   1      31.926  27.677  25.525  1.00  0.00     0.111 C 
ATOM      8  C   UNL A   1      32.476  26.386  24.708  1.00  0.00     0.094 C 
ATOM      9  C   UNL A   1      33.464  26.599  23.499  1.00  0.00     0.014 C 
ATOM     10  C   UNL A   1      33.584  27.993  22.925  1.00  0.00     0.001 C 
ATOM     11  C   UNL A   1      31.785  28.869  24.587  1.00  0.00     0.016 C 
ATOM     12  C   UNL A   1      32.976  29.152  23.695  1.00  0.00     0.001 C 
BRANCH   8  13
ATOM     13  C   UNL A   1      31.328  25.739  23.899  1.00  0.00     0.242 C 
ATOM     14  N   UNL A   1      30.852  24.495  24.248  1.00  0.00    -0.267 N 
ATOM     15  H   UNL A   1      30.934  23.766  23.591  1.00  0.00     0.191 HD
ATOM     16  O   UNL A   1      31.082  26.133  22.755  1.00  0.00    -0.273 OA
BRANCH  14  17
ATOM     17  N   UNL A   1      30.259  24.202  25.479  1.00  0.00    -0.265 N 
ATOM     18  C   UNL A   1      30.941  23.517  26.472  1.00  0.00     0.276 C 
ATOM     19  O   UNL A   1      30.390  23.266  27.546  1.00  0.00    -0.269 OA
ATOM     20  H   UNL A   1      29.333  24.492  25.646  1.00  0.00     0.191 HD
BRANCH  18  21
ATOM     21  C   UNL A   1      32.421  23.139  26.235  1.00  0.00     0.331 C 
BRANCH  21  22
ATOM     22  O   UNL A   1      32.788  21.782  26.420  1.00  0.00    -0.484 OA
BRANCH  22  23
ATOM     23  C   UNL A   1      32.674  20.939  25.346  1.00  0.00     0.120 A 
ATOM     24  C   UNL A   1      32.368  17.950  22.253  1.00  0.00     0.044 C 
ATOM     25  C   UNL A   1      32.495  18.995  23.320  1.00  0.00    -0.051 A 
ATOM     26  C   UNL A   1      32.770  18.618  24.638  1.00  0.00     0.007 A 
ATOM     27  C   UNL A   1      32.317  20.351  23.027  1.00  0.00     0.007 A 
ATOM     28  C   UNL A   1      32.855  19.586  25.641  1.00  0.00     0.047 A 
ATOM     29  C   UNL A   1      32.408  21.318  24.033  1.00  0.00     0.047 A 
ENDBRANCH  22  23
ENDBRANCH  21  22
ENDBRANCH  18  21
ENDBRANCH  14  17
ENDBRANCH   8  13
ENDBRANCH   5   7
ENDBRANCH   4   5
ENDBRANCH   3   4
ENDBRANCH   2   3
ENDBRANCH   1   2
BRANCH   1  30
ATOM     30  C   UNL A   1      34.694  31.963  27.829  1.00  0.00     0.188 C 
BRANCH  30  31
ATOM     31  C   UNL A   1      35.018  33.422  28.168  1.00  0.00     0.188 C 
BRANCH  31  32
ATOM     32  O   UNL A   1      33.952  34.003  28.898  1.00  0.00    -0.376 OA
BRANCH  32  33
ATOM     33  C   UNL A   1      33.915  35.420  28.908  1.00  0.00     0.202 C 
BRANCH  33  34
ATOM     34  C   UNL A   1      32.909  35.969  29.923  1.00  0.00     0.261 C 
BRANCH  34  35
ATOM     35  O   UNL A   1      33.556  36.072  31.211  1.00  0.00    -0.460 OA
BRANCH  35  36
ATOM     36  C   UNL A   1      33.177  35.145  32.136  1.00  0.00     0.338 C 
ATOM     37  O   UNL A   1      32.034  34.994  32.546  1.00  0.00    -0.246 OA
BRANCH  36  38
ATOM     38  C   UNL A   1      34.391  34.579  32.811  1.00  0.00     0.060 A 
ATOM     39  C   UNL A   1      35.558  35.324  32.928  1.00  0.00     0.016 A 
ATOM     40  C   UNL A   1      34.512  33.229  33.038  1.00  0.00     0.016 A 
ATOM     41  C   UNL A   1      36.834  34.678  33.020  1.00  0.00     0.010 A 
ATOM     42  C   UNL A   1      35.805  32.649  33.016  1.00  0.00     0.010 A 
ATOM     43  C   UNL A   1      37.038  33.287  32.895  1.00  0.00    -0.014 A 
BRANCH  43  44
ATOM     44  C   UNL A   1      38.382  32.596  32.333  1.00  0.00     0.031 A 
ATOM     45  C   UNL A   1      38.663  31.322  31.436  1.00  0.00     0.074 A 
ATOM     46  C   UNL A   1      39.534  33.286  32.492  1.00  0.00     0.049 A 
ATOM     47  N   UNL A   1      39.426  31.152  30.373  1.00  0.00    -0.248 NA
ATOM     48  C   UNL A   1      38.153  30.021  31.817  1.00  0.00     0.031 C 
ATOM     49  C   UNL A   1      40.844  33.047  31.893  1.00  0.00     0.029 A 
ATOM     50  N   UNL A   1      39.795  34.282  33.429  1.00  0.00    -0.354 N 
ATOM     51  C   UNL A   1      39.323  29.825  29.899  1.00  0.00     0.074 A 
ATOM     52  C   UNL A   1      38.364  29.198  30.788  1.00  0.00     0.031 C 
ATOM     53  C   UNL A   1      41.780  33.551  32.707  1.00  0.00     0.029 A 
ATOM     54  C   UNL A   1      41.104  34.061  33.881  1.00  0.00     0.049 A 
ATOM     55  H   UNL A   1      39.183  34.998  33.717  1.00  0.00     0.167 HD
ATOM     56  C   UNL A   1      40.377  29.027  29.523  1.00  0.00     0.037 A 
ATOM     57  C   UNL A   1      41.263  33.647  35.169  1.00  0.00     0.037 A 
ATOM     58  C   UNL A   1      41.528  29.233  30.377  1.00  0.00     0.049 A 
ATOM     59  C   UNL A   1      41.725  32.208  35.270  1.00  0.00     0.074 A 
ATOM     60  C   UNL A   1      42.726  29.904  30.260  1.00  0.00     0.029 A 
ATOM     61  N   UNL A   1      41.442  28.807  31.694  1.00  0.00    -0.354 N 
ATOM     62  N   UNL A   1      41.899  31.405  34.253  1.00  0.00    -0.248 NA
ATOM     63  C   UNL A   1      41.954  31.538  36.549  1.00  0.00     0.031 C 
ATOM     64  C   UNL A   1      43.293  29.994  31.565  1.00  0.00     0.029 A 
ATOM     65  C   UNL A   1      42.467  29.327  32.454  1.00  0.00     0.049 A 
ATOM     66  H   UNL A   1      40.740  28.211  32.040  1.00  0.00     0.167 HD
ATOM     67  C   UNL A   1      42.236  30.162  34.709  1.00  0.00     0.074 A 
ATOM     68  C   UNL A   1      42.229  30.284  36.155  1.00  0.00     0.031 C 
ATOM     69  C   UNL A   1      42.492  29.104  33.889  1.00  0.00     0.037 A 
BRANCH  56  70
ATOM     70  C   UNL A   1      40.248  27.860  28.533  1.00  0.00     0.064 A 
ATOM     71  C   UNL A   1      39.546  26.686  28.895  1.00  0.00     0.173 A 
ATOM     72  C   UNL A   1      40.863  27.802  27.260  1.00  0.00     0.173 A 
ATOM     73  F   UNL A   1      38.941  26.588  30.088  1.00  0.00    -0.203 F 
ATOM     74  C   UNL A   1      39.471  25.555  28.064  1.00  0.00     0.198 A 
ATOM     75  C   UNL A   1      40.766  26.677  26.419  1.00  0.00     0.198 A 
ATOM     76  F   UNL A   1      41.586  28.830  26.791  1.00  0.00    -0.203 F 
ATOM     77  F   UNL A   1      38.822  24.459  28.483  1.00  0.00    -0.200 F 
ATOM     78  C   UNL A   1      40.078  25.550  26.825  1.00  0.00     0.200 A 
ATOM     79  F   UNL A   1      41.355  26.689  25.213  1.00  0.00    -0.200 F 
ATOM     80  F   UNL A   1      40.015  24.467  26.036  1.00  0.00    -0.200 F 
ENDBRANCH  56  70
BRANCH  57  81
ATOM     81  C   UNL A   1      40.331  34.366  36.102  1.00  0.00     0.064 A 
ATOM     82  C   UNL A   1      39.208  33.643  36.578  1.00  0.00     0.173 A 
ATOM     83  C   UNL A   1      40.676  35.528  36.802  1.00  0.00     0.173 A 
ATOM     84  F   UNL A   1      38.829  32.510  35.961  1.00  0.00    -0.203 F 
ATOM     85  C   UNL A   1      38.577  33.972  37.774  1.00  0.00     0.198 A 
ATOM     86  C   UNL A   1      39.998  35.889  37.973  1.00  0.00     0.198 A 
ATOM     87  F   UNL A   1      41.746  36.251  36.441  1.00  0.00    -0.203 F 
ATOM     88  F   UNL A   1      37.654  33.146  38.289  1.00  0.00    -0.200 F 
ATOM     89  C   UNL A   1      38.984  35.088  38.482  1.00  0.00     0.200 A 
ATOM     90  F   UNL A   1      40.411  36.958  38.668  1.00  0.00    -0.200 F 
ATOM     91  F   UNL A   1      38.451  35.345  39.685  1.00  0.00    -0.200 F 
ENDBRANCH  57  81
BRANCH  69  92
ATOM     92  C   UNL A   1      42.868  27.764  34.429  1.00  0.00     0.064 A 
ATOM     93  C   UNL A   1      41.904  26.774  34.671  1.00  0.00     0.173 A 
ATOM     94  C   UNL A   1      44.186  27.479  34.828  1.00  0.00     0.173 A 
ATOM     95  F   UNL A   1      40.620  26.982  34.343  1.00  0.00    -0.203 F 
ATOM     96  C   UNL A   1      42.242  25.557  35.259  1.00  0.00     0.198 A 
ATOM     97  C   UNL A   1      44.515  26.279  35.458  1.00  0.00     0.198 A 
ATOM     98  F   UNL A   1      45.178  28.356  34.598  1.00  0.00    -0.203 F 
ATOM     99  F   UNL A   1      41.301  24.620  35.435  1.00  0.00    -0.200 F 
ATOM    100  C   UNL A   1      43.543  25.317  35.668  1.00  0.00     0.200 A 
ATOM    101  F   UNL A   1      45.775  26.062  35.860  1.00  0.00    -0.200 F 
ATOM    102  F   UNL A   1      43.861  24.157  36.260  1.00  0.00    -0.200 F 
ENDBRANCH  69  92
ENDBRANCH  43  44
ENDBRANCH  36  38
ENDBRANCH  35  36
ENDBRANCH  34  35
ENDBRANCH  33  34
ENDBRANCH  32  33
ENDBRANCH  31  32
ENDBRANCH  30  31
ENDBRANCH   1  30
TORSDOF 22
ENDMDL
MODEL 3
REMARK VINA RESULT:     -11.7      1.799      2.773
REMARK SMILES Cc1ccc(OCC(=O)NNC(=O)[C@H]2CCCC[C@@H]2C(=O)OCCOCCOCCOC(=O)c2ccc(-c3c4nc(c(-c5c(F)c(F)c(F)c(F)c5F)c5ccc([nH]5)c(-c5c(F)c(F)c(F)c(F)c5F)c5nc(c(-c6c(F)c(F)c(F)c(F)c6F)c6ccc3[nH]6)C=C5)C=C4)cc2)cc1
REMARK SMILES IDX 25 1 24 2 23 3 22 4 20 5 21 6 19 7 14 8 15 9 16 10 18 11
REMARK SMILES IDX 17 12 12 13 11 14 13 16 10 17 8 18 9 19 7 21 6 22 5 23 1 24
REMARK SMILES IDX 2 25 3 26 98 27 4 28 97 29 26 30 27 31 28 32 29 33 30 34
REMARK SMILES IDX 31 35 32 36 33 37 34 38 35 39 96 40 36 41 95 42 37 43 38 44
REMARK SMILES IDX 39 45 89 46 40 47 94 48 88 49 90 50 41 51 93 52 87 53 86 54
REMARK SMILES IDX 42 56 74 57 54 58 73 59 55 60 58 61 72 62 91 63 56 64 57 65
REMARK SMILES IDX 71 67 92 68 59 69 43 70 44 71 52 72 45 73 46 74 50 75 53 76
REMARK SMILES IDX 47 77 48 78 51 79 49 80 75 81 76 82 84 83 77 84 78 85 82 86
REMARK SMILES IDX 85 87 79 88 80 89 83 90 81 91 60 92 61 93 69 94 62 95 63 96
REMARK SMILES IDX 67 97 70 98 64 99 65 100 68 101 66 102
REMARK H PARENT 11 15 10 20 90 55 58 66
REMARK Flexibility Score: inf
ROOT
ATOM      1  O   UNL A   1      33.806  33.179  28.399  1.00  0.00    -0.376 OA
ENDROOT
BRANCH   1   2
ATOM      2  C   UNL A   1      34.823  32.211  28.227  1.00  0.00     0.202 C 
BRANCH   2   3
ATOM      3  C   UNL A   1      34.360  30.908  27.491  1.00  0.00     0.261 C 
BRANCH   3   4
ATOM      4  O   UNL A   1      32.939  30.473  27.576  1.00  0.00    -0.463 OA
BRANCH   4   5
ATOM      5  C   UNL A   1      32.081  30.431  26.527  1.00  0.00     0.309 C 
ATOM      6  O   UNL A   1      31.389  31.410  26.247  1.00  0.00    -0.252 OA
BRANCH   5   7
ATOM      7  C   UNL A   1      31.879  28.997  25.693  1.00  0.00     0.111 C 
ATOM      8  C   UNL A   1      31.642  27.430  26.045  1.00  0.00     0.094 C 
ATOM      9  C   UNL A   1      32.746  26.374  25.656  1.00  0.00     0.014 C 
ATOM     10  C   UNL A   1      33.809  26.798  24.666  1.00  0.00     0.001 C 
ATOM     11  C   UNL A   1      32.682  29.129  24.405  1.00  0.00     0.016 C 
ATOM     12  C   UNL A   1      33.927  28.270  24.312  1.00  0.00     0.001 C 
BRANCH   8  13
ATOM     13  C   UNL A   1      30.512  26.850  25.164  1.00  0.00     0.242 C 
ATOM     14  N   UNL A   1      30.242  25.499  25.185  1.00  0.00    -0.267 N 
ATOM     15  H   UNL A   1      30.351  24.992  24.348  1.00  0.00     0.191 HD
ATOM     16  O   UNL A   1      30.099  27.489  24.191  1.00  0.00    -0.273 OA
BRANCH  14  17
ATOM     17  N   UNL A   1      29.824  24.805  26.322  1.00  0.00    -0.265 N 
ATOM     18  C   UNL A   1      30.350  23.567  26.655  1.00  0.00     0.276 C 
ATOM     19  O   UNL A   1      29.957  22.973  27.662  1.00  0.00    -0.269 OA
ATOM     20  H   UNL A   1      29.137  25.205  26.903  1.00  0.00     0.191 HD
BRANCH  18  21
ATOM     21  C   UNL A   1      31.487  22.983  25.787  1.00  0.00     0.331 C 
BRANCH  21  22
ATOM     22  O   UNL A   1      32.336  22.015  26.382  1.00  0.00    -0.484 OA
BRANCH  22  23
ATOM     23  C   UNL A   1      33.677  22.093  26.115  1.00  0.00     0.120 A 
ATOM     24  C   UNL A   1      37.869  21.924  25.117  1.00  0.00     0.044 C 
ATOM     25  C   UNL A   1      36.417  21.982  25.486  1.00  0.00    -0.051 A 
ATOM     26  C   UNL A   1      35.605  20.859  25.306  1.00  0.00     0.007 A 
ATOM     27  C   UNL A   1      35.847  23.156  25.990  1.00  0.00     0.007 A 
ATOM     28  C   UNL A   1      34.245  20.919  25.616  1.00  0.00     0.047 A 
ATOM     29  C   UNL A   1      34.486  23.211  26.305  1.00  0.00     0.047 A 
ENDBRANCH  22  23
ENDBRANCH  21  22
ENDBRANCH  18  21
ENDBRANCH  14  17
ENDBRANCH   8  13
ENDBRANCH   5   7
ENDBRANCH   4   5
ENDBRANCH   3   4
ENDBRANCH   2   3
ENDBRANCH   1   2
BRANCH   1  30
ATOM     30  C   UNL A   1      34.185  34.463  28.895  1.00  0.00     0.188 C 
BRANCH  30  31
ATOM     31  C   UNL A   1      33.042  35.464  29.098  1.00  0.00     0.188 C 
BRANCH  31  32
ATOM     32  O   UNL A   1      33.284  36.258  30.245  1.00  0.00    -0.376 OA
BRANCH  32  33
ATOM     33  C   UNL A   1      32.220  36.331  31.178  1.00  0.00     0.202 C 
BRANCH  33  34
ATOM     34  C   UNL A   1      32.667  35.983  32.600  1.00  0.00     0.261 C 
BRANCH  34  35
ATOM     35  O   UNL A   1      34.043  35.544  32.561  1.00  0.00    -0.460 OA
BRANCH  35  36
ATOM     36  C   UNL A   1      34.264  34.264  32.973  1.00  0.00     0.338 C 
ATOM     37  O   UNL A   1      33.386  33.451  33.230  1.00  0.00    -0.246 OA
BRANCH  36  38
ATOM     38  C   UNL A   1      35.699  34.104  33.382  1.00  0.00     0.060 A 
ATOM     39  C   UNL A   1      36.708  34.819  32.748  1.00  0.00     0.016 A 
ATOM     40  C   UNL A   1      36.104  33.036  34.145  1.00  0.00     0.016 A 
ATOM     41  C   UNL A   1      38.045  34.306  32.691  1.00  0.00     0.010 A 
ATOM     42  C   UNL A   1      37.414  32.526  33.959  1.00  0.00     0.010 A 
ATOM     43  C   UNL A   1      38.433  33.032  33.156  1.00  0.00    -0.014 A 
BRANCH  43  44
ATOM     44  C   UNL A   1      39.653  32.162  32.558  1.00  0.00     0.031 A 
ATOM     45  C   UNL A   1      39.730  30.889  31.620  1.00  0.00     0.074 A 
ATOM     46  C   UNL A   1      40.897  32.663  32.724  1.00  0.00     0.049 A 
ATOM     47  N   UNL A   1      40.452  30.638  30.544  1.00  0.00    -0.248 NA
ATOM     48  C   UNL A   1      39.031  29.669  31.967  1.00  0.00     0.031 C 
ATOM     49  C   UNL A   1      42.152  32.247  32.105  1.00  0.00     0.029 A 
ATOM     50  N   UNL A   1      41.313  33.578  33.688  1.00  0.00    -0.354 N 
ATOM     51  C   UNL A   1      40.145  29.358  30.031  1.00  0.00     0.074 A 
ATOM     52  C   UNL A   1      39.107  28.856  30.911  1.00  0.00     0.031 C 
ATOM     53  C   UNL A   1      43.159  32.576  32.923  1.00  0.00     0.029 A 
ATOM     54  C   UNL A   1      42.576  33.146  34.119  1.00  0.00     0.049 A 
ATOM     55  H   UNL A   1      40.820  34.370  34.004  1.00  0.00     0.167 HD
ATOM     56  C   UNL A   1      41.062  28.422  29.619  1.00  0.00     0.037 A 
ATOM     57  C   UNL A   1      42.679  32.673  35.393  1.00  0.00     0.037 A 
ATOM     58  C   UNL A   1      42.237  28.423  30.466  1.00  0.00     0.049 A 
ATOM     59  C   UNL A   1      42.916  31.177  35.445  1.00  0.00     0.074 A 
ATOM     60  C   UNL A   1      43.522  28.907  30.357  1.00  0.00     0.029 A 
ATOM     61  N   UNL A   1      42.095  27.974  31.771  1.00  0.00    -0.354 N 
ATOM     62  N   UNL A   1      42.959  30.390  34.402  1.00  0.00    -0.248 NA
ATOM     63  C   UNL A   1      43.049  30.440  36.700  1.00  0.00     0.031 C 
ATOM     64  C   UNL A   1      44.105  28.868  31.658  1.00  0.00     0.029 A 
ATOM     65  C   UNL A   1      43.193  28.307  32.535  1.00  0.00     0.049 A 
ATOM     66  H   UNL A   1      41.313  27.481  32.107  1.00  0.00     0.167 HD
ATOM     67  C   UNL A   1      43.106  29.096  34.817  1.00  0.00     0.074 A 
ATOM     68  C   UNL A   1      43.127  29.173  36.266  1.00  0.00     0.031 C 
ATOM     69  C   UNL A   1      43.192  28.038  33.962  1.00  0.00     0.037 A 
BRANCH  56  70
ATOM     70  C   UNL A   1      40.751  27.319  28.597  1.00  0.00     0.064 A 
ATOM     71  C   UNL A   1      41.391  27.310  27.334  1.00  0.00     0.173 A 
ATOM     72  C   UNL A   1      39.779  26.305  28.764  1.00  0.00     0.173 A 
ATOM     73  F   UNL A   1      42.312  28.234  27.025  1.00  0.00    -0.203 F 
ATOM     74  C   UNL A   1      41.082  26.378  26.329  1.00  0.00     0.198 A 
ATOM     75  C   UNL A   1      39.488  25.357  27.765  1.00  0.00     0.198 A 
ATOM     76  F   UNL A   1      39.072  26.203  29.899  1.00  0.00    -0.203 F 
ATOM     77  F   UNL A   1      41.697  26.448  25.139  1.00  0.00    -0.200 F 
ATOM     78  C   UNL A   1      40.133  25.400  26.544  1.00  0.00     0.200 A 
ATOM     79  F   UNL A   1      38.569  24.406  27.991  1.00  0.00    -0.200 F 
ATOM     80  F   UNL A   1      39.831  24.516  25.581  1.00  0.00    -0.200 F 
ENDBRANCH  56  70
BRANCH  57  81
ATOM     81  C   UNL A   1      41.873  33.495  36.356  1.00  0.00     0.064 A 
ATOM     82  C   UNL A   1      42.431  34.728  36.780  1.00  0.00     0.173 A 
ATOM     83  C   UNL A   1      40.501  33.318  36.569  1.00  0.00     0.173 A 
ATOM     84  F   UNL A   1      43.740  34.970  36.593  1.00  0.00    -0.203 F 
ATOM     85  C   UNL A   1      41.635  35.777  37.233  1.00  0.00     0.198 A 
ATOM     86  C   UNL A   1      39.713  34.357  37.083  1.00  0.00     0.198 A 
ATOM     87  F   UNL A   1      39.885  32.197  36.167  1.00  0.00    -0.203 F 
ATOM     88  F   UNL A   1      42.179  36.987  37.429  1.00  0.00    -0.200 F 
ATOM     89  C   UNL A   1      40.272  35.596  37.369  1.00  0.00     0.200 A 
ATOM     90  F   UNL A   1      38.388  34.185  37.192  1.00  0.00    -0.200 F 
ATOM     91  F   UNL A   1      39.492  36.635  37.701  1.00  0.00    -0.200 F 
ENDBRANCH  57  81
BRANCH  69  92
ATOM     92  C   UNL A   1      43.363  26.640  34.458  1.00  0.00     0.064 A 
ATOM     93  C   UNL A   1      44.573  25.948  34.296  1.00  0.00     0.173 A 
ATOM     94  C   UNL A   1      42.285  25.919  35.001  1.00  0.00     0.173 A 
ATOM     95  F   UNL A   1      45.640  26.560  33.760  1.00  0.00    -0.203 F 
ATOM     96  C   UNL A   1      44.705  24.614  34.677  1.00  0.00     0.198 A 
ATOM     97  C   UNL A   1      42.405  24.571  35.339  1.00  0.00     0.198 A 
ATOM     98  F   UNL A   1      41.103  26.517  35.225  1.00  0.00    -0.203 F 
ATOM     99  F   UNL A   1      45.887  23.999  34.546  1.00  0.00    -0.200 F 
ATOM    100  C   UNL A   1      43.616  23.922  35.182  1.00  0.00     0.200 A 
ATOM    101  F   UNL A   1      41.343  23.908  35.815  1.00  0.00    -0.200 F 
ATOM    102  F   UNL A   1      43.737  22.631  35.520  1.00  0.00    -0.200 F 
ENDBRANCH  69  92
ENDBRANCH  43  44
ENDBRANCH  36  38
ENDBRANCH  35  36
ENDBRANCH  34  35
ENDBRANCH  33  34
ENDBRANCH  32  33
ENDBRANCH  31  32
ENDBRANCH  30  31
ENDBRANCH   1  30
TORSDOF 22
ENDMDL
