MODEL 1
REMARK VINA RESULT:     -11.4      0.000      0.000
REMARK SMILES O=C(OCCOCCOCCOC(=O)c1ccc(-c2c3nc(c(-c4c(F)c(F)c(F)c(F)c4F)c4ccc([nH]4)c(-c4c(F)c(F)c(F)c(F)c4F)c4nc(c(-c5c(F)c(F)c(F)c(F)c5F)c5ccc2[nH]5)C=C4)C=C3)cc1)C1=NN(c2ccc(S(=O)(=O)[O-])cc2)C(=O)/C1=C/Nc1ccccc1
REMARK SMILES IDX 7 1 6 2 5 3 4 4 3 5 2 6 1 7 78 8 79 9 93 10 80 11 91 12
REMARK SMILES IDX 94 13 92 14 81 15 82 16 90 17 83 18 89 19 84 20 85 21 86 22
REMARK SMILES IDX 87 23 88 24 95 25 96 27 97 28 101 29 98 30 100 31 99 32 8 33
REMARK SMILES IDX 9 34 10 35 11 36 12 37 13 38 14 39 15 40 16 41 77 42 17 43
REMARK SMILES IDX 76 44 18 45 19 46 20 47 70 48 21 49 75 50 69 51 71 52 22 53
REMARK SMILES IDX 74 54 68 55 67 56 23 58 55 59 35 60 54 61 36 62 39 63 53 64
REMARK SMILES IDX 72 65 37 66 38 67 52 69 73 70 40 71 24 72 25 73 33 74 26 75
REMARK SMILES IDX 27 76 31 77 34 78 28 79 29 80 32 81 30 82 56 83 57 84 65 85
REMARK SMILES IDX 58 86 59 87 63 88 66 89 60 90 61 91 64 92 62 93 41 94 42 95
REMARK SMILES IDX 50 96 43 97 44 98 48 99 51 100 45 101 46 102 49 103 47 104
REMARK H PARENT 95 26 71 57 39 68
REMARK Flexibility Score: inf
ROOT
ATOM      1  C   UNL A   1      39.980  29.584  28.891  1.00  0.00     0.188 C 
ENDROOT
BRANCH   1   2
ATOM      2  O   UNL A   1      38.887  30.139  29.603  1.00  0.00    -0.376 OA
BRANCH   2   3
ATOM      3  C   UNL A   1      37.940  29.185  30.063  1.00  0.00     0.202 C 
BRANCH   3   4
ATOM      4  C   UNL A   1      36.521  29.697  29.883  1.00  0.00     0.261 C 
BRANCH   4   5
ATOM      5  O   UNL A   1      36.249  30.229  28.556  1.00  0.00    -0.458 OA
BRANCH   5   6
ATOM      6  C   UNL A   1      35.141  30.012  27.822  1.00  0.00     0.359 C 
ATOM      7  O   UNL A   1      34.779  28.915  27.428  1.00  0.00    -0.244 OA
BRANCH   6   8
ATOM      8  C   UNL A   1      34.237  31.175  27.608  1.00  0.00     0.183 C 
ATOM      9  N   UNL A   1      34.684  32.294  28.091  1.00  0.00    -0.157 NA
ATOM     10  C   UNL A   1      32.875  31.256  27.006  1.00  0.00     0.093 C 
ATOM     11  N   UNL A   1      33.690  33.218  28.022  1.00  0.00    -0.196 N 
ATOM     12  C   UNL A   1      32.559  32.760  27.329  1.00  0.00     0.282 C 
ATOM     13  C   UNL A   1      31.921  30.545  26.334  1.00  0.00     0.099 C 
ATOM     14  O   UNL A   1      31.536  33.361  27.054  1.00  0.00    -0.267 OA
BRANCH  11  15
ATOM     15  C   UNL A   1      33.853  34.305  28.933  1.00  0.00     0.069 A 
ATOM     16  C   UNL A   1      34.427  34.006  30.193  1.00  0.00     0.030 A 
ATOM     17  C   UNL A   1      33.319  35.582  28.747  1.00  0.00     0.030 A 
ATOM     18  C   UNL A   1      34.284  34.845  31.288  1.00  0.00     0.021 A 
ATOM     19  C   UNL A   1      33.222  36.467  29.844  1.00  0.00     0.021 A 
ATOM     20  C   UNL A   1      33.622  36.046  31.119  1.00  0.00     0.054 A 
BRANCH  20  21
ATOM     21  S   UNL A   1      33.246  36.934  32.597  1.00  0.00     0.124 S 
ATOM     22  O   UNL A   1      34.024  36.333  33.675  1.00  0.00    -0.237 OA
ATOM     23  O   UNL A   1      33.271  38.335  32.316  1.00  0.00    -0.237 OA
ATOM     24  O   UNL A   1      31.703  36.612  32.893  1.00  0.00    -0.744 OA
ENDBRANCH  20  21
ENDBRANCH  11  15
BRANCH  13  25
ATOM     25  N   UNL A   1      31.468  29.285  25.801  1.00  0.00    -0.361 N 
ATOM     26  H   UNL A   1      30.483  29.276  25.782  1.00  0.00     0.166 HD
BRANCH  25  27
ATOM     27  C   UNL A   1      32.003  27.939  25.244  1.00  0.00     0.038 A 
ATOM     28  C   UNL A   1      32.231  26.939  26.201  1.00  0.00     0.026 A 
ATOM     29  C   UNL A   1      32.672  27.651  24.001  1.00  0.00     0.026 A 
ATOM     30  C   UNL A   1      33.156  25.875  25.988  1.00  0.00     0.002 A 
ATOM     31  C   UNL A   1      33.626  26.622  23.795  1.00  0.00     0.002 A 
ATOM     32  C   UNL A   1      33.895  25.745  24.813  1.00  0.00     0.000 A 
ENDBRANCH  25  27
ENDBRANCH  13  25
ENDBRANCH   6   8
ENDBRANCH   5   6
ENDBRANCH   4   5
ENDBRANCH   3   4
ENDBRANCH   2   3
ENDBRANCH   1   2
BRANCH   1  33
ATOM     33  C   UNL A   1      39.446  28.831  27.703  1.00  0.00     0.188 C 
BRANCH  33  34
ATOM     34  O   UNL A   1      39.760  27.440  27.728  1.00  0.00    -0.376 OA
BRANCH  34  35
ATOM     35  C   UNL A   1      38.980  26.273  27.972  1.00  0.00     0.202 C 
BRANCH  35  36
ATOM     36  C   UNL A   1      39.004  24.839  26.998  1.00  0.00     0.261 C 
BRANCH  36  37
ATOM     37  O   UNL A   1      39.813  23.417  26.894  1.00  0.00    -0.460 OA
BRANCH  37  38
ATOM     38  C   UNL A   1      40.931  22.677  27.323  1.00  0.00     0.338 C 
ATOM     39  O   UNL A   1      40.946  21.446  27.336  1.00  0.00    -0.246 OA
BRANCH  38  40
ATOM     40  C   UNL A   1      41.997  23.358  28.214  1.00  0.00     0.060 A 
ATOM     41  C   UNL A   1      42.163  24.760  28.407  1.00  0.00     0.016 A 
ATOM     42  C   UNL A   1      42.966  22.551  28.793  1.00  0.00     0.016 A 
ATOM     43  C   UNL A   1      43.080  25.310  29.338  1.00  0.00     0.010 A 
ATOM     44  C   UNL A   1      43.946  23.100  29.647  1.00  0.00     0.010 A 
ATOM     45  C   UNL A   1      43.990  24.472  29.974  1.00  0.00    -0.014 A 
BRANCH  45  46
ATOM     46  C   UNL A   1      45.132  24.941  30.819  1.00  0.00     0.031 A 
ATOM     47  C   UNL A   1      46.331  25.512  30.116  1.00  0.00     0.074 A 
ATOM     48  C   UNL A   1      45.228  24.681  32.138  1.00  0.00     0.049 A 
ATOM     49  N   UNL A   1      47.579  25.577  30.504  1.00  0.00    -0.248 NA
ATOM     50  C   UNL A   1      46.078  26.070  28.781  1.00  0.00     0.031 C 
ATOM     51  C   UNL A   1      44.144  24.269  33.024  1.00  0.00     0.029 A 
ATOM     52  N   UNL A   1      46.348  24.653  32.949  1.00  0.00    -0.354 N 
ATOM     53  C   UNL A   1      48.270  26.148  29.445  1.00  0.00     0.074 A 
ATOM     54  C   UNL A   1      47.303  26.397  28.395  1.00  0.00     0.031 C 
ATOM     55  C   UNL A   1      44.673  23.918  34.212  1.00  0.00     0.029 A 
ATOM     56  C   UNL A   1      46.123  24.000  34.140  1.00  0.00     0.049 A 
ATOM     57  H   UNL A   1      47.212  25.055  32.701  1.00  0.00     0.167 HD
ATOM     58  C   UNL A   1      49.593  26.428  29.354  1.00  0.00     0.037 A 
ATOM     59  C   UNL A   1      46.983  23.457  35.025  1.00  0.00     0.037 A 
ATOM     60  C   UNL A   1      50.556  26.178  30.396  1.00  0.00     0.049 A 
ATOM     61  C   UNL A   1      48.464  23.652  34.847  1.00  0.00     0.074 A 
ATOM     62  C   UNL A   1      51.902  26.501  30.426  1.00  0.00     0.029 A 
ATOM     63  N   UNL A   1      50.281  25.515  31.580  1.00  0.00    -0.354 N 
ATOM     64  N   UNL A   1      49.113  24.233  33.873  1.00  0.00    -0.248 NA
ATOM     65  C   UNL A   1      49.330  23.145  35.926  1.00  0.00     0.031 C 
ATOM     66  C   UNL A   1      52.460  25.961  31.590  1.00  0.00     0.029 A 
ATOM     67  C   UNL A   1      51.445  25.372  32.320  1.00  0.00     0.049 A 
ATOM     68  H   UNL A   1      49.392  25.195  31.855  1.00  0.00     0.167 HD
ATOM     69  C   UNL A   1      50.447  24.219  34.253  1.00  0.00     0.074 A 
ATOM     70  C   UNL A   1      50.520  23.573  35.541  1.00  0.00     0.031 C 
ATOM     71  C   UNL A   1      51.518  24.722  33.597  1.00  0.00     0.037 A 
BRANCH  58  72
ATOM     72  C   UNL A   1      50.092  26.986  28.056  1.00  0.00     0.064 A 
ATOM     73  C   UNL A   1      50.512  26.163  27.002  1.00  0.00     0.173 A 
ATOM     74  C   UNL A   1      50.124  28.375  27.858  1.00  0.00     0.173 A 
ATOM     75  F   UNL A   1      50.505  24.828  27.141  1.00  0.00    -0.203 F 
ATOM     76  C   UNL A   1      50.987  26.710  25.813  1.00  0.00     0.198 A 
ATOM     77  C   UNL A   1      50.562  28.918  26.655  1.00  0.00     0.198 A 
ATOM     78  F   UNL A   1      49.722  29.209  28.830  1.00  0.00    -0.203 F 
ATOM     79  F   UNL A   1      51.441  25.907  24.842  1.00  0.00    -0.200 F 
ATOM     80  C   UNL A   1      51.005  28.086  25.638  1.00  0.00     0.200 A 
ATOM     81  F   UNL A   1      50.559  30.247  26.481  1.00  0.00    -0.200 F 
ATOM     82  F   UNL A   1      51.457  28.612  24.492  1.00  0.00    -0.200 F 
ENDBRANCH  58  72
BRANCH  59  83
ATOM     83  C   UNL A   1      46.549  22.567  36.137  1.00  0.00     0.064 A 
ATOM     84  C   UNL A   1      46.380  23.067  37.438  1.00  0.00     0.173 A 
ATOM     85  C   UNL A   1      46.557  21.173  35.965  1.00  0.00     0.173 A 
ATOM     86  F   UNL A   1      46.420  24.389  37.655  1.00  0.00    -0.203 F 
ATOM     87  C   UNL A   1      46.301  22.205  38.531  1.00  0.00     0.198 A 
ATOM     88  C   UNL A   1      46.449  20.314  37.058  1.00  0.00     0.198 A 
ATOM     89  F   UNL A   1      46.712  20.645  34.742  1.00  0.00    -0.203 F 
ATOM     90  F   UNL A   1      46.188  22.703  39.771  1.00  0.00    -0.200 F 
ATOM     91  C   UNL A   1      46.345  20.831  38.342  1.00  0.00     0.200 A 
ATOM     92  F   UNL A   1      46.430  18.986  36.871  1.00  0.00    -0.200 F 
ATOM     93  F   UNL A   1      46.212  20.005  39.390  1.00  0.00    -0.200 F 
ENDBRANCH  59  83
BRANCH  71  94
ATOM     94  C   UNL A   1      52.837  24.648  34.304  1.00  0.00     0.064 A 
ATOM     95  C   UNL A   1      53.636  23.495  34.274  1.00  0.00     0.173 A 
ATOM     96  C   UNL A   1      53.287  25.739  35.060  1.00  0.00     0.173 A 
ATOM     97  F   UNL A   1      53.228  22.407  33.600  1.00  0.00    -0.203 F 
ATOM     98  C   UNL A   1      54.821  23.427  35.001  1.00  0.00     0.198 A 
ATOM     99  C   UNL A   1      54.491  25.682  35.755  1.00  0.00     0.198 A 
ATOM    100  F   UNL A   1      52.552  26.859  35.136  1.00  0.00    -0.203 F 
ATOM    101  F   UNL A   1      55.530  22.290  35.019  1.00  0.00    -0.200 F 
ATOM    102  C   UNL A   1      55.251  24.524  35.733  1.00  0.00     0.200 A 
ATOM    103  F   UNL A   1      54.906  26.744  36.461  1.00  0.00    -0.200 F 
ATOM    104  F   UNL A   1      56.391  24.457  36.434  1.00  0.00    -0.200 F 
ENDBRANCH  71  94
ENDBRANCH  45  46
ENDBRANCH  38  40
ENDBRANCH  37  38
ENDBRANCH  36  37
ENDBRANCH  35  36
ENDBRANCH  34  35
ENDBRANCH  33  34
ENDBRANCH   1  33
TORSDOF 21
ENDMDL
MODEL 2
REMARK VINA RESULT:     -11.4      4.564      6.130
REMARK SMILES O=C(OCCOCCOCCOC(=O)c1ccc(-c2c3nc(c(-c4c(F)c(F)c(F)c(F)c4F)c4ccc([nH]4)c(-c4c(F)c(F)c(F)c(F)c4F)c4nc(c(-c5c(F)c(F)c(F)c(F)c5F)c5ccc2[nH]5)C=C4)C=C3)cc1)C1=NN(c2ccc(S(=O)(=O)[O-])cc2)C(=O)/C1=C/Nc1ccccc1
REMARK SMILES IDX 7 1 6 2 5 3 4 4 3 5 2 6 1 7 78 8 79 9 93 10 80 11 91 12
REMARK SMILES IDX 94 13 92 14 81 15 82 16 90 17 83 18 89 19 84 20 85 21 86 22
REMARK SMILES IDX 87 23 88 24 95 25 96 27 97 28 101 29 98 30 100 31 99 32 8 33
REMARK SMILES IDX 9 34 10 35 11 36 12 37 13 38 14 39 15 40 16 41 77 42 17 43
REMARK SMILES IDX 76 44 18 45 19 46 20 47 70 48 21 49 75 50 69 51 71 52 22 53
REMARK SMILES IDX 74 54 68 55 67 56 23 58 55 59 35 60 54 61 36 62 39 63 53 64
REMARK SMILES IDX 72 65 37 66 38 67 52 69 73 70 40 71 24 72 25 73 33 74 26 75
REMARK SMILES IDX 27 76 31 77 34 78 28 79 29 80 32 81 30 82 56 83 57 84 65 85
REMARK SMILES IDX 58 86 59 87 63 88 66 89 60 90 61 91 64 92 62 93 41 94 42 95
REMARK SMILES IDX 50 96 43 97 44 98 48 99 51 100 45 101 46 102 49 103 47 104
REMARK H PARENT 95 26 71 57 39 68
REMARK Flexibility Score: inf
ROOT
ATOM      1  C   UNL A   1      38.144  19.952  24.662  1.00  0.00     0.188 C 
ENDROOT
BRANCH   1   2
ATOM      2  O   UNL A   1      38.034  21.312  25.042  1.00  0.00    -0.376 OA
BRANCH   2   3
ATOM      3  C   UNL A   1      36.773  21.903  24.757  1.00  0.00     0.202 C 
BRANCH   3   4
ATOM      4  C   UNL A   1      36.835  23.413  24.902  1.00  0.00     0.261 C 
BRANCH   4   5
ATOM      5  O   UNL A   1      35.783  23.970  25.741  1.00  0.00    -0.458 OA
BRANCH   5   6
ATOM      6  C   UNL A   1      34.581  23.416  25.985  1.00  0.00     0.359 C 
ATOM      7  O   UNL A   1      34.148  23.172  27.100  1.00  0.00    -0.244 OA
BRANCH   6   8
ATOM      8  C   UNL A   1      33.676  23.228  24.818  1.00  0.00     0.183 C 
ATOM      9  N   UNL A   1      33.212  24.333  24.320  1.00  0.00    -0.157 NA
ATOM     10  C   UNL A   1      33.152  21.987  24.177  1.00  0.00     0.093 C 
ATOM     11  N   UNL A   1      32.249  24.023  23.413  1.00  0.00    -0.196 N 
ATOM     12  C   UNL A   1      32.146  22.646  23.168  1.00  0.00     0.282 C 
ATOM     13  C   UNL A   1      33.250  20.625  24.167  1.00  0.00     0.099 C 
ATOM     14  O   UNL A   1      31.425  22.062  22.379  1.00  0.00    -0.267 OA
BRANCH  11  15
ATOM     15  C   UNL A   1      31.334  25.090  23.161  1.00  0.00     0.069 A 
ATOM     16  C   UNL A   1      31.663  25.984  22.112  1.00  0.00     0.030 A 
ATOM     17  C   UNL A   1      30.257  25.424  23.986  1.00  0.00     0.030 A 
ATOM     18  C   UNL A   1      31.104  27.249  22.016  1.00  0.00     0.021 A 
ATOM     19  C   UNL A   1      29.642  26.688  23.858  1.00  0.00     0.021 A 
ATOM     20  C   UNL A   1      30.139  27.617  22.934  1.00  0.00     0.054 A 
BRANCH  20  21
ATOM     21  S   UNL A   1      29.667  29.318  22.917  1.00  0.00     0.124 S 
ATOM     22  O   UNL A   1      30.254  29.943  24.098  1.00  0.00    -0.237 OA
ATOM     23  O   UNL A   1      29.848  29.837  21.599  1.00  0.00    -0.237 OA
ATOM     24  O   UNL A   1      28.078  29.308  23.130  1.00  0.00    -0.744 OA
ENDBRANCH  20  21
ENDBRANCH  11  15
BRANCH  13  25
ATOM     25  N   UNL A   1      33.798  19.422  24.742  1.00  0.00    -0.361 N 
ATOM     26  H   UNL A   1      34.440  19.663  25.448  1.00  0.00     0.166 HD
BRANCH  25  27
ATOM     27  C   UNL A   1      33.721  17.876  24.627  1.00  0.00     0.038 A 
ATOM     28  C   UNL A   1      32.523  17.299  25.075  1.00  0.00     0.026 A 
ATOM     29  C   UNL A   1      34.776  16.901  24.517  1.00  0.00     0.026 A 
ATOM     30  C   UNL A   1      32.447  15.945  25.519  1.00  0.00     0.002 A 
ATOM     31  C   UNL A   1      34.722  15.568  24.997  1.00  0.00     0.002 A 
ATOM     32  C   UNL A   1      33.552  15.097  25.536  1.00  0.00     0.000 A 
ENDBRANCH  25  27
ENDBRANCH  13  25
ENDBRANCH   6   8
ENDBRANCH   5   6
ENDBRANCH   4   5
ENDBRANCH   3   4
ENDBRANCH   2   3
ENDBRANCH   1   2
BRANCH   1  33
ATOM     33  C   UNL A   1      38.876  19.208  25.745  1.00  0.00     0.188 C 
BRANCH  33  34
ATOM     34  O   UNL A   1      40.273  19.071  25.491  1.00  0.00    -0.376 OA
BRANCH  34  35
ATOM     35  C   UNL A   1      41.431  19.621  26.110  1.00  0.00     0.202 C 
BRANCH  35  36
ATOM     36  C   UNL A   1      41.772  21.315  26.258  1.00  0.00     0.261 C 
BRANCH  36  37
ATOM     37  O   UNL A   1      40.983  22.725  26.535  1.00  0.00    -0.460 OA
BRANCH  37  38
ATOM     38  C   UNL A   1      40.747  23.771  27.448  1.00  0.00     0.338 C 
ATOM     39  O   UNL A   1      39.825  24.574  27.313  1.00  0.00    -0.246 OA
BRANCH  38  40
ATOM     40  C   UNL A   1      41.888  24.229  28.388  1.00  0.00     0.060 A 
ATOM     41  C   UNL A   1      42.214  25.574  28.726  1.00  0.00     0.016 A 
ATOM     42  C   UNL A   1      42.762  23.260  28.864  1.00  0.00     0.016 A 
ATOM     43  C   UNL A   1      43.191  25.914  29.695  1.00  0.00     0.010 A 
ATOM     44  C   UNL A   1      43.801  23.601  29.754  1.00  0.00     0.010 A 
ATOM     45  C   UNL A   1      44.002  24.917  30.224  1.00  0.00    -0.014 A 
BRANCH  45  46
ATOM     46  C   UNL A   1      45.195  25.160  31.094  1.00  0.00     0.031 A 
ATOM     47  C   UNL A   1      46.440  25.686  30.439  1.00  0.00     0.074 A 
ATOM     48  C   UNL A   1      45.274  24.735  32.370  1.00  0.00     0.049 A 
ATOM     49  N   UNL A   1      47.691  25.576  30.806  1.00  0.00    -0.248 NA
ATOM     50  C   UNL A   1      46.235  26.424  29.185  1.00  0.00     0.031 C 
ATOM     51  C   UNL A   1      44.161  24.332  33.224  1.00  0.00     0.029 A 
ATOM     52  N   UNL A   1      46.392  24.494  33.148  1.00  0.00    -0.354 N 
ATOM     53  C   UNL A   1      48.429  26.196  29.809  1.00  0.00     0.074 A 
ATOM     54  C   UNL A   1      47.485  26.668  28.816  1.00  0.00     0.031 C 
ATOM     55  C   UNL A   1      44.660  23.788  34.350  1.00  0.00     0.029 A 
ATOM     56  C   UNL A   1      46.110  23.729  34.258  1.00  0.00     0.049 A 
ATOM     57  H   UNL A   1      47.291  24.832  32.932  1.00  0.00     0.167 HD
ATOM     58  C   UNL A   1      49.773  26.349  29.724  1.00  0.00     0.037 A 
ATOM     59  C   UNL A   1      46.917  22.998  35.054  1.00  0.00     0.037 A 
ATOM     60  C   UNL A   1      50.714  25.877  30.708  1.00  0.00     0.049 A 
ATOM     61  C   UNL A   1      48.408  23.061  34.869  1.00  0.00     0.074 A 
ATOM     62  C   UNL A   1      52.087  26.055  30.749  1.00  0.00     0.029 A 
ATOM     63  N   UNL A   1      50.382  25.109  31.810  1.00  0.00    -0.354 N 
ATOM     64  N   UNL A   1      49.105  23.685  33.958  1.00  0.00    -0.248 NA
ATOM     65  C   UNL A   1      49.226  22.341  35.862  1.00  0.00     0.031 C 
ATOM     66  C   UNL A   1      52.595  25.324  31.828  1.00  0.00     0.029 A 
ATOM     67  C   UNL A   1      51.531  24.759  32.504  1.00  0.00     0.049 A 
ATOM     68  H   UNL A   1      49.467  24.850  32.064  1.00  0.00     0.167 HD
ATOM     69  C   UNL A   1      50.434  23.490  34.305  1.00  0.00     0.074 A 
ATOM     70  C   UNL A   1      50.450  22.688  35.506  1.00  0.00     0.031 C 
ATOM     71  C   UNL A   1      51.546  23.955  33.692  1.00  0.00     0.037 A 
BRANCH  58  72
ATOM     72  C   UNL A   1      50.317  27.006  28.491  1.00  0.00     0.064 A 
ATOM     73  C   UNL A   1      50.644  26.276  27.340  1.00  0.00     0.173 A 
ATOM     74  C   UNL A   1      50.487  28.398  28.458  1.00  0.00     0.173 A 
ATOM     75  F   UNL A   1      50.505  24.942  27.321  1.00  0.00    -0.203 F 
ATOM     76  C   UNL A   1      51.164  26.912  26.215  1.00  0.00     0.198 A 
ATOM     77  C   UNL A   1      50.969  29.035  27.319  1.00  0.00     0.198 A 
ATOM     78  F   UNL A   1      50.178  29.146  29.529  1.00  0.00    -0.203 F 
ATOM     79  F   UNL A   1      51.528  26.189  25.148  1.00  0.00    -0.200 F 
ATOM     80  C   UNL A   1      51.319  28.290  26.204  1.00  0.00     0.200 A 
ATOM     81  F   UNL A   1      51.098  30.369  27.303  1.00  0.00    -0.200 F 
ATOM     82  F   UNL A   1      51.813  28.901  25.118  1.00  0.00    -0.200 F 
ENDBRANCH  58  72
BRANCH  59  83
ATOM     83  C   UNL A   1      46.401  22.029  36.061  1.00  0.00     0.064 A 
ATOM     84  C   UNL A   1      46.423  22.333  37.431  1.00  0.00     0.173 A 
ATOM     85  C   UNL A   1      46.133  20.703  35.686  1.00  0.00     0.173 A 
ATOM     86  F   UNL A   1      46.728  23.573  37.836  1.00  0.00    -0.203 F 
ATOM     87  C   UNL A   1      46.260  21.332  38.388  1.00  0.00     0.198 A 
ATOM     88  C   UNL A   1      45.941  19.710  36.646  1.00  0.00     0.198 A 
ATOM     89  F   UNL A   1      46.097  20.362  34.389  1.00  0.00    -0.203 F 
ATOM     90  F   UNL A   1      46.332  21.633  39.693  1.00  0.00    -0.200 F 
ATOM     91  C   UNL A   1      46.028  20.021  37.996  1.00  0.00     0.200 A 
ATOM     92  F   UNL A   1      45.657  18.455  36.268  1.00  0.00    -0.200 F 
ATOM     93  F   UNL A   1      45.816  19.072  38.919  1.00  0.00    -0.200 F 
ENDBRANCH  59  83
BRANCH  71  94
ATOM     94  C   UNL A   1      52.856  23.661  34.358  1.00  0.00     0.064 A 
ATOM     95  C   UNL A   1      53.430  22.381  34.344  1.00  0.00     0.173 A 
ATOM     96  C   UNL A   1      53.527  24.675  35.058  1.00  0.00     0.173 A 
ATOM     97  F   UNL A   1      52.804  21.367  33.725  1.00  0.00    -0.203 F 
ATOM     98  C   UNL A   1      54.610  22.120  35.033  1.00  0.00     0.198 A 
ATOM     99  C   UNL A   1      54.726  24.419  35.714  1.00  0.00     0.198 A 
ATOM    100  F   UNL A   1      53.012  25.912  35.116  1.00  0.00    -0.203 F 
ATOM    101  F   UNL A   1      55.100  20.872  35.070  1.00  0.00    -0.200 F 
ATOM    102  C   UNL A   1      55.261  23.140  35.710  1.00  0.00     0.200 A 
ATOM    103  F   UNL A   1      55.355  25.407  36.366  1.00  0.00    -0.200 F 
ATOM    104  F   UNL A   1      56.396  22.886  36.375  1.00  0.00    -0.200 F 
ENDBRANCH  71  94
ENDBRANCH  45  46
ENDBRANCH  38  40
ENDBRANCH  37  38
ENDBRANCH  36  37
ENDBRANCH  35  36
ENDBRANCH  34  35
ENDBRANCH  33  34
ENDBRANCH   1  33
TORSDOF 21
ENDMDL
MODEL 3
REMARK VINA RESULT:     -11.3     10.044     13.621
REMARK SMILES O=C(OCCOCCOCCOC(=O)c1ccc(-c2c3nc(c(-c4c(F)c(F)c(F)c(F)c4F)c4ccc([nH]4)c(-c4c(F)c(F)c(F)c(F)c4F)c4nc(c(-c5c(F)c(F)c(F)c(F)c5F)c5ccc2[nH]5)C=C4)C=C3)cc1)C1=NN(c2ccc(S(=O)(=O)[O-])cc2)C(=O)/C1=C/Nc1ccccc1
REMARK SMILES IDX 7 1 6 2 5 3 4 4 3 5 2 6 1 7 78 8 79 9 93 10 80 11 91 12
REMARK SMILES IDX 94 13 92 14 81 15 82 16 90 17 83 18 89 19 84 20 85 21 86 22
REMARK SMILES IDX 87 23 88 24 95 25 96 27 97 28 101 29 98 30 100 31 99 32 8 33
REMARK SMILES IDX 9 34 10 35 11 36 12 37 13 38 14 39 15 40 16 41 77 42 17 43
REMARK SMILES IDX 76 44 18 45 19 46 20 47 70 48 21 49 75 50 69 51 71 52 22 53
REMARK SMILES IDX 74 54 68 55 67 56 23 58 55 59 35 60 54 61 36 62 39 63 53 64
REMARK SMILES IDX 72 65 37 66 38 67 52 69 73 70 40 71 24 72 25 73 33 74 26 75
REMARK SMILES IDX 27 76 31 77 34 78 28 79 29 80 32 81 30 82 56 83 57 84 65 85
REMARK SMILES IDX 58 86 59 87 63 88 66 89 60 90 61 91 64 92 62 93 41 94 42 95
REMARK SMILES IDX 50 96 43 97 44 98 48 99 51 100 45 101 46 102 49 103 47 104
REMARK H PARENT 95 26 71 57 39 68
REMARK Flexibility Score: inf
ROOT
ATOM      1  C   UNL A   1      45.090  44.078  28.365  1.00  0.00     0.188 C 
ENDROOT
BRANCH   1   2
ATOM      2  O   UNL A   1      45.684  43.553  27.190  1.00  0.00    -0.376 OA
BRANCH   2   3
ATOM      3  C   UNL A   1      45.642  44.425  26.069  1.00  0.00     0.202 C 
BRANCH   3   4
ATOM      4  C   UNL A   1      46.677  44.027  25.032  1.00  0.00     0.261 C 
BRANCH   4   5
ATOM      5  O   UNL A   1      46.141  43.886  23.686  1.00  0.00    -0.458 OA
BRANCH   5   6
ATOM      6  C   UNL A   1      45.726  42.743  23.109  1.00  0.00     0.359 C 
ATOM      7  O   UNL A   1      46.314  41.677  23.190  1.00  0.00    -0.244 OA
BRANCH   6   8
ATOM      8  C   UNL A   1      44.390  42.766  22.453  1.00  0.00     0.183 C 
ATOM      9  N   UNL A   1      44.416  43.105  21.201  1.00  0.00    -0.157 NA
ATOM     10  C   UNL A   1      43.024  42.543  23.010  1.00  0.00     0.093 C 
ATOM     11  N   UNL A   1      43.137  43.292  20.781  1.00  0.00    -0.196 N 
ATOM     12  C   UNL A   1      42.183  42.926  21.740  1.00  0.00     0.282 C 
ATOM     13  C   UNL A   1      42.337  42.152  24.124  1.00  0.00     0.099 C 
ATOM     14  O   UNL A   1      40.968  42.925  21.649  1.00  0.00    -0.267 OA
BRANCH  11  15
ATOM     15  C   UNL A   1      43.030  44.119  19.622  1.00  0.00     0.069 A 
ATOM     16  C   UNL A   1      44.175  44.871  19.261  1.00  0.00     0.030 A 
ATOM     17  C   UNL A   1      41.838  44.384  18.943  1.00  0.00     0.030 A 
ATOM     18  C   UNL A   1      44.101  45.980  18.432  1.00  0.00     0.021 A 
ATOM     19  C   UNL A   1      41.767  45.476  18.052  1.00  0.00     0.021 A 
ATOM     20  C   UNL A   1      42.878  46.315  17.883  1.00  0.00     0.054 A 
BRANCH  20  21
ATOM     21  S   UNL A   1      42.801  47.874  17.061  1.00  0.00     0.124 S 
ATOM     22  O   UNL A   1      44.061  48.051  16.346  1.00  0.00    -0.237 OA
ATOM     23  O   UNL A   1      41.528  48.001  16.425  1.00  0.00    -0.237 OA
ATOM     24  O   UNL A   1      42.771  48.962  18.238  1.00  0.00    -0.744 OA
ENDBRANCH  20  21
ENDBRANCH  11  15
BRANCH  13  25
ATOM     25  N   UNL A   1      42.353  41.767  25.513  1.00  0.00    -0.361 N 
ATOM     26  H   UNL A   1      42.727  42.503  26.049  1.00  0.00     0.166 HD
BRANCH  25  27
ATOM     27  C   UNL A   1      41.980  40.588  26.451  1.00  0.00     0.038 A 
ATOM     28  C   UNL A   1      42.270  40.785  27.809  1.00  0.00     0.026 A 
ATOM     29  C   UNL A   1      41.757  39.198  26.148  1.00  0.00     0.026 A 
ATOM     30  C   UNL A   1      42.480  39.699  28.711  1.00  0.00     0.002 A 
ATOM     31  C   UNL A   1      42.006  38.111  27.024  1.00  0.00     0.002 A 
ATOM     32  C   UNL A   1      42.405  38.366  28.311  1.00  0.00     0.000 A 
ENDBRANCH  25  27
ENDBRANCH  13  25
ENDBRANCH   6   8
ENDBRANCH   5   6
ENDBRANCH   4   5
ENDBRANCH   3   4
ENDBRANCH   2   3
ENDBRANCH   1   2
BRANCH   1  33
ATOM     33  C   UNL A   1      45.696  43.391  29.558  1.00  0.00     0.188 C 
BRANCH  33  34
ATOM     34  O   UNL A   1      45.659  41.967  29.467  1.00  0.00    -0.376 OA
BRANCH  34  35
ATOM     35  C   UNL A   1      46.474  40.938  30.021  1.00  0.00     0.202 C 
BRANCH  35  36
ATOM     36  C   UNL A   1      46.620  39.332  29.382  1.00  0.00     0.261 C 
BRANCH  36  37
ATOM     37  O   UNL A   1      45.836  38.325  28.355  1.00  0.00    -0.460 OA
BRANCH  37  38
ATOM     38  C   UNL A   1      45.957  37.455  27.254  1.00  0.00     0.338 C 
ATOM     39  O   UNL A   1      45.999  37.858  26.092  1.00  0.00    -0.246 OA
BRANCH  38  40
ATOM     40  C   UNL A   1      45.583  35.962  27.421  1.00  0.00     0.060 A 
ATOM     41  C   UNL A   1      44.517  35.281  26.766  1.00  0.00     0.016 A 
ATOM     42  C   UNL A   1      46.265  35.230  28.384  1.00  0.00     0.016 A 
ATOM     43  C   UNL A   1      44.313  33.882  26.870  1.00  0.00     0.010 A 
ATOM     44  C   UNL A   1      46.002  33.856  28.565  1.00  0.00     0.010 A 
ATOM     45  C   UNL A   1      45.065  33.149  27.781  1.00  0.00    -0.014 A 
BRANCH  45  46
ATOM     46  C   UNL A   1      44.816  31.717  28.134  1.00  0.00     0.031 A 
ATOM     47  C   UNL A   1      45.586  30.669  27.380  1.00  0.00     0.074 A 
ATOM     48  C   UNL A   1      43.800  31.319  28.924  1.00  0.00     0.049 A 
ATOM     49  N   UNL A   1      45.287  29.418  27.144  1.00  0.00    -0.248 NA
ATOM     50  C   UNL A   1      46.861  31.112  26.801  1.00  0.00     0.031 C 
ATOM     51  C   UNL A   1      43.034  32.155  29.843  1.00  0.00     0.029 A 
ATOM     52  N   UNL A   1      43.182  30.084  29.006  1.00  0.00    -0.354 N 
ATOM     53  C   UNL A   1      46.319  28.930  26.355  1.00  0.00     0.074 A 
ATOM     54  C   UNL A   1      47.242  30.027  26.143  1.00  0.00     0.031 C 
ATOM     55  C   UNL A   1      41.986  31.441  30.298  1.00  0.00     0.029 A 
ATOM     56  C   UNL A   1      41.962  30.143  29.643  1.00  0.00     0.049 A 
ATOM     57  H   UNL A   1      43.571  29.254  28.648  1.00  0.00     0.167 HD
ATOM     58  C   UNL A   1      46.475  27.684  25.845  1.00  0.00     0.037 A 
ATOM     59  C   UNL A   1      40.918  29.291  29.630  1.00  0.00     0.037 A 
ATOM     60  C   UNL A   1      45.556  26.594  26.051  1.00  0.00     0.049 A 
ATOM     61  C   UNL A   1      41.046  27.959  28.942  1.00  0.00     0.074 A 
ATOM     62  C   UNL A   1      45.670  25.276  25.642  1.00  0.00     0.029 A 
ATOM     63  N   UNL A   1      44.339  26.703  26.700  1.00  0.00    -0.354 N 
ATOM     64  N   UNL A   1      42.038  27.481  28.239  1.00  0.00    -0.248 NA
ATOM     65  C   UNL A   1      39.911  27.031  29.087  1.00  0.00     0.031 C 
ATOM     66  C   UNL A   1      44.486  24.608  25.969  1.00  0.00     0.029 A 
ATOM     67  C   UNL A   1      43.669  25.489  26.652  1.00  0.00     0.049 A 
ATOM     68  H   UNL A   1      43.999  27.520  27.132  1.00  0.00     0.167 HD
ATOM     69  C   UNL A   1      41.675  26.181  27.918  1.00  0.00     0.074 A 
ATOM     70  C   UNL A   1      40.374  25.943  28.497  1.00  0.00     0.031 C 
ATOM     71  C   UNL A   1      42.372  25.256  27.220  1.00  0.00     0.037 A 
BRANCH  58  72
ATOM     72  C   UNL A   1      47.660  27.445  24.959  1.00  0.00     0.064 A 
ATOM     73  C   UNL A   1      47.641  27.744  23.589  1.00  0.00     0.173 A 
ATOM     74  C   UNL A   1      48.847  26.930  25.503  1.00  0.00     0.173 A 
ATOM     75  F   UNL A   1      46.530  28.234  23.019  1.00  0.00    -0.203 F 
ATOM     76  C   UNL A   1      48.752  27.495  22.787  1.00  0.00     0.198 A 
ATOM     77  C   UNL A   1      49.968  26.719  24.707  1.00  0.00     0.198 A 
ATOM     78  F   UNL A   1      48.924  26.638  26.810  1.00  0.00    -0.203 F 
ATOM     79  F   UNL A   1      48.691  27.730  21.470  1.00  0.00    -0.200 F 
ATOM     80  C   UNL A   1      49.916  26.990  23.348  1.00  0.00     0.200 A 
ATOM     81  F   UNL A   1      51.098  26.252  25.254  1.00  0.00    -0.200 F 
ATOM     82  F   UNL A   1      50.986  26.757  22.576  1.00  0.00    -0.200 F 
ENDBRANCH  58  72
BRANCH  59  83
ATOM     83  C   UNL A   1      39.578  29.641  30.180  1.00  0.00     0.064 A 
ATOM     84  C   UNL A   1      39.250  29.357  31.514  1.00  0.00     0.173 A 
ATOM     85  C   UNL A   1      38.539  30.014  29.312  1.00  0.00     0.173 A 
ATOM     86  F   UNL A   1      40.202  28.945  32.363  1.00  0.00    -0.203 F 
ATOM     87  C   UNL A   1      37.923  29.372  31.943  1.00  0.00     0.198 A 
ATOM     88  C   UNL A   1      37.216  30.055  29.752  1.00  0.00     0.198 A 
ATOM     89  F   UNL A   1      38.801  30.298  28.028  1.00  0.00    -0.203 F 
ATOM     90  F   UNL A   1      37.624  29.051  33.210  1.00  0.00    -0.200 F 
ATOM     91  C   UNL A   1      36.907  29.711  31.060  1.00  0.00     0.200 A 
ATOM     92  F   UNL A   1      36.242  30.442  28.916  1.00  0.00    -0.200 F 
ATOM     93  F   UNL A   1      35.639  29.778  31.491  1.00  0.00    -0.200 F 
ENDBRANCH  59  83
BRANCH  71  94
ATOM     94  C   UNL A   1      41.764  23.891  27.114  1.00  0.00     0.064 A 
ATOM     95  C   UNL A   1      40.563  23.661  26.426  1.00  0.00     0.173 A 
ATOM     96  C   UNL A   1      42.377  22.802  27.750  1.00  0.00     0.173 A 
ATOM     97  F   UNL A   1      39.915  24.679  25.838  1.00  0.00    -0.203 F 
ATOM     98  C   UNL A   1      39.981  22.397  26.408  1.00  0.00     0.198 A 
ATOM     99  C   UNL A   1      41.812  21.531  27.697  1.00  0.00     0.198 A 
ATOM    100  F   UNL A   1      43.518  22.972  28.435  1.00  0.00    -0.203 F 
ATOM    101  F   UNL A   1      38.795  22.216  25.810  1.00  0.00    -0.200 F 
ATOM    102  C   UNL A   1      40.611  21.332  27.035  1.00  0.00     0.200 A 
ATOM    103  F   UNL A   1      42.423  20.503  28.302  1.00  0.00    -0.200 F 
ATOM    104  F   UNL A   1      40.049  20.116  27.018  1.00  0.00    -0.200 F 
ENDBRANCH  71  94
ENDBRANCH  45  46
ENDBRANCH  38  40
ENDBRANCH  37  38
ENDBRANCH  36  37
ENDBRANCH  35  36
ENDBRANCH  34  35
ENDBRANCH  33  34
ENDBRANCH   1  33
TORSDOF 21
ENDMDL
