MODEL 1
REMARK VINA RESULT:     -10.6      0.000      0.000
REMARK SMILES C=C(C)COc1ccc2nc(C)n(-c3cccc(C(=O)OCCOCCOCCOC(=O)c4ccc(-c5c6nc(c(-c7c(F)c(F)c(F)c(F)c7F)c7ccc([nH]7)c(-c7c(F)c(F)c(F)c(F)c7F)c7nc(c(-c8c(F)c(F)c(F)c(F)c8F)c8ccc5[nH]8)C=C7)C=C6)cc4)c3)c(=O)c2c1
REMARK SMILES IDX 25 1 24 2 23 3 22 4 21 5 19 6 20 7 18 8 14 9 15 10 96 11
REMARK SMILES IDX 16 12 17 13 13 14 6 15 7 16 100 17 8 18 99 19 9 20 97 21
REMARK SMILES IDX 10 22 98 23 11 24 12 25 5 26 4 27 2 28 1 29 3 30 26 31 27 32
REMARK SMILES IDX 28 33 29 34 30 35 31 36 32 37 33 38 34 39 95 40 35 41 94 42
REMARK SMILES IDX 36 43 37 44 38 45 88 46 39 47 93 48 87 49 89 50 40 51 92 52
REMARK SMILES IDX 86 53 85 54 41 56 73 57 53 58 72 59 54 60 57 61 71 62 90 63
REMARK SMILES IDX 55 64 56 65 70 67 91 68 58 69 42 70 43 71 51 72 44 73 45 74
REMARK SMILES IDX 49 75 52 76 46 77 47 78 50 79 48 80 74 81 75 82 83 83 76 84
REMARK SMILES IDX 77 85 81 86 84 87 78 88 79 89 82 90 80 91 59 92 60 93 68 94
REMARK SMILES IDX 61 95 62 96 66 97 69 98 63 99 64 100 67 101 65 102
REMARK H PARENT 89 55 57 66
REMARK Flexibility Score: inf
ROOT
ATOM      1  C   UNL A   1      35.544  21.872  25.245  1.00  0.00     0.188 C 
ENDROOT
BRANCH   1   2
ATOM      2  O   UNL A   1      34.904  21.110  26.248  1.00  0.00    -0.376 OA
BRANCH   2   3
ATOM      3  C   UNL A   1      33.893  21.677  27.067  1.00  0.00     0.202 C 
BRANCH   3   4
ATOM      4  C   UNL A   1      33.533  23.164  26.979  1.00  0.00     0.261 C 
BRANCH   4   5
ATOM      5  O   UNL A   1      32.264  23.426  26.372  1.00  0.00    -0.460 OA
BRANCH   5   6
ATOM      6  C   UNL A   1      32.214  23.259  25.026  1.00  0.00     0.338 C 
ATOM      7  O   UNL A   1      31.762  22.301  24.421  1.00  0.00    -0.246 OA
BRANCH   6   8
ATOM      8  C   UNL A   1      32.596  24.525  24.365  1.00  0.00     0.062 A 
ATOM      9  C   UNL A   1      32.515  26.950  24.190  1.00  0.00     0.051 A 
ATOM     10  C   UNL A   1      33.238  26.861  22.990  1.00  0.00     0.027 A 
ATOM     11  C   UNL A   1      32.200  25.764  24.873  1.00  0.00     0.042 A 
ATOM     12  C   UNL A   1      33.632  25.621  22.480  1.00  0.00     0.003 A 
ATOM     13  C   UNL A   1      33.317  24.452  23.169  1.00  0.00     0.016 A 
BRANCH   9  14
ATOM     14  N   UNL A   1      32.146  28.218  24.749  1.00  0.00    -0.264 N 
ATOM     15  C   UNL A   1      33.158  32.028  27.579  1.00  0.00     0.120 A 
ATOM     16  C   UNL A   1      32.012  32.654  27.089  1.00  0.00     0.049 A 
ATOM     17  C   UNL A   1      33.526  30.773  27.111  1.00  0.00     0.062 A 
ATOM     18  C   UNL A   1      31.196  31.993  26.171  1.00  0.00     0.033 A 
ATOM     19  C   UNL A   1      32.702  30.125  26.184  1.00  0.00     0.070 A 
ATOM     20  C   UNL A   1      31.535  30.719  25.715  1.00  0.00     0.078 A 
ATOM     21  C   UNL A   1      33.050  28.799  25.655  1.00  0.00     0.266 A 
ATOM     22  N   UNL A   1      30.678  30.075  24.825  1.00  0.00    -0.234 NA
ATOM     23  O   UNL A   1      34.122  28.309  26.012  1.00  0.00    -0.268 OA
ATOM     24  C   UNL A   1      30.979  28.887  24.403  1.00  0.00     0.113 A 
ATOM     25  C   UNL A   1      29.924  28.229  23.535  1.00  0.00     0.088 C 
BRANCH  15  26
ATOM     26  O   UNL A   1      33.971  32.671  28.472  1.00  0.00    -0.489 OA
BRANCH  26  27
ATOM     27  C   UNL A   1      35.339  32.680  28.028  1.00  0.00     0.260 C 
BRANCH  27  28
ATOM     28  C   UNL A   1      36.285  33.094  29.135  1.00  0.00    -0.043 C 
ATOM     29  C   UNL A   1      37.516  33.573  28.886  1.00  0.00     0.011 C 
ATOM     30  C   UNL A   1      35.742  32.991  30.532  1.00  0.00     0.042 C 
ENDBRANCH  27  28
ENDBRANCH  26  27
ENDBRANCH  15  26
ENDBRANCH   9  14
ENDBRANCH   6   8
ENDBRANCH   5   6
ENDBRANCH   4   5
ENDBRANCH   3   4
ENDBRANCH   2   3
ENDBRANCH   1   2
BRANCH   1  31
ATOM     31  C   UNL A   1      36.966  22.443  25.433  1.00  0.00     0.188 C 
BRANCH  31  32
ATOM     32  O   UNL A   1      38.099  21.599  25.367  1.00  0.00    -0.376 OA
BRANCH  32  33
ATOM     33  C   UNL A   1      37.928  20.255  24.938  1.00  0.00     0.202 C 
BRANCH  33  34
ATOM     34  C   UNL A   1      39.058  19.257  25.198  1.00  0.00     0.261 C 
BRANCH  34  35
ATOM     35  O   UNL A   1      39.848  19.632  26.338  1.00  0.00    -0.460 OA
BRANCH  35  36
ATOM     36  C   UNL A   1      41.187  19.484  26.198  1.00  0.00     0.338 C 
ATOM     37  O   UNL A   1      41.788  18.535  25.722  1.00  0.00    -0.246 OA
BRANCH  36  38
ATOM     38  C   UNL A   1      41.838  20.764  26.528  1.00  0.00     0.060 A 
ATOM     39  C   UNL A   1      42.121  21.707  25.538  1.00  0.00     0.016 A 
ATOM     40  C   UNL A   1      42.160  21.016  27.868  1.00  0.00     0.016 A 
ATOM     41  C   UNL A   1      42.701  22.925  25.899  1.00  0.00     0.010 A 
ATOM     42  C   UNL A   1      42.761  22.223  28.224  1.00  0.00     0.010 A 
ATOM     43  C   UNL A   1      43.011  23.194  27.244  1.00  0.00    -0.014 A 
BRANCH  43  44
ATOM     44  C   UNL A   1      43.430  24.555  27.650  1.00  0.00     0.031 A 
ATOM     45  C   UNL A   1      44.870  24.953  27.720  1.00  0.00     0.074 A 
ATOM     46  C   UNL A   1      42.464  25.438  27.969  1.00  0.00     0.049 A 
ATOM     47  N   UNL A   1      45.384  26.126  27.994  1.00  0.00    -0.248 NA
ATOM     48  C   UNL A   1      45.864  23.903  27.457  1.00  0.00     0.031 C 
ATOM     49  C   UNL A   1      41.030  25.146  27.956  1.00  0.00     0.029 A 
ATOM     50  N   UNL A   1      42.538  26.748  28.360  1.00  0.00    -0.354 N 
ATOM     51  C   UNL A   1      46.759  25.968  27.906  1.00  0.00     0.074 A 
ATOM     52  C   UNL A   1      47.003  24.572  27.602  1.00  0.00     0.031 C 
ATOM     53  C   UNL A   1      40.356  26.249  28.312  1.00  0.00     0.029 A 
ATOM     54  C   UNL A   1      41.311  27.320  28.588  1.00  0.00     0.049 A 
ATOM     55  H   UNL A   1      43.388  27.233  28.470  1.00  0.00     0.167 HD
ATOM     56  C   UNL A   1      47.721  26.912  28.051  1.00  0.00     0.037 A 
ATOM     57  C   UNL A   1      40.990  28.570  28.965  1.00  0.00     0.037 A 
ATOM     58  C   UNL A   1      47.468  28.295  28.378  1.00  0.00     0.049 A 
ATOM     59  C   UNL A   1      42.080  29.585  29.154  1.00  0.00     0.074 A 
ATOM     60  C   UNL A   1      48.380  29.327  28.526  1.00  0.00     0.029 A 
ATOM     61  N   UNL A   1      46.214  28.836  28.620  1.00  0.00    -0.354 N 
ATOM     62  N   UNL A   1      43.374  29.442  29.004  1.00  0.00    -0.248 NA
ATOM     63  C   UNL A   1      41.665  30.938  29.546  1.00  0.00     0.031 C 
ATOM     64  C   UNL A   1      47.684  30.480  28.900  1.00  0.00     0.029 A 
ATOM     65  C   UNL A   1      46.331  30.182  28.933  1.00  0.00     0.049 A 
ATOM     66  H   UNL A   1      45.366  28.339  28.575  1.00  0.00     0.167 HD
ATOM     67  C   UNL A   1      43.925  30.691  29.252  1.00  0.00     0.074 A 
ATOM     68  C   UNL A   1      42.824  31.582  29.553  1.00  0.00     0.031 C 
ATOM     69  C   UNL A   1      45.229  31.062  29.229  1.00  0.00     0.037 A 
BRANCH  56  70
ATOM     70  C   UNL A   1      49.149  26.499  27.841  1.00  0.00     0.064 A 
ATOM     71  C   UNL A   1      49.702  26.426  26.555  1.00  0.00     0.173 A 
ATOM     72  C   UNL A   1      50.000  26.280  28.935  1.00  0.00     0.173 A 
ATOM     73  F   UNL A   1      48.929  26.626  25.475  1.00  0.00    -0.203 F 
ATOM     74  C   UNL A   1      51.054  26.147  26.370  1.00  0.00     0.198 A 
ATOM     75  C   UNL A   1      51.356  26.024  28.748  1.00  0.00     0.198 A 
ATOM     76  F   UNL A   1      49.523  26.347  30.187  1.00  0.00    -0.203 F 
ATOM     77  F   UNL A   1      51.557  26.071  25.130  1.00  0.00    -0.200 F 
ATOM     78  C   UNL A   1      51.882  25.958  27.466  1.00  0.00     0.200 A 
ATOM     79  F   UNL A   1      52.159  25.859  29.809  1.00  0.00    -0.200 F 
ATOM     80  F   UNL A   1      53.188  25.715  27.287  1.00  0.00    -0.200 F 
ENDBRANCH  56  70
BRANCH  57  81
ATOM     81  C   UNL A   1      39.561  28.935  29.131  1.00  0.00     0.064 A 
ATOM     82  C   UNL A   1      38.791  29.336  28.030  1.00  0.00     0.173 A 
ATOM     83  C   UNL A   1      38.927  28.853  30.379  1.00  0.00     0.173 A 
ATOM     84  F   UNL A   1      39.358  29.444  26.820  1.00  0.00    -0.203 F 
ATOM     85  C   UNL A   1      37.442  29.651  28.175  1.00  0.00     0.198 A 
ATOM     86  C   UNL A   1      37.573  29.143  30.517  1.00  0.00     0.198 A 
ATOM     87  F   UNL A   1      39.621  28.465  31.460  1.00  0.00    -0.203 F 
ATOM     88  F   UNL A   1      36.736  30.062  27.113  1.00  0.00    -0.200 F 
ATOM     89  C   UNL A   1      36.832  29.546  29.416  1.00  0.00     0.200 A 
ATOM     90  F   UNL A   1      36.983  29.026  31.715  1.00  0.00    -0.200 F 
ATOM     91  F   UNL A   1      35.532  29.838  29.552  1.00  0.00    -0.200 F 
ENDBRANCH  57  81
BRANCH  69  92
ATOM     92  C   UNL A   1      45.538  32.505  29.506  1.00  0.00     0.064 A 
ATOM     93  C   UNL A   1      45.555  33.465  28.485  1.00  0.00     0.173 A 
ATOM     94  C   UNL A   1      45.782  32.938  30.819  1.00  0.00     0.173 A 
ATOM     95  F   UNL A   1      45.342  33.098  27.211  1.00  0.00    -0.203 F 
ATOM     96  C   UNL A   1      45.832  34.801  28.762  1.00  0.00     0.198 A 
ATOM     97  C   UNL A   1      46.029  34.281  31.096  1.00  0.00     0.198 A 
ATOM     98  F   UNL A   1      45.771  32.062  31.834  1.00  0.00    -0.203 F 
ATOM     99  F   UNL A   1      45.888  35.693  27.763  1.00  0.00    -0.200 F 
ATOM    100  C   UNL A   1      46.061  35.209  30.068  1.00  0.00     0.200 A 
ATOM    101  F   UNL A   1      46.238  34.674  32.360  1.00  0.00    -0.200 F 
ATOM    102  F   UNL A   1      46.319  36.497  30.332  1.00  0.00    -0.200 F 
ENDBRANCH  69  92
ENDBRANCH  43  44
ENDBRANCH  36  38
ENDBRANCH  35  36
ENDBRANCH  34  35
ENDBRANCH  33  34
ENDBRANCH  32  33
ENDBRANCH  31  32
ENDBRANCH   1  31
TORSDOF 21
ENDMDL
MODEL 2
REMARK VINA RESULT:     -10.5      1.814      2.913
REMARK SMILES C=C(C)COc1ccc2nc(C)n(-c3cccc(C(=O)OCCOCCOCCOC(=O)c4ccc(-c5c6nc(c(-c7c(F)c(F)c(F)c(F)c7F)c7ccc([nH]7)c(-c7c(F)c(F)c(F)c(F)c7F)c7nc(c(-c8c(F)c(F)c(F)c(F)c8F)c8ccc5[nH]8)C=C7)C=C6)cc4)c3)c(=O)c2c1
REMARK SMILES IDX 25 1 24 2 23 3 22 4 21 5 19 6 20 7 18 8 14 9 15 10 96 11
REMARK SMILES IDX 16 12 17 13 13 14 6 15 7 16 100 17 8 18 99 19 9 20 97 21
REMARK SMILES IDX 10 22 98 23 11 24 12 25 5 26 4 27 2 28 1 29 3 30 26 31 27 32
REMARK SMILES IDX 28 33 29 34 30 35 31 36 32 37 33 38 34 39 95 40 35 41 94 42
REMARK SMILES IDX 36 43 37 44 38 45 88 46 39 47 93 48 87 49 89 50 40 51 92 52
REMARK SMILES IDX 86 53 85 54 41 56 73 57 53 58 72 59 54 60 57 61 71 62 90 63
REMARK SMILES IDX 55 64 56 65 70 67 91 68 58 69 42 70 43 71 51 72 44 73 45 74
REMARK SMILES IDX 49 75 52 76 46 77 47 78 50 79 48 80 74 81 75 82 83 83 76 84
REMARK SMILES IDX 77 85 81 86 84 87 78 88 79 89 82 90 80 91 59 92 60 93 68 94
REMARK SMILES IDX 61 95 62 96 66 97 69 98 63 99 64 100 67 101 65 102
REMARK H PARENT 89 55 57 66
REMARK Flexibility Score: inf
ROOT
ATOM      1  C   UNL A   1      38.411  19.898  25.149  1.00  0.00     0.188 C 
ENDROOT
BRANCH   1   2
ATOM      2  O   UNL A   1      37.691  21.054  24.771  1.00  0.00    -0.376 OA
BRANCH   2   3
ATOM      3  C   UNL A   1      36.438  21.364  25.361  1.00  0.00     0.202 C 
BRANCH   3   4
ATOM      4  C   UNL A   1      35.170  20.582  25.001  1.00  0.00     0.261 C 
BRANCH   4   5
ATOM      5  O   UNL A   1      33.996  21.013  25.698  1.00  0.00    -0.460 OA
BRANCH   5   6
ATOM      6  C   UNL A   1      32.861  21.065  24.954  1.00  0.00     0.338 C 
ATOM      7  O   UNL A   1      31.897  20.323  25.034  1.00  0.00    -0.246 OA
BRANCH   6   8
ATOM      8  C   UNL A   1      32.858  22.311  24.158  1.00  0.00     0.062 A 
ATOM      9  C   UNL A   1      32.538  24.714  23.958  1.00  0.00     0.051 A 
ATOM     10  C   UNL A   1      32.734  24.598  22.573  1.00  0.00     0.027 A 
ATOM     11  C   UNL A   1      32.605  23.553  24.745  1.00  0.00     0.042 A 
ATOM     12  C   UNL A   1      32.985  23.355  21.985  1.00  0.00     0.003 A 
ATOM     13  C   UNL A   1      33.053  22.211  22.777  1.00  0.00     0.016 A 
BRANCH   9  14
ATOM     14  N   UNL A   1      32.328  25.990  24.579  1.00  0.00    -0.264 N 
ATOM     15  C   UNL A   1      34.049  29.840  26.981  1.00  0.00     0.120 A 
ATOM     16  C   UNL A   1      32.810  30.457  26.811  1.00  0.00     0.049 A 
ATOM     17  C   UNL A   1      34.283  28.579  26.446  1.00  0.00     0.062 A 
ATOM     18  C   UNL A   1      31.779  29.782  26.157  1.00  0.00     0.033 A 
ATOM     19  C   UNL A   1      33.242  27.917  25.785  1.00  0.00     0.070 A 
ATOM     20  C   UNL A   1      31.989  28.503  25.642  1.00  0.00     0.078 A 
ATOM     21  C   UNL A   1      33.441  26.584  25.200  1.00  0.00     0.266 A 
ATOM     22  N   UNL A   1      30.926  27.845  25.027  1.00  0.00    -0.234 NA
ATOM     23  O   UNL A   1      34.571  26.101  25.259  1.00  0.00    -0.268 OA
ATOM     24  C   UNL A   1      31.108  26.652  24.554  1.00  0.00     0.113 A 
ATOM     25  C   UNL A   1      29.861  25.980  24.013  1.00  0.00     0.088 C 
BRANCH  15  26
ATOM     26  O   UNL A   1      35.070  30.497  27.611  1.00  0.00    -0.489 OA
BRANCH  26  27
ATOM     27  C   UNL A   1      34.574  31.504  28.511  1.00  0.00     0.260 C 
BRANCH  27  28
ATOM     28  C   UNL A   1      35.696  32.165  29.283  1.00  0.00    -0.043 C 
ATOM     29  C   UNL A   1      36.561  33.015  28.704  1.00  0.00     0.011 C 
ATOM     30  C   UNL A   1      35.750  31.857  30.752  1.00  0.00     0.042 C 
ENDBRANCH  27  28
ENDBRANCH  26  27
ENDBRANCH  15  26
ENDBRANCH   9  14
ENDBRANCH   6   8
ENDBRANCH   5   6
ENDBRANCH   4   5
ENDBRANCH   3   4
ENDBRANCH   2   3
ENDBRANCH   1   2
BRANCH   1  31
ATOM     31  C   UNL A   1      39.732  19.980  25.944  1.00  0.00     0.188 C 
BRANCH  31  32
ATOM     32  O   UNL A   1      40.753  19.020  25.752  1.00  0.00    -0.376 OA
BRANCH  32  33
ATOM     33  C   UNL A   1      42.076  19.334  26.166  1.00  0.00     0.202 C 
BRANCH  33  34
ATOM     34  C   UNL A   1      43.239  18.571  25.531  1.00  0.00     0.261 C 
BRANCH  34  35
ATOM     35  O   UNL A   1      43.631  19.145  24.273  1.00  0.00    -0.460 OA
BRANCH  35  36
ATOM     36  C   UNL A   1      44.896  19.624  24.215  1.00  0.00     0.338 C 
ATOM     37  O   UNL A   1      45.857  19.128  23.651  1.00  0.00    -0.246 OA
BRANCH  36  38
ATOM     38  C   UNL A   1      44.910  20.984  24.782  1.00  0.00     0.060 A 
ATOM     39  C   UNL A   1      45.248  21.205  26.119  1.00  0.00     0.016 A 
ATOM     40  C   UNL A   1      44.584  22.055  23.941  1.00  0.00     0.016 A 
ATOM     41  C   UNL A   1      45.291  22.514  26.606  1.00  0.00     0.010 A 
ATOM     42  C   UNL A   1      44.603  23.359  24.435  1.00  0.00     0.010 A 
ATOM     43  C   UNL A   1      44.981  23.597  25.764  1.00  0.00    -0.014 A 
BRANCH  43  44
ATOM     44  C   UNL A   1      45.227  24.984  26.220  1.00  0.00     0.031 A 
ATOM     45  C   UNL A   1      46.582  25.612  26.150  1.00  0.00     0.074 A 
ATOM     46  C   UNL A   1      44.182  25.672  26.719  1.00  0.00     0.049 A 
ATOM     47  N   UNL A   1      46.933  26.838  26.449  1.00  0.00    -0.248 NA
ATOM     48  C   UNL A   1      47.688  24.761  25.690  1.00  0.00     0.031 C 
ATOM     49  C   UNL A   1      42.823  25.145  26.854  1.00  0.00     0.029 A 
ATOM     50  N   UNL A   1      44.096  26.952  27.199  1.00  0.00    -0.354 N 
ATOM     51  C   UNL A   1      48.293  26.918  26.187  1.00  0.00     0.074 A 
ATOM     52  C   UNL A   1      48.714  25.602  25.749  1.00  0.00     0.031 C 
ATOM     53  C   UNL A   1      42.035  26.098  27.372  1.00  0.00     0.029 A 
ATOM     54  C   UNL A   1      42.834  27.296  27.614  1.00  0.00     0.049 A 
ATOM     55  H   UNL A   1      44.865  27.565  27.243  1.00  0.00     0.167 HD
ATOM     56  C   UNL A   1      49.103  28.000  26.288  1.00  0.00     0.037 A 
ATOM     57  C   UNL A   1      42.369  28.452  28.122  1.00  0.00     0.037 A 
ATOM     58  C   UNL A   1      48.677  29.300  26.749  1.00  0.00     0.049 A 
ATOM     59  C   UNL A   1      43.299  29.622  28.258  1.00  0.00     0.074 A 
ATOM     60  C   UNL A   1      49.424  30.461  26.867  1.00  0.00     0.029 A 
ATOM     61  N   UNL A   1      47.395  29.609  27.180  1.00  0.00    -0.354 N 
ATOM     62  N   UNL A   1      44.569  29.707  27.944  1.00  0.00    -0.248 NA
ATOM     63  C   UNL A   1      42.728  30.862  28.799  1.00  0.00     0.031 C 
ATOM     64  C   UNL A   1      48.608  31.458  27.409  1.00  0.00     0.029 A 
ATOM     65  C   UNL A   1      47.336  30.936  27.579  1.00  0.00     0.049 A 
ATOM     66  H   UNL A   1      46.638  28.980  27.197  1.00  0.00     0.167 HD
ATOM     67  C   UNL A   1      44.942  31.015  28.221  1.00  0.00     0.074 A 
ATOM     68  C   UNL A   1      43.761  31.690  28.718  1.00  0.00     0.031 C 
ATOM     69  C   UNL A   1      46.155  31.600  28.071  1.00  0.00     0.037 A 
BRANCH  56  70
ATOM     70  C   UNL A   1      50.538  27.845  25.879  1.00  0.00     0.064 A 
ATOM     71  C   UNL A   1      50.927  27.965  24.537  1.00  0.00     0.173 A 
ATOM     72  C   UNL A   1      51.545  27.685  26.843  1.00  0.00     0.173 A 
ATOM     73  F   UNL A   1      50.002  28.118  23.577  1.00  0.00    -0.203 F 
ATOM     74  C   UNL A   1      52.271  27.927  24.175  1.00  0.00     0.198 A 
ATOM     75  C   UNL A   1      52.890  27.670  26.479  1.00  0.00     0.198 A 
ATOM     76  F   UNL A   1      51.227  27.575  28.141  1.00  0.00    -0.203 F 
ATOM     77  F   UNL A   1      52.619  28.032  22.884  1.00  0.00    -0.200 F 
ATOM     78  C   UNL A   1      53.252  27.792  25.146  1.00  0.00     0.200 A 
ATOM     79  F   UNL A   1      53.837  27.557  27.422  1.00  0.00    -0.200 F 
ATOM     80  F   UNL A   1      54.546  27.781  24.798  1.00  0.00    -0.200 F 
ENDBRANCH  56  70
BRANCH  57  81
ATOM     81  C   UNL A   1      40.935  28.561  28.484  1.00  0.00     0.064 A 
ATOM     82  C   UNL A   1      40.496  28.251  29.779  1.00  0.00     0.173 A 
ATOM     83  C   UNL A   1      39.982  29.012  27.560  1.00  0.00     0.173 A 
ATOM     84  F   UNL A   1      41.371  27.801  30.692  1.00  0.00    -0.203 F 
ATOM     85  C   UNL A   1      39.156  28.379  30.133  1.00  0.00     0.198 A 
ATOM     86  C   UNL A   1      38.646  29.165  27.922  1.00  0.00     0.198 A 
ATOM     87  F   UNL A   1      40.355  29.329  26.311  1.00  0.00    -0.203 F 
ATOM     88  F   UNL A   1      38.758  28.048  31.368  1.00  0.00    -0.200 F 
ATOM     89  C   UNL A   1      38.233  28.844  29.207  1.00  0.00     0.200 A 
ATOM     90  F   UNL A   1      37.760  29.628  27.030  1.00  0.00    -0.200 F 
ATOM     91  F   UNL A   1      36.946  28.979  29.552  1.00  0.00    -0.200 F 
ENDBRANCH  57  81
BRANCH  69  92
ATOM     92  C   UNL A   1      46.263  33.056  28.420  1.00  0.00     0.064 A 
ATOM     93  C   UNL A   1      46.621  33.482  29.707  1.00  0.00     0.173 A 
ATOM     94  C   UNL A   1      46.042  34.039  27.441  1.00  0.00     0.173 A 
ATOM     95  F   UNL A   1      46.829  32.582  30.681  1.00  0.00    -0.203 F 
ATOM     96  C   UNL A   1      46.728  34.837  30.010  1.00  0.00     0.198 A 
ATOM     97  C   UNL A   1      46.179  35.392  27.741  1.00  0.00     0.198 A 
ATOM     98  F   UNL A   1      45.704  33.686  26.193  1.00  0.00    -0.203 F 
ATOM     99  F   UNL A   1      47.027  35.221  31.259  1.00  0.00    -0.200 F 
ATOM    100  C   UNL A   1      46.515  35.790  29.025  1.00  0.00     0.200 A 
ATOM    101  F   UNL A   1      45.985  36.310  26.784  1.00  0.00    -0.200 F 
ATOM    102  F   UNL A   1      46.626  37.093  29.318  1.00  0.00    -0.200 F 
ENDBRANCH  69  92
ENDBRANCH  43  44
ENDBRANCH  36  38
ENDBRANCH  35  36
ENDBRANCH  34  35
ENDBRANCH  33  34
ENDBRANCH  32  33
ENDBRANCH  31  32
ENDBRANCH   1  31
TORSDOF 21
ENDMDL
MODEL 3
REMARK VINA RESULT:     -10.4      0.609      6.996
REMARK SMILES C=C(C)COc1ccc2nc(C)n(-c3cccc(C(=O)OCCOCCOCCOC(=O)c4ccc(-c5c6nc(c(-c7c(F)c(F)c(F)c(F)c7F)c7ccc([nH]7)c(-c7c(F)c(F)c(F)c(F)c7F)c7nc(c(-c8c(F)c(F)c(F)c(F)c8F)c8ccc5[nH]8)C=C7)C=C6)cc4)c3)c(=O)c2c1
REMARK SMILES IDX 25 1 24 2 23 3 22 4 21 5 19 6 20 7 18 8 14 9 15 10 96 11
REMARK SMILES IDX 16 12 17 13 13 14 6 15 7 16 100 17 8 18 99 19 9 20 97 21
REMARK SMILES IDX 10 22 98 23 11 24 12 25 5 26 4 27 2 28 1 29 3 30 26 31 27 32
REMARK SMILES IDX 28 33 29 34 30 35 31 36 32 37 33 38 34 39 95 40 35 41 94 42
REMARK SMILES IDX 36 43 37 44 38 45 88 46 39 47 93 48 87 49 89 50 40 51 92 52
REMARK SMILES IDX 86 53 85 54 41 56 73 57 53 58 72 59 54 60 57 61 71 62 90 63
REMARK SMILES IDX 55 64 56 65 70 67 91 68 58 69 42 70 43 71 51 72 44 73 45 74
REMARK SMILES IDX 49 75 52 76 46 77 47 78 50 79 48 80 74 81 75 82 83 83 76 84
REMARK SMILES IDX 77 85 81 86 84 87 78 88 79 89 82 90 80 91 59 92 60 93 68 94
REMARK SMILES IDX 61 95 62 96 66 97 69 98 63 99 64 100 67 101 65 102
REMARK H PARENT 89 55 57 66
REMARK Flexibility Score: inf
ROOT
ATOM      1  C   UNL A   1      36.103  21.834  25.613  1.00  0.00     0.188 C 
ENDROOT
BRANCH   1   2
ATOM      2  O   UNL A   1      35.412  21.753  26.844  1.00  0.00    -0.376 OA
BRANCH   2   3
ATOM      3  C   UNL A   1      34.004  21.579  26.885  1.00  0.00     0.202 C 
BRANCH   3   4
ATOM      4  C   UNL A   1      33.139  22.312  27.916  1.00  0.00     0.261 C 
BRANCH   4   5
ATOM      5  O   UNL A   1      32.111  23.130  27.346  1.00  0.00    -0.460 OA
BRANCH   5   6
ATOM      6  C   UNL A   1      31.927  22.987  26.008  1.00  0.00     0.338 C 
ATOM      7  O   UNL A   1      31.239  22.151  25.446  1.00  0.00    -0.246 OA
BRANCH   6   8
ATOM      8  C   UNL A   1      32.516  24.150  25.310  1.00  0.00     0.062 A 
ATOM      9  C   UNL A   1      32.672  26.545  24.911  1.00  0.00     0.051 A 
ATOM     10  C   UNL A   1      33.566  26.284  23.860  1.00  0.00     0.027 A 
ATOM     11  C   UNL A   1      32.152  25.459  25.634  1.00  0.00     0.042 A 
ATOM     12  C   UNL A   1      33.928  24.974  23.534  1.00  0.00     0.003 A 
ATOM     13  C   UNL A   1      33.409  23.906  24.262  1.00  0.00     0.016 A 
BRANCH   9  14
ATOM     14  N   UNL A   1      32.329  27.886  25.286  1.00  0.00    -0.264 N 
ATOM     15  C   UNL A   1      33.320  31.959  27.731  1.00  0.00     0.120 A 
ATOM     16  C   UNL A   1      32.251  32.571  27.078  1.00  0.00     0.049 A 
ATOM     17  C   UNL A   1      33.656  30.642  27.443  1.00  0.00     0.062 A 
ATOM     18  C   UNL A   1      31.475  31.841  26.177  1.00  0.00     0.033 A 
ATOM     19  C   UNL A   1      32.873  29.924  26.532  1.00  0.00     0.070 A 
ATOM     20  C   UNL A   1      31.780  30.508  25.901  1.00  0.00     0.078 A 
ATOM     21  C   UNL A   1      33.189  28.530  26.192  1.00  0.00     0.266 A 
ATOM     22  N   UNL A   1      30.961  29.801  25.024  1.00  0.00    -0.234 NA
ATOM     23  O   UNL A   1      34.202  28.040  26.691  1.00  0.00    -0.268 OA
ATOM     24  C   UNL A   1      31.230  28.559  24.769  1.00  0.00     0.113 A 
ATOM     25  C   UNL A   1      30.212  27.848  23.897  1.00  0.00     0.088 C 
BRANCH  15  26
ATOM     26  O   UNL A   1      34.095  32.668  28.609  1.00  0.00    -0.489 OA
BRANCH  26  27
ATOM     27  C   UNL A   1      35.411  32.903  28.078  1.00  0.00     0.260 C 
BRANCH  27  28
ATOM     28  C   UNL A   1      36.456  32.940  29.173  1.00  0.00    -0.043 C 
ATOM     29  C   UNL A   1      37.716  33.351  28.948  1.00  0.00     0.011 C 
ATOM     30  C   UNL A   1      35.986  32.541  30.541  1.00  0.00     0.042 C 
ENDBRANCH  27  28
ENDBRANCH  26  27
ENDBRANCH  15  26
ENDBRANCH   9  14
ENDBRANCH   6   8
ENDBRANCH   5   6
ENDBRANCH   4   5
ENDBRANCH   3   4
ENDBRANCH   2   3
ENDBRANCH   1   2
BRANCH   1  31
ATOM     31  C   UNL A   1      37.527  22.421  25.511  1.00  0.00     0.188 C 
BRANCH  31  32
ATOM     32  O   UNL A   1      38.651  21.573  25.386  1.00  0.00    -0.376 OA
BRANCH  32  33
ATOM     33  C   UNL A   1      38.441  20.179  25.205  1.00  0.00     0.202 C 
BRANCH  33  34
ATOM     34  C   UNL A   1      39.527  19.210  25.677  1.00  0.00     0.261 C 
BRANCH  34  35
ATOM     35  O   UNL A   1      40.839  19.647  25.285  1.00  0.00    -0.460 OA
BRANCH  35  36
ATOM     36  C   UNL A   1      41.815  19.473  26.206  1.00  0.00     0.338 C 
ATOM     37  O   UNL A   1      42.284  18.421  26.607  1.00  0.00    -0.246 OA
BRANCH  36  38
ATOM     38  C   UNL A   1      42.401  20.787  26.525  1.00  0.00     0.060 A 
ATOM     39  C   UNL A   1      42.991  21.574  25.535  1.00  0.00     0.016 A 
ATOM     40  C   UNL A   1      42.342  21.233  27.852  1.00  0.00     0.016 A 
ATOM     41  C   UNL A   1      43.496  22.832  25.871  1.00  0.00     0.010 A 
ATOM     42  C   UNL A   1      42.869  22.479  28.191  1.00  0.00     0.010 A 
ATOM     43  C   UNL A   1      43.426  23.295  27.197  1.00  0.00    -0.014 A 
BRANCH  43  44
ATOM     44  C   UNL A   1      43.771  24.701  27.510  1.00  0.00     0.031 A 
ATOM     45  C   UNL A   1      42.724  25.724  27.816  1.00  0.00     0.074 A 
ATOM     46  C   UNL A   1      45.073  25.042  27.501  1.00  0.00     0.049 A 
ATOM     47  N   UNL A   1      42.879  26.975  28.173  1.00  0.00    -0.248 NA
ATOM     48  C   UNL A   1      41.322  25.296  27.704  1.00  0.00     0.031 C 
ATOM     49  C   UNL A   1      46.174  24.128  27.192  1.00  0.00     0.029 A 
ATOM     50  N   UNL A   1      45.691  26.238  27.758  1.00  0.00    -0.354 N 
ATOM     51  C   UNL A   1      41.600  27.478  28.359  1.00  0.00     0.074 A 
ATOM     52  C   UNL A   1      40.677  26.410  28.028  1.00  0.00     0.031 C 
ATOM     53  C   UNL A   1      47.334  24.792  27.290  1.00  0.00     0.029 A 
ATOM     54  C   UNL A   1      47.058  26.179  27.655  1.00  0.00     0.049 A 
ATOM     55  H   UNL A   1      45.202  27.059  27.992  1.00  0.00     0.167 HD
ATOM     56  C   UNL A   1      41.240  28.713  28.785  1.00  0.00     0.037 A 
ATOM     57  C   UNL A   1      47.987  27.133  27.846  1.00  0.00     0.037 A 
ATOM     58  C   UNL A   1      42.168  29.776  29.088  1.00  0.00     0.049 A 
ATOM     59  C   UNL A   1      47.556  28.503  28.281  1.00  0.00     0.074 A 
ATOM     60  C   UNL A   1      41.895  31.055  29.544  1.00  0.00     0.029 A 
ATOM     61  N   UNL A   1      43.547  29.688  28.955  1.00  0.00    -0.354 N 
ATOM     62  N   UNL A   1      46.347  28.950  28.518  1.00  0.00    -0.248 NA
ATOM     63  C   UNL A   1      48.618  29.496  28.493  1.00  0.00     0.031 C 
ATOM     64  C   UNL A   1      43.102  31.755  29.644  1.00  0.00     0.029 A 
ATOM     65  C   UNL A   1      44.134  30.896  29.303  1.00  0.00     0.049 A 
ATOM     66  H   UNL A   1      44.036  28.888  28.660  1.00  0.00     0.167 HD
ATOM     67  C   UNL A   1      46.504  30.265  28.936  1.00  0.00     0.074 A 
ATOM     68  C   UNL A   1      47.926  30.539  28.930  1.00  0.00     0.031 C 
ATOM     69  C   UNL A   1      45.550  31.159  29.296  1.00  0.00     0.037 A 
BRANCH  56  70
ATOM     70  C   UNL A   1      39.778  28.995  28.970  1.00  0.00     0.064 A 
ATOM     71  C   UNL A   1      38.974  29.397  27.893  1.00  0.00     0.173 A 
ATOM     72  C   UNL A   1      39.152  28.758  30.203  1.00  0.00     0.173 A 
ATOM     73  F   UNL A   1      39.524  29.639  26.693  1.00  0.00    -0.203 F 
ATOM     74  C   UNL A   1      37.599  29.555  28.045  1.00  0.00     0.198 A 
ATOM     75  C   UNL A   1      37.774  28.894  30.345  1.00  0.00     0.198 A 
ATOM     76  F   UNL A   1      39.874  28.362  31.262  1.00  0.00    -0.203 F 
ATOM     77  F   UNL A   1      36.852  29.952  27.005  1.00  0.00    -0.200 F 
ATOM     78  C   UNL A   1      36.998  29.292  29.267  1.00  0.00     0.200 A 
ATOM     79  F   UNL A   1      37.192  28.622  31.523  1.00  0.00    -0.200 F 
ATOM     80  F   UNL A   1      35.671  29.419  29.404  1.00  0.00    -0.200 F 
ENDBRANCH  56  70
BRANCH  57  81
ATOM     81  C   UNL A   1      49.422  26.794  27.677  1.00  0.00     0.064 A 
ATOM     82  C   UNL A   1      50.215  26.461  28.784  1.00  0.00     0.173 A 
ATOM     83  C   UNL A   1      50.018  26.757  26.409  1.00  0.00     0.173 A 
ATOM     84  F   UNL A   1      49.691  26.498  30.018  1.00  0.00    -0.203 F 
ATOM     85  C   UNL A   1      51.555  26.114  28.628  1.00  0.00     0.198 A 
ATOM     86  C   UNL A   1      51.350  26.385  26.252  1.00  0.00     0.198 A 
ATOM     87  F   UNL A   1      49.296  27.059  25.319  1.00  0.00    -0.203 F 
ATOM     88  F   UNL A   1      52.299  25.830  29.705  1.00  0.00    -0.200 F 
ATOM     89  C   UNL A   1      52.119  26.068  27.362  1.00  0.00     0.200 A 
ATOM     90  F   UNL A   1      51.888  26.326  25.026  1.00  0.00    -0.200 F 
ATOM     91  F   UNL A   1      53.404  25.722  27.212  1.00  0.00    -0.200 F 
ENDBRANCH  57  81
BRANCH  69  92
ATOM     92  C   UNL A   1      46.015  32.515  29.744  1.00  0.00     0.064 A 
ATOM     93  C   UNL A   1      46.341  32.777  31.082  1.00  0.00     0.173 A 
ATOM     94  C   UNL A   1      46.170  33.555  28.814  1.00  0.00     0.173 A 
ATOM     95  F   UNL A   1      46.196  31.820  32.012  1.00  0.00    -0.203 F 
ATOM     96  C   UNL A   1      46.782  34.037  31.479  1.00  0.00     0.198 A 
ATOM     97  C   UNL A   1      46.639  34.805  29.209  1.00  0.00     0.198 A 
ATOM     98  F   UNL A   1      45.877  33.356  27.521  1.00  0.00    -0.203 F 
ATOM     99  F   UNL A   1      47.045  34.278  32.771  1.00  0.00    -0.200 F 
ATOM    100  C   UNL A   1      46.938  35.048  30.541  1.00  0.00     0.200 A 
ATOM    101  F   UNL A   1      46.801  35.776  28.299  1.00  0.00    -0.200 F 
ATOM    102  F   UNL A   1      47.369  36.257  30.924  1.00  0.00    -0.200 F 
ENDBRANCH  69  92
ENDBRANCH  43  44
ENDBRANCH  36  38
ENDBRANCH  35  36
ENDBRANCH  34  35
ENDBRANCH  33  34
ENDBRANCH  32  33
ENDBRANCH  31  32
ENDBRANCH   1  31
TORSDOF 21
ENDMDL
