MODEL 1
REMARK VINA RESULT:      -9.9      0.000      0.000
REMARK SMILES C=CC[N@H+](CC(=O)OCCOCCOCCOC(=O)c1ccc(-c2c3nc(c(-c4c(F)c(F)c(F)c(F)c4F)c4ccc([nH]4)c(-c4c(F)c(F)c(F)c(F)c4F)c4nc(c(-c5c(F)c(F)c(F)c(F)c5F)c5ccc2[nH]5)C=C4)C=C3)cc1)C1CCSCC1
REMARK SMILES IDX 12 1 11 2 10 3 9 4 8 5 6 6 7 7 5 8 4 9 3 11 2 12 1 13 83 14
REMARK SMILES IDX 84 15 88 16 85 17 87 18 86 19 13 20 14 21 15 22 16 23 17 24
REMARK SMILES IDX 18 25 19 26 20 27 21 28 82 29 22 30 81 31 23 32 24 33 25 34
REMARK SMILES IDX 75 35 26 36 80 37 74 38 76 39 27 40 79 41 73 42 72 43 28 45
REMARK SMILES IDX 60 46 40 47 59 48 41 49 44 50 58 51 77 52 42 53 43 54 57 56
REMARK SMILES IDX 78 57 45 58 29 59 30 60 38 61 31 62 32 63 36 64 39 65 33 66
REMARK SMILES IDX 34 67 37 68 35 69 61 70 62 71 70 72 63 73 64 74 68 75 71 76
REMARK SMILES IDX 65 77 66 78 69 79 67 80 46 81 47 82 55 83 48 84 49 85 53 86
REMARK SMILES IDX 56 87 50 88 51 89 54 90 52 91
REMARK H PARENT 4 10 76 44 44 55
REMARK Flexibility Score: inf
ROOT
ATOM      1  C   UNL A   1      33.530  27.580  22.694  1.00  0.00     0.188 C 
ENDROOT
BRANCH   1   2
ATOM      2  O   UNL A   1      32.560  26.550  22.836  1.00  0.00    -0.376 OA
BRANCH   2   3
ATOM      3  C   UNL A   1      32.223  25.773  21.687  1.00  0.00     0.202 C 
BRANCH   3   4
ATOM      4  C   UNL A   1      33.081  24.528  21.454  1.00  0.00     0.261 C 
BRANCH   4   5
ATOM      5  O   UNL A   1      32.878  23.587  22.524  1.00  0.00    -0.459 OA
BRANCH   5   6
ATOM      6  C   UNL A   1      33.984  23.102  23.145  1.00  0.00     0.361 C 
ATOM      7  O   UNL A   1      35.113  23.155  22.668  1.00  0.00    -0.245 OA
BRANCH   6   8
ATOM      8  C   UNL A   1      33.712  22.592  24.574  1.00  0.00     0.387 C 
BRANCH   8   9
ATOM      9  N   UNL A   1      34.540  21.445  24.997  1.00  0.00    -0.320 N 
ATOM     10  H   UNL A   1      35.054  21.216  24.146  1.00  0.00     0.349 HD
BRANCH   9  11
ATOM     11  C   UNL A   1      35.578  21.815  25.967  1.00  0.00     0.291 C 
BRANCH  11  12
ATOM     12  C   UNL A   1      36.871  22.377  25.445  1.00  0.00     0.025 C 
ATOM     13  C   UNL A   1      37.240  23.658  25.597  1.00  0.00     0.010 C 
ENDBRANCH  11  12
ENDBRANCH   9  11
BRANCH   9  14
ATOM     14  C   UNL A   1      33.989  20.068  24.997  1.00  0.00     0.186 C 
ATOM     15  C   UNL A   1      35.147  19.059  24.805  1.00  0.00     0.076 C 
ATOM     16  C   UNL A   1      32.849  19.831  23.991  1.00  0.00     0.076 C 
ATOM     17  C   UNL A   1      34.933  17.668  24.211  1.00  0.00     0.075 C 
ATOM     18  C   UNL A   1      32.264  18.435  24.105  1.00  0.00     0.075 C 
ATOM     19  S   UNL A   1      33.376  17.197  23.429  1.00  0.00    -0.162 SA
ENDBRANCH   9  14
ENDBRANCH   8   9
ENDBRANCH   6   8
ENDBRANCH   5   6
ENDBRANCH   4   5
ENDBRANCH   3   4
ENDBRANCH   2   3
ENDBRANCH   1   2
BRANCH   1  20
ATOM     20  C   UNL A   1      33.254  28.934  23.356  1.00  0.00     0.188 C 
BRANCH  20  21
ATOM     21  O   UNL A   1      31.906  29.297  23.620  1.00  0.00    -0.376 OA
BRANCH  21  22
ATOM     22  C   UNL A   1      31.483  29.208  24.976  1.00  0.00     0.202 C 
BRANCH  22  23
ATOM     23  C   UNL A   1      31.721  30.490  25.768  1.00  0.00     0.261 C 
BRANCH  23  24
ATOM     24  O   UNL A   1      32.720  30.262  26.770  1.00  0.00    -0.460 OA
BRANCH  24  25
ATOM     25  C   UNL A   1      33.312  31.386  27.235  1.00  0.00     0.338 C 
ATOM     26  O   UNL A   1      32.818  32.494  27.306  1.00  0.00    -0.246 OA
BRANCH  25  27
ATOM     27  C   UNL A   1      34.679  31.057  27.697  1.00  0.00     0.060 A 
ATOM     28  C   UNL A   1      35.032  29.735  27.982  1.00  0.00     0.016 A 
ATOM     29  C   UNL A   1      35.574  32.088  27.977  1.00  0.00     0.016 A 
ATOM     30  C   UNL A   1      36.243  29.440  28.600  1.00  0.00     0.010 A 
ATOM     31  C   UNL A   1      36.812  31.790  28.555  1.00  0.00     0.010 A 
ATOM     32  C   UNL A   1      37.140  30.467  28.907  1.00  0.00    -0.014 A 
BRANCH  32  33
ATOM     33  C   UNL A   1      38.340  30.186  29.733  1.00  0.00     0.031 A 
ATOM     34  C   UNL A   1      39.435  29.336  29.153  1.00  0.00     0.074 A 
ATOM     35  C   UNL A   1      38.490  30.717  30.961  1.00  0.00     0.049 A 
ATOM     36  N   UNL A   1      40.441  28.751  29.751  1.00  0.00    -0.248 NA
ATOM     37  C   UNL A   1      39.380  29.107  27.700  1.00  0.00     0.031 C 
ATOM     38  C   UNL A   1      37.564  31.650  31.601  1.00  0.00     0.029 A 
ATOM     39  N   UNL A   1      39.489  30.549  31.887  1.00  0.00    -0.354 N 
ATOM     40  C   UNL A   1      41.089  28.020  28.763  1.00  0.00     0.074 A 
ATOM     41  C   UNL A   1      40.380  28.256  27.523  1.00  0.00     0.031 C 
ATOM     42  C   UNL A   1      38.051  31.993  32.804  1.00  0.00     0.029 A 
ATOM     43  C   UNL A   1      39.275  31.237  33.055  1.00  0.00     0.049 A 
ATOM     44  H   UNL A   1      40.283  29.989  31.728  1.00  0.00     0.167 HD
ATOM     45  C   UNL A   1      42.168  27.213  28.892  1.00  0.00     0.037 A 
ATOM     46  C   UNL A   1      39.962  31.218  34.213  1.00  0.00     0.037 A 
ATOM     47  C   UNL A   1      42.899  27.038  30.120  1.00  0.00     0.049 A 
ATOM     48  C   UNL A   1      41.155  30.308  34.339  1.00  0.00     0.074 A 
ATOM     49  C   UNL A   1      43.974  26.207  30.382  1.00  0.00     0.029 A 
ATOM     50  N   UNL A   1      42.642  27.741  31.288  1.00  0.00    -0.354 N 
ATOM     51  N   UNL A   1      41.680  29.503  33.448  1.00  0.00    -0.248 NA
ATOM     52  C   UNL A   1      41.833  30.284  35.643  1.00  0.00     0.031 C 
ATOM     53  C   UNL A   1      44.357  26.397  31.716  1.00  0.00     0.029 A 
ATOM     54  C   UNL A   1      43.545  27.373  32.271  1.00  0.00     0.049 A 
ATOM     55  H   UNL A   1      41.924  28.404  31.402  1.00  0.00     0.167 HD
ATOM     56  C   UNL A   1      42.749  28.880  34.078  1.00  0.00     0.074 A 
ATOM     57  C   UNL A   1      42.815  29.423  35.419  1.00  0.00     0.031 C 
ATOM     58  C   UNL A   1      43.592  27.934  33.596  1.00  0.00     0.037 A 
BRANCH  45  59
ATOM     59  C   UNL A   1      42.576  26.412  27.691  1.00  0.00     0.064 A 
ATOM     60  C   UNL A   1      41.980  25.183  27.374  1.00  0.00     0.173 A 
ATOM     61  C   UNL A   1      43.586  26.889  26.842  1.00  0.00     0.173 A 
ATOM     62  F   UNL A   1      41.025  24.671  28.166  1.00  0.00    -0.203 F 
ATOM     63  C   UNL A   1      42.400  24.449  26.267  1.00  0.00     0.198 A 
ATOM     64  C   UNL A   1      43.984  26.167  25.720  1.00  0.00     0.198 A 
ATOM     65  F   UNL A   1      44.189  28.060  27.098  1.00  0.00    -0.203 F 
ATOM     66  F   UNL A   1      41.852  23.252  26.011  1.00  0.00    -0.200 F 
ATOM     67  C   UNL A   1      43.397  24.943  25.439  1.00  0.00     0.200 A 
ATOM     68  F   UNL A   1      44.941  26.652  24.917  1.00  0.00    -0.200 F 
ATOM     69  F   UNL A   1      43.798  24.236  24.373  1.00  0.00    -0.200 F 
ENDBRANCH  45  59
BRANCH  46  70
ATOM     70  C   UNL A   1      39.513  32.053  35.359  1.00  0.00     0.064 A 
ATOM     71  C   UNL A   1      39.937  33.382  35.494  1.00  0.00     0.173 A 
ATOM     72  C   UNL A   1      38.649  31.541  36.340  1.00  0.00     0.173 A 
ATOM     73  F   UNL A   1      40.785  33.908  34.599  1.00  0.00    -0.203 F 
ATOM     74  C   UNL A   1      39.520  34.164  36.570  1.00  0.00     0.198 A 
ATOM     75  C   UNL A   1      38.209  32.333  37.397  1.00  0.00     0.198 A 
ATOM     76  F   UNL A   1      38.218  30.274  36.261  1.00  0.00    -0.203 F 
ATOM     77  F   UNL A   1      39.973  35.419  36.697  1.00  0.00    -0.200 F 
ATOM     78  C   UNL A   1      38.649  33.643  37.515  1.00  0.00     0.200 A 
ATOM     79  F   UNL A   1      37.357  31.829  38.300  1.00  0.00    -0.200 F 
ATOM     80  F   UNL A   1      38.241  34.400  38.542  1.00  0.00    -0.200 F 
ENDBRANCH  46  70
BRANCH  58  81
ATOM     81  C   UNL A   1      44.671  27.456  34.521  1.00  0.00     0.064 A 
ATOM     82  C   UNL A   1      44.446  26.420  35.437  1.00  0.00     0.173 A 
ATOM     83  C   UNL A   1      45.949  28.034  34.477  1.00  0.00     0.173 A 
ATOM     84  F   UNL A   1      43.235  25.848  35.525  1.00  0.00    -0.203 F 
ATOM     85  C   UNL A   1      45.453  25.999  36.301  1.00  0.00     0.198 A 
ATOM     86  C   UNL A   1      46.960  27.595  35.326  1.00  0.00     0.198 A 
ATOM     87  F   UNL A   1      46.213  29.025  33.614  1.00  0.00    -0.203 F 
ATOM     88  F   UNL A   1      45.202  25.042  37.205  1.00  0.00    -0.200 F 
ATOM     89  C   UNL A   1      46.709  26.584  36.243  1.00  0.00     0.200 A 
ATOM     90  F   UNL A   1      48.175  28.157  35.265  1.00  0.00    -0.200 F 
ATOM     91  F   UNL A   1      47.676  26.182  37.079  1.00  0.00    -0.200 F 
ENDBRANCH  58  81
ENDBRANCH  32  33
ENDBRANCH  25  27
ENDBRANCH  24  25
ENDBRANCH  23  24
ENDBRANCH  22  23
ENDBRANCH  21  22
ENDBRANCH  20  21
ENDBRANCH   1  20
TORSDOF 21
ENDMDL
MODEL 2
REMARK VINA RESULT:      -9.9      1.500      2.136
REMARK SMILES C=CC[N@H+](CC(=O)OCCOCCOCCOC(=O)c1ccc(-c2c3nc(c(-c4c(F)c(F)c(F)c(F)c4F)c4ccc([nH]4)c(-c4c(F)c(F)c(F)c(F)c4F)c4nc(c(-c5c(F)c(F)c(F)c(F)c5F)c5ccc2[nH]5)C=C4)C=C3)cc1)C1CCSCC1
REMARK SMILES IDX 12 1 11 2 10 3 9 4 8 5 6 6 7 7 5 8 4 9 3 11 2 12 1 13 83 14
REMARK SMILES IDX 84 15 88 16 85 17 87 18 86 19 13 20 14 21 15 22 16 23 17 24
REMARK SMILES IDX 18 25 19 26 20 27 21 28 82 29 22 30 81 31 23 32 24 33 25 34
REMARK SMILES IDX 75 35 26 36 80 37 74 38 76 39 27 40 79 41 73 42 72 43 28 45
REMARK SMILES IDX 60 46 40 47 59 48 41 49 44 50 58 51 77 52 42 53 43 54 57 56
REMARK SMILES IDX 78 57 45 58 29 59 30 60 38 61 31 62 32 63 36 64 39 65 33 66
REMARK SMILES IDX 34 67 37 68 35 69 61 70 62 71 70 72 63 73 64 74 68 75 71 76
REMARK SMILES IDX 65 77 66 78 69 79 67 80 46 81 47 82 55 83 48 84 49 85 53 86
REMARK SMILES IDX 56 87 50 88 51 89 54 90 52 91
REMARK H PARENT 4 10 76 44 44 55
REMARK Flexibility Score: inf
ROOT
ATOM      1  C   UNL A   1      33.808  27.355  22.657  1.00  0.00     0.188 C 
ENDROOT
BRANCH   1   2
ATOM      2  O   UNL A   1      32.654  26.694  22.155  1.00  0.00    -0.376 OA
BRANCH   2   3
ATOM      3  C   UNL A   1      32.837  25.554  21.315  1.00  0.00     0.202 C 
BRANCH   3   4
ATOM      4  C   UNL A   1      32.769  24.196  22.018  1.00  0.00     0.261 C 
BRANCH   4   5
ATOM      5  O   UNL A   1      34.083  23.614  22.082  1.00  0.00    -0.459 OA
BRANCH   5   6
ATOM      6  C   UNL A   1      34.471  23.082  23.271  1.00  0.00     0.361 C 
ATOM      7  O   UNL A   1      34.502  21.877  23.501  1.00  0.00    -0.245 OA
BRANCH   6   8
ATOM      8  C   UNL A   1      34.997  24.130  24.270  1.00  0.00     0.387 C 
BRANCH   8   9
ATOM      9  N   UNL A   1      34.740  23.824  25.692  1.00  0.00    -0.320 N 
ATOM     10  H   UNL A   1      34.367  22.875  25.651  1.00  0.00     0.349 HD
BRANCH   9  11
ATOM     11  C   UNL A   1      35.972  23.702  26.482  1.00  0.00     0.291 C 
BRANCH  11  12
ATOM     12  C   UNL A   1      37.272  23.522  25.750  1.00  0.00     0.025 C 
ATOM     13  C   UNL A   1      38.445  24.003  26.188  1.00  0.00     0.010 C 
ENDBRANCH  11  12
ENDBRANCH   9  11
BRANCH   9  14
ATOM     14  C   UNL A   1      33.482  24.255  26.348  1.00  0.00     0.186 C 
ATOM     15  C   UNL A   1      32.610  23.010  26.640  1.00  0.00     0.076 C 
ATOM     16  C   UNL A   1      32.699  25.340  25.588  1.00  0.00     0.076 C 
ATOM     17  C   UNL A   1      31.091  23.087  26.776  1.00  0.00     0.075 C 
ATOM     18  C   UNL A   1      31.475  25.808  26.355  1.00  0.00     0.075 C 
ATOM     19  S   UNL A   1      30.170  24.574  26.328  1.00  0.00    -0.162 SA
ENDBRANCH   9  14
ENDBRANCH   8   9
ENDBRANCH   6   8
ENDBRANCH   5   6
ENDBRANCH   4   5
ENDBRANCH   3   4
ENDBRANCH   2   3
ENDBRANCH   1   2
BRANCH   1  20
ATOM     20  C   UNL A   1      33.623  28.402  23.760  1.00  0.00     0.188 C 
BRANCH  20  21
ATOM     21  O   UNL A   1      32.424  29.162  23.777  1.00  0.00    -0.376 OA
BRANCH  21  22
ATOM     22  C   UNL A   1      31.673  29.130  24.986  1.00  0.00     0.202 C 
BRANCH  22  23
ATOM     23  C   UNL A   1      31.707  30.449  25.753  1.00  0.00     0.261 C 
BRANCH  23  24
ATOM     24  O   UNL A   1      32.555  30.319  26.902  1.00  0.00    -0.460 OA
BRANCH  24  25
ATOM     25  C   UNL A   1      33.183  31.461  27.264  1.00  0.00     0.338 C 
ATOM     26  O   UNL A   1      32.717  32.584  27.255  1.00  0.00    -0.246 OA
BRANCH  25  27
ATOM     27  C   UNL A   1      34.551  31.136  27.724  1.00  0.00     0.060 A 
ATOM     28  C   UNL A   1      34.909  29.814  28.004  1.00  0.00     0.016 A 
ATOM     29  C   UNL A   1      35.442  32.168  28.008  1.00  0.00     0.016 A 
ATOM     30  C   UNL A   1      36.121  29.521  28.621  1.00  0.00     0.010 A 
ATOM     31  C   UNL A   1      36.682  31.872  28.584  1.00  0.00     0.010 A 
ATOM     32  C   UNL A   1      37.014  30.549  28.932  1.00  0.00    -0.014 A 
BRANCH  32  33
ATOM     33  C   UNL A   1      38.216  30.269  29.757  1.00  0.00     0.031 A 
ATOM     34  C   UNL A   1      39.310  29.420  29.176  1.00  0.00     0.074 A 
ATOM     35  C   UNL A   1      38.366  30.800  30.984  1.00  0.00     0.049 A 
ATOM     36  N   UNL A   1      40.318  28.836  29.772  1.00  0.00    -0.248 NA
ATOM     37  C   UNL A   1      39.255  29.191  27.723  1.00  0.00     0.031 C 
ATOM     38  C   UNL A   1      37.440  31.732  31.625  1.00  0.00     0.029 A 
ATOM     39  N   UNL A   1      39.367  30.633  31.910  1.00  0.00    -0.354 N 
ATOM     40  C   UNL A   1      40.965  28.105  28.784  1.00  0.00     0.074 A 
ATOM     41  C   UNL A   1      40.255  28.341  27.545  1.00  0.00     0.031 C 
ATOM     42  C   UNL A   1      37.928  32.075  32.828  1.00  0.00     0.029 A 
ATOM     43  C   UNL A   1      39.153  31.320  33.078  1.00  0.00     0.049 A 
ATOM     44  H   UNL A   1      40.161  30.074  31.749  1.00  0.00     0.167 HD
ATOM     45  C   UNL A   1      42.045  27.298  28.911  1.00  0.00     0.037 A 
ATOM     46  C   UNL A   1      39.841  31.302  34.235  1.00  0.00     0.037 A 
ATOM     47  C   UNL A   1      42.778  27.124  30.139  1.00  0.00     0.049 A 
ATOM     48  C   UNL A   1      41.035  30.393  34.360  1.00  0.00     0.074 A 
ATOM     49  C   UNL A   1      43.853  26.295  30.400  1.00  0.00     0.029 A 
ATOM     50  N   UNL A   1      42.521  27.828  31.307  1.00  0.00    -0.354 N 
ATOM     51  N   UNL A   1      41.560  29.588  33.468  1.00  0.00    -0.248 NA
ATOM     52  C   UNL A   1      41.714  30.369  35.663  1.00  0.00     0.031 C 
ATOM     53  C   UNL A   1      44.238  26.484  31.733  1.00  0.00     0.029 A 
ATOM     54  C   UNL A   1      43.426  27.460  32.290  1.00  0.00     0.049 A 
ATOM     55  H   UNL A   1      41.802  28.490  31.421  1.00  0.00     0.167 HD
ATOM     56  C   UNL A   1      42.630  28.967  34.097  1.00  0.00     0.074 A 
ATOM     57  C   UNL A   1      42.697  29.509  35.438  1.00  0.00     0.031 C 
ATOM     58  C   UNL A   1      43.473  28.020  33.614  1.00  0.00     0.037 A 
BRANCH  45  59
ATOM     59  C   UNL A   1      42.452  26.498  27.710  1.00  0.00     0.064 A 
ATOM     60  C   UNL A   1      41.909  25.235  27.434  1.00  0.00     0.173 A 
ATOM     61  C   UNL A   1      43.408  27.011  26.819  1.00  0.00     0.173 A 
ATOM     62  F   UNL A   1      41.009  24.690  28.266  1.00  0.00    -0.203 F 
ATOM     63  C   UNL A   1      42.328  24.504  26.325  1.00  0.00     0.198 A 
ATOM     64  C   UNL A   1      43.803  26.289  25.695  1.00  0.00     0.198 A 
ATOM     65  F   UNL A   1      43.958  28.215  27.036  1.00  0.00    -0.203 F 
ATOM     66  F   UNL A   1      41.834  23.277  26.107  1.00  0.00    -0.200 F 
ATOM     67  C   UNL A   1      43.270  25.033  25.455  1.00  0.00     0.200 A 
ATOM     68  F   UNL A   1      44.707  26.807  24.852  1.00  0.00    -0.200 F 
ATOM     69  F   UNL A   1      43.671  24.328  24.387  1.00  0.00    -0.200 F 
ENDBRANCH  45  59
BRANCH  46  70
ATOM     70  C   UNL A   1      39.392  32.136  35.382  1.00  0.00     0.064 A 
ATOM     71  C   UNL A   1      38.549  31.611  36.370  1.00  0.00     0.173 A 
ATOM     72  C   UNL A   1      39.798  33.473  35.514  1.00  0.00     0.173 A 
ATOM     73  F   UNL A   1      38.110  30.348  36.273  1.00  0.00    -0.203 F 
ATOM     74  C   UNL A   1      38.124  32.393  37.443  1.00  0.00     0.198 A 
ATOM     75  C   UNL A   1      39.398  34.243  36.603  1.00  0.00     0.198 A 
ATOM     76  F   UNL A   1      40.601  34.026  34.593  1.00  0.00    -0.203 F 
ATOM     77  F   UNL A   1      37.285  31.878  38.353  1.00  0.00    -0.200 F 
ATOM     78  C   UNL A   1      38.556  33.705  37.563  1.00  0.00     0.200 A 
ATOM     79  F   UNL A   1      39.829  35.507  36.722  1.00  0.00    -0.200 F 
ATOM     80  F   UNL A   1      38.155  34.452  38.601  1.00  0.00    -0.200 F 
ENDBRANCH  46  70
BRANCH  58  81
ATOM     81  C   UNL A   1      44.554  27.544  34.538  1.00  0.00     0.064 A 
ATOM     82  C   UNL A   1      44.372  26.426  35.363  1.00  0.00     0.173 A 
ATOM     83  C   UNL A   1      45.790  28.206  34.584  1.00  0.00     0.173 A 
ATOM     84  F   UNL A   1      43.201  25.770  35.364  1.00  0.00    -0.203 F 
ATOM     85  C   UNL A   1      45.379  26.006  36.229  1.00  0.00     0.198 A 
ATOM     86  C   UNL A   1      46.802  27.769  35.433  1.00  0.00     0.198 A 
ATOM     87  F   UNL A   1      46.012  29.278  33.809  1.00  0.00    -0.203 F 
ATOM     88  F   UNL A   1      45.166  24.966  37.047  1.00  0.00    -0.200 F 
ATOM     89  C   UNL A   1      46.593  26.675  36.260  1.00  0.00     0.200 A 
ATOM     90  F   UNL A   1      47.977  28.413  35.458  1.00  0.00    -0.200 F 
ATOM     91  F   UNL A   1      47.559  26.273  37.097  1.00  0.00    -0.200 F 
ENDBRANCH  58  81
ENDBRANCH  32  33
ENDBRANCH  25  27
ENDBRANCH  24  25
ENDBRANCH  23  24
ENDBRANCH  22  23
ENDBRANCH  21  22
ENDBRANCH  20  21
ENDBRANCH   1  20
TORSDOF 21
ENDMDL
MODEL 3
REMARK VINA RESULT:      -9.9      0.967      2.106
REMARK SMILES C=CC[N@H+](CC(=O)OCCOCCOCCOC(=O)c1ccc(-c2c3nc(c(-c4c(F)c(F)c(F)c(F)c4F)c4ccc([nH]4)c(-c4c(F)c(F)c(F)c(F)c4F)c4nc(c(-c5c(F)c(F)c(F)c(F)c5F)c5ccc2[nH]5)C=C4)C=C3)cc1)C1CCSCC1
REMARK SMILES IDX 12 1 11 2 10 3 9 4 8 5 6 6 7 7 5 8 4 9 3 11 2 12 1 13 83 14
REMARK SMILES IDX 84 15 88 16 85 17 87 18 86 19 13 20 14 21 15 22 16 23 17 24
REMARK SMILES IDX 18 25 19 26 20 27 21 28 82 29 22 30 81 31 23 32 24 33 25 34
REMARK SMILES IDX 75 35 26 36 80 37 74 38 76 39 27 40 79 41 73 42 72 43 28 45
REMARK SMILES IDX 60 46 40 47 59 48 41 49 44 50 58 51 77 52 42 53 43 54 57 56
REMARK SMILES IDX 78 57 45 58 29 59 30 60 38 61 31 62 32 63 36 64 39 65 33 66
REMARK SMILES IDX 34 67 37 68 35 69 61 70 62 71 70 72 63 73 64 74 68 75 71 76
REMARK SMILES IDX 65 77 66 78 69 79 67 80 46 81 47 82 55 83 48 84 49 85 53 86
REMARK SMILES IDX 56 87 50 88 51 89 54 90 52 91
REMARK H PARENT 4 10 76 44 44 55
REMARK Flexibility Score: inf
ROOT
ATOM      1  C   UNL A   1      33.404  27.898  22.351  1.00  0.00     0.188 C 
ENDROOT
BRANCH   1   2
ATOM      2  O   UNL A   1      32.472  26.862  22.069  1.00  0.00    -0.376 OA
BRANCH   2   3
ATOM      3  C   UNL A   1      32.881  25.800  21.207  1.00  0.00     0.202 C 
BRANCH   3   4
ATOM      4  C   UNL A   1      32.908  24.406  21.838  1.00  0.00     0.261 C 
BRANCH   4   5
ATOM      5  O   UNL A   1      34.091  24.259  22.643  1.00  0.00    -0.459 OA
BRANCH   5   6
ATOM      6  C   UNL A   1      33.922  24.170  23.988  1.00  0.00     0.361 C 
ATOM      7  O   UNL A   1      34.615  24.770  24.804  1.00  0.00    -0.245 OA
BRANCH   6   8
ATOM      8  C   UNL A   1      32.686  23.346  24.398  1.00  0.00     0.387 C 
BRANCH   8   9
ATOM      9  N   UNL A   1      32.788  22.675  25.711  1.00  0.00    -0.320 N 
ATOM     10  H   UNL A   1      33.733  22.917  26.010  1.00  0.00     0.349 HD
BRANCH   9  11
ATOM     11  C   UNL A   1      31.914  23.273  26.728  1.00  0.00     0.291 C 
BRANCH  11  12
ATOM     12  C   UNL A   1      30.433  23.292  26.471  1.00  0.00     0.025 C 
ATOM     13  C   UNL A   1      29.522  22.826  27.339  1.00  0.00     0.010 C 
ENDBRANCH  11  12
ENDBRANCH   9  11
BRANCH   9  14
ATOM     14  C   UNL A   1      33.159  21.243  25.806  1.00  0.00     0.186 C 
ATOM     15  C   UNL A   1      34.673  21.091  25.524  1.00  0.00     0.076 C 
ATOM     16  C   UNL A   1      32.314  20.300  24.931  1.00  0.00     0.076 C 
ATOM     17  C   UNL A   1      35.283  19.795  24.995  1.00  0.00     0.075 C 
ATOM     18  C   UNL A   1      32.676  18.841  25.144  1.00  0.00     0.075 C 
ATOM     19  S   UNL A   1      34.256  18.438  24.392  1.00  0.00    -0.162 SA
ENDBRANCH   9  14
ENDBRANCH   8   9
ENDBRANCH   6   8
ENDBRANCH   5   6
ENDBRANCH   4   5
ENDBRANCH   3   4
ENDBRANCH   2   3
ENDBRANCH   1   2
BRANCH   1  20
ATOM     20  C   UNL A   1      33.086  28.868  23.494  1.00  0.00     0.188 C 
BRANCH  20  21
ATOM     21  O   UNL A   1      31.727  29.071  23.852  1.00  0.00    -0.376 OA
BRANCH  21  22
ATOM     22  C   UNL A   1      31.444  29.137  25.245  1.00  0.00     0.202 C 
BRANCH  22  23
ATOM     23  C   UNL A   1      31.721  30.510  25.853  1.00  0.00     0.261 C 
BRANCH  23  24
ATOM     24  O   UNL A   1      32.608  30.373  26.971  1.00  0.00    -0.460 OA
BRANCH  24  25
ATOM     25  C   UNL A   1      33.255  31.511  27.312  1.00  0.00     0.338 C 
ATOM     26  O   UNL A   1      32.807  32.641  27.285  1.00  0.00    -0.246 OA
BRANCH  25  27
ATOM     27  C   UNL A   1      34.619  31.172  27.775  1.00  0.00     0.060 A 
ATOM     28  C   UNL A   1      34.958  29.849  28.074  1.00  0.00     0.016 A 
ATOM     29  C   UNL A   1      35.526  32.195  28.042  1.00  0.00     0.016 A 
ATOM     30  C   UNL A   1      36.166  29.547  28.692  1.00  0.00     0.010 A 
ATOM     31  C   UNL A   1      36.762  31.889  28.621  1.00  0.00     0.010 A 
ATOM     32  C   UNL A   1      37.075  30.567  28.987  1.00  0.00    -0.014 A 
BRANCH  32  33
ATOM     33  C   UNL A   1      38.274  30.281  29.814  1.00  0.00     0.031 A 
ATOM     34  C   UNL A   1      39.372  29.438  29.230  1.00  0.00     0.074 A 
ATOM     35  C   UNL A   1      38.419  30.800  31.047  1.00  0.00     0.049 A 
ATOM     36  N   UNL A   1      40.377  28.850  29.825  1.00  0.00    -0.248 NA
ATOM     37  C   UNL A   1      39.322  29.222  27.774  1.00  0.00     0.031 C 
ATOM     38  C   UNL A   1      37.489  31.726  31.693  1.00  0.00     0.029 A 
ATOM     39  N   UNL A   1      39.416  30.627  31.975  1.00  0.00    -0.354 N 
ATOM     40  C   UNL A   1      41.030  28.129  28.833  1.00  0.00     0.074 A 
ATOM     41  C   UNL A   1      40.324  28.375  27.593  1.00  0.00     0.031 C 
ATOM     42  C   UNL A   1      37.972  32.059  32.901  1.00  0.00     0.029 A 
ATOM     43  C   UNL A   1      39.197  31.303  33.148  1.00  0.00     0.049 A 
ATOM     44  H   UNL A   1      40.211  30.070  31.812  1.00  0.00     0.167 HD
ATOM     45  C   UNL A   1      42.110  27.323  28.957  1.00  0.00     0.037 A 
ATOM     46  C   UNL A   1      39.881  31.275  34.308  1.00  0.00     0.037 A 
ATOM     47  C   UNL A   1      42.838  27.138  30.185  1.00  0.00     0.049 A 
ATOM     48  C   UNL A   1      41.075  30.367  34.429  1.00  0.00     0.074 A 
ATOM     49  C   UNL A   1      43.914  26.308  30.443  1.00  0.00     0.029 A 
ATOM     50  N   UNL A   1      42.576  27.831  31.359  1.00  0.00    -0.354 N 
ATOM     51  N   UNL A   1      41.604  29.570  33.532  1.00  0.00    -0.248 NA
ATOM     52  C   UNL A   1      41.749  30.332  35.735  1.00  0.00     0.031 C 
ATOM     53  C   UNL A   1      44.293  26.486  31.779  1.00  0.00     0.029 A 
ATOM     54  C   UNL A   1      43.477  27.455  32.342  1.00  0.00     0.049 A 
ATOM     55  H   UNL A   1      41.856  28.491  31.476  1.00  0.00     0.167 HD
ATOM     56  C   UNL A   1      42.673  28.945  34.159  1.00  0.00     0.074 A 
ATOM     57  C   UNL A   1      42.734  29.476  35.505  1.00  0.00     0.031 C 
ATOM     58  C   UNL A   1      43.519  28.004  33.671  1.00  0.00     0.037 A 
BRANCH  45  59
ATOM     59  C   UNL A   1      42.523  26.533  27.750  1.00  0.00     0.064 A 
ATOM     60  C   UNL A   1      43.523  26.977  26.873  1.00  0.00     0.173 A 
ATOM     61  C   UNL A   1      41.899  25.307  27.469  1.00  0.00     0.173 A 
ATOM     62  F   UNL A   1      44.133  28.152  27.083  1.00  0.00    -0.203 F 
ATOM     63  C   UNL A   1      43.864  26.234  25.744  1.00  0.00     0.198 A 
ATOM     64  C   UNL A   1      42.264  24.554  26.357  1.00  0.00     0.198 A 
ATOM     65  F   UNL A   1      40.937  24.837  28.277  1.00  0.00    -0.203 F 
ATOM     66  F   UNL A   1      44.787  26.699  24.891  1.00  0.00    -0.200 F 
ATOM     67  C   UNL A   1      43.239  25.022  25.490  1.00  0.00     0.200 A 
ATOM     68  F   UNL A   1      41.663  23.379  26.119  1.00  0.00    -0.200 F 
ATOM     69  F   UNL A   1      43.570  24.308  24.405  1.00  0.00    -0.200 F 
ENDBRANCH  45  59
BRANCH  46  70
ATOM     70  C   UNL A   1      39.426  32.099  35.460  1.00  0.00     0.064 A 
ATOM     71  C   UNL A   1      38.567  31.568  36.432  1.00  0.00     0.173 A 
ATOM     72  C   UNL A   1      39.843  33.430  35.614  1.00  0.00     0.173 A 
ATOM     73  F   UNL A   1      38.117  30.311  36.313  1.00  0.00    -0.203 F 
ATOM     74  C   UNL A   1      38.136  32.340  37.509  1.00  0.00     0.198 A 
ATOM     75  C   UNL A   1      39.437  34.190  36.709  1.00  0.00     0.198 A 
ATOM     76  F   UNL A   1      40.661  33.987  34.710  1.00  0.00    -0.203 F 
ATOM     77  F   UNL A   1      37.283  31.821  38.403  1.00  0.00    -0.200 F 
ATOM     78  C   UNL A   1      38.579  33.647  37.653  1.00  0.00     0.200 A 
ATOM     79  F   UNL A   1      39.878  35.447  36.849  1.00  0.00    -0.200 F 
ATOM     80  F   UNL A   1      38.173  34.383  38.695  1.00  0.00    -0.200 F 
ENDBRANCH  46  70
BRANCH  58  81
ATOM     81  C   UNL A   1      44.597  27.521  34.595  1.00  0.00     0.064 A 
ATOM     82  C   UNL A   1      44.463  26.326  35.316  1.00  0.00     0.173 A 
ATOM     83  C   UNL A   1      45.782  28.255  34.747  1.00  0.00     0.173 A 
ATOM     84  F   UNL A   1      43.340  25.598  35.214  1.00  0.00    -0.203 F 
ATOM     85  C   UNL A   1      45.465  25.899  36.183  1.00  0.00     0.198 A 
ATOM     86  C   UNL A   1      46.792  27.813  35.596  1.00  0.00     0.198 A 
ATOM     87  F   UNL A   1      45.958  29.402  34.074  1.00  0.00    -0.203 F 
ATOM     88  F   UNL A   1      45.295  24.781  36.901  1.00  0.00    -0.200 F 
ATOM     89  C   UNL A   1      46.629  26.640  36.319  1.00  0.00     0.200 A 
ATOM     90  F   UNL A   1      47.919  28.527  35.723  1.00  0.00    -0.200 F 
ATOM     91  F   UNL A   1      47.590  26.231  37.158  1.00  0.00    -0.200 F 
ENDBRANCH  58  81
ENDBRANCH  32  33
ENDBRANCH  25  27
ENDBRANCH  24  25
ENDBRANCH  23  24
ENDBRANCH  22  23
ENDBRANCH  21  22
ENDBRANCH  20  21
ENDBRANCH   1  20
TORSDOF 21
ENDMDL
