MODEL 1
REMARK VINA RESULT:     -11.8      0.000      0.000
REMARK SMILES COc1cc(C(=O)NC2(C(=O)OCCOCCOCCOC(=O)c3ccc(-c4c5nc(c(-c6c(F)c(F)c(F)c(F)c6F)c6ccc([nH]6)c(-c6c(F)c(F)c(F)c(F)c6F)c6nc(c(-c7c(F)c(F)c(F)c(F)c7F)c7ccc4[nH]7)C=C6)C=C5)cc3)CCCCC2)cc2c1OCCO2
REMARK SMILES IDX 16 1 15 2 14 3 13 4 12 5 10 6 11 7 9 8 87 9 91 10 88 11
REMARK SMILES IDX 90 12 89 13 8 14 6 15 7 16 5 18 3 19 4 20 94 21 93 22 95 23
REMARK SMILES IDX 92 24 98 25 96 26 97 27 2 28 1 29 17 30 18 31 19 32 20 33
REMARK SMILES IDX 21 34 22 35 23 36 24 37 25 38 86 39 26 40 85 41 27 42 28 43
REMARK SMILES IDX 29 44 79 45 30 46 84 47 78 48 80 49 31 50 83 51 77 52 76 53
REMARK SMILES IDX 32 55 64 56 44 57 63 58 45 59 48 60 62 61 81 62 46 63 47 64
REMARK SMILES IDX 61 66 82 67 49 68 33 69 34 70 42 71 35 72 36 73 40 74 43 75
REMARK SMILES IDX 37 76 38 77 41 78 39 79 65 80 66 81 74 82 67 83 68 84 72 85
REMARK SMILES IDX 75 86 69 87 70 88 73 89 71 90 50 91 51 92 59 93 52 94 53 95
REMARK SMILES IDX 57 96 60 97 54 98 55 99 58 100 56 101
REMARK H PARENT 8 17 80 54 48 65
REMARK Flexibility Score: inf
ROOT
ATOM      1  C   UNL A   1      39.328  22.033  26.383  1.00  0.00     0.188 C 
ENDROOT
BRANCH   1   2
ATOM      2  O   UNL A   1      38.396  21.451  25.485  1.00  0.00    -0.376 OA
BRANCH   2   3
ATOM      3  C   UNL A   1      37.008  21.616  25.778  1.00  0.00     0.202 C 
BRANCH   3   4
ATOM      4  C   UNL A   1      36.123  22.219  24.677  1.00  0.00     0.261 C 
BRANCH   4   5
ATOM      5  O   UNL A   1      34.724  21.885  24.813  1.00  0.00    -0.461 OA
BRANCH   5   6
ATOM      6  C   UNL A   1      33.807  22.803  24.406  1.00  0.00     0.331 C 
ATOM      7  O   UNL A   1      34.097  23.894  23.919  1.00  0.00    -0.249 OA
BRANCH   6   8
ATOM      8  C   UNL A   1      32.321  22.302  24.504  1.00  0.00     0.138 C 
ATOM      9  C   UNL A   1      32.411  20.794  24.825  1.00  0.00     0.040 C 
ATOM     10  C   UNL A   1      31.558  22.543  23.180  1.00  0.00     0.040 C 
ATOM     11  C   UNL A   1      32.937  19.978  23.644  1.00  0.00     0.003 C 
ATOM     12  C   UNL A   1      32.011  21.662  22.012  1.00  0.00     0.003 C 
ATOM     13  C   UNL A   1      32.088  20.191  22.399  1.00  0.00     0.000 C 
BRANCH   8  14
ATOM     14  N   UNL A   1      31.824  23.025  25.744  1.00  0.00    -0.336 N 
ATOM     15  C   UNL A   1      31.349  24.229  26.200  1.00  0.00     0.252 C 
ATOM     16  O   UNL A   1      30.978  24.261  27.376  1.00  0.00    -0.269 OA
ATOM     17  H   UNL A   1      31.853  22.396  26.501  1.00  0.00     0.165 HD
BRANCH  15  18
ATOM     18  C   UNL A   1      31.358  25.511  25.454  1.00  0.00     0.047 A 
ATOM     19  C   UNL A   1      32.247  27.717  25.156  1.00  0.00     0.165 A 
ATOM     20  C   UNL A   1      32.434  26.375  25.477  1.00  0.00     0.064 A 
ATOM     21  C   UNL A   1      31.107  28.129  24.472  1.00  0.00     0.203 A 
ATOM     22  C   UNL A   1      30.131  27.178  24.174  1.00  0.00     0.166 A 
ATOM     23  O   UNL A   1      31.023  29.443  24.092  1.00  0.00    -0.483 OA
ATOM     24  C   UNL A   1      30.217  25.895  24.725  1.00  0.00     0.064 A 
ATOM     25  O   UNL A   1      29.058  27.458  23.364  1.00  0.00    -0.486 OA
ATOM     26  C   UNL A   1      29.788  29.755  23.438  1.00  0.00     0.271 C 
ATOM     27  C   UNL A   1      29.353  28.605  22.548  1.00  0.00     0.271 C 
BRANCH  19  28
ATOM     28  O   UNL A   1      33.208  28.589  25.601  1.00  0.00    -0.493 OA
ATOM     29  C   UNL A   1      34.354  27.861  26.070  1.00  0.00     0.278 C 
ENDBRANCH  19  28
ENDBRANCH  15  18
ENDBRANCH   8  14
ENDBRANCH   6   8
ENDBRANCH   5   6
ENDBRANCH   4   5
ENDBRANCH   3   4
ENDBRANCH   2   3
ENDBRANCH   1   2
BRANCH   1  30
ATOM     30  C   UNL A   1      40.517  21.173  26.822  1.00  0.00     0.188 C 
BRANCH  30  31
ATOM     31  O   UNL A   1      41.391  20.776  25.781  1.00  0.00    -0.376 OA
BRANCH  31  32
ATOM     32  C   UNL A   1      42.772  20.648  26.121  1.00  0.00     0.202 C 
BRANCH  32  33
ATOM     33  C   UNL A   1      43.700  21.687  25.455  1.00  0.00     0.261 C 
BRANCH  33  34
ATOM     34  O   UNL A   1      43.075  22.929  25.065  1.00  0.00    -0.460 OA
BRANCH  34  35
ATOM     35  C   UNL A   1      43.828  24.055  25.145  1.00  0.00     0.338 C 
ATOM     36  O   UNL A   1      44.731  24.378  24.389  1.00  0.00    -0.246 OA
BRANCH  35  37
ATOM     37  C   UNL A   1      43.173  24.982  26.109  1.00  0.00     0.060 A 
ATOM     38  C   UNL A   1      43.601  26.318  26.138  1.00  0.00     0.016 A 
ATOM     39  C   UNL A   1      42.090  24.585  26.898  1.00  0.00     0.016 A 
ATOM     40  C   UNL A   1      42.981  27.247  26.982  1.00  0.00     0.010 A 
ATOM     41  C   UNL A   1      41.487  25.509  27.763  1.00  0.00     0.010 A 
ATOM     42  C   UNL A   1      41.950  26.836  27.837  1.00  0.00    -0.014 A 
BRANCH  42  43
ATOM     43  C   UNL A   1      41.508  27.715  28.954  1.00  0.00     0.031 A 
ATOM     44  C   UNL A   1      42.268  27.640  30.252  1.00  0.00     0.074 A 
ATOM     45  C   UNL A   1      40.477  28.572  28.840  1.00  0.00     0.049 A 
ATOM     46  N   UNL A   1      42.027  28.220  31.401  1.00  0.00    -0.248 NA
ATOM     47  C   UNL A   1      43.467  26.785  30.250  1.00  0.00     0.031 C 
ATOM     48  C   UNL A   1      39.695  28.804  27.630  1.00  0.00     0.029 A 
ATOM     49  N   UNL A   1      39.903  29.402  29.777  1.00  0.00    -0.354 N 
ATOM     50  C   UNL A   1      43.033  27.790  32.257  1.00  0.00     0.074 A 
ATOM     51  C   UNL A   1      43.871  26.879  31.507  1.00  0.00     0.031 C 
ATOM     52  C   UNL A   1      38.729  29.702  27.901  1.00  0.00     0.029 A 
ATOM     53  C   UNL A   1      38.803  30.080  29.313  1.00  0.00     0.049 A 
ATOM     54  H   UNL A   1      40.249  29.499  30.693  1.00  0.00     0.167 HD
ATOM     55  C   UNL A   1      43.246  28.127  33.551  1.00  0.00     0.037 A 
ATOM     56  C   UNL A   1      37.940  30.890  29.961  1.00  0.00     0.037 A 
ATOM     57  C   UNL A   1      42.423  29.038  34.301  1.00  0.00     0.049 A 
ATOM     58  C   UNL A   1      38.146  31.181  31.430  1.00  0.00     0.074 A 
ATOM     59  C   UNL A   1      42.568  29.447  35.615  1.00  0.00     0.029 A 
ATOM     60  N   UNL A   1      41.296  29.674  33.804  1.00  0.00    -0.354 N 
ATOM     61  N   UNL A   1      39.100  30.778  32.233  1.00  0.00    -0.248 NA
ATOM     62  C   UNL A   1      37.148  32.045  32.083  1.00  0.00     0.031 C 
ATOM     63  C   UNL A   1      41.495  30.285  35.932  1.00  0.00     0.029 A 
ATOM     64  C   UNL A   1      40.719  30.451  34.797  1.00  0.00     0.049 A 
ATOM     65  H   UNL A   1      40.955  29.587  32.885  1.00  0.00     0.167 HD
ATOM     66  C   UNL A   1      38.841  31.365  33.467  1.00  0.00     0.074 A 
ATOM     67  C   UNL A   1      37.643  32.161  33.307  1.00  0.00     0.031 C 
ATOM     68  C   UNL A   1      39.536  31.255  34.626  1.00  0.00     0.037 A 
BRANCH  55  69
ATOM     69  C   UNL A   1      44.403  27.477  34.253  1.00  0.00     0.064 A 
ATOM     70  C   UNL A   1      45.697  28.019  34.207  1.00  0.00     0.173 A 
ATOM     71  C   UNL A   1      44.206  26.312  35.008  1.00  0.00     0.173 A 
ATOM     72  F   UNL A   1      45.943  29.123  33.485  1.00  0.00    -0.203 F 
ATOM     73  C   UNL A   1      46.754  27.402  34.870  1.00  0.00     0.198 A 
ATOM     74  C   UNL A   1      45.259  25.716  35.696  1.00  0.00     0.198 A 
ATOM     75  F   UNL A   1      42.988  25.754  35.087  1.00  0.00    -0.203 F 
ATOM     76  F   UNL A   1      47.991  27.907  34.771  1.00  0.00    -0.200 F 
ATOM     77  C   UNL A   1      46.533  26.257  35.620  1.00  0.00     0.200 A 
ATOM     78  F   UNL A   1      45.040  24.618  36.432  1.00  0.00    -0.200 F 
ATOM     79  F   UNL A   1      47.551  25.670  36.265  1.00  0.00    -0.200 F 
ENDBRANCH  55  69
BRANCH  56  80
ATOM     80  C   UNL A   1      36.774  31.473  29.241  1.00  0.00     0.064 A 
ATOM     81  C   UNL A   1      36.722  32.838  28.925  1.00  0.00     0.173 A 
ATOM     82  C   UNL A   1      35.664  30.685  28.900  1.00  0.00     0.173 A 
ATOM     83  F   UNL A   1      37.739  33.643  29.266  1.00  0.00    -0.203 F 
ATOM     84  C   UNL A   1      35.597  33.396  28.317  1.00  0.00     0.198 A 
ATOM     85  C   UNL A   1      34.554  31.237  28.263  1.00  0.00     0.198 A 
ATOM     86  F   UNL A   1      35.653  29.377  29.192  1.00  0.00    -0.203 F 
ATOM     87  F   UNL A   1      35.549  34.716  28.085  1.00  0.00    -0.200 F 
ATOM     88  C   UNL A   1      34.518  32.594  27.981  1.00  0.00     0.200 A 
ATOM     89  F   UNL A   1      33.514  30.458  27.937  1.00  0.00    -0.200 F 
ATOM     90  F   UNL A   1      33.436  33.132  27.402  1.00  0.00    -0.200 F 
ENDBRANCH  56  80
BRANCH  68  91
ATOM     91  C   UNL A   1      39.057  32.051  35.808  1.00  0.00     0.064 A 
ATOM     92  C   UNL A   1      38.244  31.489  36.802  1.00  0.00     0.173 A 
ATOM     93  C   UNL A   1      39.465  33.385  35.974  1.00  0.00     0.173 A 
ATOM     94  F   UNL A   1      37.817  30.222  36.690  1.00  0.00    -0.203 F 
ATOM     95  C   UNL A   1      37.837  32.238  37.905  1.00  0.00     0.198 A 
ATOM     96  C   UNL A   1      39.084  34.121  37.093  1.00  0.00     0.198 A 
ATOM     97  F   UNL A   1      40.252  33.971  35.059  1.00  0.00    -0.203 F 
ATOM     98  F   UNL A   1      37.022  31.694  38.819  1.00  0.00    -0.200 F 
ATOM     99  C   UNL A   1      38.263  33.549  38.054  1.00  0.00     0.200 A 
ATOM    100  F   UNL A   1      39.513  35.381  37.243  1.00  0.00    -0.200 F 
ATOM    101  F   UNL A   1      37.881  34.264  39.121  1.00  0.00    -0.200 F 
ENDBRANCH  68  91
ENDBRANCH  42  43
ENDBRANCH  35  37
ENDBRANCH  34  35
ENDBRANCH  33  34
ENDBRANCH  32  33
ENDBRANCH  31  32
ENDBRANCH  30  31
ENDBRANCH   1  30
TORSDOF 20
ENDMDL
MODEL 2
REMARK VINA RESULT:     -11.4      4.684      7.019
REMARK SMILES COc1cc(C(=O)NC2(C(=O)OCCOCCOCCOC(=O)c3ccc(-c4c5nc(c(-c6c(F)c(F)c(F)c(F)c6F)c6ccc([nH]6)c(-c6c(F)c(F)c(F)c(F)c6F)c6nc(c(-c7c(F)c(F)c(F)c(F)c7F)c7ccc4[nH]7)C=C6)C=C5)cc3)CCCCC2)cc2c1OCCO2
REMARK SMILES IDX 16 1 15 2 14 3 13 4 12 5 10 6 11 7 9 8 87 9 91 10 88 11
REMARK SMILES IDX 90 12 89 13 8 14 6 15 7 16 5 18 3 19 4 20 94 21 93 22 95 23
REMARK SMILES IDX 92 24 98 25 96 26 97 27 2 28 1 29 17 30 18 31 19 32 20 33
REMARK SMILES IDX 21 34 22 35 23 36 24 37 25 38 86 39 26 40 85 41 27 42 28 43
REMARK SMILES IDX 29 44 79 45 30 46 84 47 78 48 80 49 31 50 83 51 77 52 76 53
REMARK SMILES IDX 32 55 64 56 44 57 63 58 45 59 48 60 62 61 81 62 46 63 47 64
REMARK SMILES IDX 61 66 82 67 49 68 33 69 34 70 42 71 35 72 36 73 40 74 43 75
REMARK SMILES IDX 37 76 38 77 41 78 39 79 65 80 66 81 74 82 67 83 68 84 72 85
REMARK SMILES IDX 75 86 69 87 70 88 73 89 71 90 50 91 51 92 59 93 52 94 53 95
REMARK SMILES IDX 57 96 60 97 54 98 55 99 58 100 56 101
REMARK H PARENT 8 17 80 54 48 65
REMARK Flexibility Score: inf
ROOT
ATOM      1  C   UNL A   1      39.610  21.769  26.368  1.00  0.00     0.188 C 
ENDROOT
BRANCH   1   2
ATOM      2  O   UNL A   1      38.652  21.281  25.442  1.00  0.00    -0.376 OA
BRANCH   2   3
ATOM      3  C   UNL A   1      37.419  21.993  25.333  1.00  0.00     0.202 C 
BRANCH   3   4
ATOM      4  C   UNL A   1      36.207  21.223  24.787  1.00  0.00     0.261 C 
BRANCH   4   5
ATOM      5  O   UNL A   1      35.318  22.036  23.990  1.00  0.00    -0.461 OA
BRANCH   5   6
ATOM      6  C   UNL A   1      33.980  21.826  24.115  1.00  0.00     0.331 C 
ATOM      7  O   UNL A   1      33.469  20.719  24.270  1.00  0.00    -0.249 OA
BRANCH   6   8
ATOM      8  C   UNL A   1      33.133  23.149  24.159  1.00  0.00     0.138 C 
ATOM      9  C   UNL A   1      33.962  24.148  24.994  1.00  0.00     0.040 C 
ATOM     10  C   UNL A   1      31.746  22.907  24.801  1.00  0.00     0.040 C 
ATOM     11  C   UNL A   1      34.018  23.765  26.473  1.00  0.00     0.003 C 
ATOM     12  C   UNL A   1      31.780  22.617  26.304  1.00  0.00     0.003 C 
ATOM     13  C   UNL A   1      32.622  23.632  27.066  1.00  0.00     0.000 C 
BRANCH   8  14
ATOM     14  N   UNL A   1      33.167  23.596  22.708  1.00  0.00    -0.336 N 
ATOM     15  C   UNL A   1      33.101  24.699  21.893  1.00  0.00     0.252 C 
ATOM     16  O   UNL A   1      33.283  24.502  20.689  1.00  0.00    -0.269 OA
ATOM     17  H   UNL A   1      33.278  22.798  22.141  1.00  0.00     0.165 HD
BRANCH  15  18
ATOM     18  C   UNL A   1      32.713  26.069  22.308  1.00  0.00     0.047 A 
ATOM     19  C   UNL A   1      32.988  27.928  23.795  1.00  0.00     0.165 A 
ATOM     20  C   UNL A   1      33.536  26.874  23.070  1.00  0.00     0.064 A 
ATOM     21  C   UNL A   1      31.717  28.411  23.494  1.00  0.00     0.203 A 
ATOM     22  C   UNL A   1      30.985  27.773  22.492  1.00  0.00     0.166 A 
ATOM     23  O   UNL A   1      31.269  29.515  24.170  1.00  0.00    -0.483 OA
ATOM     24  C   UNL A   1      31.444  26.566  21.955  1.00  0.00     0.064 A 
ATOM     25  O   UNL A   1      29.800  28.278  22.017  1.00  0.00    -0.486 OA
ATOM     26  C   UNL A   1      29.936  29.888  23.806  1.00  0.00     0.271 C 
ATOM     27  C   UNL A   1      29.714  29.682  22.318  1.00  0.00     0.271 C 
BRANCH  19  28
ATOM     28  O   UNL A   1      33.740  28.405  24.839  1.00  0.00    -0.493 OA
ATOM     29  C   UNL A   1      33.624  27.527  25.970  1.00  0.00     0.278 C 
ENDBRANCH  19  28
ENDBRANCH  15  18
ENDBRANCH   8  14
ENDBRANCH   6   8
ENDBRANCH   5   6
ENDBRANCH   4   5
ENDBRANCH   3   4
ENDBRANCH   2   3
ENDBRANCH   1   2
BRANCH   1  30
ATOM     30  C   UNL A   1      41.081  21.436  26.103  1.00  0.00     0.188 C 
BRANCH  30  31
ATOM     31  O   UNL A   1      41.316  20.180  25.494  1.00  0.00    -0.376 OA
BRANCH  31  32
ATOM     32  C   UNL A   1      41.883  19.165  26.322  1.00  0.00     0.202 C 
BRANCH  32  33
ATOM     33  C   UNL A   1      43.123  18.463  25.725  1.00  0.00     0.261 C 
BRANCH  33  34
ATOM     34  O   UNL A   1      43.543  18.929  24.425  1.00  0.00    -0.460 OA
BRANCH  34  35
ATOM     35  C   UNL A   1      44.768  19.506  24.338  1.00  0.00     0.338 C 
ATOM     36  O   UNL A   1      45.728  19.079  23.716  1.00  0.00    -0.246 OA
BRANCH  35  37
ATOM     37  C   UNL A   1      44.662  20.897  24.861  1.00  0.00     0.060 A 
ATOM     38  C   UNL A   1      44.242  21.905  23.980  1.00  0.00     0.016 A 
ATOM     39  C   UNL A   1      44.867  21.198  26.210  1.00  0.00     0.016 A 
ATOM     40  C   UNL A   1      44.068  23.219  24.431  1.00  0.00     0.010 A 
ATOM     41  C   UNL A   1      44.718  22.518  26.656  1.00  0.00     0.010 A 
ATOM     42  C   UNL A   1      44.352  23.544  25.763  1.00  0.00    -0.014 A 
BRANCH  42  43
ATOM     43  C   UNL A   1      44.486  24.968  26.174  1.00  0.00     0.031 A 
ATOM     44  C   UNL A   1      45.849  25.603  26.081  1.00  0.00     0.074 A 
ATOM     45  C   UNL A   1      43.444  25.701  26.607  1.00  0.00     0.049 A 
ATOM     46  N   UNL A   1      46.252  26.786  26.468  1.00  0.00    -0.248 NA
ATOM     47  C   UNL A   1      46.904  24.780  25.467  1.00  0.00     0.031 C 
ATOM     48  C   UNL A   1      42.059  25.246  26.684  1.00  0.00     0.029 A 
ATOM     49  N   UNL A   1      43.401  26.994  27.078  1.00  0.00    -0.354 N 
ATOM     50  C   UNL A   1      47.605  26.843  26.157  1.00  0.00     0.074 A 
ATOM     51  C   UNL A   1      47.962  25.567  25.577  1.00  0.00     0.031 C 
ATOM     52  C   UNL A   1      41.303  26.237  27.192  1.00  0.00     0.029 A 
ATOM     53  C   UNL A   1      42.156  27.383  27.509  1.00  0.00     0.049 A 
ATOM     54  H   UNL A   1      44.189  27.583  27.103  1.00  0.00     0.167 HD
ATOM     55  C   UNL A   1      48.473  27.867  26.333  1.00  0.00     0.037 A 
ATOM     56  C   UNL A   1      41.760  28.521  28.115  1.00  0.00     0.037 A 
ATOM     57  C   UNL A   1      48.124  29.142  26.903  1.00  0.00     0.049 A 
ATOM     58  C   UNL A   1      42.765  29.617  28.383  1.00  0.00     0.074 A 
ATOM     59  C   UNL A   1      48.935  30.243  27.110  1.00  0.00     0.029 A 
ATOM     60  N   UNL A   1      46.860  29.481  27.362  1.00  0.00    -0.354 N 
ATOM     61  N   UNL A   1      44.040  29.668  28.082  1.00  0.00    -0.248 NA
ATOM     62  C   UNL A   1      42.271  30.817  29.078  1.00  0.00     0.031 C 
ATOM     63  C   UNL A   1      48.177  31.229  27.749  1.00  0.00     0.029 A 
ATOM     64  C   UNL A   1      46.878  30.767  27.879  1.00  0.00     0.049 A 
ATOM     65  H   UNL A   1      46.069  28.896  27.326  1.00  0.00     0.167 HD
ATOM     66  C   UNL A   1      44.489  30.912  28.515  1.00  0.00     0.074 A 
ATOM     67  C   UNL A   1      43.349  31.590  29.092  1.00  0.00     0.031 C 
ATOM     68  C   UNL A   1      45.734  31.443  28.437  1.00  0.00     0.037 A 
BRANCH  55  69
ATOM     69  C   UNL A   1      49.902  27.639  25.934  1.00  0.00     0.064 A 
ATOM     70  C   UNL A   1      50.898  27.348  26.879  1.00  0.00     0.173 A 
ATOM     71  C   UNL A   1      50.271  27.680  24.582  1.00  0.00     0.173 A 
ATOM     72  F   UNL A   1      50.601  27.314  28.186  1.00  0.00    -0.203 F 
ATOM     73  C   UNL A   1      52.216  27.135  26.485  1.00  0.00     0.198 A 
ATOM     74  C   UNL A   1      51.584  27.433  24.189  1.00  0.00     0.198 A 
ATOM     75  F   UNL A   1      49.357  27.951  23.638  1.00  0.00    -0.203 F 
ATOM     76  F   UNL A   1      53.162  26.910  27.407  1.00  0.00    -0.200 F 
ATOM     77  C   UNL A   1      52.556  27.169  25.141  1.00  0.00     0.200 A 
ATOM     78  F   UNL A   1      51.907  27.453  22.888  1.00  0.00    -0.200 F 
ATOM     79  F   UNL A   1      53.824  26.954  24.763  1.00  0.00    -0.200 F 
ENDBRANCH  55  69
BRANCH  56  80
ATOM     80  C   UNL A   1      40.342  28.687  28.544  1.00  0.00     0.064 A 
ATOM     81  C   UNL A   1      39.370  29.184  27.663  1.00  0.00     0.173 A 
ATOM     82  C   UNL A   1      39.943  28.402  29.858  1.00  0.00     0.173 A 
ATOM     83  F   UNL A   1      39.708  29.511  26.408  1.00  0.00    -0.203 F 
ATOM     84  C   UNL A   1      38.060  29.408  28.088  1.00  0.00     0.198 A 
ATOM     85  C   UNL A   1      38.627  28.596  30.272  1.00  0.00     0.198 A 
ATOM     86  F   UNL A   1      40.836  27.940  30.746  1.00  0.00    -0.203 F 
ATOM     87  F   UNL A   1      37.167  29.944  27.243  1.00  0.00    -0.200 F 
ATOM     88  C   UNL A   1      37.689  29.108  29.389  1.00  0.00     0.200 A 
ATOM     89  F   UNL A   1      38.272  28.302  31.530  1.00  0.00    -0.200 F 
ATOM     90  F   UNL A   1      36.432  29.330  29.797  1.00  0.00    -0.200 F 
ENDBRANCH  56  80
BRANCH  68  91
ATOM     91  C   UNL A   1      45.930  32.847  28.938  1.00  0.00     0.064 A 
ATOM     92  C   UNL A   1      45.726  33.964  28.117  1.00  0.00     0.173 A 
ATOM     93  C   UNL A   1      46.275  33.076  30.280  1.00  0.00     0.173 A 
ATOM     94  F   UNL A   1      45.404  33.803  26.824  1.00  0.00    -0.203 F 
ATOM     95  C   UNL A   1      45.883  35.257  28.611  1.00  0.00     0.198 A 
ATOM     96  C   UNL A   1      46.400  34.369  30.780  1.00  0.00     0.198 A 
ATOM     97  F   UNL A   1      46.472  32.044  31.115  1.00  0.00    -0.203 F 
ATOM     98  F   UNL A   1      45.728  36.309  27.796  1.00  0.00    -0.200 F 
ATOM     99  C   UNL A   1      46.212  35.459  29.944  1.00  0.00     0.200 A 
ATOM    100  F   UNL A   1      46.699  34.561  32.073  1.00  0.00    -0.200 F 
ATOM    101  F   UNL A   1      46.352  36.704  30.421  1.00  0.00    -0.200 F 
ENDBRANCH  68  91
ENDBRANCH  42  43
ENDBRANCH  35  37
ENDBRANCH  34  35
ENDBRANCH  33  34
ENDBRANCH  32  33
ENDBRANCH  31  32
ENDBRANCH  30  31
ENDBRANCH   1  30
TORSDOF 20
ENDMDL
MODEL 3
REMARK VINA RESULT:     -11.4      1.143      2.036
REMARK SMILES COc1cc(C(=O)NC2(C(=O)OCCOCCOCCOC(=O)c3ccc(-c4c5nc(c(-c6c(F)c(F)c(F)c(F)c6F)c6ccc([nH]6)c(-c6c(F)c(F)c(F)c(F)c6F)c6nc(c(-c7c(F)c(F)c(F)c(F)c7F)c7ccc4[nH]7)C=C6)C=C5)cc3)CCCCC2)cc2c1OCCO2
REMARK SMILES IDX 16 1 15 2 14 3 13 4 12 5 10 6 11 7 9 8 87 9 91 10 88 11
REMARK SMILES IDX 90 12 89 13 8 14 6 15 7 16 5 18 3 19 4 20 94 21 93 22 95 23
REMARK SMILES IDX 92 24 98 25 96 26 97 27 2 28 1 29 17 30 18 31 19 32 20 33
REMARK SMILES IDX 21 34 22 35 23 36 24 37 25 38 86 39 26 40 85 41 27 42 28 43
REMARK SMILES IDX 29 44 79 45 30 46 84 47 78 48 80 49 31 50 83 51 77 52 76 53
REMARK SMILES IDX 32 55 64 56 44 57 63 58 45 59 48 60 62 61 81 62 46 63 47 64
REMARK SMILES IDX 61 66 82 67 49 68 33 69 34 70 42 71 35 72 36 73 40 74 43 75
REMARK SMILES IDX 37 76 38 77 41 78 39 79 65 80 66 81 74 82 67 83 68 84 72 85
REMARK SMILES IDX 75 86 69 87 70 88 73 89 71 90 50 91 51 92 59 93 52 94 53 95
REMARK SMILES IDX 57 96 60 97 54 98 55 99 58 100 56 101
REMARK H PARENT 8 17 80 54 48 65
REMARK Flexibility Score: inf
ROOT
ATOM      1  C   UNL A   1      39.711  21.040  26.126  1.00  0.00     0.188 C 
ENDROOT
BRANCH   1   2
ATOM      2  O   UNL A   1      38.557  20.696  25.376  1.00  0.00    -0.376 OA
BRANCH   2   3
ATOM      3  C   UNL A   1      37.674  21.754  25.003  1.00  0.00     0.202 C 
BRANCH   3   4
ATOM      4  C   UNL A   1      36.357  21.881  25.782  1.00  0.00     0.261 C 
BRANCH   4   5
ATOM      5  O   UNL A   1      35.307  21.022  25.286  1.00  0.00    -0.461 OA
BRANCH   5   6
ATOM      6  C   UNL A   1      34.297  21.594  24.576  1.00  0.00     0.331 C 
ATOM      7  O   UNL A   1      34.469  22.410  23.673  1.00  0.00    -0.249 OA
BRANCH   6   8
ATOM      8  C   UNL A   1      32.874  21.034  24.934  1.00  0.00     0.138 C 
ATOM      9  C   UNL A   1      33.080  19.532  25.231  1.00  0.00     0.040 C 
ATOM     10  C   UNL A   1      31.880  21.237  23.767  1.00  0.00     0.040 C 
ATOM     11  C   UNL A   1      33.422  18.732  23.975  1.00  0.00     0.003 C 
ATOM     12  C   UNL A   1      32.155  20.368  22.535  1.00  0.00     0.003 C 
ATOM     13  C   UNL A   1      32.358  18.904  22.899  1.00  0.00     0.000 C 
BRANCH   8  14
ATOM     14  N   UNL A   1      32.575  21.742  26.244  1.00  0.00    -0.336 N 
ATOM     15  C   UNL A   1      32.151  22.933  26.780  1.00  0.00     0.252 C 
ATOM     16  O   UNL A   1      31.984  22.954  28.001  1.00  0.00    -0.269 OA
ATOM     17  H   UNL A   1      32.749  21.115  26.982  1.00  0.00     0.165 HD
BRANCH  15  18
ATOM     18  C   UNL A   1      31.997  24.215  26.049  1.00  0.00     0.047 A 
ATOM     19  C   UNL A   1      30.874  25.511  24.375  1.00  0.00     0.165 A 
ATOM     20  C   UNL A   1      30.835  24.555  25.386  1.00  0.00     0.064 A 
ATOM     21  C   UNL A   1      31.956  26.380  24.263  1.00  0.00     0.203 A 
ATOM     22  C   UNL A   1      33.024  26.229  25.147  1.00  0.00     0.166 A 
ATOM     23  O   UNL A   1      31.895  27.367  23.314  1.00  0.00    -0.483 OA
ATOM     24  C   UNL A   1      33.082  25.109  25.984  1.00  0.00     0.064 A 
ATOM     25  O   UNL A   1      34.051  27.137  25.218  1.00  0.00    -0.486 OA
ATOM     26  C   UNL A   1      33.081  28.167  23.265  1.00  0.00     0.271 C 
ATOM     27  C   UNL A   1      33.626  28.394  24.664  1.00  0.00     0.271 C 
BRANCH  19  28
ATOM     28  O   UNL A   1      29.831  25.497  23.484  1.00  0.00    -0.493 OA
ATOM     29  C   UNL A   1      28.768  26.339  23.957  1.00  0.00     0.278 C 
ENDBRANCH  19  28
ENDBRANCH  15  18
ENDBRANCH   8  14
ENDBRANCH   6   8
ENDBRANCH   5   6
ENDBRANCH   4   5
ENDBRANCH   3   4
ENDBRANCH   2   3
ENDBRANCH   1   2
BRANCH   1  30
ATOM     30  C   UNL A   1      40.707  19.921  26.442  1.00  0.00     0.188 C 
BRANCH  30  31
ATOM     31  O   UNL A   1      41.638  19.634  25.414  1.00  0.00    -0.376 OA
BRANCH  31  32
ATOM     32  C   UNL A   1      43.020  19.698  25.768  1.00  0.00     0.202 C 
BRANCH  32  33
ATOM     33  C   UNL A   1      43.724  21.018  25.382  1.00  0.00     0.261 C 
BRANCH  33  34
ATOM     34  O   UNL A   1      42.953  22.222  25.580  1.00  0.00    -0.460 OA
BRANCH  34  35
ATOM     35  C   UNL A   1      43.558  23.402  25.292  1.00  0.00     0.338 C 
ATOM     36  O   UNL A   1      44.018  23.735  24.211  1.00  0.00    -0.246 OA
BRANCH  35  37
ATOM     37  C   UNL A   1      43.294  24.344  26.414  1.00  0.00     0.060 A 
ATOM     38  C   UNL A   1      42.473  23.908  27.466  1.00  0.00     0.016 A 
ATOM     39  C   UNL A   1      43.916  25.592  26.494  1.00  0.00     0.016 A 
ATOM     40  C   UNL A   1      42.238  24.730  28.575  1.00  0.00     0.010 A 
ATOM     41  C   UNL A   1      43.659  26.426  27.592  1.00  0.00     0.010 A 
ATOM     42  C   UNL A   1      42.792  26.015  28.622  1.00  0.00    -0.014 A 
BRANCH  42  43
ATOM     43  C   UNL A   1      42.298  27.007  29.616  1.00  0.00     0.031 A 
ATOM     44  C   UNL A   1      43.012  27.093  30.940  1.00  0.00     0.074 A 
ATOM     45  C   UNL A   1      41.260  27.828  29.369  1.00  0.00     0.049 A 
ATOM     46  N   UNL A   1      42.721  27.795  32.006  1.00  0.00    -0.248 NA
ATOM     47  C   UNL A   1      44.220  26.264  31.076  1.00  0.00     0.031 C 
ATOM     48  C   UNL A   1      40.520  27.908  28.114  1.00  0.00     0.029 A 
ATOM     49  N   UNL A   1      40.643  28.748  30.185  1.00  0.00    -0.354 N 
ATOM     50  C   UNL A   1      43.701  27.482  32.940  1.00  0.00     0.074 A 
ATOM     51  C   UNL A   1      44.577  26.507  32.328  1.00  0.00     0.031 C 
ATOM     52  C   UNL A   1      39.534  28.814  28.248  1.00  0.00     0.029 A 
ATOM     53  C   UNL A   1      39.551  29.351  29.609  1.00  0.00     0.049 A 
ATOM     54  H   UNL A   1      40.954  28.954  31.096  1.00  0.00     0.167 HD
ATOM     55  C   UNL A   1      43.862  27.967  34.194  1.00  0.00     0.037 A 
ATOM     56  C   UNL A   1      38.655  30.214  30.130  1.00  0.00     0.037 A 
ATOM     57  C   UNL A   1      42.999  28.943  34.806  1.00  0.00     0.049 A 
ATOM     58  C   UNL A   1      38.802  30.673  31.562  1.00  0.00     0.074 A 
ATOM     59  C   UNL A   1      43.091  29.500  36.069  1.00  0.00     0.029 A 
ATOM     60  N   UNL A   1      41.883  29.499  34.201  1.00  0.00    -0.354 N 
ATOM     61  N   UNL A   1      39.732  30.380  32.439  1.00  0.00    -0.248 NA
ATOM     62  C   UNL A   1      37.770  31.588  32.078  1.00  0.00     0.031 C 
ATOM     63  C   UNL A   1      41.997  30.351  36.251  1.00  0.00     0.029 A 
ATOM     64  C   UNL A   1      41.261  30.374  35.079  1.00  0.00     0.049 A 
ATOM     65  H   UNL A   1      41.578  29.303  33.286  1.00  0.00     0.167 HD
ATOM     66  C   UNL A   1      39.420  31.098  33.588  1.00  0.00     0.074 A 
ATOM     67  C   UNL A   1      38.218  31.850  33.298  1.00  0.00     0.031 C 
ATOM     68  C   UNL A   1      40.074  31.132  34.776  1.00  0.00     0.037 A 
BRANCH  55  69
ATOM     69  C   UNL A   1      45.001  27.421  35.005  1.00  0.00     0.064 A 
ATOM     70  C   UNL A   1      46.263  28.035  35.017  1.00  0.00     0.173 A 
ATOM     71  C   UNL A   1      44.815  26.285  35.805  1.00  0.00     0.173 A 
ATOM     72  F   UNL A   1      46.497  29.115  34.257  1.00  0.00    -0.203 F 
ATOM     73  C   UNL A   1      47.303  27.514  35.781  1.00  0.00     0.198 A 
ATOM     74  C   UNL A   1      45.849  25.786  36.593  1.00  0.00     0.198 A 
ATOM     75  F   UNL A   1      43.628  25.661  35.831  1.00  0.00    -0.203 F 
ATOM     76  F   UNL A   1      48.515  28.085  35.739  1.00  0.00    -0.200 F 
ATOM     77  C   UNL A   1      47.094  26.396  36.574  1.00  0.00     0.200 A 
ATOM     78  F   UNL A   1      45.640  24.713  37.369  1.00  0.00    -0.200 F 
ATOM     79  F   UNL A   1      48.094  25.901  37.316  1.00  0.00    -0.200 F 
ENDBRANCH  55  69
BRANCH  56  80
ATOM     80  C   UNL A   1      37.508  30.691  29.308  1.00  0.00     0.064 A 
ATOM     81  C   UNL A   1      37.445  32.013  28.844  1.00  0.00     0.173 A 
ATOM     82  C   UNL A   1      36.425  29.849  29.014  1.00  0.00     0.173 A 
ATOM     83  F   UNL A   1      38.435  32.871  29.133  1.00  0.00    -0.203 F 
ATOM     84  C   UNL A   1      36.336  32.479  28.138  1.00  0.00     0.198 A 
ATOM     85  C   UNL A   1      35.332  30.305  28.280  1.00  0.00     0.198 A 
ATOM     86  F   UNL A   1      36.425  28.579  29.446  1.00  0.00    -0.203 F 
ATOM     87  F   UNL A   1      36.275  33.764  27.762  1.00  0.00    -0.200 F 
ATOM     88  C   UNL A   1      35.284  31.623  27.851  1.00  0.00     0.200 A 
ATOM     89  F   UNL A   1      34.319  29.474  28.002  1.00  0.00    -0.200 F 
ATOM     90  F   UNL A   1      34.217  32.072  27.178  1.00  0.00    -0.200 F 
ENDBRANCH  56  80
BRANCH  68  91
ATOM     91  C   UNL A   1      39.541  32.049  35.843  1.00  0.00     0.064 A 
ATOM     92  C   UNL A   1      39.988  33.372  35.976  1.00  0.00     0.173 A 
ATOM     93  C   UNL A   1      38.528  31.611  36.710  1.00  0.00     0.173 A 
ATOM     94  F   UNL A   1      40.961  33.840  35.179  1.00  0.00    -0.203 F 
ATOM     95  C   UNL A   1      39.458  34.213  36.952  1.00  0.00     0.198 A 
ATOM     96  C   UNL A   1      37.978  32.463  37.664  1.00  0.00     0.198 A 
ATOM     97  F   UNL A   1      38.055  30.358  36.621  1.00  0.00    -0.203 F 
ATOM     98  F   UNL A   1      39.933  35.459  37.091  1.00  0.00    -0.200 F 
ATOM     99  C   UNL A   1      38.449  33.762  37.789  1.00  0.00     0.200 A 
ATOM    100  F   UNL A   1      36.989  32.030  38.458  1.00  0.00    -0.200 F 
ATOM    101  F   UNL A   1      37.932  34.576  38.720  1.00  0.00    -0.200 F 
ENDBRANCH  68  91
ENDBRANCH  42  43
ENDBRANCH  35  37
ENDBRANCH  34  35
ENDBRANCH  33  34
ENDBRANCH  32  33
ENDBRANCH  31  32
ENDBRANCH  30  31
ENDBRANCH   1  30
TORSDOF 20
ENDMDL
