MODEL 1
REMARK VINA RESULT:     -13.0      0.000      0.000
REMARK SMILES Cc1cccc(-c2cccc(C(=O)OCCOCCOCCOC(=O)c3ccc(-c4c5nc(c(-c6c(F)c(F)c(F)c(F)c6F)c6ccc([nH]6)c(-c6c(F)c(F)c(F)c(F)c6F)c6nc(c(-c7c(F)c(F)c(F)c(F)c7F)c7ccc4[nH]7)C=C6)C=C5)cc3)c2)c1
REMARK SMILES IDX 19 1 18 2 17 3 16 4 15 5 14 6 12 7 13 8 11 9 7 10 8 11 89 12
REMARK SMILES IDX 9 13 10 14 6 15 1 16 2 17 3 18 90 19 4 20 5 21 20 22 21 23
REMARK SMILES IDX 22 24 23 25 24 26 25 27 26 28 27 29 88 30 28 31 87 32 29 33
REMARK SMILES IDX 30 34 31 35 81 36 32 37 86 38 80 39 82 40 33 41 85 42 79 43
REMARK SMILES IDX 78 44 34 46 66 47 46 48 65 49 47 50 50 51 64 52 83 53 48 54
REMARK SMILES IDX 49 55 63 57 84 58 51 59 35 60 36 61 44 62 37 63 38 64 42 65
REMARK SMILES IDX 45 66 39 67 40 68 43 69 41 70 67 71 68 72 76 73 69 74 70 75
REMARK SMILES IDX 74 76 77 77 71 78 72 79 75 80 73 81 52 82 53 83 61 84 54 85
REMARK SMILES IDX 55 86 59 87 62 88 56 89 57 90 60 91 58 92
REMARK H PARENT 82 45 50 56
REMARK Flexibility Score: inf
ROOT
ATOM      1  C   UNL A   1      41.513  19.998  26.398  1.00  0.00     0.188 C 
ENDROOT
BRANCH   1   2
ATOM      2  C   UNL A   1      40.012  20.100  26.128  1.00  0.00     0.188 C 
BRANCH   2   3
ATOM      3  O   UNL A   1      39.215  21.280  26.401  1.00  0.00    -0.376 OA
BRANCH   3   4
ATOM      4  C   UNL A   1      38.049  21.696  25.669  1.00  0.00     0.202 C 
BRANCH   4   5
ATOM      5  C   UNL A   1      37.735  23.272  25.063  1.00  0.00     0.261 C 
BRANCH   5   6
ATOM      6  O   UNL A   1      36.281  24.082  24.658  1.00  0.00    -0.460 OA
BRANCH   6   7
ATOM      7  C   UNL A   1      34.970  24.242  25.208  1.00  0.00     0.338 C 
ATOM      8  O   UNL A   1      34.323  25.282  25.338  1.00  0.00    -0.246 OA
BRANCH   7   9
ATOM      9  C   UNL A   1      34.033  23.213  25.718  1.00  0.00     0.060 A 
ATOM     10  C   UNL A   1      32.937  21.054  25.001  1.00  0.00    -0.018 A 
ATOM     11  C   UNL A   1      31.772  21.531  25.606  1.00  0.00     0.009 A 
ATOM     12  C   UNL A   1      34.049  21.922  25.063  1.00  0.00     0.024 A 
ATOM     13  C   UNL A   1      31.722  22.800  26.219  1.00  0.00     0.002 A 
ATOM     14  C   UNL A   1      32.840  23.646  26.267  1.00  0.00     0.016 A 
BRANCH  10  15
ATOM     15  C   UNL A   1      32.979  19.708  24.350  1.00  0.00    -0.018 A 
ATOM     16  C   UNL A   1      34.727  16.271  24.644  1.00  0.00     0.044 C 
ATOM     17  C   UNL A   1      33.872  17.405  24.143  1.00  0.00    -0.051 A 
ATOM     18  C   UNL A   1      33.241  17.270  22.903  1.00  0.00     0.003 A 
ATOM     19  C   UNL A   1      33.740  18.623  24.853  1.00  0.00     0.012 A 
ATOM     20  C   UNL A   1      32.455  18.305  22.408  1.00  0.00     0.001 A 
ATOM     21  C   UNL A   1      32.317  19.500  23.127  1.00  0.00     0.009 A 
ENDBRANCH  10  15
ENDBRANCH   7   9
ENDBRANCH   6   7
ENDBRANCH   5   6
ENDBRANCH   4   5
ENDBRANCH   3   4
ENDBRANCH   2   3
ENDBRANCH   1   2
BRANCH   1  22
ATOM     22  O   UNL A   1      42.135  19.289  25.347  1.00  0.00    -0.376 OA
BRANCH  22  23
ATOM     23  C   UNL A   1      43.398  18.724  25.653  1.00  0.00     0.202 C 
BRANCH  23  24
ATOM     24  C   UNL A   1      44.431  18.948  24.532  1.00  0.00     0.261 C 
BRANCH  24  25
ATOM     25  O   UNL A   1      44.400  20.326  24.077  1.00  0.00    -0.460 OA
BRANCH  25  26
ATOM     26  C   UNL A   1      45.267  21.220  24.658  1.00  0.00     0.338 C 
ATOM     27  O   UNL A   1      46.306  20.912  25.226  1.00  0.00    -0.246 OA
BRANCH  26  28
ATOM     28  C   UNL A   1      44.631  22.584  24.739  1.00  0.00     0.060 A 
ATOM     29  C   UNL A   1      45.274  23.823  24.584  1.00  0.00     0.016 A 
ATOM     30  C   UNL A   1      43.466  22.629  25.415  1.00  0.00     0.016 A 
ATOM     31  C   UNL A   1      44.819  25.032  25.285  1.00  0.00     0.010 A 
ATOM     32  C   UNL A   1      43.337  23.708  26.289  1.00  0.00     0.010 A 
ATOM     33  C   UNL A   1      43.836  25.013  26.282  1.00  0.00    -0.014 A 
BRANCH  33  34
ATOM     34  C   UNL A   1      43.527  26.142  27.422  1.00  0.00     0.031 A 
ATOM     35  C   UNL A   1      42.204  27.076  27.851  1.00  0.00     0.074 A 
ATOM     36  C   UNL A   1      44.598  26.459  28.190  1.00  0.00     0.049 A 
ATOM     37  N   UNL A   1      42.294  28.333  28.276  1.00  0.00    -0.248 NA
ATOM     38  C   UNL A   1      40.729  26.799  27.743  1.00  0.00     0.031 C 
ATOM     39  C   UNL A   1      44.635  27.274  29.403  1.00  0.00     0.029 A 
ATOM     40  N   UNL A   1      45.952  26.186  27.932  1.00  0.00    -0.354 N 
ATOM     41  C   UNL A   1      40.999  28.802  28.542  1.00  0.00     0.074 A 
ATOM     42  C   UNL A   1      40.149  27.978  27.815  1.00  0.00     0.031 C 
ATOM     43  C   UNL A   1      45.890  27.714  29.581  1.00  0.00     0.029 A 
ATOM     44  C   UNL A   1      46.664  27.286  28.432  1.00  0.00     0.049 A 
ATOM     45  H   UNL A   1      46.323  25.387  27.492  1.00  0.00     0.167 HD
ATOM     46  C   UNL A   1      40.642  29.689  29.512  1.00  0.00     0.037 A 
ATOM     47  C   UNL A   1      47.416  28.067  27.609  1.00  0.00     0.037 A 
ATOM     48  C   UNL A   1      41.829  30.388  29.932  1.00  0.00     0.049 A 
ATOM     49  C   UNL A   1      47.021  29.523  27.655  1.00  0.00     0.074 A 
ATOM     50  C   UNL A   1      42.664  30.291  31.026  1.00  0.00     0.029 A 
ATOM     51  N   UNL A   1      42.514  31.101  28.960  1.00  0.00    -0.354 N 
ATOM     52  N   UNL A   1      45.963  29.973  28.272  1.00  0.00    -0.248 NA
ATOM     53  C   UNL A   1      47.762  30.589  26.988  1.00  0.00     0.031 C 
ATOM     54  C   UNL A   1      43.922  30.836  30.641  1.00  0.00     0.029 A 
ATOM     55  C   UNL A   1      43.816  31.323  29.348  1.00  0.00     0.049 A 
ATOM     56  H   UNL A   1      42.123  31.406  28.109  1.00  0.00     0.167 HD
ATOM     57  C   UNL A   1      45.816  31.310  28.026  1.00  0.00     0.074 A 
ATOM     58  C   UNL A   1      46.997  31.660  27.261  1.00  0.00     0.031 C 
ATOM     59  C   UNL A   1      44.713  32.004  28.427  1.00  0.00     0.037 A 
BRANCH  46  60
ATOM     60  C   UNL A   1      39.248  29.752  30.203  1.00  0.00     0.064 A 
ATOM     61  C   UNL A   1      38.252  30.606  29.676  1.00  0.00     0.173 A 
ATOM     62  C   UNL A   1      38.838  29.126  31.418  1.00  0.00     0.173 A 
ATOM     63  F   UNL A   1      38.446  31.258  28.522  1.00  0.00    -0.203 F 
ATOM     64  C   UNL A   1      37.022  30.849  30.321  1.00  0.00     0.198 A 
ATOM     65  C   UNL A   1      37.606  29.354  32.048  1.00  0.00     0.198 A 
ATOM     66  F   UNL A   1      39.589  28.272  32.113  1.00  0.00    -0.203 F 
ATOM     67  F   UNL A   1      36.149  31.713  29.785  1.00  0.00    -0.200 F 
ATOM     68  C   UNL A   1      36.702  30.231  31.512  1.00  0.00     0.200 A 
ATOM     69  F   UNL A   1      37.328  28.724  33.202  1.00  0.00    -0.200 F 
ATOM     70  F   UNL A   1      35.546  30.479  32.140  1.00  0.00    -0.200 F 
ENDBRANCH  46  60
BRANCH  47  71
ATOM     71  C   UNL A   1      48.011  27.318  26.460  1.00  0.00     0.064 A 
ATOM     72  C   UNL A   1      47.452  27.529  25.178  1.00  0.00     0.173 A 
ATOM     73  C   UNL A   1      49.267  26.699  26.505  1.00  0.00     0.173 A 
ATOM     74  F   UNL A   1      46.252  28.124  25.062  1.00  0.00    -0.203 F 
ATOM     75  C   UNL A   1      48.157  27.255  24.008  1.00  0.00     0.198 A 
ATOM     76  C   UNL A   1      49.962  26.395  25.324  1.00  0.00     0.198 A 
ATOM     77  F   UNL A   1      49.889  26.512  27.677  1.00  0.00    -0.203 F 
ATOM     78  F   UNL A   1      47.645  27.606  22.820  1.00  0.00    -0.200 F 
ATOM     79  C   UNL A   1      49.420  26.701  24.082  1.00  0.00     0.200 A 
ATOM     80  F   UNL A   1      51.218  25.929  25.387  1.00  0.00    -0.200 F 
ATOM     81  F   UNL A   1      50.146  26.535  22.967  1.00  0.00    -0.200 F 
ENDBRANCH  47  71
BRANCH  59  82
ATOM     82  C   UNL A   1      44.333  33.390  27.967  1.00  0.00     0.064 A 
ATOM     83  C   UNL A   1      43.864  33.686  26.677  1.00  0.00     0.173 A 
ATOM     84  C   UNL A   1      44.249  34.445  28.909  1.00  0.00     0.173 A 
ATOM     85  F   UNL A   1      43.791  32.745  25.728  1.00  0.00    -0.203 F 
ATOM     86  C   UNL A   1      43.388  34.956  26.342  1.00  0.00     0.198 A 
ATOM     87  C   UNL A   1      43.708  35.688  28.589  1.00  0.00     0.198 A 
ATOM     88  F   UNL A   1      44.652  34.280  30.178  1.00  0.00    -0.203 F 
ATOM     89  F   UNL A   1      42.987  35.203  25.088  1.00  0.00    -0.200 F 
ATOM     90  C   UNL A   1      43.292  35.949  27.301  1.00  0.00     0.200 A 
ATOM     91  F   UNL A   1      43.568  36.619  29.543  1.00  0.00    -0.200 F 
ATOM     92  F   UNL A   1      42.779  37.146  26.988  1.00  0.00    -0.200 F 
ENDBRANCH  59  82
ENDBRANCH  33  34
ENDBRANCH  26  28
ENDBRANCH  25  26
ENDBRANCH  24  25
ENDBRANCH  23  24
ENDBRANCH  22  23
ENDBRANCH   1  22
TORSDOF 18
ENDMDL
MODEL 2
REMARK VINA RESULT:     -12.7      2.062      3.073
REMARK SMILES Cc1cccc(-c2cccc(C(=O)OCCOCCOCCOC(=O)c3ccc(-c4c5nc(c(-c6c(F)c(F)c(F)c(F)c6F)c6ccc([nH]6)c(-c6c(F)c(F)c(F)c(F)c6F)c6nc(c(-c7c(F)c(F)c(F)c(F)c7F)c7ccc4[nH]7)C=C6)C=C5)cc3)c2)c1
REMARK SMILES IDX 19 1 18 2 17 3 16 4 15 5 14 6 12 7 13 8 11 9 7 10 8 11 89 12
REMARK SMILES IDX 9 13 10 14 6 15 1 16 2 17 3 18 90 19 4 20 5 21 20 22 21 23
REMARK SMILES IDX 22 24 23 25 24 26 25 27 26 28 27 29 88 30 28 31 87 32 29 33
REMARK SMILES IDX 30 34 31 35 81 36 32 37 86 38 80 39 82 40 33 41 85 42 79 43
REMARK SMILES IDX 78 44 34 46 66 47 46 48 65 49 47 50 50 51 64 52 83 53 48 54
REMARK SMILES IDX 49 55 63 57 84 58 51 59 35 60 36 61 44 62 37 63 38 64 42 65
REMARK SMILES IDX 45 66 39 67 40 68 43 69 41 70 67 71 68 72 76 73 69 74 70 75
REMARK SMILES IDX 74 76 77 77 71 78 72 79 75 80 73 81 52 82 53 83 61 84 54 85
REMARK SMILES IDX 55 86 59 87 62 88 56 89 57 90 60 91 58 92
REMARK H PARENT 82 45 50 56
REMARK Flexibility Score: inf
ROOT
ATOM      1  C   UNL A   1      43.132  18.571  25.526  1.00  0.00     0.188 C 
ENDROOT
BRANCH   1   2
ATOM      2  C   UNL A   1      41.906  19.068  26.291  1.00  0.00     0.188 C 
BRANCH   2   3
ATOM      3  O   UNL A   1      41.420  20.433  26.251  1.00  0.00    -0.376 OA
BRANCH   3   4
ATOM      4  C   UNL A   1      41.281  21.311  27.381  1.00  0.00     0.202 C 
BRANCH   4   5
ATOM      5  C   UNL A   1      40.224  22.661  27.499  1.00  0.00     0.261 C 
BRANCH   5   6
ATOM      6  O   UNL A   1      38.948  23.216  26.501  1.00  0.00    -0.460 OA
BRANCH   6   7
ATOM      7  C   UNL A   1      37.951  22.650  25.644  1.00  0.00     0.338 C 
ATOM      8  O   UNL A   1      37.663  21.461  25.499  1.00  0.00    -0.246 OA
BRANCH   7   9
ATOM      9  C   UNL A   1      36.982  23.328  24.753  1.00  0.00     0.060 A 
ATOM     10  C   UNL A   1      34.697  24.402  24.821  1.00  0.00    -0.018 A 
ATOM     11  C   UNL A   1      34.449  23.779  23.597  1.00  0.00     0.009 A 
ATOM     12  C   UNL A   1      35.969  24.150  25.381  1.00  0.00     0.024 A 
ATOM     13  C   UNL A   1      35.407  22.945  22.982  1.00  0.00     0.002 A 
ATOM     14  C   UNL A   1      36.663  22.708  23.558  1.00  0.00     0.016 A 
BRANCH  10  15
ATOM     15  C   UNL A   1      33.673  25.281  25.467  1.00  0.00    -0.018 A 
ATOM     16  C   UNL A   1      29.868  25.493  26.126  1.00  0.00     0.044 C 
ATOM     17  C   UNL A   1      31.332  25.838  26.064  1.00  0.00    -0.051 A 
ATOM     18  C   UNL A   1      31.734  27.122  26.444  1.00  0.00     0.003 A 
ATOM     19  C   UNL A   1      32.304  24.931  25.574  1.00  0.00     0.012 A 
ATOM     20  C   UNL A   1      33.078  27.475  26.386  1.00  0.00     0.001 A 
ATOM     21  C   UNL A   1      34.033  26.564  25.917  1.00  0.00     0.009 A 
ENDBRANCH  10  15
ENDBRANCH   7   9
ENDBRANCH   6   7
ENDBRANCH   5   6
ENDBRANCH   4   5
ENDBRANCH   3   4
ENDBRANCH   2   3
ENDBRANCH   1   2
BRANCH   1  22
ATOM     22  O   UNL A   1      44.204  19.472  25.714  1.00  0.00    -0.376 OA
BRANCH  22  23
ATOM     23  C   UNL A   1      45.430  19.098  25.109  1.00  0.00     0.202 C 
BRANCH  23  24
ATOM     24  C   UNL A   1      46.264  20.317  24.670  1.00  0.00     0.261 C 
BRANCH  24  25
ATOM     25  O   UNL A   1      45.890  21.494  25.432  1.00  0.00    -0.460 OA
BRANCH  25  26
ATOM     26  C   UNL A   1      45.281  22.531  24.767  1.00  0.00     0.338 C 
ATOM     27  O   UNL A   1      45.725  23.069  23.763  1.00  0.00    -0.246 OA
BRANCH  26  28
ATOM     28  C   UNL A   1      44.150  23.087  25.594  1.00  0.00     0.060 A 
ATOM     29  C   UNL A   1      43.162  23.991  25.170  1.00  0.00     0.016 A 
ATOM     30  C   UNL A   1      44.343  23.041  26.927  1.00  0.00     0.016 A 
ATOM     31  C   UNL A   1      42.544  24.958  26.087  1.00  0.00     0.010 A 
ATOM     32  C   UNL A   1      43.977  24.199  27.612  1.00  0.00     0.010 A 
ATOM     33  C   UNL A   1      43.002  25.176  27.391  1.00  0.00    -0.014 A 
BRANCH  33  34
ATOM     34  C   UNL A   1      42.726  26.462  28.361  1.00  0.00     0.031 A 
ATOM     35  C   UNL A   1      41.463  27.540  28.585  1.00  0.00     0.074 A 
ATOM     36  C   UNL A   1      43.775  26.794  29.152  1.00  0.00     0.049 A 
ATOM     37  N   UNL A   1      41.632  28.831  28.857  1.00  0.00    -0.248 NA
ATOM     38  C   UNL A   1      39.978  27.363  28.417  1.00  0.00     0.031 C 
ATOM     39  C   UNL A   1      43.812  27.751  30.255  1.00  0.00     0.029 A 
ATOM     40  N   UNL A   1      45.114  26.389  29.018  1.00  0.00    -0.354 N 
ATOM     41  C   UNL A   1      40.368  29.425  28.980  1.00  0.00     0.074 A 
ATOM     42  C   UNL A   1      39.494  28.582  28.306  1.00  0.00     0.031 C 
ATOM     43  C   UNL A   1      45.088  28.115  30.459  1.00  0.00     0.029 A 
ATOM     44  C   UNL A   1      45.886  27.487  29.424  1.00  0.00     0.049 A 
ATOM     45  H   UNL A   1      45.442  25.515  28.705  1.00  0.00     0.167 HD
ATOM     46  C   UNL A   1      40.033  30.453  29.807  1.00  0.00     0.037 A 
ATOM     47  C   UNL A   1      46.744  28.098  28.562  1.00  0.00     0.037 A 
ATOM     48  C   UNL A   1      41.248  31.109  30.215  1.00  0.00     0.049 A 
ATOM     49  C   UNL A   1      46.468  29.574  28.403  1.00  0.00     0.074 A 
ATOM     50  C   UNL A   1      42.011  31.091  31.364  1.00  0.00     0.029 A 
ATOM     51  N   UNL A   1      42.042  31.638  29.209  1.00  0.00    -0.354 N 
ATOM     52  N   UNL A   1      45.418  30.177  28.890  1.00  0.00    -0.248 NA
ATOM     53  C   UNL A   1      47.331  30.487  27.659  1.00  0.00     0.031 C 
ATOM     54  C   UNL A   1      43.329  31.486  30.997  1.00  0.00     0.029 A 
ATOM     55  C   UNL A   1      43.335  31.810  29.650  1.00  0.00     0.049 A 
ATOM     56  H   UNL A   1      41.725  31.861  28.303  1.00  0.00     0.167 HD
ATOM     57  C   UNL A   1      45.396  31.478  28.472  1.00  0.00     0.074 A 
ATOM     58  C   UNL A   1      46.642  31.639  27.748  1.00  0.00     0.031 C 
ATOM     59  C   UNL A   1      44.334  32.299  28.712  1.00  0.00     0.037 A 
BRANCH  46  60
ATOM     60  C   UNL A   1      38.613  30.708  30.394  1.00  0.00     0.064 A 
ATOM     61  C   UNL A   1      37.594  31.205  29.549  1.00  0.00     0.173 A 
ATOM     62  C   UNL A   1      38.191  30.614  31.754  1.00  0.00     0.173 A 
ATOM     63  F   UNL A   1      37.796  31.335  28.231  1.00  0.00    -0.203 F 
ATOM     64  C   UNL A   1      36.330  31.616  30.021  1.00  0.00     0.198 A 
ATOM     65  C   UNL A   1      36.927  31.004  32.219  1.00  0.00     0.198 A 
ATOM     66  F   UNL A   1      38.959  30.170  32.749  1.00  0.00    -0.203 F 
ATOM     67  F   UNL A   1      35.433  32.126  29.165  1.00  0.00    -0.200 F 
ATOM     68  C   UNL A   1      35.999  31.524  31.357  1.00  0.00     0.200 A 
ATOM     69  F   UNL A   1      36.639  30.889  33.526  1.00  0.00    -0.200 F 
ATOM     70  F   UNL A   1      34.809  31.936  31.812  1.00  0.00    -0.200 F 
ENDBRANCH  46  60
BRANCH  47  71
ATOM     71  C   UNL A   1      47.337  27.166  27.555  1.00  0.00     0.064 A 
ATOM     72  C   UNL A   1      46.735  27.111  26.276  1.00  0.00     0.173 A 
ATOM     73  C   UNL A   1      48.618  26.611  27.673  1.00  0.00     0.173 A 
ATOM     74  F   UNL A   1      45.509  27.631  26.092  1.00  0.00    -0.203 F 
ATOM     75  C   UNL A   1      47.418  26.644  25.155  1.00  0.00     0.198 A 
ATOM     76  C   UNL A   1      49.292  26.112  26.546  1.00  0.00     0.198 A 
ATOM     77  F   UNL A   1      49.278  26.671  28.837  1.00  0.00    -0.203 F 
ATOM     78  F   UNL A   1      46.861  26.746  23.940  1.00  0.00    -0.200 F 
ATOM     79  C   UNL A   1      48.705  26.158  25.289  1.00  0.00     0.200 A 
ATOM     80  F   UNL A   1      50.567  25.710  26.653  1.00  0.00    -0.200 F 
ATOM     81  F   UNL A   1      49.406  25.810  24.201  1.00  0.00    -0.200 F 
ENDBRANCH  47  71
BRANCH  59  82
ATOM     82  C   UNL A   1      44.096  33.639  28.062  1.00  0.00     0.064 A 
ATOM     83  C   UNL A   1      43.790  33.806  26.702  1.00  0.00     0.173 A 
ATOM     84  C   UNL A   1      43.977  34.799  28.866  1.00  0.00     0.173 A 
ATOM     85  F   UNL A   1      43.761  32.766  25.860  1.00  0.00    -0.203 F 
ATOM     86  C   UNL A   1      43.435  35.051  26.176  1.00  0.00     0.198 A 
ATOM     87  C   UNL A   1      43.554  36.022  28.351  1.00  0.00     0.198 A 
ATOM     88  F   UNL A   1      44.228  34.763  30.183  1.00  0.00    -0.203 F 
ATOM     89  F   UNL A   1      43.189  35.170  24.864  1.00  0.00    -0.200 F 
ATOM     90  C   UNL A   1      43.299  36.152  27.003  1.00  0.00     0.200 A 
ATOM     91  F   UNL A   1      43.371  37.065  29.174  1.00  0.00    -0.200 F 
ATOM     92  F   UNL A   1      42.900  37.329  26.502  1.00  0.00    -0.200 F 
ENDBRANCH  59  82
ENDBRANCH  33  34
ENDBRANCH  26  28
ENDBRANCH  25  26
ENDBRANCH  24  25
ENDBRANCH  23  24
ENDBRANCH  22  23
ENDBRANCH   1  22
TORSDOF 18
ENDMDL
MODEL 3
REMARK VINA RESULT:     -12.7      1.458      3.050
REMARK SMILES Cc1cccc(-c2cccc(C(=O)OCCOCCOCCOC(=O)c3ccc(-c4c5nc(c(-c6c(F)c(F)c(F)c(F)c6F)c6ccc([nH]6)c(-c6c(F)c(F)c(F)c(F)c6F)c6nc(c(-c7c(F)c(F)c(F)c(F)c7F)c7ccc4[nH]7)C=C6)C=C5)cc3)c2)c1
REMARK SMILES IDX 19 1 18 2 17 3 16 4 15 5 14 6 12 7 13 8 11 9 7 10 8 11 89 12
REMARK SMILES IDX 9 13 10 14 6 15 1 16 2 17 3 18 90 19 4 20 5 21 20 22 21 23
REMARK SMILES IDX 22 24 23 25 24 26 25 27 26 28 27 29 88 30 28 31 87 32 29 33
REMARK SMILES IDX 30 34 31 35 81 36 32 37 86 38 80 39 82 40 33 41 85 42 79 43
REMARK SMILES IDX 78 44 34 46 66 47 46 48 65 49 47 50 50 51 64 52 83 53 48 54
REMARK SMILES IDX 49 55 63 57 84 58 51 59 35 60 36 61 44 62 37 63 38 64 42 65
REMARK SMILES IDX 45 66 39 67 40 68 43 69 41 70 67 71 68 72 76 73 69 74 70 75
REMARK SMILES IDX 74 76 77 77 71 78 72 79 75 80 73 81 52 82 53 83 61 84 54 85
REMARK SMILES IDX 55 86 59 87 62 88 56 89 57 90 60 91 58 92
REMARK H PARENT 82 45 50 56
REMARK Flexibility Score: inf
ROOT
ATOM      1  C   UNL A   1      43.535  18.140  26.368  1.00  0.00     0.188 C 
ENDROOT
BRANCH   1   2
ATOM      2  C   UNL A   1      42.331  18.945  25.881  1.00  0.00     0.188 C 
BRANCH   2   3
ATOM      3  O   UNL A   1      42.191  20.379  26.044  1.00  0.00    -0.376 OA
BRANCH   3   4
ATOM      4  C   UNL A   1      41.440  21.039  27.078  1.00  0.00     0.202 C 
BRANCH   4   5
ATOM      5  C   UNL A   1      39.940  21.854  26.886  1.00  0.00     0.261 C 
BRANCH   5   6
ATOM      6  O   UNL A   1      38.782  21.855  25.623  1.00  0.00    -0.460 OA
BRANCH   6   7
ATOM      7  C   UNL A   1      37.817  20.954  25.072  1.00  0.00     0.338 C 
ATOM      8  O   UNL A   1      37.928  19.741  24.893  1.00  0.00    -0.246 OA
BRANCH   7   9
ATOM      9  C   UNL A   1      36.432  21.223  24.619  1.00  0.00     0.060 A 
ATOM     10  C   UNL A   1      34.721  23.080  24.587  1.00  0.00    -0.018 A 
ATOM     11  C   UNL A   1      33.771  22.110  24.911  1.00  0.00     0.009 A 
ATOM     12  C   UNL A   1      36.047  22.609  24.458  1.00  0.00     0.024 A 
ATOM     13  C   UNL A   1      34.128  20.759  25.108  1.00  0.00     0.002 A 
ATOM     14  C   UNL A   1      35.451  20.315  24.976  1.00  0.00     0.016 A 
BRANCH  10  15
ATOM     15  C   UNL A   1      34.333  24.510  24.384  1.00  0.00    -0.018 A 
ATOM     16  C   UNL A   1      33.437  27.701  26.378  1.00  0.00     0.044 C 
ATOM     17  C   UNL A   1      33.668  26.739  25.243  1.00  0.00    -0.051 A 
ATOM     18  C   UNL A   1      33.313  27.132  23.949  1.00  0.00     0.003 A 
ATOM     19  C   UNL A   1      34.170  25.431  25.450  1.00  0.00     0.012 A 
ATOM     20  C   UNL A   1      33.502  26.261  22.882  1.00  0.00     0.001 A 
ATOM     21  C   UNL A   1      34.016  24.975  23.096  1.00  0.00     0.009 A 
ENDBRANCH  10  15
ENDBRANCH   7   9
ENDBRANCH   6   7
ENDBRANCH   5   6
ENDBRANCH   4   5
ENDBRANCH   3   4
ENDBRANCH   2   3
ENDBRANCH   1   2
BRANCH   1  22
ATOM     22  O   UNL A   1      44.512  18.086  25.349  1.00  0.00    -0.376 OA
BRANCH  22  23
ATOM     23  C   UNL A   1      45.837  18.382  25.756  1.00  0.00     0.202 C 
BRANCH  23  24
ATOM     24  C   UNL A   1      46.448  19.552  24.960  1.00  0.00     0.261 C 
BRANCH  24  25
ATOM     25  O   UNL A   1      45.702  20.775  25.195  1.00  0.00    -0.460 OA
BRANCH  25  26
ATOM     26  C   UNL A   1      44.882  21.237  24.194  1.00  0.00     0.338 C 
ATOM     27  O   UNL A   1      44.535  20.582  23.221  1.00  0.00    -0.246 OA
BRANCH  26  28
ATOM     28  C   UNL A   1      44.702  22.729  24.317  1.00  0.00     0.060 A 
ATOM     29  C   UNL A   1      45.708  23.683  24.540  1.00  0.00     0.016 A 
ATOM     30  C   UNL A   1      43.458  23.126  24.651  1.00  0.00     0.016 A 
ATOM     31  C   UNL A   1      45.452  24.929  25.275  1.00  0.00     0.010 A 
ATOM     32  C   UNL A   1      43.403  24.129  25.617  1.00  0.00     0.010 A 
ATOM     33  C   UNL A   1      44.255  25.185  25.953  1.00  0.00    -0.014 A 
BRANCH  33  34
ATOM     34  C   UNL A   1      43.972  26.281  27.132  1.00  0.00     0.031 A 
ATOM     35  C   UNL A   1      42.668  27.224  27.598  1.00  0.00     0.074 A 
ATOM     36  C   UNL A   1      45.051  26.553  27.904  1.00  0.00     0.049 A 
ATOM     37  N   UNL A   1      42.782  28.465  28.065  1.00  0.00    -0.248 NA
ATOM     38  C   UNL A   1      41.187  26.978  27.489  1.00  0.00     0.031 C 
ATOM     39  C   UNL A   1      45.108  27.326  29.144  1.00  0.00     0.029 A 
ATOM     40  N   UNL A   1      46.399  26.264  27.631  1.00  0.00    -0.354 N 
ATOM     41  C   UNL A   1      41.497  28.947  28.353  1.00  0.00     0.074 A 
ATOM     42  C   UNL A   1      40.629  28.164  27.603  1.00  0.00     0.031 C 
ATOM     43  C   UNL A   1      46.372  27.736  29.330  1.00  0.00     0.029 A 
ATOM     44  C   UNL A   1      47.133  27.333  28.164  1.00  0.00     0.049 A 
ATOM     45  H   UNL A   1      46.754  25.473  27.163  1.00  0.00     0.167 HD
ATOM     46  C   UNL A   1      41.161  29.807  29.354  1.00  0.00     0.037 A 
ATOM     47  C   UNL A   1      47.896  28.127  27.364  1.00  0.00     0.037 A 
ATOM     48  C   UNL A   1      42.362  30.471  29.791  1.00  0.00     0.049 A 
ATOM     49  C   UNL A   1      47.527  29.589  27.461  1.00  0.00     0.074 A 
ATOM     50  C   UNL A   1      43.200  30.322  30.877  1.00  0.00     0.029 A 
ATOM     51  N   UNL A   1      43.056  31.203  28.840  1.00  0.00    -0.354 N 
ATOM     52  N   UNL A   1      46.480  30.037  28.098  1.00  0.00    -0.248 NA
ATOM     53  C   UNL A   1      48.286  30.663  26.826  1.00  0.00     0.031 C 
ATOM     54  C   UNL A   1      44.467  30.856  30.504  1.00  0.00     0.029 A 
ATOM     55  C   UNL A   1      44.364  31.388  29.228  1.00  0.00     0.049 A 
ATOM     56  H   UNL A   1      42.667  31.543  28.001  1.00  0.00     0.167 HD
ATOM     57  C   UNL A   1      46.357  31.383  27.897  1.00  0.00     0.074 A 
ATOM     58  C   UNL A   1      47.541  31.738  27.138  1.00  0.00     0.031 C 
ATOM     59  C   UNL A   1      45.269  32.084  28.326  1.00  0.00     0.037 A 
BRANCH  46  60
ATOM     60  C   UNL A   1      39.772  29.872  30.053  1.00  0.00     0.064 A 
ATOM     61  C   UNL A   1      39.405  28.852  30.961  1.00  0.00     0.173 A 
ATOM     62  C   UNL A   1      38.710  30.798  29.821  1.00  0.00     0.173 A 
ATOM     63  F   UNL A   1      40.283  27.908  31.325  1.00  0.00    -0.203 F 
ATOM     64  C   UNL A   1      38.115  28.740  31.519  1.00  0.00     0.198 A 
ATOM     65  C   UNL A   1      37.434  30.696  30.392  1.00  0.00     0.198 A 
ATOM     66  F   UNL A   1      38.799  31.853  29.013  1.00  0.00    -0.203 F 
ATOM     67  F   UNL A   1      37.828  27.714  32.333  1.00  0.00    -0.200 F 
ATOM     68  C   UNL A   1      37.126  29.656  31.227  1.00  0.00     0.200 A 
ATOM     69  F   UNL A   1      36.500  31.615  30.091  1.00  0.00    -0.200 F 
ATOM     70  F   UNL A   1      35.892  29.539  31.735  1.00  0.00    -0.200 F 
ENDBRANCH  46  60
BRANCH  47  71
ATOM     71  C   UNL A   1      48.472  27.407  26.187  1.00  0.00     0.064 A 
ATOM     72  C   UNL A   1      47.831  27.573  24.937  1.00  0.00     0.173 A 
ATOM     73  C   UNL A   1      49.764  26.867  26.166  1.00  0.00     0.173 A 
ATOM     74  F   UNL A   1      46.592  28.092  24.885  1.00  0.00    -0.203 F 
ATOM     75  C   UNL A   1      48.486  27.332  23.732  1.00  0.00     0.198 A 
ATOM     76  C   UNL A   1      50.411  26.596  24.949  1.00  0.00     0.198 A 
ATOM     77  F   UNL A   1      50.460  26.728  27.303  1.00  0.00    -0.203 F 
ATOM     78  F   UNL A   1      47.889  27.641  22.571  1.00  0.00    -0.200 F 
ATOM     79  C   UNL A   1      49.784  26.857  23.738  1.00  0.00     0.200 A 
ATOM     80  F   UNL A   1      51.695  26.208  24.945  1.00  0.00    -0.200 F 
ATOM     81  F   UNL A   1      50.456  26.727  22.586  1.00  0.00    -0.200 F 
ENDBRANCH  47  71
BRANCH  59  82
ATOM     82  C   UNL A   1      44.912  33.491  27.915  1.00  0.00     0.064 A 
ATOM     83  C   UNL A   1      44.150  33.805  26.778  1.00  0.00     0.173 A 
ATOM     84  C   UNL A   1      45.178  34.569  28.795  1.00  0.00     0.173 A 
ATOM     85  F   UNL A   1      43.743  32.856  25.927  1.00  0.00    -0.203 F 
ATOM     86  C   UNL A   1      43.723  35.110  26.518  1.00  0.00     0.198 A 
ATOM     87  C   UNL A   1      44.691  35.853  28.567  1.00  0.00     0.198 A 
ATOM     88  F   UNL A   1      45.884  34.391  29.922  1.00  0.00    -0.203 F 
ATOM     89  F   UNL A   1      43.031  35.370  25.401  1.00  0.00    -0.200 F 
ATOM     90  C   UNL A   1      43.977  36.128  27.421  1.00  0.00     0.200 A 
ATOM     91  F   UNL A   1      44.894  36.815  29.479  1.00  0.00    -0.200 F 
ATOM     92  F   UNL A   1      43.512  37.364  27.194  1.00  0.00    -0.200 F 
ENDBRANCH  59  82
ENDBRANCH  33  34
ENDBRANCH  26  28
ENDBRANCH  25  26
ENDBRANCH  24  25
ENDBRANCH  23  24
ENDBRANCH  22  23
ENDBRANCH   1  22
TORSDOF 18
ENDMDL
