MODEL 1
REMARK VINA RESULT:      -9.4      0.000      0.000
REMARK SMILES Cc1cc(C[N@@H+]2CC[C@@H](C(=O)OCCOCCOCCOC(=O)c3ccc(-c4c5nc(c(-c6c(F)c(F)c(F)c(F)c6F)c6ccc([nH]6)c(-c6c(F)c(F)c(F)c(F)c6F)c6nc(c(-c7c(F)c(F)c(F)c(F)c7F)c7ccc4[nH]7)C=C6)C=C5)cc3)C2)ccc1Br
REMARK SMILES IDX 16 1 15 2 14 3 13 4 12 5 10 6 11 7 9 8 6 9 7 10 87 11 8 13
REMARK SMILES IDX 5 14 4 15 1 16 2 17 3 18 90 19 89 20 91 21 88 22 17 23 18 24
REMARK SMILES IDX 19 25 20 26 21 27 22 28 23 29 24 30 25 31 86 32 26 33 85 34
REMARK SMILES IDX 27 35 28 36 29 37 79 38 30 39 84 40 78 41 80 42 31 43 83 44
REMARK SMILES IDX 77 45 76 46 32 48 64 49 44 50 63 51 45 52 48 53 62 54 81 55
REMARK SMILES IDX 46 56 47 57 61 59 82 60 49 61 33 62 34 63 42 64 35 65 36 66
REMARK SMILES IDX 40 67 43 68 37 69 38 70 41 71 39 72 65 73 66 74 74 75 67 76
REMARK SMILES IDX 68 77 72 78 75 79 69 80 70 81 73 82 71 83 50 84 51 85 59 86
REMARK SMILES IDX 52 87 53 88 57 89 60 90 54 91 55 92 58 93 56 94
REMARK H PARENT 6 12 80 47 48 58
REMARK Flexibility Score: inf
ROOT
ATOM      1  C   UNL A   1      33.788  37.788  32.317  1.00  0.00     0.188 C 
ENDROOT
BRANCH   1   2
ATOM      2  O   UNL A   1      32.903  37.659  31.214  1.00  0.00    -0.376 OA
BRANCH   2   3
ATOM      3  C   UNL A   1      32.906  36.410  30.532  1.00  0.00     0.202 C 
BRANCH   3   4
ATOM      4  C   UNL A   1      33.019  36.452  29.002  1.00  0.00     0.261 C 
BRANCH   4   5
ATOM      5  O   UNL A   1      33.904  35.481  28.413  1.00  0.00    -0.463 OA
BRANCH   5   6
ATOM      6  C   UNL A   1      33.444  34.197  28.395  1.00  0.00     0.314 C 
ATOM      7  O   UNL A   1      32.389  33.838  27.885  1.00  0.00    -0.252 OA
BRANCH   6   8
ATOM      8  C   UNL A   1      34.344  33.240  29.139  1.00  0.00     0.159 C 
ATOM      9  N   UNL A   1      36.244  31.831  28.798  1.00  0.00    -0.330 N 
ATOM     10  C   UNL A   1      36.759  33.156  29.134  1.00  0.00     0.263 C 
ATOM     11  C   UNL A   1      34.859  32.037  28.356  1.00  0.00     0.278 C 
ATOM     12  H   UNL A   1      36.780  31.415  28.036  1.00  0.00     0.348 HD
ATOM     13  C   UNL A   1      35.582  33.979  29.630  1.00  0.00     0.082 C 
BRANCH   9  14
ATOM     14  C   UNL A   1      36.481  30.783  29.802  1.00  0.00     0.299 C 
BRANCH  14  15
ATOM     15  C   UNL A   1      37.588  29.781  29.539  1.00  0.00     0.007 A 
ATOM     16  C   UNL A   1      40.038  28.948  26.735  1.00  0.00     0.045 C 
ATOM     17  C   UNL A   1      39.283  28.847  28.031  1.00  0.00    -0.036 A 
ATOM     18  C   UNL A   1      38.299  29.807  28.328  1.00  0.00     0.014 A 
ATOM     19  C   UNL A   1      39.506  27.813  28.950  1.00  0.00     0.020 A 
ATOM     20  C   UNL A   1      38.852  27.811  30.183  1.00  0.00     0.016 A 
ATOM     21  Br  UNL A   1      40.675  26.365  28.577  1.00  0.00    -0.051 Br
ATOM     22  C   UNL A   1      37.934  28.816  30.490  1.00  0.00     0.011 A 
ENDBRANCH  14  15
ENDBRANCH   9  14
ENDBRANCH   6   8
ENDBRANCH   5   6
ENDBRANCH   4   5
ENDBRANCH   3   4
ENDBRANCH   2   3
ENDBRANCH   1   2
BRANCH   1  23
ATOM     23  C   UNL A   1      33.976  36.554  33.192  1.00  0.00     0.188 C 
BRANCH  23  24
ATOM     24  O   UNL A   1      35.176  35.815  33.012  1.00  0.00    -0.376 OA
BRANCH  24  25
ATOM     25  C   UNL A   1      35.478  34.895  34.073  1.00  0.00     0.202 C 
BRANCH  25  26
ATOM     26  C   UNL A   1      34.958  33.452  33.893  1.00  0.00     0.261 C 
BRANCH  26  27
ATOM     27  O   UNL A   1      35.972  32.427  33.774  1.00  0.00    -0.460 OA
BRANCH  27  28
ATOM     28  C   UNL A   1      37.036  32.475  34.609  1.00  0.00     0.338 C 
ATOM     29  O   UNL A   1      37.017  32.335  35.820  1.00  0.00    -0.246 OA
BRANCH  28  30
ATOM     30  C   UNL A   1      38.277  32.438  33.783  1.00  0.00     0.060 A 
ATOM     31  C   UNL A   1      39.464  31.974  34.376  1.00  0.00     0.016 A 
ATOM     32  C   UNL A   1      38.266  32.755  32.421  1.00  0.00     0.016 A 
ATOM     33  C   UNL A   1      40.639  31.858  33.623  1.00  0.00     0.010 A 
ATOM     34  C   UNL A   1      39.444  32.659  31.674  1.00  0.00     0.010 A 
ATOM     35  C   UNL A   1      40.645  32.239  32.275  1.00  0.00    -0.014 A 
BRANCH  35  36
ATOM     36  C   UNL A   1      41.923  32.444  31.544  1.00  0.00     0.031 A 
ATOM     37  C   UNL A   1      42.625  33.762  31.727  1.00  0.00     0.074 A 
ATOM     38  C   UNL A   1      42.446  31.523  30.715  1.00  0.00     0.049 A 
ATOM     39  N   UNL A   1      43.655  34.259  31.093  1.00  0.00    -0.248 NA
ATOM     40  C   UNL A   1      42.077  34.641  32.772  1.00  0.00     0.031 C 
ATOM     41  C   UNL A   1      41.923  30.179  30.495  1.00  0.00     0.029 A 
ATOM     42  N   UNL A   1      43.541  31.600  29.885  1.00  0.00    -0.354 N 
ATOM     43  C   UNL A   1      43.865  35.515  31.646  1.00  0.00     0.074 A 
ATOM     44  C   UNL A   1      42.845  35.712  32.655  1.00  0.00     0.031 C 
ATOM     45  C   UNL A   1      42.689  29.560  29.578  1.00  0.00     0.029 A 
ATOM     46  C   UNL A   1      43.725  30.482  29.109  1.00  0.00     0.049 A 
ATOM     47  H   UNL A   1      44.136  32.384  29.851  1.00  0.00     0.167 HD
ATOM     48  C   UNL A   1      44.819  36.427  31.344  1.00  0.00     0.037 A 
ATOM     49  C   UNL A   1      44.605  30.248  28.114  1.00  0.00     0.037 A 
ATOM     50  C   UNL A   1      45.828  36.243  30.338  1.00  0.00     0.049 A 
ATOM     51  C   UNL A   1      45.582  31.327  27.706  1.00  0.00     0.074 A 
ATOM     52  C   UNL A   1      46.838  37.110  29.959  1.00  0.00     0.029 A 
ATOM     53  N   UNL A   1      45.946  35.117  29.538  1.00  0.00    -0.354 N 
ATOM     54  N   UNL A   1      45.778  32.513  28.230  1.00  0.00    -0.248 NA
ATOM     55  C   UNL A   1      46.453  31.034  26.556  1.00  0.00     0.031 C 
ATOM     56  C   UNL A   1      47.533  36.531  28.893  1.00  0.00     0.029 A 
ATOM     57  C   UNL A   1      46.994  35.279  28.647  1.00  0.00     0.049 A 
ATOM     58  H   UNL A   1      45.369  34.320  29.594  1.00  0.00     0.167 HD
ATOM     59  C   UNL A   1      46.817  33.087  27.505  1.00  0.00     0.074 A 
ATOM     60  C   UNL A   1      47.209  32.123  26.501  1.00  0.00     0.031 C 
ATOM     61  C   UNL A   1      47.396  34.303  27.666  1.00  0.00     0.037 A 
BRANCH  48  62
ATOM     62  C   UNL A   1      44.776  37.729  32.088  1.00  0.00     0.064 A 
ATOM     63  C   UNL A   1      45.437  37.905  33.313  1.00  0.00     0.173 A 
ATOM     64  C   UNL A   1      44.054  38.815  31.569  1.00  0.00     0.173 A 
ATOM     65  F   UNL A   1      46.124  36.892  33.861  1.00  0.00    -0.203 F 
ATOM     66  C   UNL A   1      45.342  39.107  34.011  1.00  0.00     0.198 A 
ATOM     67  C   UNL A   1      43.989  40.025  32.253  1.00  0.00     0.198 A 
ATOM     68  F   UNL A   1      43.405  38.700  30.401  1.00  0.00    -0.203 F 
ATOM     69  F   UNL A   1      45.926  39.230  35.211  1.00  0.00    -0.200 F 
ATOM     70  C   UNL A   1      44.624  40.167  33.478  1.00  0.00     0.200 A 
ATOM     71  F   UNL A   1      43.304  41.052  31.732  1.00  0.00    -0.200 F 
ATOM     72  F   UNL A   1      44.530  41.320  34.152  1.00  0.00    -0.200 F 
ENDBRANCH  48  62
BRANCH  49  73
ATOM     73  C   UNL A   1      44.604  28.940  27.405  1.00  0.00     0.064 A 
ATOM     74  C   UNL A   1      43.704  28.692  26.358  1.00  0.00     0.173 A 
ATOM     75  C   UNL A   1      45.469  27.901  27.779  1.00  0.00     0.173 A 
ATOM     76  F   UNL A   1      42.830  29.640  25.989  1.00  0.00    -0.203 F 
ATOM     77  C   UNL A   1      43.663  27.454  25.720  1.00  0.00     0.198 A 
ATOM     78  C   UNL A   1      45.445  26.672  27.123  1.00  0.00     0.198 A 
ATOM     79  F   UNL A   1      46.336  28.080  28.786  1.00  0.00    -0.203 F 
ATOM     80  F   UNL A   1      42.761  27.229  24.756  1.00  0.00    -0.200 F 
ATOM     81  C   UNL A   1      44.538  26.447  26.098  1.00  0.00     0.200 A 
ATOM     82  F   UNL A   1      46.293  25.702  27.491  1.00  0.00    -0.200 F 
ATOM     83  F   UNL A   1      44.497  25.256  25.487  1.00  0.00    -0.200 F 
ENDBRANCH  49  73
BRANCH  61  84
ATOM     84  C   UNL A   1      48.564  34.649  26.786  1.00  0.00     0.064 A 
ATOM     85  C   UNL A   1      48.438  35.519  25.694  1.00  0.00     0.173 A 
ATOM     86  C   UNL A   1      49.845  34.161  27.092  1.00  0.00     0.173 A 
ATOM     87  F   UNL A   1      47.235  36.003  25.351  1.00  0.00    -0.203 F 
ATOM     88  C   UNL A   1      49.550  35.879  24.934  1.00  0.00     0.198 A 
ATOM     89  C   UNL A   1      50.957  34.546  26.348  1.00  0.00     0.198 A 
ATOM     90  F   UNL A   1      50.022  33.333  28.132  1.00  0.00    -0.203 F 
ATOM     91  F   UNL A   1      49.402  36.687  23.875  1.00  0.00    -0.200 F 
ATOM     92  C   UNL A   1      50.808  35.401  25.268  1.00  0.00     0.200 A 
ATOM     93  F   UNL A   1      52.174  34.095  26.683  1.00  0.00    -0.200 F 
ATOM     94  F   UNL A   1      51.878  35.763  24.546  1.00  0.00    -0.200 F 
ENDBRANCH  61  84
ENDBRANCH  35  36
ENDBRANCH  28  30
ENDBRANCH  27  28
ENDBRANCH  26  27
ENDBRANCH  25  26
ENDBRANCH  24  25
ENDBRANCH  23  24
ENDBRANCH   1  23
TORSDOF 19
ENDMDL
MODEL 2
REMARK VINA RESULT:      -9.3      6.293     11.484
REMARK SMILES Cc1cc(C[N@@H+]2CC[C@@H](C(=O)OCCOCCOCCOC(=O)c3ccc(-c4c5nc(c(-c6c(F)c(F)c(F)c(F)c6F)c6ccc([nH]6)c(-c6c(F)c(F)c(F)c(F)c6F)c6nc(c(-c7c(F)c(F)c(F)c(F)c7F)c7ccc4[nH]7)C=C6)C=C5)cc3)C2)ccc1Br
REMARK SMILES IDX 16 1 15 2 14 3 13 4 12 5 10 6 11 7 9 8 6 9 7 10 87 11 8 13
REMARK SMILES IDX 5 14 4 15 1 16 2 17 3 18 90 19 89 20 91 21 88 22 17 23 18 24
REMARK SMILES IDX 19 25 20 26 21 27 22 28 23 29 24 30 25 31 86 32 26 33 85 34
REMARK SMILES IDX 27 35 28 36 29 37 79 38 30 39 84 40 78 41 80 42 31 43 83 44
REMARK SMILES IDX 77 45 76 46 32 48 64 49 44 50 63 51 45 52 48 53 62 54 81 55
REMARK SMILES IDX 46 56 47 57 61 59 82 60 49 61 33 62 34 63 42 64 35 65 36 66
REMARK SMILES IDX 40 67 43 68 37 69 38 70 41 71 39 72 65 73 66 74 74 75 67 76
REMARK SMILES IDX 68 77 72 78 75 79 69 80 70 81 73 82 71 83 50 84 51 85 59 86
REMARK SMILES IDX 52 87 53 88 57 89 60 90 54 91 55 92 58 93 56 94
REMARK H PARENT 6 12 80 47 48 58
REMARK Flexibility Score: inf
ROOT
ATOM      1  C   UNL A   1      31.159  29.862  25.306  1.00  0.00     0.188 C 
ENDROOT
BRANCH   1   2
ATOM      2  O   UNL A   1      30.582  29.536  24.050  1.00  0.00    -0.376 OA
BRANCH   2   3
ATOM      3  C   UNL A   1      30.282  28.163  23.820  1.00  0.00     0.202 C 
BRANCH   3   4
ATOM      4  C   UNL A   1      30.947  27.499  22.607  1.00  0.00     0.261 C 
BRANCH   4   5
ATOM      5  O   UNL A   1      32.387  27.528  22.588  1.00  0.00    -0.463 OA
BRANCH   5   6
ATOM      6  C   UNL A   1      32.997  26.354  22.256  1.00  0.00     0.314 C 
ATOM      7  O   UNL A   1      33.653  26.169  21.237  1.00  0.00    -0.252 OA
BRANCH   6   8
ATOM      8  C   UNL A   1      32.726  25.250  23.250  1.00  0.00     0.159 C 
ATOM      9  N   UNL A   1      33.331  22.986  23.722  1.00  0.00    -0.330 N 
ATOM     10  C   UNL A   1      34.328  23.832  24.374  1.00  0.00     0.263 C 
ATOM     11  C   UNL A   1      32.696  23.828  22.700  1.00  0.00     0.278 C 
ATOM     12  H   UNL A   1      33.773  22.186  23.268  1.00  0.00     0.348 HD
ATOM     13  C   UNL A   1      33.803  25.257  24.327  1.00  0.00     0.082 C 
BRANCH   9  14
ATOM     14  C   UNL A   1      32.444  22.237  24.624  1.00  0.00     0.299 C 
BRANCH  14  15
ATOM     15  C   UNL A   1      32.627  20.736  24.719  1.00  0.00     0.007 A 
ATOM     16  C   UNL A   1      32.549  17.726  22.374  1.00  0.00     0.045 C 
ATOM     17  C   UNL A   1      32.624  18.531  23.641  1.00  0.00    -0.036 A 
ATOM     18  C   UNL A   1      32.527  19.932  23.570  1.00  0.00     0.014 A 
ATOM     19  C   UNL A   1      32.764  17.935  24.902  1.00  0.00     0.020 A 
ATOM     20  C   UNL A   1      32.926  18.723  26.042  1.00  0.00     0.016 A 
ATOM     21  Br  UNL A   1      32.722  16.051  25.138  1.00  0.00    -0.051 Br
ATOM     22  C   UNL A   1      32.903  20.114  25.940  1.00  0.00     0.011 A 
ENDBRANCH  14  15
ENDBRANCH   9  14
ENDBRANCH   6   8
ENDBRANCH   5   6
ENDBRANCH   4   5
ENDBRANCH   3   4
ENDBRANCH   2   3
ENDBRANCH   1   2
BRANCH   1  23
ATOM     23  C   UNL A   1      32.673  29.715  25.424  1.00  0.00     0.188 C 
BRANCH  23  24
ATOM     24  O   UNL A   1      33.211  29.647  26.737  1.00  0.00    -0.376 OA
BRANCH  24  25
ATOM     25  C   UNL A   1      33.836  30.857  27.191  1.00  0.00     0.202 C 
BRANCH  25  26
ATOM     26  C   UNL A   1      32.884  31.991  27.635  1.00  0.00     0.261 C 
BRANCH  26  27
ATOM     27  O   UNL A   1      33.327  33.336  27.340  1.00  0.00    -0.460 OA
BRANCH  27  28
ATOM     28  C   UNL A   1      33.390  34.230  28.354  1.00  0.00     0.338 C 
ATOM     29  O   UNL A   1      32.529  35.033  28.670  1.00  0.00    -0.246 OA
BRANCH  28  30
ATOM     30  C   UNL A   1      34.563  33.883  29.207  1.00  0.00     0.060 A 
ATOM     31  C   UNL A   1      35.849  34.203  28.741  1.00  0.00     0.016 A 
ATOM     32  C   UNL A   1      34.408  33.346  30.489  1.00  0.00     0.016 A 
ATOM     33  C   UNL A   1      36.977  33.959  29.535  1.00  0.00     0.010 A 
ATOM     34  C   UNL A   1      35.535  33.082  31.274  1.00  0.00     0.010 A 
ATOM     35  C   UNL A   1      36.828  33.358  30.792  1.00  0.00    -0.014 A 
BRANCH  35  36
ATOM     36  C   UNL A   1      37.998  32.787  31.509  1.00  0.00     0.031 A 
ATOM     37  C   UNL A   1      38.654  31.572  30.913  1.00  0.00     0.074 A 
ATOM     38  C   UNL A   1      38.461  33.289  32.668  1.00  0.00     0.049 A 
ATOM     39  N   UNL A   1      39.576  30.787  31.408  1.00  0.00    -0.248 NA
ATOM     40  C   UNL A   1      38.195  31.190  29.568  1.00  0.00     0.031 C 
ATOM     41  C   UNL A   1      37.980  34.500  33.325  1.00  0.00     0.029 A 
ATOM     42  N   UNL A   1      39.444  32.816  33.507  1.00  0.00    -0.354 N 
ATOM     43  C   UNL A   1      39.791  29.809  30.446  1.00  0.00     0.074 A 
ATOM     44  C   UNL A   1      38.891  30.087  29.347  1.00  0.00     0.031 C 
ATOM     45  C   UNL A   1      38.659  34.669  34.475  1.00  0.00     0.029 A 
ATOM     46  C   UNL A   1      39.587  33.551  34.658  1.00  0.00     0.049 A 
ATOM     47  H   UNL A   1      39.993  32.026  33.301  1.00  0.00     0.167 HD
ATOM     48  C   UNL A   1      40.658  28.769  30.473  1.00  0.00     0.037 A 
ATOM     49  C   UNL A   1      40.351  33.325  35.747  1.00  0.00     0.037 A 
ATOM     50  C   UNL A   1      41.546  28.481  31.564  1.00  0.00     0.049 A 
ATOM     51  C   UNL A   1      41.221  32.090  35.810  1.00  0.00     0.074 A 
ATOM     52  C   UNL A   1      42.462  27.450  31.683  1.00  0.00     0.029 A 
ATOM     53  N   UNL A   1      41.621  29.220  32.735  1.00  0.00    -0.354 N 
ATOM     54  N   UNL A   1      41.421  31.166  34.901  1.00  0.00    -0.248 NA
ATOM     55  C   UNL A   1      41.960  31.861  37.062  1.00  0.00     0.031 C 
ATOM     56  C   UNL A   1      43.051  27.533  32.948  1.00  0.00     0.029 A 
ATOM     57  C   UNL A   1      42.546  28.650  33.594  1.00  0.00     0.049 A 
ATOM     58  H   UNL A   1      41.093  30.029  32.928  1.00  0.00     0.167 HD
ATOM     59  C   UNL A   1      42.337  30.277  35.451  1.00  0.00     0.074 A 
ATOM     60  C   UNL A   1      42.652  30.766  36.776  1.00  0.00     0.031 C 
ATOM     61  C   UNL A   1      42.874  29.159  34.902  1.00  0.00     0.037 A 
BRANCH  48  62
ATOM     62  C   UNL A   1      40.642  27.840  29.295  1.00  0.00     0.064 A 
ATOM     63  C   UNL A   1      41.504  28.016  28.201  1.00  0.00     0.173 A 
ATOM     64  C   UNL A   1      39.745  26.762  29.258  1.00  0.00     0.173 A 
ATOM     65  F   UNL A   1      42.367  29.043  28.179  1.00  0.00    -0.203 F 
ATOM     66  C   UNL A   1      41.439  27.171  27.096  1.00  0.00     0.198 A 
ATOM     67  C   UNL A   1      39.705  25.899  28.166  1.00  0.00     0.198 A 
ATOM     68  F   UNL A   1      38.901  26.548  30.278  1.00  0.00    -0.203 F 
ATOM     69  F   UNL A   1      42.224  27.398  26.034  1.00  0.00    -0.200 F 
ATOM     70  C   UNL A   1      40.544  26.111  27.082  1.00  0.00     0.200 A 
ATOM     71  F   UNL A   1      38.848  24.870  28.159  1.00  0.00    -0.200 F 
ATOM     72  F   UNL A   1      40.479  25.302  26.017  1.00  0.00    -0.200 F 
ENDBRANCH  48  62
BRANCH  49  73
ATOM     73  C   UNL A   1      40.327  34.276  36.890  1.00  0.00     0.064 A 
ATOM     74  C   UNL A   1      41.259  35.321  36.974  1.00  0.00     0.173 A 
ATOM     75  C   UNL A   1      39.404  34.141  37.938  1.00  0.00     0.173 A 
ATOM     76  F   UNL A   1      42.186  35.468  36.016  1.00  0.00    -0.203 F 
ATOM     77  C   UNL A   1      41.274  36.188  38.065  1.00  0.00     0.198 A 
ATOM     78  C   UNL A   1      39.404  35.025  39.016  1.00  0.00     0.198 A 
ATOM     79  F   UNL A   1      38.505  33.148  37.917  1.00  0.00    -0.203 F 
ATOM     80  F   UNL A   1      42.206  37.148  38.142  1.00  0.00    -0.200 F 
ATOM     81  C   UNL A   1      40.343  36.043  39.082  1.00  0.00     0.200 A 
ATOM     82  F   UNL A   1      38.502  34.882  39.996  1.00  0.00    -0.200 F 
ATOM     83  F   UNL A   1      40.360  36.875  40.132  1.00  0.00    -0.200 F 
ENDBRANCH  49  73
BRANCH  61  84
ATOM     84  C   UNL A   1      43.910  28.412  35.693  1.00  0.00     0.064 A 
ATOM     85  C   UNL A   1      43.564  27.412  36.613  1.00  0.00     0.173 A 
ATOM     86  C   UNL A   1      45.275  28.649  35.466  1.00  0.00     0.173 A 
ATOM     87  F   UNL A   1      42.274  27.155  36.878  1.00  0.00    -0.203 F 
ATOM     88  C   UNL A   1      44.546  26.686  37.286  1.00  0.00     0.198 A 
ATOM     89  C   UNL A   1      46.253  27.902  36.117  1.00  0.00     0.198 A 
ATOM     90  F   UNL A   1      45.661  29.588  34.589  1.00  0.00    -0.203 F 
ATOM     91  F   UNL A   1      44.193  25.757  38.184  1.00  0.00    -0.200 F 
ATOM     92  C   UNL A   1      45.888  26.924  37.029  1.00  0.00     0.200 A 
ATOM     93  F   UNL A   1      47.549  28.123  35.855  1.00  0.00    -0.200 F 
ATOM     94  F   UNL A   1      46.830  26.212  37.662  1.00  0.00    -0.200 F 
ENDBRANCH  61  84
ENDBRANCH  35  36
ENDBRANCH  28  30
ENDBRANCH  27  28
ENDBRANCH  26  27
ENDBRANCH  25  26
ENDBRANCH  24  25
ENDBRANCH  23  24
ENDBRANCH   1  23
TORSDOF 19
ENDMDL
MODEL 3
REMARK VINA RESULT:      -9.0      4.986      7.553
REMARK SMILES Cc1cc(C[N@@H+]2CC[C@@H](C(=O)OCCOCCOCCOC(=O)c3ccc(-c4c5nc(c(-c6c(F)c(F)c(F)c(F)c6F)c6ccc([nH]6)c(-c6c(F)c(F)c(F)c(F)c6F)c6nc(c(-c7c(F)c(F)c(F)c(F)c7F)c7ccc4[nH]7)C=C6)C=C5)cc3)C2)ccc1Br
REMARK SMILES IDX 16 1 15 2 14 3 13 4 12 5 10 6 11 7 9 8 6 9 7 10 87 11 8 13
REMARK SMILES IDX 5 14 4 15 1 16 2 17 3 18 90 19 89 20 91 21 88 22 17 23 18 24
REMARK SMILES IDX 19 25 20 26 21 27 22 28 23 29 24 30 25 31 86 32 26 33 85 34
REMARK SMILES IDX 27 35 28 36 29 37 79 38 30 39 84 40 78 41 80 42 31 43 83 44
REMARK SMILES IDX 77 45 76 46 32 48 64 49 44 50 63 51 45 52 48 53 62 54 81 55
REMARK SMILES IDX 46 56 47 57 61 59 82 60 49 61 33 62 34 63 42 64 35 65 36 66
REMARK SMILES IDX 40 67 43 68 37 69 38 70 41 71 39 72 65 73 66 74 74 75 67 76
REMARK SMILES IDX 68 77 72 78 75 79 69 80 70 81 73 82 71 83 50 84 51 85 59 86
REMARK SMILES IDX 52 87 53 88 57 89 60 90 54 91 55 92 58 93 56 94
REMARK H PARENT 6 12 80 47 48 58
REMARK Flexibility Score: inf
ROOT
ATOM      1  C   UNL A   1      30.454  29.320  22.771  1.00  0.00     0.188 C 
ENDROOT
BRANCH   1   2
ATOM      2  O   UNL A   1      29.653  28.212  22.387  1.00  0.00    -0.376 OA
BRANCH   2   3
ATOM      3  C   UNL A   1      28.616  27.829  23.283  1.00  0.00     0.202 C 
BRANCH   3   4
ATOM      4  C   UNL A   1      28.826  26.534  24.079  1.00  0.00     0.261 C 
BRANCH   4   5
ATOM      5  O   UNL A   1      29.763  26.614  25.170  1.00  0.00    -0.463 OA
BRANCH   5   6
ATOM      6  C   UNL A   1      30.097  25.426  25.751  1.00  0.00     0.314 C 
ATOM      7  O   UNL A   1      29.529  24.937  26.721  1.00  0.00    -0.252 OA
BRANCH   6   8
ATOM      8  C   UNL A   1      31.304  24.780  25.115  1.00  0.00     0.159 C 
ATOM      9  N   UNL A   1      33.481  23.964  25.669  1.00  0.00    -0.330 N 
ATOM     10  C   UNL A   1      32.550  22.860  25.893  1.00  0.00     0.263 C 
ATOM     11  C   UNL A   1      32.666  25.185  25.668  1.00  0.00     0.278 C 
ATOM     12  H   UNL A   1      34.167  24.020  26.423  1.00  0.00     0.348 HD
ATOM     13  C   UNL A   1      31.221  23.268  25.279  1.00  0.00     0.082 C 
BRANCH   9  14
ATOM     14  C   UNL A   1      34.425  23.784  24.557  1.00  0.00     0.299 C 
BRANCH  14  15
ATOM     15  C   UNL A   1      35.750  23.106  24.847  1.00  0.00     0.007 A 
ATOM     16  C   UNL A   1      37.227  19.593  24.658  1.00  0.00     0.045 C 
ATOM     17  C   UNL A   1      37.102  21.062  24.953  1.00  0.00    -0.036 A 
ATOM     18  C   UNL A   1      35.907  21.728  24.627  1.00  0.00     0.014 A 
ATOM     19  C   UNL A   1      38.128  21.794  25.565  1.00  0.00     0.020 A 
ATOM     20  C   UNL A   1      38.009  23.174  25.733  1.00  0.00     0.016 A 
ATOM     21  Br  UNL A   1      39.710  20.968  26.213  1.00  0.00    -0.051 Br
ATOM     22  C   UNL A   1      36.843  23.829  25.333  1.00  0.00     0.011 A 
ENDBRANCH  14  15
ENDBRANCH   9  14
ENDBRANCH   6   8
ENDBRANCH   5   6
ENDBRANCH   4   5
ENDBRANCH   3   4
ENDBRANCH   2   3
ENDBRANCH   1   2
BRANCH   1  23
ATOM     23  C   UNL A   1      31.845  29.006  23.310  1.00  0.00     0.188 C 
BRANCH  23  24
ATOM     24  O   UNL A   1      32.016  29.060  24.720  1.00  0.00    -0.376 OA
BRANCH  24  25
ATOM     25  C   UNL A   1      33.382  29.152  25.154  1.00  0.00     0.202 C 
BRANCH  25  26
ATOM     26  C   UNL A   1      33.673  28.666  26.592  1.00  0.00     0.261 C 
BRANCH  26  27
ATOM     27  O   UNL A   1      33.480  29.645  27.639  1.00  0.00    -0.460 OA
BRANCH  27  28
ATOM     28  C   UNL A   1      34.334  30.693  27.706  1.00  0.00     0.338 C 
ATOM     29  O   UNL A   1      34.033  31.872  27.786  1.00  0.00    -0.246 OA
BRANCH  28  30
ATOM     30  C   UNL A   1      35.704  30.162  27.958  1.00  0.00     0.060 A 
ATOM     31  C   UNL A   1      35.999  29.641  29.229  1.00  0.00     0.016 A 
ATOM     32  C   UNL A   1      36.660  30.077  26.940  1.00  0.00     0.016 A 
ATOM     33  C   UNL A   1      37.249  29.069  29.494  1.00  0.00     0.010 A 
ATOM     34  C   UNL A   1      37.916  29.525  27.210  1.00  0.00     0.010 A 
ATOM     35  C   UNL A   1      38.231  29.045  28.494  1.00  0.00    -0.014 A 
BRANCH  35  36
ATOM     36  C   UNL A   1      39.651  28.758  28.825  1.00  0.00     0.031 A 
ATOM     37  C   UNL A   1      40.424  29.822  29.556  1.00  0.00     0.074 A 
ATOM     38  C   UNL A   1      40.268  27.616  28.471  1.00  0.00     0.049 A 
ATOM     39  N   UNL A   1      41.702  29.899  29.822  1.00  0.00    -0.248 NA
ATOM     40  C   UNL A   1      39.636  30.962  30.050  1.00  0.00     0.031 C 
ATOM     41  C   UNL A   1      39.634  26.469  27.830  1.00  0.00     0.029 A 
ATOM     42  N   UNL A   1      41.588  27.249  28.595  1.00  0.00    -0.354 N 
ATOM     43  C   UNL A   1      41.874  31.102  30.493  1.00  0.00     0.074 A 
ATOM     44  C   UNL A   1      40.573  31.732  30.578  1.00  0.00     0.031 C 
ATOM     45  C   UNL A   1      40.569  25.528  27.602  1.00  0.00     0.029 A 
ATOM     46  C   UNL A   1      41.875  26.027  28.036  1.00  0.00     0.049 A 
ATOM     47  H   UNL A   1      42.263  27.808  29.042  1.00  0.00     0.167 HD
ATOM     48  C   UNL A   1      43.011  31.640  30.994  1.00  0.00     0.037 A 
ATOM     49  C   UNL A   1      43.060  25.406  27.863  1.00  0.00     0.037 A 
ATOM     50  C   UNL A   1      44.307  31.026  30.904  1.00  0.00     0.049 A 
ATOM     51  C   UNL A   1      44.335  26.079  28.318  1.00  0.00     0.074 A 
ATOM     52  C   UNL A   1      45.519  31.493  31.381  1.00  0.00     0.029 A 
ATOM     53  N   UNL A   1      44.562  29.813  30.282  1.00  0.00    -0.354 N 
ATOM     54  N   UNL A   1      44.495  27.216  28.951  1.00  0.00    -0.248 NA
ATOM     55  C   UNL A   1      45.597  25.383  28.019  1.00  0.00     0.031 C 
ATOM     56  C   UNL A   1      46.516  30.590  31.000  1.00  0.00     0.029 A 
ATOM     57  C   UNL A   1      45.917  29.530  30.337  1.00  0.00     0.049 A 
ATOM     58  H   UNL A   1      43.882  29.238  29.862  1.00  0.00     0.167 HD
ATOM     59  C   UNL A   1      45.862  27.350  29.162  1.00  0.00     0.074 A 
ATOM     60  C   UNL A   1      46.491  26.181  28.588  1.00  0.00     0.031 C 
ATOM     61  C   UNL A   1      46.534  28.350  29.785  1.00  0.00     0.037 A 
BRANCH  48  62
ATOM     62  C   UNL A   1      42.899  32.988  31.641  1.00  0.00     0.064 A 
ATOM     63  C   UNL A   1      43.124  34.175  30.927  1.00  0.00     0.173 A 
ATOM     64  C   UNL A   1      42.569  33.093  33.001  1.00  0.00     0.173 A 
ATOM     65  F   UNL A   1      43.462  34.128  29.629  1.00  0.00    -0.203 F 
ATOM     66  C   UNL A   1      43.063  35.413  31.559  1.00  0.00     0.198 A 
ATOM     67  C   UNL A   1      42.476  34.335  33.623  1.00  0.00     0.198 A 
ATOM     68  F   UNL A   1      42.342  31.990  33.729  1.00  0.00    -0.203 F 
ATOM     69  F   UNL A   1      43.348  36.529  30.873  1.00  0.00    -0.200 F 
ATOM     70  C   UNL A   1      42.734  35.492  32.905  1.00  0.00     0.200 A 
ATOM     71  F   UNL A   1      42.147  34.410  34.919  1.00  0.00    -0.200 F 
ATOM     72  F   UNL A   1      42.680  36.684  33.513  1.00  0.00    -0.200 F 
ENDBRANCH  48  62
BRANCH  49  73
ATOM     73  C   UNL A   1      43.117  24.069  27.211  1.00  0.00     0.064 A 
ATOM     74  C   UNL A   1      43.400  23.950  25.843  1.00  0.00     0.173 A 
ATOM     75  C   UNL A   1      42.854  22.892  27.927  1.00  0.00     0.173 A 
ATOM     76  F   UNL A   1      43.620  25.050  25.107  1.00  0.00    -0.203 F 
ATOM     77  C   UNL A   1      43.409  22.707  25.214  1.00  0.00     0.198 A 
ATOM     78  C   UNL A   1      42.889  21.647  27.302  1.00  0.00     0.198 A 
ATOM     79  F   UNL A   1      42.560  22.952  29.233  1.00  0.00    -0.203 F 
ATOM     80  F   UNL A   1      43.634  22.627  23.896  1.00  0.00    -0.200 F 
ATOM     81  C   UNL A   1      43.159  21.555  25.945  1.00  0.00     0.200 A 
ATOM     82  F   UNL A   1      42.649  20.536  28.012  1.00  0.00    -0.200 F 
ATOM     83  F   UNL A   1      43.165  20.360  25.339  1.00  0.00    -0.200 F 
ENDBRANCH  49  73
BRANCH  61  84
ATOM     84  C   UNL A   1      48.021  28.209  29.947  1.00  0.00     0.064 A 
ATOM     85  C   UNL A   1      48.588  27.536  31.037  1.00  0.00     0.173 A 
ATOM     86  C   UNL A   1      48.886  28.689  28.950  1.00  0.00     0.173 A 
ATOM     87  F   UNL A   1      47.808  27.069  32.024  1.00  0.00    -0.203 F 
ATOM     88  C   UNL A   1      49.968  27.358  31.130  1.00  0.00     0.198 A 
ATOM     89  C   UNL A   1      50.261  28.484  29.031  1.00  0.00     0.198 A 
ATOM     90  F   UNL A   1      48.393  29.332  27.881  1.00  0.00    -0.203 F 
ATOM     91  F   UNL A   1      50.492  26.739  32.197  1.00  0.00    -0.200 F 
ATOM     92  C   UNL A   1      50.800  27.822  30.123  1.00  0.00     0.200 A 
ATOM     93  F   UNL A   1      51.061  28.919  28.049  1.00  0.00    -0.200 F 
ATOM     94  F   UNL A   1      52.125  27.634  30.205  1.00  0.00    -0.200 F 
ENDBRANCH  61  84
ENDBRANCH  35  36
ENDBRANCH  28  30
ENDBRANCH  27  28
ENDBRANCH  26  27
ENDBRANCH  25  26
ENDBRANCH  24  25
ENDBRANCH  23  24
ENDBRANCH   1  23
TORSDOF 19
ENDMDL
