MODEL 1
REMARK VINA RESULT:     -12.4      0.000      0.000
REMARK SMILES O=C(OCCOCCOCCOC(=O)c1ccc(-c2c3nc(c(-c4c(F)c(F)c(F)c(F)c4F)c4ccc([nH]4)c(-c4c(F)c(F)c(F)c(F)c4F)c4nc(c(-c5c(F)c(F)c(F)c(F)c5F)c5ccc2[nH]5)C=C4)C=C3)cc1)C1=Cc2c(ccc(Cl)c2-c2ccccc2)O[C@H]1C(F)(F)F
REMARK SMILES IDX 8 1 7 2 6 3 5 4 4 5 3 6 2 7 1 8 78 9 79 10 94 11 80 12 93 13
REMARK SMILES IDX 81 14 86 15 82 16 84 17 83 18 85 19 95 20 96 21 97 22 98 23
REMARK SMILES IDX 87 24 88 25 92 26 89 27 91 28 90 29 9 30 10 31 11 32 12 33
REMARK SMILES IDX 13 34 14 35 15 36 16 37 77 38 17 39 76 40 18 41 19 42 20 43
REMARK SMILES IDX 70 44 21 45 75 46 69 47 71 48 22 49 74 50 68 51 67 52 23 54
REMARK SMILES IDX 55 55 35 56 54 57 36 58 39 59 53 60 72 61 37 62 38 63 52 65
REMARK SMILES IDX 73 66 40 67 24 68 25 69 33 70 26 71 27 72 31 73 34 74 28 75
REMARK SMILES IDX 29 76 32 77 30 78 56 79 57 80 65 81 58 82 59 83 63 84 66 85
REMARK SMILES IDX 60 86 61 87 64 88 62 89 41 90 42 91 50 92 43 93 44 94 48 95
REMARK SMILES IDX 51 96 45 97 46 98 49 99 47 100
REMARK H PARENT 71 53 39 64
REMARK Flexibility Score: inf
ROOT
ATOM      1  C   UNL A   1      34.529  17.737  24.144  1.00  0.00     0.188 C 
ENDROOT
BRANCH   1   2
ATOM      2  C   UNL A   1      32.925  18.270  24.019  1.00  0.00     0.188 C 
BRANCH   2   3
ATOM      3  O   UNL A   1      32.348  19.197  24.930  1.00  0.00    -0.376 OA
BRANCH   3   4
ATOM      4  C   UNL A   1      32.167  20.496  24.437  1.00  0.00     0.202 C 
BRANCH   4   5
ATOM      5  C   UNL A   1      31.783  21.657  25.387  1.00  0.00     0.261 C 
BRANCH   5   6
ATOM      6  O   UNL A   1      32.857  21.946  26.308  1.00  0.00    -0.460 OA
BRANCH   6   7
ATOM      7  C   UNL A   1      33.920  22.748  26.016  1.00  0.00     0.338 C 
ATOM      8  O   UNL A   1      34.833  22.883  26.806  1.00  0.00    -0.246 OA
BRANCH   7   9
ATOM      9  C   UNL A   1      33.977  23.419  24.694  1.00  0.00     0.087 C 
ATOM     10  C   UNL A   1      33.888  24.745  24.553  1.00  0.00     0.028 C 
ATOM     11  C   UNL A   1      34.794  22.793  23.604  1.00  0.00     0.316 C 
ATOM     12  C   UNL A   1      33.217  25.237  23.384  1.00  0.00     0.027 A 
ATOM     13  O   UNL A   1      34.294  23.287  22.292  1.00  0.00    -0.475 OA
ATOM     14  C   UNL A   1      33.419  24.375  22.271  1.00  0.00     0.128 A 
ATOM     15  C   UNL A   1      32.439  26.443  23.433  1.00  0.00     0.011 A 
ATOM     16  C   UNL A   1      32.719  24.648  21.120  1.00  0.00     0.049 A 
ATOM     17  C   UNL A   1      31.721  26.637  22.237  1.00  0.00     0.049 A 
ATOM     18  C   UNL A   1      31.854  25.755  21.119  1.00  0.00     0.025 A 
ATOM     19  Cl  UNL A   1      30.640  27.966  22.005  1.00  0.00    -0.084 Cl
BRANCH  11  20
ATOM     20  C   UNL A   1      36.306  23.094  23.880  1.00  0.00     0.430 C 
ATOM     21  F   UNL A   1      36.473  24.178  24.682  1.00  0.00    -0.167 F 
ATOM     22  F   UNL A   1      36.913  22.066  24.535  1.00  0.00    -0.167 F 
ATOM     23  F   UNL A   1      37.020  23.313  22.759  1.00  0.00    -0.167 F 
ENDBRANCH  11  20
BRANCH  15  24
ATOM     24  C   UNL A   1      32.427  27.456  24.642  1.00  0.00    -0.016 A 
ATOM     25  C   UNL A   1      33.545  28.879  24.692  1.00  0.00     0.009 A 
ATOM     26  C   UNL A   1      31.404  27.161  26.116  1.00  0.00     0.009 A 
ATOM     27  C   UNL A   1      33.710  29.932  26.153  1.00  0.00     0.001 A 
ATOM     28  C   UNL A   1      31.576  28.212  27.625  1.00  0.00     0.001 A 
ATOM     29  C   UNL A   1      32.723  29.607  27.628  1.00  0.00     0.000 A 
ENDBRANCH  15  24
ENDBRANCH   7   9
ENDBRANCH   6   7
ENDBRANCH   5   6
ENDBRANCH   4   5
ENDBRANCH   3   4
ENDBRANCH   2   3
ENDBRANCH   1   2
BRANCH   1  30
ATOM     30  O   UNL A   1      36.225  18.612  24.700  1.00  0.00    -0.376 OA
BRANCH  30  31
ATOM     31  C   UNL A   1      37.594  18.603  25.374  1.00  0.00     0.202 C 
BRANCH  31  32
ATOM     32  C   UNL A   1      38.867  19.512  25.095  1.00  0.00     0.261 C 
BRANCH  32  33
ATOM     33  O   UNL A   1      38.966  20.804  25.762  1.00  0.00    -0.460 OA
BRANCH  33  34
ATOM     34  C   UNL A   1      40.044  20.993  26.570  1.00  0.00     0.338 C 
ATOM     35  O   UNL A   1      40.925  20.182  26.819  1.00  0.00    -0.246 OA
BRANCH  34  36
ATOM     36  C   UNL A   1      40.147  22.398  27.042  1.00  0.00     0.060 A 
ATOM     37  C   UNL A   1      39.375  23.413  26.444  1.00  0.00     0.016 A 
ATOM     38  C   UNL A   1      41.166  22.750  27.921  1.00  0.00     0.016 A 
ATOM     39  C   UNL A   1      39.626  24.765  26.699  1.00  0.00     0.010 A 
ATOM     40  C   UNL A   1      41.429  24.104  28.167  1.00  0.00     0.010 A 
ATOM     41  C   UNL A   1      40.689  25.119  27.528  1.00  0.00    -0.014 A 
BRANCH  41  42
ATOM     42  C   UNL A   1      41.197  26.514  27.577  1.00  0.00     0.031 A 
ATOM     43  C   UNL A   1      42.589  26.774  27.080  1.00  0.00     0.074 A 
ATOM     44  C   UNL A   1      40.480  27.514  28.115  1.00  0.00     0.049 A 
ATOM     45  N   UNL A   1      43.376  27.798  27.285  1.00  0.00    -0.248 NA
ATOM     46  C   UNL A   1      43.179  25.712  26.251  1.00  0.00     0.031 C 
ATOM     47  C   UNL A   1      39.088  27.423  28.541  1.00  0.00     0.029 A 
ATOM     48  N   UNL A   1      40.856  28.795  28.443  1.00  0.00    -0.354 N 
ATOM     49  C   UNL A   1      44.574  27.479  26.658  1.00  0.00     0.074 A 
ATOM     50  C   UNL A   1      44.407  26.168  26.068  1.00  0.00     0.031 C 
ATOM     51  C   UNL A   1      38.741  28.580  29.129  1.00  0.00     0.029 A 
ATOM     52  C   UNL A   1      39.907  29.463  29.176  1.00  0.00     0.049 A 
ATOM     53  H   UNL A   1      41.717  29.193  28.178  1.00  0.00     0.167 HD
ATOM     54  C   UNL A   1      45.715  28.210  26.603  1.00  0.00     0.037 A 
ATOM     55  C   UNL A   1      39.993  30.619  29.865  1.00  0.00     0.037 A 
ATOM     56  C   UNL A   1      45.861  29.509  27.207  1.00  0.00     0.049 A 
ATOM     57  C   UNL A   1      41.293  31.385  29.872  1.00  0.00     0.074 A 
ATOM     58  C   UNL A   1      46.963  30.344  27.202  1.00  0.00     0.029 A 
ATOM     59  N   UNL A   1      44.875  30.151  27.943  1.00  0.00    -0.354 N 
ATOM     60  N   UNL A   1      42.437  31.081  29.305  1.00  0.00    -0.248 NA
ATOM     61  C   UNL A   1      41.318  32.649  30.621  1.00  0.00     0.031 C 
ATOM     62  C   UNL A   1      46.673  31.452  28.005  1.00  0.00     0.029 A 
ATOM     63  C   UNL A   1      45.357  31.356  28.431  1.00  0.00     0.049 A 
ATOM     64  H   UNL A   1      43.966  29.804  28.096  1.00  0.00     0.167 HD
ATOM     65  C   UNL A   1      43.303  32.129  29.595  1.00  0.00     0.074 A 
ATOM     66  C   UNL A   1      42.553  33.077  30.394  1.00  0.00     0.031 C 
ATOM     67  C   UNL A   1      44.597  32.296  29.221  1.00  0.00     0.037 A 
BRANCH  54  68
ATOM     68  C   UNL A   1      46.908  27.574  25.944  1.00  0.00     0.064 A 
ATOM     69  C   UNL A   1      47.830  26.787  26.652  1.00  0.00     0.173 A 
ATOM     70  C   UNL A   1      47.150  27.785  24.577  1.00  0.00     0.173 A 
ATOM     71  F   UNL A   1      47.656  26.557  27.963  1.00  0.00    -0.203 F 
ATOM     72  C   UNL A   1      48.975  26.289  26.034  1.00  0.00     0.198 A 
ATOM     73  C   UNL A   1      48.272  27.248  23.951  1.00  0.00     0.198 A 
ATOM     74  F   UNL A   1      46.301  28.521  23.843  1.00  0.00    -0.203 F 
ATOM     75  F   UNL A   1      49.884  25.616  26.753  1.00  0.00    -0.200 F 
ATOM     76  C   UNL A   1      49.194  26.518  24.684  1.00  0.00     0.200 A 
ATOM     77  F   UNL A   1      48.470  27.455  22.642  1.00  0.00    -0.200 F 
ATOM     78  F   UNL A   1      50.300  26.047  24.092  1.00  0.00    -0.200 F 
ENDBRANCH  54  68
BRANCH  55  79
ATOM     79  C   UNL A   1      38.816  31.090  30.644  1.00  0.00     0.064 A 
ATOM     80  C   UNL A   1      37.795  31.835  30.038  1.00  0.00     0.173 A 
ATOM     81  C   UNL A   1      38.671  30.773  32.004  1.00  0.00     0.173 A 
ATOM     82  F   UNL A   1      37.904  32.193  28.750  1.00  0.00    -0.203 F 
ATOM     83  C   UNL A   1      36.674  32.240  30.761  1.00  0.00     0.198 A 
ATOM     84  C   UNL A   1      37.535  31.151  32.717  1.00  0.00     0.198 A 
ATOM     85  F   UNL A   1      39.623  30.071  32.636  1.00  0.00    -0.203 F 
ATOM     86  F   UNL A   1      35.729  32.980  30.165  1.00  0.00    -0.200 F 
ATOM     87  C   UNL A   1      36.539  31.887  32.095  1.00  0.00     0.200 A 
ATOM     88  F   UNL A   1      37.404  30.797  34.002  1.00  0.00    -0.200 F 
ATOM     89  F   UNL A   1      35.451  32.260  32.782  1.00  0.00    -0.200 F 
ENDBRANCH  55  79
BRANCH  67  90
ATOM     90  C   UNL A   1      45.284  33.577  29.610  1.00  0.00     0.064 A 
ATOM     91  C   UNL A   1      46.040  33.695  30.784  1.00  0.00     0.173 A 
ATOM     92  C   UNL A   1      45.249  34.680  28.740  1.00  0.00     0.173 A 
ATOM     93  F   UNL A   1      46.100  32.677  31.656  1.00  0.00    -0.203 F 
ATOM     94  C   UNL A   1      46.722  34.874  31.081  1.00  0.00     0.198 A 
ATOM     95  C   UNL A   1      45.961  35.842  29.022  1.00  0.00     0.198 A 
ATOM     96  F   UNL A   1      44.547  34.619  27.598  1.00  0.00    -0.203 F 
ATOM     97  F   UNL A   1      47.408  34.979  32.228  1.00  0.00    -0.200 F 
ATOM     98  C   UNL A   1      46.693  35.941  30.194  1.00  0.00     0.200 A 
ATOM     99  F   UNL A   1      45.947  36.862  28.153  1.00  0.00    -0.200 F 
ATOM    100  F   UNL A   1      47.368  37.065  30.472  1.00  0.00    -0.200 F 
ENDBRANCH  67  90
ENDBRANCH  41  42
ENDBRANCH  34  36
ENDBRANCH  33  34
ENDBRANCH  32  33
ENDBRANCH  31  32
ENDBRANCH  30  31
ENDBRANCH   1  30
TORSDOF 19
ENDMDL
MODEL 2
REMARK VINA RESULT:     -12.4      0.596      2.041
REMARK SMILES O=C(OCCOCCOCCOC(=O)c1ccc(-c2c3nc(c(-c4c(F)c(F)c(F)c(F)c4F)c4ccc([nH]4)c(-c4c(F)c(F)c(F)c(F)c4F)c4nc(c(-c5c(F)c(F)c(F)c(F)c5F)c5ccc2[nH]5)C=C4)C=C3)cc1)C1=Cc2c(ccc(Cl)c2-c2ccccc2)O[C@H]1C(F)(F)F
REMARK SMILES IDX 8 1 7 2 6 3 5 4 4 5 3 6 2 7 1 8 78 9 79 10 94 11 80 12 93 13
REMARK SMILES IDX 81 14 86 15 82 16 84 17 83 18 85 19 95 20 96 21 97 22 98 23
REMARK SMILES IDX 87 24 88 25 92 26 89 27 91 28 90 29 9 30 10 31 11 32 12 33
REMARK SMILES IDX 13 34 14 35 15 36 16 37 77 38 17 39 76 40 18 41 19 42 20 43
REMARK SMILES IDX 70 44 21 45 75 46 69 47 71 48 22 49 74 50 68 51 67 52 23 54
REMARK SMILES IDX 55 55 35 56 54 57 36 58 39 59 53 60 72 61 37 62 38 63 52 65
REMARK SMILES IDX 73 66 40 67 24 68 25 69 33 70 26 71 27 72 31 73 34 74 28 75
REMARK SMILES IDX 29 76 32 77 30 78 56 79 57 80 65 81 58 82 59 83 63 84 66 85
REMARK SMILES IDX 60 86 61 87 64 88 62 89 41 90 42 91 50 92 43 93 44 94 48 95
REMARK SMILES IDX 51 96 45 97 46 98 49 99 47 100
REMARK H PARENT 71 53 39 64
REMARK Flexibility Score: inf
ROOT
ATOM      1  C   UNL A   1      34.614  17.646  24.247  1.00  0.00     0.188 C 
ENDROOT
BRANCH   1   2
ATOM      2  C   UNL A   1      33.026  18.185  24.002  1.00  0.00     0.188 C 
BRANCH   2   3
ATOM      3  O   UNL A   1      32.359  19.055  24.907  1.00  0.00    -0.376 OA
BRANCH   3   4
ATOM      4  C   UNL A   1      32.140  20.359  24.443  1.00  0.00     0.202 C 
BRANCH   4   5
ATOM      5  C   UNL A   1      31.918  21.527  25.436  1.00  0.00     0.261 C 
BRANCH   5   6
ATOM      6  O   UNL A   1      33.103  21.761  26.228  1.00  0.00    -0.460 OA
BRANCH   6   7
ATOM      7  C   UNL A   1      33.867  22.887  26.147  1.00  0.00     0.338 C 
ATOM      8  O   UNL A   1      34.500  23.279  27.107  1.00  0.00    -0.246 OA
BRANCH   7   9
ATOM      9  C   UNL A   1      33.961  23.605  24.853  1.00  0.00     0.087 C 
ATOM     10  C   UNL A   1      34.065  24.935  24.772  1.00  0.00     0.028 C 
ATOM     11  C   UNL A   1      34.620  22.920  23.695  1.00  0.00     0.316 C 
ATOM     12  C   UNL A   1      33.420  25.577  23.663  1.00  0.00     0.027 A 
ATOM     13  O   UNL A   1      34.137  23.545  22.434  1.00  0.00    -0.475 OA
ATOM     14  C   UNL A   1      33.436  24.750  22.506  1.00  0.00     0.128 A 
ATOM     15  C   UNL A   1      32.835  26.881  23.804  1.00  0.00     0.011 A 
ATOM     16  C   UNL A   1      32.731  25.181  21.408  1.00  0.00     0.049 A 
ATOM     17  C   UNL A   1      32.098  27.238  22.659  1.00  0.00     0.049 A 
ATOM     18  C   UNL A   1      32.043  26.401  21.500  1.00  0.00     0.025 A 
ATOM     19  Cl  UNL A   1      31.219  28.722  22.542  1.00  0.00    -0.084 Cl
BRANCH  11  20
ATOM     20  C   UNL A   1      36.172  22.979  23.900  1.00  0.00     0.430 C 
ATOM     21  F   UNL A   1      36.840  23.059  22.720  1.00  0.00    -0.167 F 
ATOM     22  F   UNL A   1      36.546  24.086  24.600  1.00  0.00    -0.167 F 
ATOM     23  F   UNL A   1      36.664  21.916  24.566  1.00  0.00    -0.167 F 
ENDBRANCH  11  20
BRANCH  15  24
ATOM     24  C   UNL A   1      33.034  27.825  25.053  1.00  0.00    -0.016 A 
ATOM     25  C   UNL A   1      31.650  28.745  25.771  1.00  0.00     0.009 A 
ATOM     26  C   UNL A   1      34.687  28.159  25.734  1.00  0.00     0.009 A 
ATOM     27  C   UNL A   1      31.880  29.994  27.059  1.00  0.00     0.001 A 
ATOM     28  C   UNL A   1      34.943  29.448  27.032  1.00  0.00     0.001 A 
ATOM     29  C   UNL A   1      33.529  30.351  27.699  1.00  0.00     0.000 A 
ENDBRANCH  15  24
ENDBRANCH   7   9
ENDBRANCH   6   7
ENDBRANCH   5   6
ENDBRANCH   4   5
ENDBRANCH   3   4
ENDBRANCH   2   3
ENDBRANCH   1   2
BRANCH   1  30
ATOM     30  O   UNL A   1      36.313  18.560  24.726  1.00  0.00    -0.376 OA
BRANCH  30  31
ATOM     31  C   UNL A   1      37.696  18.594  25.370  1.00  0.00     0.202 C 
BRANCH  31  32
ATOM     32  C   UNL A   1      38.924  19.561  25.084  1.00  0.00     0.261 C 
BRANCH  32  33
ATOM     33  O   UNL A   1      38.988  20.838  25.781  1.00  0.00    -0.460 OA
BRANCH  33  34
ATOM     34  C   UNL A   1      40.061  21.039  26.593  1.00  0.00     0.338 C 
ATOM     35  O   UNL A   1      40.960  20.243  26.829  1.00  0.00    -0.246 OA
BRANCH  34  36
ATOM     36  C   UNL A   1      40.132  22.437  27.088  1.00  0.00     0.060 A 
ATOM     37  C   UNL A   1      39.347  23.447  26.499  1.00  0.00     0.016 A 
ATOM     38  C   UNL A   1      41.135  22.794  27.984  1.00  0.00     0.016 A 
ATOM     39  C   UNL A   1      39.569  24.800  26.778  1.00  0.00     0.010 A 
ATOM     40  C   UNL A   1      41.369  24.149  28.253  1.00  0.00     0.010 A 
ATOM     41  C   UNL A   1      40.616  25.160  27.623  1.00  0.00    -0.014 A 
BRANCH  41  42
ATOM     42  C   UNL A   1      41.097  26.563  27.700  1.00  0.00     0.031 A 
ATOM     43  C   UNL A   1      42.510  26.847  27.282  1.00  0.00     0.074 A 
ATOM     44  C   UNL A   1      40.333  27.551  28.195  1.00  0.00     0.049 A 
ATOM     45  N   UNL A   1      43.266  27.884  27.530  1.00  0.00    -0.248 NA
ATOM     46  C   UNL A   1      43.164  25.796  26.489  1.00  0.00     0.031 C 
ATOM     47  C   UNL A   1      38.921  27.436  28.541  1.00  0.00     0.029 A 
ATOM     48  N   UNL A   1      40.669  28.838  28.542  1.00  0.00    -0.354 N 
ATOM     49  C   UNL A   1      44.503  27.586  26.973  1.00  0.00     0.074 A 
ATOM     50  C   UNL A   1      44.393  26.273  26.375  1.00  0.00     0.031 C 
ATOM     51  C   UNL A   1      38.521  28.587  29.108  1.00  0.00     0.029 A 
ATOM     52  C   UNL A   1      39.667  29.490  29.219  1.00  0.00     0.049 A 
ATOM     53  H   UNL A   1      41.536  29.251  28.327  1.00  0.00     0.167 HD
ATOM     54  C   UNL A   1      45.633  28.336  26.982  1.00  0.00     0.037 A 
ATOM     55  C   UNL A   1      39.694  30.648  29.912  1.00  0.00     0.037 A 
ATOM     56  C   UNL A   1      45.723  29.638  27.592  1.00  0.00     0.049 A 
ATOM     57  C   UNL A   1      40.979  31.435  29.992  1.00  0.00     0.074 A 
ATOM     58  C   UNL A   1      46.808  30.492  27.649  1.00  0.00     0.029 A 
ATOM     59  N   UNL A   1      44.685  30.263  28.271  1.00  0.00    -0.354 N 
ATOM     60  N   UNL A   1      42.158  31.152  29.491  1.00  0.00    -0.248 NA
ATOM     61  C   UNL A   1      40.940  32.700  30.740  1.00  0.00     0.031 C 
ATOM     62  C   UNL A   1      46.454  31.594  28.434  1.00  0.00     0.029 A 
ATOM     63  C   UNL A   1      45.118  31.476  28.784  1.00  0.00     0.049 A 
ATOM     64  H   UNL A   1      43.775  29.900  28.372  1.00  0.00     0.167 HD
ATOM     65  C   UNL A   1      42.988  32.214  29.828  1.00  0.00     0.074 A 
ATOM     66  C   UNL A   1      42.178  33.149  30.583  1.00  0.00     0.031 C 
ATOM     67  C   UNL A   1      44.298  32.402  29.529  1.00  0.00     0.037 A 
BRANCH  54  68
ATOM     68  C   UNL A   1      46.873  27.722  26.393  1.00  0.00     0.064 A 
ATOM     69  C   UNL A   1      47.127  27.712  25.012  1.00  0.00     0.173 A 
ATOM     70  C   UNL A   1      47.814  27.101  27.230  1.00  0.00     0.173 A 
ATOM     71  F   UNL A   1      46.260  28.282  24.161  1.00  0.00    -0.203 F 
ATOM     72  C   UNL A   1      48.238  27.053  24.490  1.00  0.00     0.198 A 
ATOM     73  C   UNL A   1      48.947  26.483  26.708  1.00  0.00     0.198 A 
ATOM     74  F   UNL A   1      47.632  27.086  28.560  1.00  0.00    -0.203 F 
ATOM     75  F   UNL A   1      48.409  26.982  23.163  1.00  0.00    -0.200 F 
ATOM     76  C   UNL A   1      49.148  26.442  25.338  1.00  0.00     0.200 A 
ATOM     77  F   UNL A   1      49.835  25.910  27.533  1.00  0.00    -0.200 F 
ATOM     78  F   UNL A   1      50.212  25.801  24.835  1.00  0.00    -0.200 F 
ENDBRANCH  54  68
BRANCH  55  79
ATOM     79  C   UNL A   1      38.467  31.098  30.622  1.00  0.00     0.064 A 
ATOM     80  C   UNL A   1      38.322  30.919  32.004  1.00  0.00     0.173 A 
ATOM     81  C   UNL A   1      37.429  31.749  29.937  1.00  0.00     0.173 A 
ATOM     82  F   UNL A   1      39.270  30.272  32.698  1.00  0.00    -0.203 F 
ATOM     83  C   UNL A   1      37.189  31.377  32.674  1.00  0.00     0.198 A 
ATOM     84  C   UNL A   1      36.312  32.235  30.613  1.00  0.00     0.198 A 
ATOM     85  F   UNL A   1      37.512  31.937  28.612  1.00  0.00    -0.203 F 
ATOM     86  F   UNL A   1      37.061  31.164  33.991  1.00  0.00    -0.200 F 
ATOM     87  C   UNL A   1      36.192  32.047  31.981  1.00  0.00     0.200 A 
ATOM     88  F   UNL A   1      35.357  32.892  29.941  1.00  0.00    -0.200 F 
ATOM     89  F   UNL A   1      35.113  32.505  32.631  1.00  0.00    -0.200 F 
ENDBRANCH  55  79
BRANCH  67  90
ATOM     90  C   UNL A   1      44.940  33.695  29.954  1.00  0.00     0.064 A 
ATOM     91  C   UNL A   1      44.983  34.820  29.119  1.00  0.00     0.173 A 
ATOM     92  C   UNL A   1      45.447  33.828  31.258  1.00  0.00     0.173 A 
ATOM     93  F   UNL A   1      44.524  34.748  27.861  1.00  0.00    -0.203 F 
ATOM     94  C   UNL A   1      45.522  36.025  29.569  1.00  0.00     0.198 A 
ATOM     95  C   UNL A   1      45.951  35.042  31.715  1.00  0.00     0.198 A 
ATOM     96  F   UNL A   1      45.424  32.785  32.102  1.00  0.00    -0.203 F 
ATOM     97  F   UNL A   1      45.588  37.078  28.741  1.00  0.00    -0.200 F 
ATOM     98  C   UNL A   1      45.993  36.139  30.868  1.00  0.00     0.200 A 
ATOM     99  F   UNL A   1      46.385  35.153  32.978  1.00  0.00    -0.200 F 
ATOM    100  F   UNL A   1      46.491  37.304  31.304  1.00  0.00    -0.200 F 
ENDBRANCH  67  90
ENDBRANCH  41  42
ENDBRANCH  34  36
ENDBRANCH  33  34
ENDBRANCH  32  33
ENDBRANCH  31  32
ENDBRANCH  30  31
ENDBRANCH   1  30
TORSDOF 19
ENDMDL
MODEL 3
REMARK VINA RESULT:     -12.2      1.717      7.172
REMARK SMILES O=C(OCCOCCOCCOC(=O)c1ccc(-c2c3nc(c(-c4c(F)c(F)c(F)c(F)c4F)c4ccc([nH]4)c(-c4c(F)c(F)c(F)c(F)c4F)c4nc(c(-c5c(F)c(F)c(F)c(F)c5F)c5ccc2[nH]5)C=C4)C=C3)cc1)C1=Cc2c(ccc(Cl)c2-c2ccccc2)O[C@H]1C(F)(F)F
REMARK SMILES IDX 8 1 7 2 6 3 5 4 4 5 3 6 2 7 1 8 78 9 79 10 94 11 80 12 93 13
REMARK SMILES IDX 81 14 86 15 82 16 84 17 83 18 85 19 95 20 96 21 97 22 98 23
REMARK SMILES IDX 87 24 88 25 92 26 89 27 91 28 90 29 9 30 10 31 11 32 12 33
REMARK SMILES IDX 13 34 14 35 15 36 16 37 77 38 17 39 76 40 18 41 19 42 20 43
REMARK SMILES IDX 70 44 21 45 75 46 69 47 71 48 22 49 74 50 68 51 67 52 23 54
REMARK SMILES IDX 55 55 35 56 54 57 36 58 39 59 53 60 72 61 37 62 38 63 52 65
REMARK SMILES IDX 73 66 40 67 24 68 25 69 33 70 26 71 27 72 31 73 34 74 28 75
REMARK SMILES IDX 29 76 32 77 30 78 56 79 57 80 65 81 58 82 59 83 63 84 66 85
REMARK SMILES IDX 60 86 61 87 64 88 62 89 41 90 42 91 50 92 43 93 44 94 48 95
REMARK SMILES IDX 51 96 45 97 46 98 49 99 47 100
REMARK H PARENT 71 53 39 64
REMARK Flexibility Score: inf
ROOT
ATOM      1  C   UNL A   1      34.767  17.547  24.113  1.00  0.00     0.188 C 
ENDROOT
BRANCH   1   2
ATOM      2  C   UNL A   1      33.134  17.886  23.808  1.00  0.00     0.188 C 
BRANCH   2   3
ATOM      3  O   UNL A   1      32.206  18.195  24.839  1.00  0.00    -0.376 OA
BRANCH   3   4
ATOM      4  C   UNL A   1      32.565  19.258  25.678  1.00  0.00     0.202 C 
BRANCH   4   5
ATOM      5  C   UNL A   1      32.830  20.670  25.099  1.00  0.00     0.261 C 
BRANCH   5   6
ATOM      6  O   UNL A   1      33.062  21.625  26.156  1.00  0.00    -0.460 OA
BRANCH   6   7
ATOM      7  C   UNL A   1      33.849  22.731  26.029  1.00  0.00     0.338 C 
ATOM      8  O   UNL A   1      34.510  23.135  26.965  1.00  0.00    -0.246 OA
BRANCH   7   9
ATOM      9  C   UNL A   1      33.932  23.412  24.713  1.00  0.00     0.087 C 
ATOM     10  C   UNL A   1      33.858  24.739  24.583  1.00  0.00     0.028 C 
ATOM     11  C   UNL A   1      34.758  22.787  23.630  1.00  0.00     0.316 C 
ATOM     12  C   UNL A   1      33.209  25.247  23.408  1.00  0.00     0.027 A 
ATOM     13  O   UNL A   1      34.282  23.296  22.316  1.00  0.00    -0.475 OA
ATOM     14  C   UNL A   1      33.419  24.392  22.291  1.00  0.00     0.128 A 
ATOM     15  C   UNL A   1      32.442  26.461  23.455  1.00  0.00     0.011 A 
ATOM     16  C   UNL A   1      32.739  24.682  21.133  1.00  0.00     0.049 A 
ATOM     17  C   UNL A   1      31.744  26.672  22.251  1.00  0.00     0.049 A 
ATOM     18  C   UNL A   1      31.885  25.797  21.128  1.00  0.00     0.025 A 
ATOM     19  Cl  UNL A   1      30.679  28.013  22.014  1.00  0.00    -0.084 Cl
BRANCH  11  20
ATOM     20  C   UNL A   1      36.269  23.070  23.931  1.00  0.00     0.430 C 
ATOM     21  F   UNL A   1      36.985  23.283  22.796  1.00  0.00    -0.167 F 
ATOM     22  F   UNL A   1      36.432  24.198  24.676  1.00  0.00    -0.167 F 
ATOM     23  F   UNL A   1      36.876  22.073  24.604  1.00  0.00    -0.167 F 
ENDBRANCH  11  20
BRANCH  15  24
ATOM     24  C   UNL A   1      32.423  27.464  24.672  1.00  0.00    -0.016 A 
ATOM     25  C   UNL A   1      33.527  28.898  24.731  1.00  0.00     0.009 A 
ATOM     26  C   UNL A   1      31.406  27.147  26.147  1.00  0.00     0.009 A 
ATOM     27  C   UNL A   1      33.684  29.941  26.200  1.00  0.00     0.001 A 
ATOM     28  C   UNL A   1      31.571  28.188  27.663  1.00  0.00     0.001 A 
ATOM     29  C   UNL A   1      32.703  29.594  27.675  1.00  0.00     0.000 A 
ENDBRANCH  15  24
ENDBRANCH   7   9
ENDBRANCH   6   7
ENDBRANCH   5   6
ENDBRANCH   4   5
ENDBRANCH   3   4
ENDBRANCH   2   3
ENDBRANCH   1   2
BRANCH   1  30
ATOM     30  O   UNL A   1      36.291  18.634  24.781  1.00  0.00    -0.376 OA
BRANCH  30  31
ATOM     31  C   UNL A   1      37.740  18.801  25.229  1.00  0.00     0.202 C 
BRANCH  31  32
ATOM     32  C   UNL A   1      38.765  19.978  24.932  1.00  0.00     0.261 C 
BRANCH  32  33
ATOM     33  O   UNL A   1      39.643  20.431  26.002  1.00  0.00    -0.460 OA
BRANCH  33  34
ATOM     34  C   UNL A   1      40.911  19.938  26.002  1.00  0.00     0.338 C 
ATOM     35  O   UNL A   1      41.269  18.837  25.607  1.00  0.00    -0.246 OA
BRANCH  34  36
ATOM     36  C   UNL A   1      41.906  20.961  26.414  1.00  0.00     0.060 A 
ATOM     37  C   UNL A   1      42.299  21.078  27.761  1.00  0.00     0.016 A 
ATOM     38  C   UNL A   1      42.284  21.948  25.509  1.00  0.00     0.016 A 
ATOM     39  C   UNL A   1      43.041  22.176  28.211  1.00  0.00     0.010 A 
ATOM     40  C   UNL A   1      43.015  23.056  25.961  1.00  0.00     0.010 A 
ATOM     41  C   UNL A   1      43.362  23.196  27.319  1.00  0.00    -0.014 A 
BRANCH  41  42
ATOM     42  C   UNL A   1      43.856  24.512  27.799  1.00  0.00     0.031 A 
ATOM     43  C   UNL A   1      42.841  25.533  28.224  1.00  0.00     0.074 A 
ATOM     44  C   UNL A   1      45.161  24.829  27.790  1.00  0.00     0.049 A 
ATOM     45  N   UNL A   1      42.965  26.824  28.384  1.00  0.00    -0.248 NA
ATOM     46  C   UNL A   1      41.488  25.017  28.483  1.00  0.00     0.031 C 
ATOM     47  C   UNL A   1      46.253  23.907  27.500  1.00  0.00     0.029 A 
ATOM     48  N   UNL A   1      45.778  26.042  27.983  1.00  0.00    -0.354 N 
ATOM     49  C   UNL A   1      41.695  27.284  28.707  1.00  0.00     0.074 A 
ATOM     50  C   UNL A   1      40.818  26.133  28.720  1.00  0.00     0.031 C 
ATOM     51  C   UNL A   1      47.405  24.598  27.474  1.00  0.00     0.029 A 
ATOM     52  C   UNL A   1      47.117  26.017  27.683  1.00  0.00     0.049 A 
ATOM     53  H   UNL A   1      45.308  26.845  28.304  1.00  0.00     0.167 HD
ATOM     54  C   UNL A   1      41.298  28.558  28.949  1.00  0.00     0.037 A 
ATOM     55  C   UNL A   1      47.994  27.031  27.525  1.00  0.00     0.037 A 
ATOM     56  C   UNL A   1      42.187  29.691  28.921  1.00  0.00     0.049 A 
ATOM     57  C   UNL A   1      47.525  28.453  27.709  1.00  0.00     0.074 A 
ATOM     58  C   UNL A   1      41.899  31.021  29.163  1.00  0.00     0.029 A 
ATOM     59  N   UNL A   1      43.539  29.625  28.610  1.00  0.00    -0.354 N 
ATOM     60  N   UNL A   1      46.324  28.901  27.990  1.00  0.00    -0.248 NA
ATOM     61  C   UNL A   1      48.531  29.513  27.547  1.00  0.00     0.031 C 
ATOM     62  C   UNL A   1      43.055  31.769  28.917  1.00  0.00     0.029 A 
ATOM     63  C   UNL A   1      44.089  30.896  28.617  1.00  0.00     0.049 A 
ATOM     64  H   UNL A   1      44.035  28.796  28.415  1.00  0.00     0.167 HD
ATOM     65  C   UNL A   1      46.435  30.284  28.075  1.00  0.00     0.074 A 
ATOM     66  C   UNL A   1      47.823  30.604  27.810  1.00  0.00     0.031 C 
ATOM     67  C   UNL A   1      45.477  31.202  28.358  1.00  0.00     0.037 A 
BRANCH  54  68
ATOM     68  C   UNL A   1      39.829  28.792  29.171  1.00  0.00     0.064 A 
ATOM     69  C   UNL A   1      38.963  29.184  28.139  1.00  0.00     0.173 A 
ATOM     70  C   UNL A   1      39.282  28.647  30.457  1.00  0.00     0.173 A 
ATOM     71  F   UNL A   1      39.429  29.347  26.891  1.00  0.00    -0.203 F 
ATOM     72  C   UNL A   1      37.626  29.482  28.396  1.00  0.00     0.198 A 
ATOM     73  C   UNL A   1      37.936  28.902  30.702  1.00  0.00     0.198 A 
ATOM     74  F   UNL A   1      40.057  28.265  31.484  1.00  0.00    -0.203 F 
ATOM     75  F   UNL A   1      36.843  29.942  27.410  1.00  0.00    -0.200 F 
ATOM     76  C   UNL A   1      37.114  29.338  29.676  1.00  0.00     0.200 A 
ATOM     77  F   UNL A   1      37.439  28.742  31.936  1.00  0.00    -0.200 F 
ATOM     78  F   UNL A   1      35.830  29.634  29.923  1.00  0.00    -0.200 F 
ENDBRANCH  54  68
BRANCH  55  79
ATOM     79  C   UNL A   1      49.393  26.725  27.124  1.00  0.00     0.064 A 
ATOM     80  C   UNL A   1      49.782  26.740  25.778  1.00  0.00     0.173 A 
ATOM     81  C   UNL A   1      50.380  26.446  28.083  1.00  0.00     0.173 A 
ATOM     82  F   UNL A   1      48.870  26.966  24.821  1.00  0.00    -0.203 F 
ATOM     83  C   UNL A   1      51.103  26.492  25.407  1.00  0.00     0.198 A 
ATOM     84  C   UNL A   1      51.706  26.231  27.714  1.00  0.00     0.198 A 
ATOM     85  F   UNL A   1      50.060  26.410  29.385  1.00  0.00    -0.203 F 
ATOM     86  F   UNL A   1      51.440  26.480  24.111  1.00  0.00    -0.200 F 
ATOM     87  C   UNL A   1      52.065  26.252  26.375  1.00  0.00     0.200 A 
ATOM     88  F   UNL A   1      52.634  26.011  28.655  1.00  0.00    -0.200 F 
ATOM     89  F   UNL A   1      53.339  26.035  26.019  1.00  0.00    -0.200 F 
ENDBRANCH  55  79
BRANCH  67  90
ATOM     90  C   UNL A   1      45.892  32.644  28.467  1.00  0.00     0.064 A 
ATOM     91  C   UNL A   1      46.458  33.174  29.635  1.00  0.00     0.173 A 
ATOM     92  C   UNL A   1      45.795  33.486  27.346  1.00  0.00     0.173 A 
ATOM     93  F   UNL A   1      46.566  32.420  30.739  1.00  0.00    -0.203 F 
ATOM     94  C   UNL A   1      46.897  34.497  29.680  1.00  0.00     0.198 A 
ATOM     95  C   UNL A   1      46.268  34.794  27.384  1.00  0.00     0.198 A 
ATOM     96  F   UNL A   1      45.268  33.027  26.200  1.00  0.00    -0.203 F 
ATOM     97  F   UNL A   1      47.401  34.995  30.819  1.00  0.00    -0.200 F 
ATOM     98  C   UNL A   1      46.814  35.301  28.553  1.00  0.00     0.200 A 
ATOM     99  F   UNL A   1      46.205  35.560  26.287  1.00  0.00    -0.200 F 
ATOM    100  F   UNL A   1      47.257  36.565  28.594  1.00  0.00    -0.200 F 
ENDBRANCH  67  90
ENDBRANCH  41  42
ENDBRANCH  34  36
ENDBRANCH  33  34
ENDBRANCH  32  33
ENDBRANCH  31  32
ENDBRANCH  30  31
ENDBRANCH   1  30
TORSDOF 19
ENDMDL
