MODEL 1
REMARK VINA RESULT:     -11.9      0.000      0.000
REMARK SMILES COC(=O)C[C@@H](NC(=O)c1ccccc1C(=O)OCCOCCOCCOC(=O)c1ccc(-c2c3nc(c(-c4c(F)c(F)c(F)c(F)c4F)c4ccc([nH]4)c(-c4c(F)c(F)c(F)c(F)c4F)c4nc(c(-c5c(F)c(F)c(F)c(F)c5F)c5ccc2[nH]5)C=C4)C=C3)cc1)c1cccc(C)c1C
REMARK SMILES IDX 21 1 20 2 19 3 18 4 16 5 17 6 15 7 10 8 11 9 12 10 14 11
REMARK SMILES IDX 13 12 8 13 7 14 9 16 6 17 5 18 3 19 4 20 2 21 1 22 93 23
REMARK SMILES IDX 94 24 99 25 95 26 97 27 100 28 96 29 98 30 22 31 23 32 24 33
REMARK SMILES IDX 25 34 26 35 27 36 28 37 29 38 30 39 31 40 92 41 32 42 91 43
REMARK SMILES IDX 33 44 34 45 35 46 85 47 36 48 90 49 84 50 86 51 37 52 89 53
REMARK SMILES IDX 83 54 82 55 38 57 70 58 50 59 69 60 51 61 54 62 68 63 87 64
REMARK SMILES IDX 52 65 53 66 67 68 88 69 55 70 39 71 40 72 48 73 41 74 42 75
REMARK SMILES IDX 46 76 49 77 43 78 44 79 47 80 45 81 71 82 72 83 80 84 73 85
REMARK SMILES IDX 74 86 78 87 81 88 75 89 76 90 79 91 77 92 56 93 57 94 65 95
REMARK SMILES IDX 58 96 59 97 63 98 66 99 60 100 61 101 64 102 62 103
REMARK H PARENT 7 15 86 56 54 67
REMARK Flexibility Score: inf
ROOT
ATOM      1  O   UNL A   1      39.028  21.286  25.475  1.00  0.00    -0.376 OA
ENDROOT
BRANCH   1   2
ATOM      2  C   UNL A   1      38.687  22.399  26.259  1.00  0.00     0.202 C 
BRANCH   2   3
ATOM      3  C   UNL A   1      37.671  23.382  25.657  1.00  0.00     0.261 C 
BRANCH   3   4
ATOM      4  O   UNL A   1      36.695  23.029  24.642  1.00  0.00    -0.460 OA
BRANCH   4   5
ATOM      5  C   UNL A   1      35.402  23.421  24.703  1.00  0.00     0.339 C 
ATOM      6  O   UNL A   1      34.979  24.552  24.828  1.00  0.00    -0.246 OA
BRANCH   5   7
ATOM      7  C   UNL A   1      34.419  22.351  24.461  1.00  0.00     0.072 A 
ATOM      8  C   UNL A   1      33.409  22.439  23.518  1.00  0.00     0.054 A 
ATOM      9  C   UNL A   1      32.551  21.345  23.305  1.00  0.00     0.015 A 
ATOM     10  C   UNL A   1      32.759  20.137  23.974  1.00  0.00     0.001 A 
ATOM     11  C   UNL A   1      34.620  21.129  25.136  1.00  0.00     0.016 A 
ATOM     12  C   UNL A   1      33.805  20.025  24.882  1.00  0.00     0.001 A 
BRANCH   8  13
ATOM     13  C   UNL A   1      33.166  23.626  22.706  1.00  0.00     0.252 C 
ATOM     14  N   UNL A   1      32.533  24.737  23.175  1.00  0.00    -0.345 N 
ATOM     15  H   UNL A   1      32.712  25.505  22.586  1.00  0.00     0.164 HD
ATOM     16  O   UNL A   1      33.647  23.655  21.574  1.00  0.00    -0.269 OA
BRANCH  14  17
ATOM     17  C   UNL A   1      31.650  25.149  24.305  1.00  0.00     0.124 C 
BRANCH  17  18
ATOM     18  C   UNL A   1      30.667  24.005  24.579  1.00  0.00     0.152 C 
BRANCH  18  19
ATOM     19  C   UNL A   1      30.875  23.460  25.980  1.00  0.00     0.307 C 
ATOM     20  O   UNL A   1      30.080  22.739  26.564  1.00  0.00    -0.252 OA
BRANCH  19  21
ATOM     21  O   UNL A   1      32.066  23.882  26.496  1.00  0.00    -0.469 OA
ATOM     22  C   UNL A   1      32.712  22.977  27.400  1.00  0.00     0.282 C 
ENDBRANCH  19  21
ENDBRANCH  18  19
ENDBRANCH  17  18
BRANCH  17  23
ATOM     23  C   UNL A   1      30.972  26.513  24.200  1.00  0.00    -0.022 A 
ATOM     24  C   UNL A   1      30.164  26.803  23.094  1.00  0.00     0.006 A 
ATOM     25  C   UNL A   1      31.241  27.555  25.142  1.00  0.00    -0.043 A 
ATOM     26  C   UNL A   1      29.773  28.113  22.825  1.00  0.00     0.001 A 
ATOM     27  C   UNL A   1      31.009  28.900  24.758  1.00  0.00    -0.048 A 
ATOM     28  C   UNL A   1      31.869  27.258  26.488  1.00  0.00     0.045 C 
ATOM     29  C   UNL A   1      30.237  29.159  23.619  1.00  0.00     0.004 A 
ATOM     30  C   UNL A   1      31.684  30.082  25.419  1.00  0.00     0.044 C 
ENDBRANCH  17  23
ENDBRANCH  14  17
ENDBRANCH   8  13
ENDBRANCH   5   7
ENDBRANCH   4   5
ENDBRANCH   3   4
ENDBRANCH   2   3
ENDBRANCH   1   2
BRANCH   1  31
ATOM     31  C   UNL A   1      39.806  20.288  26.133  1.00  0.00     0.188 C 
BRANCH  31  32
ATOM     32  C   UNL A   1      40.856  20.731  27.179  1.00  0.00     0.188 C 
BRANCH  32  33
ATOM     33  O   UNL A   1      42.129  20.123  27.148  1.00  0.00    -0.376 OA
BRANCH  33  34
ATOM     34  C   UNL A   1      42.866  20.132  25.939  1.00  0.00     0.202 C 
BRANCH  34  35
ATOM     35  C   UNL A   1      43.669  21.358  25.435  1.00  0.00     0.261 C 
BRANCH  35  36
ATOM     36  O   UNL A   1      42.934  22.534  25.042  1.00  0.00    -0.460 OA
BRANCH  36  37
ATOM     37  C   UNL A   1      43.627  23.705  25.004  1.00  0.00     0.338 C 
ATOM     38  O   UNL A   1      44.550  23.977  24.255  1.00  0.00    -0.246 OA
BRANCH  37  39
ATOM     39  C   UNL A   1      42.920  24.729  25.826  1.00  0.00     0.060 A 
ATOM     40  C   UNL A   1      43.289  26.081  25.700  1.00  0.00     0.016 A 
ATOM     41  C   UNL A   1      41.911  24.369  26.717  1.00  0.00     0.016 A 
ATOM     42  C   UNL A   1      42.679  27.067  26.484  1.00  0.00     0.010 A 
ATOM     43  C   UNL A   1      41.334  25.350  27.538  1.00  0.00     0.010 A 
ATOM     44  C   UNL A   1      41.740  26.698  27.454  1.00  0.00    -0.014 A 
BRANCH  44  45
ATOM     45  C   UNL A   1      41.394  27.638  28.557  1.00  0.00     0.031 A 
ATOM     46  C   UNL A   1      42.227  27.579  29.811  1.00  0.00     0.074 A 
ATOM     47  C   UNL A   1      40.380  28.519  28.480  1.00  0.00     0.049 A 
ATOM     48  N   UNL A   1      42.064  28.189  30.958  1.00  0.00    -0.248 NA
ATOM     49  C   UNL A   1      43.408  26.700  29.761  1.00  0.00     0.031 C 
ATOM     50  C   UNL A   1      39.532  28.740  27.314  1.00  0.00     0.029 A 
ATOM     51  N   UNL A   1      39.885  29.386  29.429  1.00  0.00    -0.354 N 
ATOM     52  C   UNL A   1      43.108  27.755  31.767  1.00  0.00     0.074 A 
ATOM     53  C   UNL A   1      43.886  26.816  30.989  1.00  0.00     0.031 C 
ATOM     54  C   UNL A   1      38.602  29.664  27.623  1.00  0.00     0.029 A 
ATOM     55  C   UNL A   1      38.763  30.067  29.021  1.00  0.00     0.049 A 
ATOM     56  H   UNL A   1      40.295  29.505  30.315  1.00  0.00     0.167 HD
ATOM     57  C   UNL A   1      43.397  28.107  33.042  1.00  0.00     0.037 A 
ATOM     58  C   UNL A   1      37.943  30.890  29.710  1.00  0.00     0.037 A 
ATOM     59  C   UNL A   1      42.623  29.030  33.828  1.00  0.00     0.049 A 
ATOM     60  C   UNL A   1      38.225  31.187  31.166  1.00  0.00     0.074 A 
ATOM     61  C   UNL A   1      42.841  29.449  35.128  1.00  0.00     0.029 A 
ATOM     62  N   UNL A   1      41.472  29.667  33.391  1.00  0.00    -0.354 N 
ATOM     63  N   UNL A   1      39.218  30.786  31.922  1.00  0.00    -0.248 NA
ATOM     64  C   UNL A   1      37.262  32.054  31.867  1.00  0.00     0.031 C 
ATOM     65  C   UNL A   1      41.788  30.289  35.501  1.00  0.00     0.029 A 
ATOM     66  C   UNL A   1      40.951  30.451  34.409  1.00  0.00     0.049 A 
ATOM     67  H   UNL A   1      41.083  29.577  32.492  1.00  0.00     0.167 HD
ATOM     68  C   UNL A   1      39.016  31.370  33.169  1.00  0.00     0.074 A 
ATOM     69  C   UNL A   1      37.816  32.170  33.066  1.00  0.00     0.031 C 
ATOM     70  C   UNL A   1      39.759  31.254  34.299  1.00  0.00     0.037 A 
BRANCH  57  71
ATOM     71  C   UNL A   1      44.586  27.451  33.684  1.00  0.00     0.064 A 
ATOM     72  C   UNL A   1      45.863  28.033  33.647  1.00  0.00     0.173 A 
ATOM     73  C   UNL A   1      44.440  26.232  34.364  1.00  0.00     0.173 A 
ATOM     74  F   UNL A   1      46.059  29.189  32.996  1.00  0.00    -0.203 F 
ATOM     75  C   UNL A   1      46.954  27.402  34.240  1.00  0.00     0.198 A 
ATOM     76  C   UNL A   1      45.526  25.623  34.985  1.00  0.00     0.198 A 
ATOM     77  F   UNL A   1      43.241  25.634  34.431  1.00  0.00    -0.203 F 
ATOM     78  F   UNL A   1      48.174  27.948  34.143  1.00  0.00    -0.200 F 
ATOM     79  C   UNL A   1      46.783  26.202  34.914  1.00  0.00     0.200 A 
ATOM     80  F   UNL A   1      45.356  24.471  35.649  1.00  0.00    -0.200 F 
ATOM     81  F   UNL A   1      47.834  25.600  35.489  1.00  0.00    -0.200 F 
ENDBRANCH  57  71
BRANCH  58  82
ATOM     82  C   UNL A   1      36.743  31.477  29.052  1.00  0.00     0.064 A 
ATOM     83  C   UNL A   1      36.686  32.841  28.730  1.00  0.00     0.173 A 
ATOM     84  C   UNL A   1      35.607  30.699  28.781  1.00  0.00     0.173 A 
ATOM     85  F   UNL A   1      37.729  33.638  29.005  1.00  0.00    -0.203 F 
ATOM     86  C   UNL A   1      35.534  33.408  28.186  1.00  0.00     0.198 A 
ATOM     87  C   UNL A   1      34.469  31.260  28.204  1.00  0.00     0.198 A 
ATOM     88  F   UNL A   1      35.600  29.393  29.082  1.00  0.00    -0.203 F 
ATOM     89  F   UNL A   1      35.486  34.726  27.949  1.00  0.00    -0.200 F 
ATOM     90  C   UNL A   1      34.428  32.615  27.917  1.00  0.00     0.200 A 
ATOM     91  F   UNL A   1      33.405  30.489  27.941  1.00  0.00    -0.200 F 
ATOM     92  F   UNL A   1      33.320  33.160  27.395  1.00  0.00    -0.200 F 
ENDBRANCH  58  82
BRANCH  70  93
ATOM     93  C   UNL A   1      39.328  32.038  35.508  1.00  0.00     0.064 A 
ATOM     94  C   UNL A   1      39.719  33.371  35.706  1.00  0.00     0.173 A 
ATOM     95  C   UNL A   1      38.467  31.464  36.457  1.00  0.00     0.173 A 
ATOM     96  F   UNL A   1      40.548  33.969  34.837  1.00  0.00    -0.203 F 
ATOM     97  C   UNL A   1      39.288  34.089  36.821  1.00  0.00     0.198 A 
ATOM     98  C   UNL A   1      38.010  32.194  37.551  1.00  0.00     0.198 A 
ATOM     99  F   UNL A   1      38.052  30.197  36.314  1.00  0.00    -0.203 F 
ATOM    100  F   UNL A   1      39.716  35.344  37.014  1.00  0.00    -0.200 F 
ATOM    101  C   UNL A   1      38.428  33.503  37.737  1.00  0.00     0.200 A 
ATOM    102  F   UNL A   1      37.163  31.632  38.425  1.00  0.00    -0.200 F 
ATOM    103  F   UNL A   1      38.006  34.198  38.802  1.00  0.00    -0.200 F 
ENDBRANCH  70  93
ENDBRANCH  44  45
ENDBRANCH  37  39
ENDBRANCH  36  37
ENDBRANCH  35  36
ENDBRANCH  34  35
ENDBRANCH  33  34
ENDBRANCH  32  33
ENDBRANCH  31  32
ENDBRANCH   1  31
TORSDOF 23
ENDMDL
MODEL 2
REMARK VINA RESULT:     -11.3      3.735      9.094
REMARK SMILES COC(=O)C[C@@H](NC(=O)c1ccccc1C(=O)OCCOCCOCCOC(=O)c1ccc(-c2c3nc(c(-c4c(F)c(F)c(F)c(F)c4F)c4ccc([nH]4)c(-c4c(F)c(F)c(F)c(F)c4F)c4nc(c(-c5c(F)c(F)c(F)c(F)c5F)c5ccc2[nH]5)C=C4)C=C3)cc1)c1cccc(C)c1C
REMARK SMILES IDX 21 1 20 2 19 3 18 4 16 5 17 6 15 7 10 8 11 9 12 10 14 11
REMARK SMILES IDX 13 12 8 13 7 14 9 16 6 17 5 18 3 19 4 20 2 21 1 22 93 23
REMARK SMILES IDX 94 24 99 25 95 26 97 27 100 28 96 29 98 30 22 31 23 32 24 33
REMARK SMILES IDX 25 34 26 35 27 36 28 37 29 38 30 39 31 40 92 41 32 42 91 43
REMARK SMILES IDX 33 44 34 45 35 46 85 47 36 48 90 49 84 50 86 51 37 52 89 53
REMARK SMILES IDX 83 54 82 55 38 57 70 58 50 59 69 60 51 61 54 62 68 63 87 64
REMARK SMILES IDX 52 65 53 66 67 68 88 69 55 70 39 71 40 72 48 73 41 74 42 75
REMARK SMILES IDX 46 76 49 77 43 78 44 79 47 80 45 81 71 82 72 83 80 84 73 85
REMARK SMILES IDX 74 86 78 87 81 88 75 89 76 90 79 91 77 92 56 93 57 94 65 95
REMARK SMILES IDX 58 96 59 97 63 98 66 99 60 100 61 101 64 102 62 103
REMARK H PARENT 7 15 86 56 54 67
REMARK Flexibility Score: inf
ROOT
ATOM      1  O   UNL A   1      34.527  31.585  27.866  1.00  0.00    -0.376 OA
ENDROOT
BRANCH   1   2
ATOM      2  C   UNL A   1      33.422  30.800  27.499  1.00  0.00     0.202 C 
BRANCH   2   3
ATOM      3  C   UNL A   1      33.722  29.500  26.736  1.00  0.00     0.261 C 
BRANCH   3   4
ATOM      4  O   UNL A   1      33.466  28.170  27.255  1.00  0.00    -0.460 OA
BRANCH   4   5
ATOM      5  C   UNL A   1      32.414  27.418  26.858  1.00  0.00     0.339 C 
ATOM      6  O   UNL A   1      31.235  27.690  26.958  1.00  0.00    -0.246 OA
BRANCH   5   7
ATOM      7  C   UNL A   1      32.770  26.201  26.111  1.00  0.00     0.072 A 
ATOM      8  C   UNL A   1      31.838  25.282  25.658  1.00  0.00     0.054 A 
ATOM      9  C   UNL A   1      32.257  24.176  24.895  1.00  0.00     0.015 A 
ATOM     10  C   UNL A   1      33.593  24.040  24.515  1.00  0.00     0.001 A 
ATOM     11  C   UNL A   1      34.118  26.054  25.726  1.00  0.00     0.016 A 
ATOM     12  C   UNL A   1      34.524  24.989  24.920  1.00  0.00     0.001 A 
BRANCH   8  13
ATOM     13  C   UNL A   1      30.408  25.384  25.928  1.00  0.00     0.252 C 
ATOM     14  N   UNL A   1      29.545  26.081  25.138  1.00  0.00    -0.345 N 
ATOM     15  H   UNL A   1      28.618  25.804  25.322  1.00  0.00     0.164 HD
ATOM     16  O   UNL A   1      29.953  24.725  26.863  1.00  0.00    -0.269 OA
BRANCH  14  17
ATOM     17  C   UNL A   1      29.570  27.134  24.081  1.00  0.00     0.124 C 
BRANCH  17  18
ATOM     18  C   UNL A   1      28.220  27.107  23.356  1.00  0.00     0.152 C 
BRANCH  18  19
ATOM     19  C   UNL A   1      27.787  28.519  23.004  1.00  0.00     0.307 C 
ATOM     20  O   UNL A   1      26.905  29.134  23.585  1.00  0.00    -0.252 OA
BRANCH  19  21
ATOM     21  O   UNL A   1      28.515  29.005  21.957  1.00  0.00    -0.469 OA
ATOM     22  C   UNL A   1      28.597  30.432  21.862  1.00  0.00     0.282 C 
ENDBRANCH  19  21
ENDBRANCH  18  19
ENDBRANCH  17  18
BRANCH  17  23
ATOM     23  C   UNL A   1      30.764  27.140  23.130  1.00  0.00    -0.022 A 
ATOM     24  C   UNL A   1      30.955  26.070  22.248  1.00  0.00     0.006 A 
ATOM     25  C   UNL A   1      31.771  28.154  23.202  1.00  0.00    -0.043 A 
ATOM     26  C   UNL A   1      32.169  25.906  21.583  1.00  0.00     0.001 A 
ATOM     27  C   UNL A   1      33.061  27.875  22.683  1.00  0.00    -0.048 A 
ATOM     28  C   UNL A   1      31.519  29.465  23.918  1.00  0.00     0.045 C 
ATOM     29  C   UNL A   1      33.230  26.770  21.842  1.00  0.00     0.004 A 
ATOM     30  C   UNL A   1      34.308  28.614  23.115  1.00  0.00     0.044 C 
ENDBRANCH  17  23
ENDBRANCH  14  17
ENDBRANCH   8  13
ENDBRANCH   5   7
ENDBRANCH   4   5
ENDBRANCH   3   4
ENDBRANCH   2   3
ENDBRANCH   1   2
BRANCH   1  31
ATOM     31  C   UNL A   1      34.214  32.838  28.468  1.00  0.00     0.188 C 
BRANCH  31  32
ATOM     32  C   UNL A   1      33.079  33.696  27.860  1.00  0.00     0.188 C 
BRANCH  32  33
ATOM     33  O   UNL A   1      32.456  34.662  28.681  1.00  0.00    -0.376 OA
BRANCH  33  34
ATOM     34  C   UNL A   1      33.262  35.601  29.368  1.00  0.00     0.202 C 
BRANCH  34  35
ATOM     35  C   UNL A   1      32.697  36.662  30.345  1.00  0.00     0.261 C 
BRANCH  35  36
ATOM     36  O   UNL A   1      32.158  36.206  31.602  1.00  0.00    -0.460 OA
BRANCH  36  37
ATOM     37  C   UNL A   1      32.966  36.321  32.692  1.00  0.00     0.338 C 
ATOM     38  O   UNL A   1      32.732  36.958  33.705  1.00  0.00    -0.246 OA
BRANCH  37  39
ATOM     39  C   UNL A   1      34.073  35.326  32.598  1.00  0.00     0.060 A 
ATOM     40  C   UNL A   1      33.821  33.986  32.944  1.00  0.00     0.016 A 
ATOM     41  C   UNL A   1      35.349  35.702  32.181  1.00  0.00     0.016 A 
ATOM     42  C   UNL A   1      34.844  33.031  32.909  1.00  0.00     0.010 A 
ATOM     43  C   UNL A   1      36.385  34.756  32.193  1.00  0.00     0.010 A 
ATOM     44  C   UNL A   1      36.149  33.425  32.593  1.00  0.00    -0.014 A 
BRANCH  44  45
ATOM     45  C   UNL A   1      37.301  32.549  32.946  1.00  0.00     0.031 A 
ATOM     46  C   UNL A   1      38.003  32.812  34.253  1.00  0.00     0.074 A 
ATOM     47  C   UNL A   1      37.736  31.553  32.153  1.00  0.00     0.049 A 
ATOM     48  N   UNL A   1      39.099  32.288  34.739  1.00  0.00    -0.248 NA
ATOM     49  C   UNL A   1      37.376  33.815  35.131  1.00  0.00     0.031 C 
ATOM     50  C   UNL A   1      37.122  31.135  30.897  1.00  0.00     0.029 A 
ATOM     51  N   UNL A   1      38.823  30.719  32.293  1.00  0.00    -0.354 N 
ATOM     52  C   UNL A   1      39.302  32.908  35.966  1.00  0.00     0.074 A 
ATOM     53  C   UNL A   1      38.228  33.862  36.142  1.00  0.00     0.031 C 
ATOM     54  C   UNL A   1      37.857  30.140  30.366  1.00  0.00     0.029 A 
ATOM     55  C   UNL A   1      39.015  29.880  31.222  1.00  0.00     0.049 A 
ATOM     56  H   UNL A   1      39.407  30.725  33.085  1.00  0.00     0.167 HD
ATOM     57  C   UNL A   1      40.290  32.703  36.869  1.00  0.00     0.037 A 
ATOM     58  C   UNL A   1      40.028  29.029  30.951  1.00  0.00     0.037 A 
ATOM     59  C   UNL A   1      41.369  31.767  36.697  1.00  0.00     0.049 A 
ATOM     60  C   UNL A   1      41.178  28.893  31.925  1.00  0.00     0.074 A 
ATOM     61  C   UNL A   1      42.415  31.490  37.560  1.00  0.00     0.029 A 
ATOM     62  N   UNL A   1      41.549  30.966  35.580  1.00  0.00    -0.354 N 
ATOM     63  N   UNL A   1      41.359  29.470  33.088  1.00  0.00    -0.248 NA
ATOM     64  C   UNL A   1      42.272  27.983  31.541  1.00  0.00     0.031 C 
ATOM     65  C   UNL A   1      43.263  30.568  36.938  1.00  0.00     0.029 A 
ATOM     66  C   UNL A   1      42.708  30.217  35.719  1.00  0.00     0.049 A 
ATOM     67  H   UNL A   1      40.943  30.933  34.805  1.00  0.00     0.167 HD
ATOM     68  C   UNL A   1      42.562  28.976  33.582  1.00  0.00     0.074 A 
ATOM     69  C   UNL A   1      43.061  28.036  32.603  1.00  0.00     0.031 C 
ATOM     70  C   UNL A   1      43.196  29.275  34.745  1.00  0.00     0.037 A 
BRANCH  57  71
ATOM     71  C   UNL A   1      40.272  33.546  38.112  1.00  0.00     0.064 A 
ATOM     72  C   UNL A   1      39.449  33.235  39.206  1.00  0.00     0.173 A 
ATOM     73  C   UNL A   1      41.107  34.669  38.218  1.00  0.00     0.173 A 
ATOM     74  F   UNL A   1      38.621  32.182  39.149  1.00  0.00    -0.203 F 
ATOM     75  C   UNL A   1      39.440  34.036  40.345  1.00  0.00     0.198 A 
ATOM     76  C   UNL A   1      41.120  35.447  39.372  1.00  0.00     0.198 A 
ATOM     77  F   UNL A   1      41.915  35.009  37.202  1.00  0.00    -0.203 F 
ATOM     78  F   UNL A   1      38.605  33.752  41.353  1.00  0.00    -0.200 F 
ATOM     79  C   UNL A   1      40.280  35.136  40.429  1.00  0.00     0.200 A 
ATOM     80  F   UNL A   1      41.944  36.500  39.458  1.00  0.00    -0.200 F 
ATOM     81  F   UNL A   1      40.275  35.902  41.530  1.00  0.00    -0.200 F 
ENDBRANCH  57  71
BRANCH  58  82
ATOM     82  C   UNL A   1      40.036  28.251  29.680  1.00  0.00     0.064 A 
ATOM     83  C   UNL A   1      39.395  27.008  29.586  1.00  0.00     0.173 A 
ATOM     84  C   UNL A   1      40.731  28.709  28.550  1.00  0.00     0.173 A 
ATOM     85  F   UNL A   1      38.750  26.505  30.649  1.00  0.00    -0.203 F 
ATOM     86  C   UNL A   1      39.467  26.243  28.422  1.00  0.00     0.198 A 
ATOM     87  C   UNL A   1      40.774  27.960  27.376  1.00  0.00     0.198 A 
ATOM     88  F   UNL A   1      41.376  29.884  28.589  1.00  0.00    -0.203 F 
ATOM     89  F   UNL A   1      38.899  25.031  28.383  1.00  0.00    -0.200 F 
ATOM     90  C   UNL A   1      40.151  26.724  27.315  1.00  0.00     0.200 A 
ATOM     91  F   UNL A   1      41.431  28.431  26.307  1.00  0.00    -0.200 F 
ATOM     92  F   UNL A   1      40.222  25.988  26.197  1.00  0.00    -0.200 F 
ENDBRANCH  58  82
BRANCH  70  93
ATOM     93  C   UNL A   1      44.480  28.552  35.051  1.00  0.00     0.064 A 
ATOM     94  C   UNL A   1      45.732  29.085  34.710  1.00  0.00     0.173 A 
ATOM     95  C   UNL A   1      44.459  27.330  35.745  1.00  0.00     0.173 A 
ATOM     96  F   UNL A   1      45.813  30.244  34.039  1.00  0.00    -0.203 F 
ATOM     97  C   UNL A   1      46.911  28.410  35.026  1.00  0.00     0.198 A 
ATOM     98  C   UNL A   1      45.639  26.676  36.089  1.00  0.00     0.198 A 
ATOM     99  F   UNL A   1      43.291  26.778  36.105  1.00  0.00    -0.203 F 
ATOM    100  F   UNL A   1      48.091  28.915  34.644  1.00  0.00    -0.200 F 
ATOM    101  C   UNL A   1      46.863  27.212  35.722  1.00  0.00     0.200 A 
ATOM    102  F   UNL A   1      45.591  25.527  36.778  1.00  0.00    -0.200 F 
ATOM    103  F   UNL A   1      47.997  26.570  36.033  1.00  0.00    -0.200 F 
ENDBRANCH  70  93
ENDBRANCH  44  45
ENDBRANCH  37  39
ENDBRANCH  36  37
ENDBRANCH  35  36
ENDBRANCH  34  35
ENDBRANCH  33  34
ENDBRANCH  32  33
ENDBRANCH  31  32
ENDBRANCH   1  31
TORSDOF 23
ENDMDL
MODEL 3
REMARK VINA RESULT:     -10.6      3.842      9.608
REMARK SMILES COC(=O)C[C@@H](NC(=O)c1ccccc1C(=O)OCCOCCOCCOC(=O)c1ccc(-c2c3nc(c(-c4c(F)c(F)c(F)c(F)c4F)c4ccc([nH]4)c(-c4c(F)c(F)c(F)c(F)c4F)c4nc(c(-c5c(F)c(F)c(F)c(F)c5F)c5ccc2[nH]5)C=C4)C=C3)cc1)c1cccc(C)c1C
REMARK SMILES IDX 21 1 20 2 19 3 18 4 16 5 17 6 15 7 10 8 11 9 12 10 14 11
REMARK SMILES IDX 13 12 8 13 7 14 9 16 6 17 5 18 3 19 4 20 2 21 1 22 93 23
REMARK SMILES IDX 94 24 99 25 95 26 97 27 100 28 96 29 98 30 22 31 23 32 24 33
REMARK SMILES IDX 25 34 26 35 27 36 28 37 29 38 30 39 31 40 92 41 32 42 91 43
REMARK SMILES IDX 33 44 34 45 35 46 85 47 36 48 90 49 84 50 86 51 37 52 89 53
REMARK SMILES IDX 83 54 82 55 38 57 70 58 50 59 69 60 51 61 54 62 68 63 87 64
REMARK SMILES IDX 52 65 53 66 67 68 88 69 55 70 39 71 40 72 48 73 41 74 42 75
REMARK SMILES IDX 46 76 49 77 43 78 44 79 47 80 45 81 71 82 72 83 80 84 73 85
REMARK SMILES IDX 74 86 78 87 81 88 75 89 76 90 79 91 77 92 56 93 57 94 65 95
REMARK SMILES IDX 58 96 59 97 63 98 66 99 60 100 61 101 64 102 62 103
REMARK H PARENT 7 15 86 56 54 67
REMARK Flexibility Score: inf
ROOT
ATOM      1  O   UNL A   1      34.798  31.523  27.594  1.00  0.00    -0.376 OA
ENDROOT
BRANCH   1   2
ATOM      2  C   UNL A   1      33.882  30.478  27.791  1.00  0.00     0.202 C 
BRANCH   2   3
ATOM      3  C   UNL A   1      33.606  29.565  26.586  1.00  0.00     0.261 C 
BRANCH   3   4
ATOM      4  O   UNL A   1      33.614  28.115  26.640  1.00  0.00    -0.460 OA
BRANCH   4   5
ATOM      5  C   UNL A   1      32.489  27.373  26.534  1.00  0.00     0.339 C 
ATOM      6  O   UNL A   1      31.361  27.694  26.851  1.00  0.00    -0.246 OA
BRANCH   5   7
ATOM      7  C   UNL A   1      32.658  26.086  25.839  1.00  0.00     0.072 A 
ATOM      8  C   UNL A   1      31.601  25.281  25.451  1.00  0.00     0.054 A 
ATOM      9  C   UNL A   1      31.848  24.096  24.733  1.00  0.00     0.015 A 
ATOM     10  C   UNL A   1      33.143  23.765  24.332  1.00  0.00     0.001 A 
ATOM     11  C   UNL A   1      33.964  25.742  25.434  1.00  0.00     0.016 A 
ATOM     12  C   UNL A   1      34.202  24.598  24.671  1.00  0.00     0.001 A 
BRANCH   8  13
ATOM     13  C   UNL A   1      30.205  25.586  25.746  1.00  0.00     0.252 C 
ATOM     14  N   UNL A   1      29.433  26.390  24.963  1.00  0.00    -0.345 N 
ATOM     15  H   UNL A   1      28.480  26.248  25.167  1.00  0.00     0.164 HD
ATOM     16  O   UNL A   1      29.680  25.007  26.697  1.00  0.00    -0.269 OA
BRANCH  14  17
ATOM     17  C   UNL A   1      29.585  27.418  23.893  1.00  0.00     0.124 C 
BRANCH  17  18
ATOM     18  C   UNL A   1      28.258  27.506  23.130  1.00  0.00     0.152 C 
BRANCH  18  19
ATOM     19  C   UNL A   1      27.884  28.958  22.897  1.00  0.00     0.307 C 
ATOM     20  O   UNL A   1      27.349  29.674  23.731  1.00  0.00    -0.252 OA
BRANCH  19  21
ATOM     21  O   UNL A   1      28.224  29.353  21.636  1.00  0.00    -0.469 OA
ATOM     22  C   UNL A   1      29.001  30.554  21.546  1.00  0.00     0.282 C 
ENDBRANCH  19  21
ENDBRANCH  18  19
ENDBRANCH  17  18
BRANCH  17  23
ATOM     23  C   UNL A   1      30.799  27.298  22.976  1.00  0.00    -0.022 A 
ATOM     24  C   UNL A   1      30.933  26.181  22.143  1.00  0.00     0.006 A 
ATOM     25  C   UNL A   1      31.876  28.239  23.035  1.00  0.00    -0.043 A 
ATOM     26  C   UNL A   1      32.148  25.901  21.520  1.00  0.00     0.001 A 
ATOM     27  C   UNL A   1      33.154  27.846  22.564  1.00  0.00    -0.048 A 
ATOM     28  C   UNL A   1      31.703  29.594  23.689  1.00  0.00     0.045 C 
ATOM     29  C   UNL A   1      33.263  26.696  21.773  1.00  0.00     0.004 A 
ATOM     30  C   UNL A   1      34.441  28.510  23.000  1.00  0.00     0.044 C 
ENDBRANCH  17  23
ENDBRANCH  14  17
ENDBRANCH   8  13
ENDBRANCH   5   7
ENDBRANCH   4   5
ENDBRANCH   3   4
ENDBRANCH   2   3
ENDBRANCH   1   2
BRANCH   1  31
ATOM     31  C   UNL A   1      34.367  32.807  28.038  1.00  0.00     0.188 C 
BRANCH  31  32
ATOM     32  C   UNL A   1      32.941  33.284  27.669  1.00  0.00     0.188 C 
BRANCH  32  33
ATOM     33  O   UNL A   1      32.466  34.482  28.245  1.00  0.00    -0.376 OA
BRANCH  33  34
ATOM     34  C   UNL A   1      33.220  35.095  29.275  1.00  0.00     0.202 C 
BRANCH  34  35
ATOM     35  C   UNL A   1      32.609  36.042  30.337  1.00  0.00     0.261 C 
BRANCH  35  36
ATOM     36  O   UNL A   1      32.313  35.500  31.639  1.00  0.00    -0.460 OA
BRANCH  36  37
ATOM     37  C   UNL A   1      33.105  35.910  32.668  1.00  0.00     0.338 C 
ATOM     38  O   UNL A   1      32.792  36.676  33.563  1.00  0.00    -0.246 OA
BRANCH  37  39
ATOM     39  C   UNL A   1      34.338  35.073  32.711  1.00  0.00     0.060 A 
ATOM     40  C   UNL A   1      34.316  33.856  33.418  1.00  0.00     0.016 A 
ATOM     41  C   UNL A   1      35.509  35.477  32.072  1.00  0.00     0.016 A 
ATOM     42  C   UNL A   1      35.464  33.063  33.518  1.00  0.00     0.010 A 
ATOM     43  C   UNL A   1      36.673  34.706  32.213  1.00  0.00     0.010 A 
ATOM     44  C   UNL A   1      36.669  33.515  32.967  1.00  0.00    -0.014 A 
BRANCH  44  45
ATOM     45  C   UNL A   1      37.962  32.918  33.403  1.00  0.00     0.031 A 
ATOM     46  C   UNL A   1      38.568  31.851  32.528  1.00  0.00     0.074 A 
ATOM     47  C   UNL A   1      38.595  33.283  34.533  1.00  0.00     0.049 A 
ATOM     48  N   UNL A   1      39.609  31.085  32.736  1.00  0.00    -0.248 NA
ATOM     49  C   UNL A   1      37.897  31.616  31.239  1.00  0.00     0.031 C 
ATOM     50  C   UNL A   1      38.171  34.342  35.442  1.00  0.00     0.029 A 
ATOM     51  N   UNL A   1      39.738  32.776  35.112  1.00  0.00    -0.354 N 
ATOM     52  C   UNL A   1      39.705  30.269  31.615  1.00  0.00     0.074 A 
ATOM     53  C   UNL A   1      38.607  30.617  30.741  1.00  0.00     0.031 C 
ATOM     54  C   UNL A   1      39.026  34.389  36.481  1.00  0.00     0.029 A 
ATOM     55  C   UNL A   1      40.033  33.337  36.331  1.00  0.00     0.049 A 
ATOM     56  H   UNL A   1      40.289  32.077  34.692  1.00  0.00     0.167 HD
ATOM     57  C   UNL A   1      40.625  29.315  31.335  1.00  0.00     0.037 A 
ATOM     58  C   UNL A   1      40.984  33.013  37.234  1.00  0.00     0.037 A 
ATOM     59  C   UNL A   1      41.713  28.952  32.204  1.00  0.00     0.049 A 
ATOM     60  C   UNL A   1      41.936  31.873  36.947  1.00  0.00     0.074 A 
ATOM     61  C   UNL A   1      42.696  28.000  32.003  1.00  0.00     0.029 A 
ATOM     62  N   UNL A   1      41.953  29.518  33.447  1.00  0.00    -0.354 N 
ATOM     63  N   UNL A   1      42.032  31.113  35.883  1.00  0.00    -0.248 NA
ATOM     64  C   UNL A   1      42.915  31.544  37.998  1.00  0.00     0.031 C 
ATOM     65  C   UNL A   1      43.492  27.942  33.150  1.00  0.00     0.029 A 
ATOM     66  C   UNL A   1      43.050  28.909  34.038  1.00  0.00     0.049 A 
ATOM     67  H   UNL A   1      41.423  30.243  33.850  1.00  0.00     0.167 HD
ATOM     68  C   UNL A   1      43.090  30.243  36.122  1.00  0.00     0.074 A 
ATOM     69  C   UNL A   1      43.620  30.579  37.426  1.00  0.00     0.031 C 
ATOM     70  C   UNL A   1      43.580  29.254  35.333  1.00  0.00     0.037 A 
BRANCH  57  71
ATOM     71  C   UNL A   1      40.465  28.563  30.046  1.00  0.00     0.064 A 
ATOM     72  C   UNL A   1      41.037  29.016  28.847  1.00  0.00     0.173 A 
ATOM     73  C   UNL A   1      39.746  27.358  30.014  1.00  0.00     0.173 A 
ATOM     74  F   UNL A   1      41.720  30.170  28.820  1.00  0.00    -0.203 F 
ATOM     75  C   UNL A   1      40.868  28.308  27.660  1.00  0.00     0.198 A 
ATOM     76  C   UNL A   1      39.608  26.635  28.833  1.00  0.00     0.198 A 
ATOM     77  F   UNL A   1      39.181  26.877  31.132  1.00  0.00    -0.203 F 
ATOM     78  F   UNL A   1      41.374  28.790  26.517  1.00  0.00    -0.200 F 
ATOM     79  C   UNL A   1      40.160  27.116  27.655  1.00  0.00     0.200 A 
ATOM     80  F   UNL A   1      38.938  25.475  28.833  1.00  0.00    -0.200 F 
ATOM     81  F   UNL A   1      40.004  26.432  26.513  1.00  0.00    -0.200 F 
ENDBRANCH  57  71
BRANCH  58  82
ATOM     82  C   UNL A   1      41.074  33.749  38.526  1.00  0.00     0.064 A 
ATOM     83  C   UNL A   1      40.227  33.436  39.599  1.00  0.00     0.173 A 
ATOM     84  C   UNL A   1      41.970  34.815  38.697  1.00  0.00     0.173 A 
ATOM     85  F   UNL A   1      39.324  32.452  39.475  1.00  0.00    -0.203 F 
ATOM     86  C   UNL A   1      40.256  34.174  40.783  1.00  0.00     0.198 A 
ATOM     87  C   UNL A   1      42.023  35.529  39.892  1.00  0.00     0.198 A 
ATOM     88  F   UNL A   1      42.792  35.168  37.698  1.00  0.00    -0.203 F 
ATOM     89  F   UNL A   1      39.392  33.893  41.767  1.00  0.00    -0.200 F 
ATOM     90  C   UNL A   1      41.159  35.216  40.930  1.00  0.00     0.200 A 
ATOM     91  F   UNL A   1      42.901  36.531  40.033  1.00  0.00    -0.200 F 
ATOM     92  F   UNL A   1      41.187  35.926  42.067  1.00  0.00    -0.200 F 
ENDBRANCH  58  82
BRANCH  70  93
ATOM     93  C   UNL A   1      44.774  28.485  35.828  1.00  0.00     0.064 A 
ATOM     94  C   UNL A   1      44.641  27.279  36.533  1.00  0.00     0.173 A 
ATOM     95  C   UNL A   1      46.075  28.934  35.547  1.00  0.00     0.173 A 
ATOM     96  F   UNL A   1      43.423  26.806  36.838  1.00  0.00    -0.203 F 
ATOM     97  C   UNL A   1      45.762  26.569  36.962  1.00  0.00     0.198 A 
ATOM     98  C   UNL A   1      47.192  28.205  35.946  1.00  0.00     0.198 A 
ATOM     99  F   UNL A   1      46.264  30.075  34.867  1.00  0.00    -0.203 F 
ATOM    100  F   UNL A   1      45.607  25.447  37.678  1.00  0.00    -0.200 F 
ATOM    101  C   UNL A   1      47.035  27.028  36.661  1.00  0.00     0.200 A 
ATOM    102  F   UNL A   1      48.422  28.641  35.637  1.00  0.00    -0.200 F 
ATOM    103  F   UNL A   1      48.111  26.339  37.065  1.00  0.00    -0.200 F 
ENDBRANCH  70  93
ENDBRANCH  44  45
ENDBRANCH  37  39
ENDBRANCH  36  37
ENDBRANCH  35  36
ENDBRANCH  34  35
ENDBRANCH  33  34
ENDBRANCH  32  33
ENDBRANCH  31  32
ENDBRANCH   1  31
TORSDOF 23
ENDMDL
