MODEL 1
REMARK VINA RESULT:     -11.5      0.000      0.000
REMARK SMILES C[C@@H](C(=O)OCCOCCOCCOC(=O)c1ccc(-c2c3nc(c(-c4c(F)c(F)c(F)c(F)c4F)c4ccc([nH]4)c(-c4c(F)c(F)c(F)c(F)c4F)c4nc(c(-c5c(F)c(F)c(F)c(F)c5F)c5ccc2[nH]5)C=C4)C=C3)cc1)c1cc(/C=C/S(C)(=O)=O)cc(C(=O)c2ccccc2)c1
REMARK SMILES IDX 9 1 8 2 7 3 6 4 5 5 3 6 4 7 2 8 1 9 80 10 81 11 99 12 82 13
REMARK SMILES IDX 90 14 89 15 83 16 84 17 85 18 86 19 87 20 88 21 91 22 92 23
REMARK SMILES IDX 93 24 94 25 98 26 95 27 97 28 96 29 10 30 11 31 12 32 13 33
REMARK SMILES IDX 14 34 15 35 16 36 17 37 18 38 79 39 19 40 78 41 20 42 21 43
REMARK SMILES IDX 22 44 72 45 23 46 77 47 71 48 73 49 24 50 76 51 70 52 69 53
REMARK SMILES IDX 25 55 57 56 37 57 56 58 38 59 41 60 55 61 74 62 39 63 40 64
REMARK SMILES IDX 54 66 75 67 42 68 26 69 27 70 35 71 28 72 29 73 33 74 36 75
REMARK SMILES IDX 30 76 31 77 34 78 32 79 58 80 59 81 67 82 60 83 61 84 65 85
REMARK SMILES IDX 68 86 62 87 63 88 66 89 64 90 43 91 44 92 52 93 45 94 46 95
REMARK SMILES IDX 50 96 53 97 47 98 48 99 51 100 49 101
REMARK H PARENT 73 54 41 65
REMARK Flexibility Score: inf
ROOT
ATOM      1  C   UNL A   1      33.695  28.875  25.822  1.00  0.00     0.188 C 
ENDROOT
BRANCH   1   2
ATOM      2  O   UNL A   1      33.149  29.251  24.577  1.00  0.00    -0.376 OA
BRANCH   2   3
ATOM      3  C   UNL A   1      32.333  28.308  23.897  1.00  0.00     0.202 C 
BRANCH   3   4
ATOM      4  C   UNL A   1      32.163  26.888  24.458  1.00  0.00     0.261 C 
BRANCH   4   5
ATOM      5  O   UNL A   1      32.633  25.834  23.582  1.00  0.00    -0.463 OA
BRANCH   5   6
ATOM      6  C   UNL A   1      33.840  25.290  23.903  1.00  0.00     0.313 C 
ATOM      7  O   UNL A   1      34.492  25.629  24.890  1.00  0.00    -0.252 OA
BRANCH   6   8
ATOM      8  C   UNL A   1      34.305  24.142  22.975  1.00  0.00     0.126 C 
ATOM      9  C   UNL A   1      33.414  23.853  21.770  1.00  0.00     0.025 C 
BRANCH   8  10
ATOM     10  C   UNL A   1      34.767  22.915  23.779  1.00  0.00    -0.033 A 
ATOM     11  C   UNL A   1      36.075  22.673  24.239  1.00  0.00     0.012 A 
ATOM     12  C   UNL A   1      33.792  21.947  24.053  1.00  0.00     0.016 A 
ATOM     13  C   UNL A   1      36.435  21.463  24.866  1.00  0.00    -0.024 A 
ATOM     14  C   UNL A   1      34.095  20.736  24.681  1.00  0.00     0.023 A 
ATOM     15  C   UNL A   1      35.425  20.497  25.078  1.00  0.00     0.020 A 
BRANCH  13  16
ATOM     16  C   UNL A   1      37.829  21.193  25.320  1.00  0.00     0.020 C 
ATOM     17  C   UNL A   1      38.566  21.945  26.168  1.00  0.00     0.106 C 
BRANCH  17  18
ATOM     18  S   UNL A   1      40.226  21.501  26.512  1.00  0.00     0.168 S 
ATOM     19  C   UNL A   1      40.350  19.790  26.063  1.00  0.00     0.163 C 
ATOM     20  O   UNL A   1      41.082  22.223  25.582  1.00  0.00    -0.225 OA
ATOM     21  O   UNL A   1      40.458  21.571  27.935  1.00  0.00    -0.225 OA
ENDBRANCH  17  18
ENDBRANCH  13  16
BRANCH  14  22
ATOM     22  C   UNL A   1      33.005  19.733  24.942  1.00  0.00     0.193 C 
ATOM     23  O   UNL A   1      31.839  20.091  25.067  1.00  0.00    -0.289 OA
BRANCH  22  24
ATOM     24  C   UNL A   1      33.320  18.277  24.996  1.00  0.00     0.022 A 
ATOM     25  C   UNL A   1      32.529  17.442  25.792  1.00  0.00     0.012 A 
ATOM     26  C   UNL A   1      34.333  17.728  24.197  1.00  0.00     0.012 A 
ATOM     27  C   UNL A   1      32.710  16.056  25.740  1.00  0.00     0.001 A 
ATOM     28  C   UNL A   1      34.498  16.340  24.138  1.00  0.00     0.001 A 
ATOM     29  C   UNL A   1      33.681  15.507  24.901  1.00  0.00     0.000 A 
ENDBRANCH  22  24
ENDBRANCH  14  22
ENDBRANCH   8  10
ENDBRANCH   6   8
ENDBRANCH   5   6
ENDBRANCH   4   5
ENDBRANCH   3   4
ENDBRANCH   2   3
ENDBRANCH   1   2
BRANCH   1  30
ATOM     30  C   UNL A   1      32.940  29.260  27.110  1.00  0.00     0.188 C 
BRANCH  30  31
ATOM     31  O   UNL A   1      31.841  30.140  27.054  1.00  0.00    -0.376 OA
BRANCH  31  32
ATOM     32  C   UNL A   1      32.098  31.526  26.875  1.00  0.00     0.202 C 
BRANCH  32  33
ATOM     33  C   UNL A   1      33.146  32.261  27.724  1.00  0.00     0.261 C 
BRANCH  33  34
ATOM     34  O   UNL A   1      33.441  33.619  27.317  1.00  0.00    -0.460 OA
BRANCH  34  35
ATOM     35  C   UNL A   1      33.307  34.527  28.316  1.00  0.00     0.338 C 
ATOM     36  O   UNL A   1      32.318  35.218  28.527  1.00  0.00    -0.246 OA
BRANCH  35  37
ATOM     37  C   UNL A   1      34.389  34.534  29.327  1.00  0.00     0.060 A 
ATOM     38  C   UNL A   1      35.701  34.461  28.862  1.00  0.00     0.016 A 
ATOM     39  C   UNL A   1      34.114  34.109  30.629  1.00  0.00     0.016 A 
ATOM     40  C   UNL A   1      36.694  33.863  29.632  1.00  0.00     0.010 A 
ATOM     41  C   UNL A   1      35.133  33.532  31.419  1.00  0.00     0.010 A 
ATOM     42  C   UNL A   1      36.423  33.344  30.900  1.00  0.00    -0.014 A 
BRANCH  42  43
ATOM     43  C   UNL A   1      37.510  32.587  31.590  1.00  0.00     0.031 A 
ATOM     44  C   UNL A   1      38.032  32.986  32.954  1.00  0.00     0.074 A 
ATOM     45  C   UNL A   1      37.905  31.405  31.076  1.00  0.00     0.049 A 
ATOM     46  N   UNL A   1      38.958  32.417  33.692  1.00  0.00    -0.248 NA
ATOM     47  C   UNL A   1      37.397  34.141  33.604  1.00  0.00     0.031 C 
ATOM     48  C   UNL A   1      37.355  30.778  29.870  1.00  0.00     0.029 A 
ATOM     49  N   UNL A   1      38.853  30.512  31.509  1.00  0.00    -0.354 N 
ATOM     50  C   UNL A   1      38.959  33.094  34.908  1.00  0.00     0.074 A 
ATOM     51  C   UNL A   1      37.953  34.129  34.809  1.00  0.00     0.031 C 
ATOM     52  C   UNL A   1      37.983  29.615  29.656  1.00  0.00     0.029 A 
ATOM     53  C   UNL A   1      39.069  29.491  30.620  1.00  0.00     0.049 A 
ATOM     54  H   UNL A   1      39.329  30.597  32.367  1.00  0.00     0.167 HD
ATOM     55  C   UNL A   1      39.751  32.897  35.993  1.00  0.00     0.037 A 
ATOM     56  C   UNL A   1      40.092  28.625  30.512  1.00  0.00     0.037 A 
ATOM     57  C   UNL A   1      40.851  31.965  36.025  1.00  0.00     0.049 A 
ATOM     58  C   UNL A   1      41.173  28.646  31.551  1.00  0.00     0.074 A 
ATOM     59  C   UNL A   1      41.826  31.802  36.996  1.00  0.00     0.029 A 
ATOM     60  N   UNL A   1      41.150  31.069  35.010  1.00  0.00    -0.354 N 
ATOM     61  N   UNL A   1      41.241  29.350  32.654  1.00  0.00    -0.248 NA
ATOM     62  C   UNL A   1      42.326  27.768  31.323  1.00  0.00     0.031 C 
ATOM     63  C   UNL A   1      42.770  30.886  36.518  1.00  0.00     0.029 A 
ATOM     64  C   UNL A   1      42.334  30.407  35.293  1.00  0.00     0.049 A 
ATOM     65  H   UNL A   1      40.600  30.923  34.206  1.00  0.00     0.167 HD
ATOM     66  C   UNL A   1      42.428  28.983  33.267  1.00  0.00     0.074 A 
ATOM     67  C   UNL A   1      43.046  27.988  32.414  1.00  0.00     0.031 C 
ATOM     68  C   UNL A   1      42.951  29.426  34.436  1.00  0.00     0.037 A 
BRANCH  55  69
ATOM     69  C   UNL A   1      39.558  33.792  37.187  1.00  0.00     0.064 A 
ATOM     70  C   UNL A   1      40.073  35.096  37.241  1.00  0.00     0.173 A 
ATOM     71  C   UNL A   1      38.782  33.352  38.272  1.00  0.00     0.173 A 
ATOM     72  F   UNL A   1      40.814  35.574  36.231  1.00  0.00    -0.203 F 
ATOM     73  C   UNL A   1      39.833  35.916  38.345  1.00  0.00     0.198 A 
ATOM     74  C   UNL A   1      38.527  34.181  39.362  1.00  0.00     0.198 A 
ATOM     75  F   UNL A   1      38.252  32.120  38.266  1.00  0.00    -0.203 F 
ATOM     76  F   UNL A   1      40.351  37.152  38.390  1.00  0.00    -0.200 F 
ATOM     77  C   UNL A   1      39.057  35.460  39.401  1.00  0.00     0.200 A 
ATOM     78  F   UNL A   1      37.762  33.742  40.371  1.00  0.00    -0.200 F 
ATOM     79  F   UNL A   1      38.821  36.251  40.457  1.00  0.00    -0.200 F 
ENDBRANCH  55  69
BRANCH  56  80
ATOM     80  C   UNL A   1      40.200  27.802  29.280  1.00  0.00     0.064 A 
ATOM     81  C   UNL A   1      39.565  26.562  29.155  1.00  0.00     0.173 A 
ATOM     82  C   UNL A   1      40.935  28.275  28.176  1.00  0.00     0.173 A 
ATOM     83  F   UNL A   1      38.891  26.048  30.194  1.00  0.00    -0.203 F 
ATOM     84  C   UNL A   1      39.651  25.832  27.971  1.00  0.00     0.198 A 
ATOM     85  C   UNL A   1      40.985  27.564  26.981  1.00  0.00     0.198 A 
ATOM     86  F   UNL A   1      41.581  29.449  28.248  1.00  0.00    -0.203 F 
ATOM     87  F   UNL A   1      39.070  24.628  27.887  1.00  0.00    -0.200 F 
ATOM     88  C   UNL A   1      40.346  26.340  26.882  1.00  0.00     0.200 A 
ATOM     89  F   UNL A   1      41.645  28.069  25.931  1.00  0.00    -0.200 F 
ATOM     90  F   UNL A   1      40.410  25.644  25.738  1.00  0.00    -0.200 F 
ENDBRANCH  56  80
BRANCH  68  91
ATOM     91  C   UNL A   1      44.242  28.809  34.886  1.00  0.00     0.064 A 
ATOM     92  C   UNL A   1      44.274  27.633  35.651  1.00  0.00     0.173 A 
ATOM     93  C   UNL A   1      45.466  29.396  34.531  1.00  0.00     0.173 A 
ATOM     94  F   UNL A   1      43.131  27.042  36.030  1.00  0.00    -0.203 F 
ATOM     95  C   UNL A   1      45.484  27.088  36.071  1.00  0.00     0.198 A 
ATOM     96  C   UNL A   1      46.675  28.829  34.923  1.00  0.00     0.198 A 
ATOM     97  F   UNL A   1      45.490  30.517  33.794  1.00  0.00    -0.203 F 
ATOM     98  F   UNL A   1      45.490  25.999  36.851  1.00  0.00    -0.200 F 
ATOM     99  C   UNL A   1      46.682  27.682  35.702  1.00  0.00     0.200 A 
ATOM    100  F   UNL A   1      47.831  29.395  34.552  1.00  0.00    -0.200 F 
ATOM    101  F   UNL A   1      47.846  27.154  36.106  1.00  0.00    -0.200 F 
ENDBRANCH  68  91
ENDBRANCH  42  43
ENDBRANCH  35  37
ENDBRANCH  34  35
ENDBRANCH  33  34
ENDBRANCH  32  33
ENDBRANCH  31  32
ENDBRANCH  30  31
ENDBRANCH   1  30
TORSDOF 22
ENDMDL
MODEL 2
REMARK VINA RESULT:     -11.4      0.909      6.994
REMARK SMILES C[C@@H](C(=O)OCCOCCOCCOC(=O)c1ccc(-c2c3nc(c(-c4c(F)c(F)c(F)c(F)c4F)c4ccc([nH]4)c(-c4c(F)c(F)c(F)c(F)c4F)c4nc(c(-c5c(F)c(F)c(F)c(F)c5F)c5ccc2[nH]5)C=C4)C=C3)cc1)c1cc(/C=C/S(C)(=O)=O)cc(C(=O)c2ccccc2)c1
REMARK SMILES IDX 9 1 8 2 7 3 6 4 5 5 3 6 4 7 2 8 1 9 80 10 81 11 99 12 82 13
REMARK SMILES IDX 90 14 89 15 83 16 84 17 85 18 86 19 87 20 88 21 91 22 92 23
REMARK SMILES IDX 93 24 94 25 98 26 95 27 97 28 96 29 10 30 11 31 12 32 13 33
REMARK SMILES IDX 14 34 15 35 16 36 17 37 18 38 79 39 19 40 78 41 20 42 21 43
REMARK SMILES IDX 22 44 72 45 23 46 77 47 71 48 73 49 24 50 76 51 70 52 69 53
REMARK SMILES IDX 25 55 57 56 37 57 56 58 38 59 41 60 55 61 74 62 39 63 40 64
REMARK SMILES IDX 54 66 75 67 42 68 26 69 27 70 35 71 28 72 29 73 33 74 36 75
REMARK SMILES IDX 30 76 31 77 34 78 32 79 58 80 59 81 67 82 60 83 61 84 65 85
REMARK SMILES IDX 68 86 62 87 63 88 66 89 64 90 43 91 44 92 52 93 45 94 46 95
REMARK SMILES IDX 50 96 53 97 47 98 48 99 51 100 49 101
REMARK H PARENT 73 54 41 65
REMARK Flexibility Score: inf
ROOT
ATOM      1  C   UNL A   1      33.471  28.966  26.198  1.00  0.00     0.188 C 
ENDROOT
BRANCH   1   2
ATOM      2  O   UNL A   1      33.282  29.136  24.811  1.00  0.00    -0.376 OA
BRANCH   2   3
ATOM      3  C   UNL A   1      32.814  28.023  24.063  1.00  0.00     0.202 C 
BRANCH   3   4
ATOM      4  C   UNL A   1      31.888  26.987  24.719  1.00  0.00     0.261 C 
BRANCH   4   5
ATOM      5  O   UNL A   1      32.365  25.621  24.646  1.00  0.00    -0.463 OA
BRANCH   5   6
ATOM      6  C   UNL A   1      33.708  25.452  24.798  1.00  0.00     0.313 C 
ATOM      7  O   UNL A   1      34.341  25.904  25.752  1.00  0.00    -0.252 OA
BRANCH   6   8
ATOM      8  C   UNL A   1      34.381  24.572  23.718  1.00  0.00     0.126 C 
ATOM      9  C   UNL A   1      33.699  24.548  22.353  1.00  0.00     0.025 C 
BRANCH   8  10
ATOM     10  C   UNL A   1      34.803  23.205  24.282  1.00  0.00    -0.033 A 
ATOM     11  C   UNL A   1      36.112  22.824  24.633  1.00  0.00     0.012 A 
ATOM     12  C   UNL A   1      33.786  22.253  24.436  1.00  0.00     0.016 A 
ATOM     13  C   UNL A   1      36.427  21.509  25.031  1.00  0.00    -0.024 A 
ATOM     14  C   UNL A   1      34.044  20.941  24.838  1.00  0.00     0.023 A 
ATOM     15  C   UNL A   1      35.372  20.572  25.127  1.00  0.00     0.020 A 
BRANCH  13  16
ATOM     16  C   UNL A   1      37.820  21.097  25.367  1.00  0.00     0.020 C 
ATOM     17  C   UNL A   1      38.770  21.857  25.956  1.00  0.00     0.106 C 
BRANCH  17  18
ATOM     18  S   UNL A   1      40.383  21.212  26.190  1.00  0.00     0.168 S 
ATOM     19  C   UNL A   1      40.780  21.562  27.882  1.00  0.00     0.163 C 
ATOM     20  O   UNL A   1      40.302  19.762  26.087  1.00  0.00    -0.225 OA
ATOM     21  O   UNL A   1      41.321  21.957  25.384  1.00  0.00    -0.225 OA
ENDBRANCH  17  18
ENDBRANCH  13  16
BRANCH  14  22
ATOM     22  C   UNL A   1      32.910  19.963  24.979  1.00  0.00     0.193 C 
ATOM     23  O   UNL A   1      31.778  20.349  25.249  1.00  0.00    -0.289 OA
BRANCH  22  24
ATOM     24  C   UNL A   1      33.135  18.510  24.735  1.00  0.00     0.022 A 
ATOM     25  C   UNL A   1      33.660  18.103  23.504  1.00  0.00     0.012 A 
ATOM     26  C   UNL A   1      32.914  17.565  25.748  1.00  0.00     0.012 A 
ATOM     27  C   UNL A   1      34.021  16.766  23.309  1.00  0.00     0.001 A 
ATOM     28  C   UNL A   1      33.290  16.233  25.551  1.00  0.00     0.001 A 
ATOM     29  C   UNL A   1      33.852  15.837  24.337  1.00  0.00     0.000 A 
ENDBRANCH  22  24
ENDBRANCH  14  22
ENDBRANCH   8  10
ENDBRANCH   6   8
ENDBRANCH   5   6
ENDBRANCH   4   5
ENDBRANCH   3   4
ENDBRANCH   2   3
ENDBRANCH   1   2
BRANCH   1  30
ATOM     30  C   UNL A   1      32.438  29.573  27.168  1.00  0.00     0.188 C 
BRANCH  30  31
ATOM     31  O   UNL A   1      31.513  30.533  26.711  1.00  0.00    -0.376 OA
BRANCH  31  32
ATOM     32  C   UNL A   1      31.841  31.907  26.858  1.00  0.00     0.202 C 
BRANCH  32  33
ATOM     33  C   UNL A   1      33.075  32.354  27.656  1.00  0.00     0.261 C 
BRANCH  33  34
ATOM     34  O   UNL A   1      33.541  33.699  27.388  1.00  0.00    -0.460 OA
BRANCH  34  35
ATOM     35  C   UNL A   1      33.411  34.539  28.445  1.00  0.00     0.338 C 
ATOM     36  O   UNL A   1      32.393  35.139  28.761  1.00  0.00    -0.246 OA
BRANCH  35  37
ATOM     37  C   UNL A   1      34.559  34.576  29.379  1.00  0.00     0.060 A 
ATOM     38  C   UNL A   1      35.838  34.537  28.827  1.00  0.00     0.016 A 
ATOM     39  C   UNL A   1      34.384  34.146  30.697  1.00  0.00     0.016 A 
ATOM     40  C   UNL A   1      36.897  33.967  29.528  1.00  0.00     0.010 A 
ATOM     41  C   UNL A   1      35.470  33.597  31.416  1.00  0.00     0.010 A 
ATOM     42  C   UNL A   1      36.726  33.442  30.811  1.00  0.00    -0.014 A 
BRANCH  42  43
ATOM     43  C   UNL A   1      37.876  32.715  31.425  1.00  0.00     0.031 A 
ATOM     44  C   UNL A   1      38.501  31.497  30.776  1.00  0.00     0.074 A 
ATOM     45  C   UNL A   1      38.503  33.267  32.483  1.00  0.00     0.049 A 
ATOM     46  N   UNL A   1      39.519  30.769  31.177  1.00  0.00    -0.248 NA
ATOM     47  C   UNL A   1      37.951  31.070  29.482  1.00  0.00     0.031 C 
ATOM     48  C   UNL A   1      38.149  34.545  33.107  1.00  0.00     0.029 A 
ATOM     49  N   UNL A   1      39.578  32.828  33.216  1.00  0.00    -0.354 N 
ATOM     50  C   UNL A   1      39.772  29.857  30.156  1.00  0.00     0.074 A 
ATOM     51  C   UNL A   1      38.794  30.109  29.120  1.00  0.00     0.031 C 
ATOM     52  C   UNL A   1      38.980  34.778  34.131  1.00  0.00     0.029 A 
ATOM     53  C   UNL A   1      39.821  33.603  34.320  1.00  0.00     0.049 A 
ATOM     54  H   UNL A   1      40.116  32.039  32.975  1.00  0.00     0.167 HD
ATOM     55  C   UNL A   1      40.709  28.877  30.101  1.00  0.00     0.037 A 
ATOM     56  C   UNL A   1      40.541  33.350  35.427  1.00  0.00     0.037 A 
ATOM     57  C   UNL A   1      41.578  28.535  31.200  1.00  0.00     0.049 A 
ATOM     58  C   UNL A   1      41.318  32.071  35.509  1.00  0.00     0.074 A 
ATOM     59  C   UNL A   1      42.439  27.457  31.327  1.00  0.00     0.029 A 
ATOM     60  N   UNL A   1      41.657  29.246  32.388  1.00  0.00    -0.354 N 
ATOM     61  N   UNL A   1      41.489  31.150  34.593  1.00  0.00    -0.248 NA
ATOM     62  C   UNL A   1      41.989  31.785  36.783  1.00  0.00     0.031 C 
ATOM     63  C   UNL A   1      42.954  27.459  32.628  1.00  0.00     0.029 A 
ATOM     64  C   UNL A   1      42.490  28.590  33.281  1.00  0.00     0.049 A 
ATOM     65  H   UNL A   1      41.190  30.094  32.570  1.00  0.00     0.167 HD
ATOM     66  C   UNL A   1      42.306  30.188  35.166  1.00  0.00     0.074 A 
ATOM     67  C   UNL A   1      42.601  30.642  36.510  1.00  0.00     0.031 C 
ATOM     68  C   UNL A   1      42.773  29.039  34.620  1.00  0.00     0.037 A 
BRANCH  55  69
ATOM     69  C   UNL A   1      40.757  28.006  28.875  1.00  0.00     0.064 A 
ATOM     70  C   UNL A   1      39.974  26.850  28.741  1.00  0.00     0.173 A 
ATOM     71  C   UNL A   1      41.560  28.379  27.784  1.00  0.00     0.173 A 
ATOM     72  F   UNL A   1      39.181  26.449  29.746  1.00  0.00    -0.203 F 
ATOM     73  C   UNL A   1      40.007  26.093  27.569  1.00  0.00     0.198 A 
ATOM     74  C   UNL A   1      41.575  27.632  26.609  1.00  0.00     0.198 A 
ATOM     75  F   UNL A   1      42.318  29.483  27.852  1.00  0.00    -0.203 F 
ATOM     76  F   UNL A   1      39.268  24.978  27.466  1.00  0.00    -0.200 F 
ATOM     77  C   UNL A   1      40.804  26.487  26.503  1.00  0.00     0.200 A 
ATOM     78  F   UNL A   1      42.333  28.028  25.576  1.00  0.00    -0.200 F 
ATOM     79  F   UNL A   1      40.830  25.762  25.376  1.00  0.00    -0.200 F 
ENDBRANCH  55  69
BRANCH  56  80
ATOM     80  C   UNL A   1      40.403  34.263  36.591  1.00  0.00     0.064 A 
ATOM     81  C   UNL A   1      39.429  34.071  37.576  1.00  0.00     0.173 A 
ATOM     82  C   UNL A   1      41.286  35.349  36.747  1.00  0.00     0.173 A 
ATOM     83  F   UNL A   1      38.537  33.078  37.451  1.00  0.00    -0.203 F 
ATOM     84  C   UNL A   1      39.351  34.921  38.678  1.00  0.00     0.198 A 
ATOM     85  C   UNL A   1      41.232  36.171  37.867  1.00  0.00     0.198 A 
ATOM     86  F   UNL A   1      42.226  35.592  35.820  1.00  0.00    -0.203 F 
ATOM     87  F   UNL A   1      38.385  34.744  39.590  1.00  0.00    -0.200 F 
ATOM     88  C   UNL A   1      40.261  35.958  38.831  1.00  0.00     0.200 A 
ATOM     89  F   UNL A   1      42.124  37.160  38.014  1.00  0.00    -0.200 F 
ATOM     90  F   UNL A   1      40.195  36.761  39.901  1.00  0.00    -0.200 F 
ENDBRANCH  56  80
BRANCH  68  91
ATOM     91  C   UNL A   1      43.691  28.205  35.465  1.00  0.00     0.064 A 
ATOM     92  C   UNL A   1      43.213  27.152  36.259  1.00  0.00     0.173 A 
ATOM     93  C   UNL A   1      45.072  28.453  35.462  1.00  0.00     0.173 A 
ATOM     94  F   UNL A   1      41.899  26.885  36.308  1.00  0.00    -0.203 F 
ATOM     95  C   UNL A   1      44.081  26.402  37.048  1.00  0.00     0.198 A 
ATOM     96  C   UNL A   1      45.941  27.678  36.225  1.00  0.00     0.198 A 
ATOM     97  F   UNL A   1      45.581  29.443  34.714  1.00  0.00    -0.203 F 
ATOM     98  F   UNL A   1      43.596  25.441  37.845  1.00  0.00    -0.200 F 
ATOM     99  C   UNL A   1      45.444  26.661  37.025  1.00  0.00     0.200 A 
ATOM    100  F   UNL A   1      47.259  27.919  36.189  1.00  0.00    -0.200 F 
ATOM    101  F   UNL A   1      46.277  25.935  37.782  1.00  0.00    -0.200 F 
ENDBRANCH  68  91
ENDBRANCH  42  43
ENDBRANCH  35  37
ENDBRANCH  34  35
ENDBRANCH  33  34
ENDBRANCH  32  33
ENDBRANCH  31  32
ENDBRANCH  30  31
ENDBRANCH   1  30
TORSDOF 22
ENDMDL
MODEL 3
REMARK VINA RESULT:     -11.2      2.853      8.573
REMARK SMILES C[C@@H](C(=O)OCCOCCOCCOC(=O)c1ccc(-c2c3nc(c(-c4c(F)c(F)c(F)c(F)c4F)c4ccc([nH]4)c(-c4c(F)c(F)c(F)c(F)c4F)c4nc(c(-c5c(F)c(F)c(F)c(F)c5F)c5ccc2[nH]5)C=C4)C=C3)cc1)c1cc(/C=C/S(C)(=O)=O)cc(C(=O)c2ccccc2)c1
REMARK SMILES IDX 9 1 8 2 7 3 6 4 5 5 3 6 4 7 2 8 1 9 80 10 81 11 99 12 82 13
REMARK SMILES IDX 90 14 89 15 83 16 84 17 85 18 86 19 87 20 88 21 91 22 92 23
REMARK SMILES IDX 93 24 94 25 98 26 95 27 97 28 96 29 10 30 11 31 12 32 13 33
REMARK SMILES IDX 14 34 15 35 16 36 17 37 18 38 79 39 19 40 78 41 20 42 21 43
REMARK SMILES IDX 22 44 72 45 23 46 77 47 71 48 73 49 24 50 76 51 70 52 69 53
REMARK SMILES IDX 25 55 57 56 37 57 56 58 38 59 41 60 55 61 74 62 39 63 40 64
REMARK SMILES IDX 54 66 75 67 42 68 26 69 27 70 35 71 28 72 29 73 33 74 36 75
REMARK SMILES IDX 30 76 31 77 34 78 32 79 58 80 59 81 67 82 60 83 61 84 65 85
REMARK SMILES IDX 68 86 62 87 63 88 66 89 64 90 43 91 44 92 52 93 45 94 46 95
REMARK SMILES IDX 50 96 53 97 47 98 48 99 51 100 49 101
REMARK H PARENT 73 54 41 65
REMARK Flexibility Score: inf
ROOT
ATOM      1  C   UNL A   1      40.922  21.307  27.570  1.00  0.00     0.188 C 
ENDROOT
BRANCH   1   2
ATOM      2  O   UNL A   1      39.708  21.211  26.860  1.00  0.00    -0.376 OA
BRANCH   2   3
ATOM      3  C   UNL A   1      39.312  22.321  26.066  1.00  0.00     0.202 C 
BRANCH   3   4
ATOM      4  C   UNL A   1      38.658  23.546  26.723  1.00  0.00     0.261 C 
BRANCH   4   5
ATOM      5  O   UNL A   1      37.752  24.279  25.863  1.00  0.00    -0.463 OA
BRANCH   5   6
ATOM      6  C   UNL A   1      36.983  23.524  25.030  1.00  0.00     0.313 C 
ATOM      7  O   UNL A   1      37.299  23.264  23.870  1.00  0.00    -0.252 OA
BRANCH   6   8
ATOM      8  C   UNL A   1      35.704  22.940  25.676  1.00  0.00     0.126 C 
ATOM      9  C   UNL A   1      35.839  21.549  26.290  1.00  0.00     0.025 C 
BRANCH   8  10
ATOM     10  C   UNL A   1      34.467  23.165  24.789  1.00  0.00    -0.033 A 
ATOM     11  C   UNL A   1      33.826  24.398  24.563  1.00  0.00     0.012 A 
ATOM     12  C   UNL A   1      33.926  22.029  24.173  1.00  0.00     0.016 A 
ATOM     13  C   UNL A   1      32.626  24.493  23.830  1.00  0.00    -0.024 A 
ATOM     14  C   UNL A   1      32.746  22.071  23.428  1.00  0.00     0.023 A 
ATOM     15  C   UNL A   1      32.095  23.310  23.267  1.00  0.00     0.020 A 
BRANCH  13  16
ATOM     16  C   UNL A   1      31.928  25.794  23.623  1.00  0.00     0.020 C 
ATOM     17  C   UNL A   1      30.606  25.980  23.412  1.00  0.00     0.106 C 
BRANCH  17  18
ATOM     18  S   UNL A   1      29.988  27.590  23.103  1.00  0.00     0.168 S 
ATOM     19  C   UNL A   1      30.828  28.638  24.262  1.00  0.00     0.163 C 
ATOM     20  O   UNL A   1      30.451  27.999  21.784  1.00  0.00    -0.225 OA
ATOM     21  O   UNL A   1      28.586  27.642  23.441  1.00  0.00    -0.225 OA
ENDBRANCH  17  18
ENDBRANCH  13  16
BRANCH  14  22
ATOM     22  C   UNL A   1      32.212  20.816  22.796  1.00  0.00     0.193 C 
ATOM     23  O   UNL A   1      31.644  20.853  21.709  1.00  0.00    -0.289 OA
BRANCH  22  24
ATOM     24  C   UNL A   1      32.416  19.495  23.457  1.00  0.00     0.022 A 
ATOM     25  C   UNL A   1      32.730  18.384  22.667  1.00  0.00     0.012 A 
ATOM     26  C   UNL A   1      32.387  19.375  24.853  1.00  0.00     0.012 A 
ATOM     27  C   UNL A   1      33.074  17.173  23.275  1.00  0.00     0.001 A 
ATOM     28  C   UNL A   1      32.746  18.165  25.456  1.00  0.00     0.001 A 
ATOM     29  C   UNL A   1      33.098  17.070  24.668  1.00  0.00     0.000 A 
ENDBRANCH  22  24
ENDBRANCH  14  22
ENDBRANCH   8  10
ENDBRANCH   6   8
ENDBRANCH   5   6
ENDBRANCH   4   5
ENDBRANCH   3   4
ENDBRANCH   2   3
ENDBRANCH   1   2
BRANCH   1  30
ATOM     30  C   UNL A   1      42.159  20.563  27.030  1.00  0.00     0.188 C 
BRANCH  30  31
ATOM     31  O   UNL A   1      42.585  20.763  25.702  1.00  0.00    -0.376 OA
BRANCH  31  32
ATOM     32  C   UNL A   1      43.934  20.462  25.375  1.00  0.00     0.202 C 
BRANCH  32  33
ATOM     33  C   UNL A   1      45.031  21.535  25.436  1.00  0.00     0.261 C 
BRANCH  33  34
ATOM     34  O   UNL A   1      44.705  22.721  26.201  1.00  0.00    -0.460 OA
BRANCH  34  35
ATOM     35  C   UNL A   1      44.459  23.811  25.432  1.00  0.00     0.338 C 
ATOM     36  O   UNL A   1      44.857  23.984  24.288  1.00  0.00    -0.246 OA
BRANCH  35  37
ATOM     37  C   UNL A   1      43.479  24.776  25.981  1.00  0.00     0.060 A 
ATOM     38  C   UNL A   1      43.830  26.125  25.967  1.00  0.00     0.016 A 
ATOM     39  C   UNL A   1      42.534  24.338  26.912  1.00  0.00     0.016 A 
ATOM     40  C   UNL A   1      43.343  26.995  26.939  1.00  0.00     0.010 A 
ATOM     41  C   UNL A   1      42.018  25.233  27.876  1.00  0.00     0.010 A 
ATOM     42  C   UNL A   1      42.471  26.559  27.939  1.00  0.00    -0.014 A 
BRANCH  42  43
ATOM     43  C   UNL A   1      42.121  27.522  29.026  1.00  0.00     0.031 A 
ATOM     44  C   UNL A   1      42.989  27.704  30.254  1.00  0.00     0.074 A 
ATOM     45  C   UNL A   1      41.112  28.392  28.822  1.00  0.00     0.049 A 
ATOM     46  N   UNL A   1      42.830  28.515  31.274  1.00  0.00    -0.248 NA
ATOM     47  C   UNL A   1      44.227  26.915  30.323  1.00  0.00     0.031 C 
ATOM     48  C   UNL A   1      40.302  28.482  27.604  1.00  0.00     0.029 A 
ATOM     49  N   UNL A   1      40.602  29.376  29.632  1.00  0.00    -0.354 N 
ATOM     50  C   UNL A   1      43.974  28.387  32.057  1.00  0.00     0.074 A 
ATOM     51  C   UNL A   1      44.817  27.409  31.405  1.00  0.00     0.031 C 
ATOM     52  C   UNL A   1      39.393  29.454  27.753  1.00  0.00     0.029 A 
ATOM     53  C   UNL A   1      39.465  29.949  29.122  1.00  0.00     0.049 A 
ATOM     54  H   UNL A   1      41.008  29.642  30.489  1.00  0.00     0.167 HD
ATOM     55  C   UNL A   1      44.278  29.000  33.229  1.00  0.00     0.037 A 
ATOM     56  C   UNL A   1      38.514  30.689  29.718  1.00  0.00     0.037 A 
ATOM     57  C   UNL A   1      43.367  29.857  33.947  1.00  0.00     0.049 A 
ATOM     58  C   UNL A   1      38.694  31.081  31.154  1.00  0.00     0.074 A 
ATOM     59  C   UNL A   1      43.492  30.390  35.220  1.00  0.00     0.029 A 
ATOM     60  N   UNL A   1      42.131  30.264  33.468  1.00  0.00    -0.354 N 
ATOM     61  N   UNL A   1      39.724  30.883  31.939  1.00  0.00    -0.248 NA
ATOM     62  C   UNL A   1      37.575  31.783  31.792  1.00  0.00     0.031 C 
ATOM     63  C   UNL A   1      42.290  31.028  35.547  1.00  0.00     0.029 A 
ATOM     64  C   UNL A   1      41.452  30.974  34.445  1.00  0.00     0.049 A 
ATOM     65  H   UNL A   1      41.786  30.076  32.565  1.00  0.00     0.167 HD
ATOM     66  C   UNL A   1      39.392  31.458  33.155  1.00  0.00     0.074 A 
ATOM     67  C   UNL A   1      38.064  32.017  33.002  1.00  0.00     0.031 C 
ATOM     68  C   UNL A   1      40.127  31.521  34.292  1.00  0.00     0.037 A 
BRANCH  55  69
ATOM     69  C   UNL A   1      45.589  28.665  33.888  1.00  0.00     0.064 A 
ATOM     70  C   UNL A   1      46.766  29.383  33.631  1.00  0.00     0.173 A 
ATOM     71  C   UNL A   1      45.646  27.642  34.849  1.00  0.00     0.173 A 
ATOM     72  F   UNL A   1      46.770  30.377  32.731  1.00  0.00    -0.203 F 
ATOM     73  C   UNL A   1      47.953  29.077  34.299  1.00  0.00     0.198 A 
ATOM     74  C   UNL A   1      46.827  27.352  35.528  1.00  0.00     0.198 A 
ATOM     75  F   UNL A   1      44.547  26.933  35.145  1.00  0.00    -0.203 F 
ATOM     76  F   UNL A   1      49.075  29.759  34.024  1.00  0.00    -0.200 F 
ATOM     77  C   UNL A   1      47.982  28.065  35.248  1.00  0.00     0.200 A 
ATOM     78  F   UNL A   1      46.844  26.386  36.457  1.00  0.00    -0.200 F 
ATOM     79  F   UNL A   1      49.120  27.776  35.893  1.00  0.00    -0.200 F 
ENDBRANCH  55  69
BRANCH  56  80
ATOM     80  C   UNL A   1      37.247  30.943  28.985  1.00  0.00     0.064 A 
ATOM     81  C   UNL A   1      36.311  29.931  28.744  1.00  0.00     0.173 A 
ATOM     82  C   UNL A   1      36.939  32.240  28.533  1.00  0.00     0.173 A 
ATOM     83  F   UNL A   1      36.577  28.671  29.115  1.00  0.00    -0.203 F 
ATOM     84  C   UNL A   1      35.112  30.210  28.090  1.00  0.00     0.198 A 
ATOM     85  C   UNL A   1      35.724  32.523  27.918  1.00  0.00     0.198 A 
ATOM     86  F   UNL A   1      37.810  33.244  28.720  1.00  0.00    -0.203 F 
ATOM     87  F   UNL A   1      34.248  29.219  27.833  1.00  0.00    -0.200 F 
ATOM     88  C   UNL A   1      34.813  31.506  27.693  1.00  0.00     0.200 A 
ATOM     89  F   UNL A   1      35.438  33.780  27.552  1.00  0.00    -0.200 F 
ATOM     90  F   UNL A   1      33.651  31.773  27.082  1.00  0.00    -0.200 F 
ENDBRANCH  56  80
BRANCH  68  91
ATOM     91  C   UNL A   1      39.529  32.257  35.454  1.00  0.00     0.064 A 
ATOM     92  C   UNL A   1      38.727  31.610  36.406  1.00  0.00     0.173 A 
ATOM     93  C   UNL A   1      39.780  33.627  35.626  1.00  0.00     0.173 A 
ATOM     94  F   UNL A   1      38.445  30.305  36.278  1.00  0.00    -0.203 F 
ATOM     95  C   UNL A   1      38.168  32.317  37.468  1.00  0.00     0.198 A 
ATOM     96  C   UNL A   1      39.249  34.323  36.708  1.00  0.00     0.198 A 
ATOM     97  F   UNL A   1      40.547  34.290  34.748  1.00  0.00    -0.203 F 
ATOM     98  F   UNL A   1      37.356  31.693  38.331  1.00  0.00    -0.200 F 
ATOM     99  C   UNL A   1      38.435  33.670  37.621  1.00  0.00     0.200 A 
ATOM    100  F   UNL A   1      39.520  35.626  36.863  1.00  0.00    -0.200 F 
ATOM    101  F   UNL A   1      37.899  34.347  38.645  1.00  0.00    -0.200 F 
ENDBRANCH  68  91
ENDBRANCH  42  43
ENDBRANCH  35  37
ENDBRANCH  34  35
ENDBRANCH  33  34
ENDBRANCH  32  33
ENDBRANCH  31  32
ENDBRANCH  30  31
ENDBRANCH   1  30
TORSDOF 22
ENDMDL
