MODEL 1
REMARK VINA RESULT:     -11.7      0.000      0.000
REMARK SMILES O=C(Cn1c2ccccc2c(=O)c2cc(F)ccc21)OCCOCCOCCOC(=O)c1ccc(-c2c3nc(c(-c4c(F)c(F)c(F)c(F)c4F)c4ccc([nH]4)c(-c4c(F)c(F)c(F)c(F)c4F)c4nc(c(-c5c(F)c(F)c(F)c(F)c5F)c5ccc2[nH]5)C=C4)C=C3)cc1
REMARK SMILES IDX 25 1 24 2 23 3 22 4 21 5 20 6 2 7 1 8 3 9 4 10 5 11 19 12
REMARK SMILES IDX 6 13 10 14 13 15 18 16 7 17 9 18 11 19 14 20 17 21 8 22
REMARK SMILES IDX 12 23 15 24 16 25 26 26 27 27 28 28 29 29 30 30 31 31 32 32
REMARK SMILES IDX 33 33 94 34 34 35 93 36 35 37 36 38 37 39 87 40 38 41 92 42
REMARK SMILES IDX 86 43 88 44 39 45 91 46 85 47 84 48 40 50 72 51 52 52 71 53
REMARK SMILES IDX 53 54 56 55 70 56 89 57 54 58 55 59 69 61 90 62 57 63 41 64
REMARK SMILES IDX 42 65 50 66 43 67 44 68 48 69 51 70 45 71 46 72 49 73 47 74
REMARK SMILES IDX 73 75 74 76 82 77 75 78 76 79 80 80 83 81 77 82 78 83 81 84
REMARK SMILES IDX 79 85 58 86 59 87 67 88 60 89 61 90 65 91 68 92 62 93 63 94
REMARK SMILES IDX 66 95 64 96
REMARK H PARENT 88 49 56 60
REMARK Flexibility Score: inf
ROOT
ATOM      1  C   UNL A   1      33.450  28.519  24.875  1.00  0.00     0.188 C 
ENDROOT
BRANCH   1   2
ATOM      2  C   UNL A   1      33.632  28.284  23.365  1.00  0.00     0.188 C 
BRANCH   2   3
ATOM      3  O   UNL A   1      32.698  27.365  22.821  1.00  0.00    -0.376 OA
BRANCH   3   4
ATOM      4  C   UNL A   1      33.235  26.361  21.985  1.00  0.00     0.202 C 
BRANCH   4   5
ATOM      5  C   UNL A   1      33.712  25.146  22.763  1.00  0.00     0.261 C 
BRANCH   5   6
ATOM      6  O   UNL A   1      32.687  24.414  23.477  1.00  0.00    -0.462 OA
BRANCH   6   7
ATOM      7  C   UNL A   1      32.519  23.120  23.784  1.00  0.00     0.326 C 
ATOM      8  O   UNL A   1      31.969  22.393  22.950  1.00  0.00    -0.250 OA
BRANCH   7   9
ATOM      9  C   UNL A   1      32.887  22.507  25.122  1.00  0.00     0.245 C 
BRANCH   9  10
ATOM     10  N   UNL A   1      34.051  21.604  25.209  1.00  0.00    -0.329 N 
ATOM     11  C   UNL A   1      35.335  22.200  25.362  1.00  0.00     0.053 A 
ATOM     12  C   UNL A   1      33.884  20.226  24.901  1.00  0.00     0.053 A 
ATOM     13  C   UNL A   1      35.546  23.574  25.588  1.00  0.00     0.027 A 
ATOM     14  C   UNL A   1      36.479  21.385  25.381  1.00  0.00     0.046 A 
ATOM     15  C   UNL A   1      35.019  19.404  24.747  1.00  0.00     0.049 A 
ATOM     16  C   UNL A   1      32.635  19.579  24.780  1.00  0.00     0.030 A 
ATOM     17  C   UNL A   1      36.792  24.076  25.976  1.00  0.00     0.002 A 
ATOM     18  C   UNL A   1      37.736  21.885  25.751  1.00  0.00     0.014 A 
ATOM     19  C   UNL A   1      36.359  19.965  25.000  1.00  0.00     0.197 A 
ATOM     20  C   UNL A   1      34.922  18.044  24.407  1.00  0.00     0.053 A 
ATOM     21  C   UNL A   1      32.530  18.214  24.474  1.00  0.00     0.041 A 
ATOM     22  C   UNL A   1      37.883  23.226  26.083  1.00  0.00     0.001 A 
ATOM     23  O   UNL A   1      37.357  19.258  24.903  1.00  0.00    -0.288 OA
ATOM     24  C   UNL A   1      33.674  17.465  24.269  1.00  0.00     0.124 A 
ATOM     25  F   UNL A   1      33.568  16.167  23.966  1.00  0.00    -0.207 F 
ENDBRANCH   9  10
ENDBRANCH   7   9
ENDBRANCH   6   7
ENDBRANCH   5   6
ENDBRANCH   4   5
ENDBRANCH   3   4
ENDBRANCH   2   3
ENDBRANCH   1   2
BRANCH   1  26
ATOM     26  O   UNL A   1      32.144  28.709  25.403  1.00  0.00    -0.376 OA
BRANCH  26  27
ATOM     27  C   UNL A   1      31.406  29.871  25.055  1.00  0.00     0.202 C 
BRANCH  27  28
ATOM     28  C   UNL A   1      31.435  31.029  26.057  1.00  0.00     0.261 C 
BRANCH  28  29
ATOM     29  O   UNL A   1      32.434  30.885  27.085  1.00  0.00    -0.460 OA
BRANCH  29  30
ATOM     30  C   UNL A   1      33.191  31.984  27.345  1.00  0.00     0.338 C 
ATOM     31  O   UNL A   1      32.835  33.142  27.334  1.00  0.00    -0.246 OA
BRANCH  30  32
ATOM     32  C   UNL A   1      34.522  31.553  27.847  1.00  0.00     0.060 A 
ATOM     33  C   UNL A   1      35.574  32.458  28.007  1.00  0.00     0.016 A 
ATOM     34  C   UNL A   1      34.709  30.201  28.171  1.00  0.00     0.016 A 
ATOM     35  C   UNL A   1      36.796  32.014  28.528  1.00  0.00     0.010 A 
ATOM     36  C   UNL A   1      35.935  29.756  28.677  1.00  0.00     0.010 A 
ATOM     37  C   UNL A   1      36.982  30.665  28.885  1.00  0.00    -0.014 A 
BRANCH  37  38
ATOM     38  C   UNL A   1      38.195  30.259  29.643  1.00  0.00     0.031 A 
ATOM     39  C   UNL A   1      38.487  30.752  31.026  1.00  0.00     0.074 A 
ATOM     40  C   UNL A   1      39.053  29.406  29.055  1.00  0.00     0.049 A 
ATOM     41  N   UNL A   1      39.415  30.359  31.864  1.00  0.00    -0.248 NA
ATOM     42  C   UNL A   1      37.629  31.826  31.536  1.00  0.00     0.031 C 
ATOM     43  C   UNL A   1      38.905  28.879  27.699  1.00  0.00     0.029 A 
ATOM     44  N   UNL A   1      40.202  28.822  29.522  1.00  0.00    -0.354 N 
ATOM     45  C   UNL A   1      39.225  31.101  33.020  1.00  0.00     0.074 A 
ATOM     46  C   UNL A   1      38.132  32.016  32.751  1.00  0.00     0.031 C 
ATOM     47  C   UNL A   1      39.904  28.018  27.457  1.00  0.00     0.029 A 
ATOM     48  C   UNL A   1      40.768  27.944  28.632  1.00  0.00     0.049 A 
ATOM     49  H   UNL A   1      40.583  29.013  30.410  1.00  0.00     0.167 HD
ATOM     50  C   UNL A   1      39.888  31.012  34.201  1.00  0.00     0.037 A 
ATOM     51  C   UNL A   1      41.849  27.151  28.753  1.00  0.00     0.037 A 
ATOM     52  C   UNL A   1      41.019  30.149  34.444  1.00  0.00     0.049 A 
ATOM     53  C   UNL A   1      42.618  27.127  30.042  1.00  0.00     0.074 A 
ATOM     54  C   UNL A   1      41.744  29.981  35.614  1.00  0.00     0.029 A 
ATOM     55  N   UNL A   1      41.615  29.329  33.494  1.00  0.00    -0.354 N 
ATOM     56  N   UNL A   1      42.378  27.764  31.160  1.00  0.00    -0.248 NA
ATOM     57  C   UNL A   1      43.807  26.265  30.083  1.00  0.00     0.031 C 
ATOM     58  C   UNL A   1      42.809  29.109  35.355  1.00  0.00     0.029 A 
ATOM     59  C   UNL A   1      42.716  28.684  34.041  1.00  0.00     0.049 A 
ATOM     60  H   UNL A   1      41.300  29.221  32.568  1.00  0.00     0.167 HD
ATOM     61  C   UNL A   1      43.371  27.370  32.046  1.00  0.00     0.074 A 
ATOM     62  C   UNL A   1      44.207  26.422  31.338  1.00  0.00     0.031 C 
ATOM     63  C   UNL A   1      43.566  27.759  33.330  1.00  0.00     0.037 A 
BRANCH  50  64
ATOM     64  C   UNL A   1      39.398  31.871  35.334  1.00  0.00     0.064 A 
ATOM     65  C   UNL A   1      38.538  31.355  36.317  1.00  0.00     0.173 A 
ATOM     66  C   UNL A   1      39.830  33.198  35.475  1.00  0.00     0.173 A 
ATOM     67  F   UNL A   1      38.089  30.095  36.225  1.00  0.00    -0.203 F 
ATOM     68  C   UNL A   1      38.112  32.142  37.385  1.00  0.00     0.198 A 
ATOM     69  C   UNL A   1      39.422  33.975  36.557  1.00  0.00     0.198 A 
ATOM     70  F   UNL A   1      40.656  33.741  34.568  1.00  0.00    -0.203 F 
ATOM     71  F   UNL A   1      37.260  31.640  38.288  1.00  0.00    -0.200 F 
ATOM     72  C   UNL A   1      38.560  33.450  37.507  1.00  0.00     0.200 A 
ATOM     73  F   UNL A   1      39.865  35.234  36.680  1.00  0.00    -0.200 F 
ATOM     74  F   UNL A   1      38.154  34.205  38.537  1.00  0.00    -0.200 F 
ENDBRANCH  50  64
BRANCH  51  75
ATOM     75  C   UNL A   1      42.210  26.259  27.624  1.00  0.00     0.064 A 
ATOM     76  C   UNL A   1      43.228  26.617  26.730  1.00  0.00     0.173 A 
ATOM     77  C   UNL A   1      41.596  25.009  27.457  1.00  0.00     0.173 A 
ATOM     78  F   UNL A   1      43.829  27.811  26.844  1.00  0.00    -0.203 F 
ATOM     79  C   UNL A   1      43.626  25.753  25.715  1.00  0.00     0.198 A 
ATOM     80  C   UNL A   1      42.012  24.137  26.454  1.00  0.00     0.198 A 
ATOM     81  F   UNL A   1      40.621  24.623  28.292  1.00  0.00    -0.203 F 
ATOM     82  F   UNL A   1      44.593  26.123  24.865  1.00  0.00    -0.200 F 
ATOM     83  C   UNL A   1      43.026  24.509  25.585  1.00  0.00     0.200 A 
ATOM     84  F   UNL A   1      41.442  22.929  26.342  1.00  0.00    -0.200 F 
ATOM     85  F   UNL A   1      43.427  23.668  24.621  1.00  0.00    -0.200 F 
ENDBRANCH  51  75
BRANCH  63  86
ATOM     86  C   UNL A   1      44.737  27.163  34.061  1.00  0.00     0.064 A 
ATOM     87  C   UNL A   1      45.986  27.805  34.095  1.00  0.00     0.173 A 
ATOM     88  C   UNL A   1      44.606  25.954  34.762  1.00  0.00     0.173 A 
ATOM     89  F   UNL A   1      46.172  28.954  33.429  1.00  0.00    -0.203 F 
ATOM     90  C   UNL A   1      47.062  27.245  34.780  1.00  0.00     0.198 A 
ATOM     91  C   UNL A   1      45.675  25.414  35.471  1.00  0.00     0.198 A 
ATOM     92  F   UNL A   1      43.434  25.300  34.768  1.00  0.00    -0.203 F 
ATOM     93  F   UNL A   1      48.257  27.851  34.757  1.00  0.00    -0.200 F 
ATOM     94  C   UNL A   1      46.904  26.055  35.474  1.00  0.00     0.200 A 
ATOM     95  F   UNL A   1      45.517  24.269  36.151  1.00  0.00    -0.200 F 
ATOM     96  F   UNL A   1      47.939  25.522  36.138  1.00  0.00    -0.200 F 
ENDBRANCH  63  86
ENDBRANCH  37  38
ENDBRANCH  30  32
ENDBRANCH  29  30
ENDBRANCH  28  29
ENDBRANCH  27  28
ENDBRANCH  26  27
ENDBRANCH   1  26
TORSDOF 18
ENDMDL
MODEL 2
REMARK VINA RESULT:     -11.7      5.309     10.902
REMARK SMILES O=C(Cn1c2ccccc2c(=O)c2cc(F)ccc21)OCCOCCOCCOC(=O)c1ccc(-c2c3nc(c(-c4c(F)c(F)c(F)c(F)c4F)c4ccc([nH]4)c(-c4c(F)c(F)c(F)c(F)c4F)c4nc(c(-c5c(F)c(F)c(F)c(F)c5F)c5ccc2[nH]5)C=C4)C=C3)cc1
REMARK SMILES IDX 25 1 24 2 23 3 22 4 21 5 20 6 2 7 1 8 3 9 4 10 5 11 19 12
REMARK SMILES IDX 6 13 10 14 13 15 18 16 7 17 9 18 11 19 14 20 17 21 8 22
REMARK SMILES IDX 12 23 15 24 16 25 26 26 27 27 28 28 29 29 30 30 31 31 32 32
REMARK SMILES IDX 33 33 94 34 34 35 93 36 35 37 36 38 37 39 87 40 38 41 92 42
REMARK SMILES IDX 86 43 88 44 39 45 91 46 85 47 84 48 40 50 72 51 52 52 71 53
REMARK SMILES IDX 53 54 56 55 70 56 89 57 54 58 55 59 69 61 90 62 57 63 41 64
REMARK SMILES IDX 42 65 50 66 43 67 44 68 48 69 51 70 45 71 46 72 49 73 47 74
REMARK SMILES IDX 73 75 74 76 82 77 75 78 76 79 80 80 83 81 77 82 78 83 81 84
REMARK SMILES IDX 79 85 58 86 59 87 67 88 60 89 61 90 65 91 68 92 62 93 63 94
REMARK SMILES IDX 66 95 64 96
REMARK H PARENT 88 49 56 60
REMARK Flexibility Score: inf
ROOT
ATOM      1  C   UNL A   1      41.948  18.962  26.103  1.00  0.00     0.188 C 
ENDROOT
BRANCH   1   2
ATOM      2  C   UNL A   1      43.071  18.121  26.735  1.00  0.00     0.188 C 
BRANCH   2   3
ATOM      3  O   UNL A   1      44.249  18.070  25.947  1.00  0.00    -0.376 OA
BRANCH   3   4
ATOM      4  C   UNL A   1      44.227  18.829  24.755  1.00  0.00     0.202 C 
BRANCH   4   5
ATOM      5  C   UNL A   1      44.928  20.168  24.902  1.00  0.00     0.261 C 
BRANCH   5   6
ATOM      6  O   UNL A   1      44.079  21.337  24.807  1.00  0.00    -0.462 OA
BRANCH   6   7
ATOM      7  C   UNL A   1      44.224  22.541  24.236  1.00  0.00     0.326 C 
ATOM      8  O   UNL A   1      44.524  22.583  23.038  1.00  0.00    -0.250 OA
BRANCH   7   9
ATOM      9  C   UNL A   1      44.121  23.857  24.985  1.00  0.00     0.245 C 
BRANCH   9  10
ATOM     10  N   UNL A   1      44.964  24.080  26.175  1.00  0.00    -0.329 N 
ATOM     11  C   UNL A   1      44.359  23.904  27.452  1.00  0.00     0.053 A 
ATOM     12  C   UNL A   1      46.242  24.683  26.016  1.00  0.00     0.053 A 
ATOM     13  C   UNL A   1      43.064  23.386  27.647  1.00  0.00     0.027 A 
ATOM     14  C   UNL A   1      45.102  24.172  28.613  1.00  0.00     0.046 A 
ATOM     15  C   UNL A   1      46.953  25.119  27.152  1.00  0.00     0.049 A 
ATOM     16  C   UNL A   1      46.903  24.844  24.778  1.00  0.00     0.030 A 
ATOM     17  C   UNL A   1      42.606  22.999  28.910  1.00  0.00     0.002 A 
ATOM     18  C   UNL A   1      44.641  23.805  29.886  1.00  0.00     0.014 A 
ATOM     19  C   UNL A   1      46.402  24.859  28.496  1.00  0.00     0.197 A 
ATOM     20  C   UNL A   1      48.203  25.755  27.060  1.00  0.00     0.053 A 
ATOM     21  C   UNL A   1      48.165  25.446  24.681  1.00  0.00     0.041 A 
ATOM     22  C   UNL A   1      43.406  23.185  30.029  1.00  0.00     0.001 A 
ATOM     23  O   UNL A   1      47.020  25.201  29.498  1.00  0.00    -0.288 OA
ATOM     24  C   UNL A   1      48.793  25.916  25.820  1.00  0.00     0.124 A 
ATOM     25  F   UNL A   1      49.992  26.501  25.720  1.00  0.00    -0.207 F 
ENDBRANCH   9  10
ENDBRANCH   7   9
ENDBRANCH   6   7
ENDBRANCH   5   6
ENDBRANCH   4   5
ENDBRANCH   3   4
ENDBRANCH   2   3
ENDBRANCH   1   2
BRANCH   1  26
ATOM     26  O   UNL A   1      41.400  20.057  26.826  1.00  0.00    -0.376 OA
BRANCH  26  27
ATOM     27  C   UNL A   1      40.924  21.196  26.125  1.00  0.00     0.202 C 
BRANCH  27  28
ATOM     28  C   UNL A   1      39.410  21.286  25.907  1.00  0.00     0.261 C 
BRANCH  28  29
ATOM     29  O   UNL A   1      38.759  22.264  26.740  1.00  0.00    -0.460 OA
BRANCH  29  30
ATOM     30  C   UNL A   1      38.390  23.422  26.131  1.00  0.00     0.338 C 
ATOM     31  O   UNL A   1      37.508  23.576  25.315  1.00  0.00    -0.246 OA
BRANCH  30  32
ATOM     32  C   UNL A   1      39.117  24.557  26.758  1.00  0.00     0.060 A 
ATOM     33  C   UNL A   1      39.985  25.368  26.024  1.00  0.00     0.016 A 
ATOM     34  C   UNL A   1      38.909  24.812  28.122  1.00  0.00     0.016 A 
ATOM     35  C   UNL A   1      40.611  26.455  26.647  1.00  0.00     0.010 A 
ATOM     36  C   UNL A   1      39.546  25.889  28.747  1.00  0.00     0.010 A 
ATOM     37  C   UNL A   1      40.384  26.736  28.008  1.00  0.00    -0.014 A 
BRANCH  37  38
ATOM     38  C   UNL A   1      40.870  28.015  28.591  1.00  0.00     0.031 A 
ATOM     39  C   UNL A   1      42.324  28.316  28.779  1.00  0.00     0.074 A 
ATOM     40  C   UNL A   1      39.956  28.935  28.951  1.00  0.00     0.049 A 
ATOM     41  N   UNL A   1      42.896  29.445  29.120  1.00  0.00    -0.248 NA
ATOM     42  C   UNL A   1      43.259  27.209  28.558  1.00  0.00     0.031 C 
ATOM     43  C   UNL A   1      38.509  28.753  28.853  1.00  0.00     0.029 A 
ATOM     44  N   UNL A   1      40.106  30.203  29.451  1.00  0.00    -0.354 N 
ATOM     45  C   UNL A   1      44.261  29.201  29.109  1.00  0.00     0.074 A 
ATOM     46  C   UNL A   1      44.429  27.796  28.789  1.00  0.00     0.031 C 
ATOM     47  C   UNL A   1      37.902  29.883  29.243  1.00  0.00     0.029 A 
ATOM     48  C   UNL A   1      38.916  30.861  29.630  1.00  0.00     0.049 A 
ATOM     49  H   UNL A   1      40.982  30.602  29.659  1.00  0.00     0.167 HD
ATOM     50  C   UNL A   1      45.278  30.073  29.324  1.00  0.00     0.037 A 
ATOM     51  C   UNL A   1      38.665  32.118  30.040  1.00  0.00     0.037 A 
ATOM     52  C   UNL A   1      45.108  31.455  29.709  1.00  0.00     0.049 A 
ATOM     53  C   UNL A   1      39.805  33.044  30.353  1.00  0.00     0.074 A 
ATOM     54  C   UNL A   1      46.081  32.416  29.934  1.00  0.00     0.029 A 
ATOM     55  N   UNL A   1      43.887  32.067  29.958  1.00  0.00    -0.354 N 
ATOM     56  N   UNL A   1      41.093  32.833  30.252  1.00  0.00    -0.248 NA
ATOM     57  C   UNL A   1      39.450  34.388  30.830  1.00  0.00     0.031 C 
ATOM     58  C   UNL A   1      45.453  33.588  30.374  1.00  0.00     0.029 A 
ATOM     59  C   UNL A   1      44.084  33.379  30.367  1.00  0.00     0.049 A 
ATOM     60  H   UNL A   1      43.009  31.634  29.857  1.00  0.00     0.167 HD
ATOM     61  C   UNL A   1      41.705  34.018  30.633  1.00  0.00     0.074 A 
ATOM     62  C   UNL A   1      40.644  34.952  30.952  1.00  0.00     0.031 C 
ATOM     63  C   UNL A   1      43.029  34.303  30.710  1.00  0.00     0.037 A 
BRANCH  50  64
ATOM     64  C   UNL A   1      46.679  29.559  29.140  1.00  0.00     0.064 A 
ATOM     65  C   UNL A   1      47.340  29.676  27.905  1.00  0.00     0.173 A 
ATOM     66  C   UNL A   1      47.390  28.997  30.210  1.00  0.00     0.173 A 
ATOM     67  F   UNL A   1      46.701  30.198  26.848  1.00  0.00    -0.203 F 
ATOM     68  C   UNL A   1      48.649  29.229  27.745  1.00  0.00     0.198 A 
ATOM     69  C   UNL A   1      48.709  28.574  30.053  1.00  0.00     0.198 A 
ATOM     70  F   UNL A   1      46.811  28.866  31.413  1.00  0.00    -0.203 F 
ATOM     71  F   UNL A   1      49.244  29.316  26.548  1.00  0.00    -0.200 F 
ATOM     72  C   UNL A   1      49.335  28.685  28.821  1.00  0.00     0.200 A 
ATOM     73  F   UNL A   1      49.374  28.060  31.096  1.00  0.00    -0.200 F 
ATOM     74  F   UNL A   1      50.597  28.260  28.668  1.00  0.00    -0.200 F 
ENDBRANCH  50  64
BRANCH  51  75
ATOM     75  C   UNL A   1      37.257  32.582  30.102  1.00  0.00     0.064 A 
ATOM     76  C   UNL A   1      36.496  32.396  31.264  1.00  0.00     0.173 A 
ATOM     77  C   UNL A   1      36.670  33.275  29.034  1.00  0.00     0.173 A 
ATOM     78  F   UNL A   1      37.014  31.723  32.302  1.00  0.00    -0.203 F 
ATOM     79  C   UNL A   1      35.201  32.896  31.359  1.00  0.00     0.198 A 
ATOM     80  C   UNL A   1      35.382  33.794  29.140  1.00  0.00     0.198 A 
ATOM     81  F   UNL A   1      37.363  33.481  27.906  1.00  0.00    -0.203 F 
ATOM     82  F   UNL A   1      34.488  32.694  32.476  1.00  0.00    -0.200 F 
ATOM     83  C   UNL A   1      34.649  33.604  30.302  1.00  0.00     0.200 A 
ATOM     84  F   UNL A   1      34.858  34.493  28.123  1.00  0.00    -0.200 F 
ATOM     85  F   UNL A   1      33.410  34.105  30.403  1.00  0.00    -0.200 F 
ENDBRANCH  51  75
BRANCH  63  86
ATOM     86  C   UNL A   1      43.412  35.685  31.161  1.00  0.00     0.064 A 
ATOM     87  C   UNL A   1      43.550  36.002  32.522  1.00  0.00     0.173 A 
ATOM     88  C   UNL A   1      43.676  36.698  30.225  1.00  0.00     0.173 A 
ATOM     89  F   UNL A   1      43.295  35.078  33.459  1.00  0.00    -0.203 F 
ATOM     90  C   UNL A   1      43.911  37.285  32.927  1.00  0.00     0.198 A 
ATOM     91  C   UNL A   1      44.066  37.971  30.633  1.00  0.00     0.198 A 
ATOM     92  F   UNL A   1      43.564  36.450  28.911  1.00  0.00    -0.203 F 
ATOM     93  F   UNL A   1      43.988  37.577  34.233  1.00  0.00    -0.200 F 
ATOM     94  C   UNL A   1      44.176  38.266  31.983  1.00  0.00     0.200 A 
ATOM     95  F   UNL A   1      44.334  38.914  29.719  1.00  0.00    -0.200 F 
ATOM     96  F   UNL A   1      44.529  39.498  32.376  1.00  0.00    -0.200 F 
ENDBRANCH  63  86
ENDBRANCH  37  38
ENDBRANCH  30  32
ENDBRANCH  29  30
ENDBRANCH  28  29
ENDBRANCH  27  28
ENDBRANCH  26  27
ENDBRANCH   1  26
TORSDOF 18
ENDMDL
MODEL 3
REMARK VINA RESULT:     -11.6      1.402      2.916
REMARK SMILES O=C(Cn1c2ccccc2c(=O)c2cc(F)ccc21)OCCOCCOCCOC(=O)c1ccc(-c2c3nc(c(-c4c(F)c(F)c(F)c(F)c4F)c4ccc([nH]4)c(-c4c(F)c(F)c(F)c(F)c4F)c4nc(c(-c5c(F)c(F)c(F)c(F)c5F)c5ccc2[nH]5)C=C4)C=C3)cc1
REMARK SMILES IDX 25 1 24 2 23 3 22 4 21 5 20 6 2 7 1 8 3 9 4 10 5 11 19 12
REMARK SMILES IDX 6 13 10 14 13 15 18 16 7 17 9 18 11 19 14 20 17 21 8 22
REMARK SMILES IDX 12 23 15 24 16 25 26 26 27 27 28 28 29 29 30 30 31 31 32 32
REMARK SMILES IDX 33 33 94 34 34 35 93 36 35 37 36 38 37 39 87 40 38 41 92 42
REMARK SMILES IDX 86 43 88 44 39 45 91 46 85 47 84 48 40 50 72 51 52 52 71 53
REMARK SMILES IDX 53 54 56 55 70 56 89 57 54 58 55 59 69 61 90 62 57 63 41 64
REMARK SMILES IDX 42 65 50 66 43 67 44 68 48 69 51 70 45 71 46 72 49 73 47 74
REMARK SMILES IDX 73 75 74 76 82 77 75 78 76 79 80 80 83 81 77 82 78 83 81 84
REMARK SMILES IDX 79 85 58 86 59 87 67 88 60 89 61 90 65 91 68 92 62 93 63 94
REMARK SMILES IDX 66 95 64 96
REMARK H PARENT 88 49 56 60
REMARK Flexibility Score: inf
ROOT
ATOM      1  C   UNL A   1      32.644  28.148  24.942  1.00  0.00     0.188 C 
ENDROOT
BRANCH   1   2
ATOM      2  C   UNL A   1      31.366  27.301  24.809  1.00  0.00     0.188 C 
BRANCH   2   3
ATOM      3  O   UNL A   1      31.403  26.103  25.567  1.00  0.00    -0.376 OA
BRANCH   3   4
ATOM      4  C   UNL A   1      30.244  25.297  25.504  1.00  0.00     0.202 C 
BRANCH   4   5
ATOM      5  C   UNL A   1      30.160  24.304  26.651  1.00  0.00     0.261 C 
BRANCH   5   6
ATOM      6  O   UNL A   1      31.428  23.846  27.181  1.00  0.00    -0.462 OA
BRANCH   6   7
ATOM      7  C   UNL A   1      32.255  22.842  26.860  1.00  0.00     0.326 C 
ATOM      8  O   UNL A   1      32.828  22.246  27.778  1.00  0.00    -0.250 OA
BRANCH   7   9
ATOM      9  C   UNL A   1      32.597  22.442  25.437  1.00  0.00     0.245 C 
BRANCH   9  10
ATOM     10  N   UNL A   1      33.849  21.709  25.171  1.00  0.00    -0.329 N 
ATOM     11  C   UNL A   1      33.756  20.305  24.953  1.00  0.00     0.053 A 
ATOM     12  C   UNL A   1      35.094  22.366  25.379  1.00  0.00     0.053 A 
ATOM     13  C   UNL A   1      32.541  19.605  24.823  1.00  0.00     0.027 A 
ATOM     14  C   UNL A   1      34.929  19.555  24.764  1.00  0.00     0.046 A 
ATOM     15  C   UNL A   1      36.288  21.617  25.362  1.00  0.00     0.049 A 
ATOM     16  C   UNL A   1      35.244  23.759  25.558  1.00  0.00     0.030 A 
ATOM     17  C   UNL A   1      32.496  18.284  24.366  1.00  0.00     0.002 A 
ATOM     18  C   UNL A   1      34.891  18.224  24.324  1.00  0.00     0.014 A 
ATOM     19  C   UNL A   1      36.237  20.179  25.036  1.00  0.00     0.197 A 
ATOM     20  C   UNL A   1      37.545  22.200  25.596  1.00  0.00     0.053 A 
ATOM     21  C   UNL A   1      36.497  24.353  25.759  1.00  0.00     0.041 A 
ATOM     22  C   UNL A   1      33.671  17.600  24.091  1.00  0.00     0.001 A 
ATOM     23  O   UNL A   1      37.268  19.517  24.984  1.00  0.00    -0.288 OA
ATOM     24  C   UNL A   1      37.634  23.565  25.798  1.00  0.00     0.124 A 
ATOM     25  F   UNL A   1      38.826  24.135  26.002  1.00  0.00    -0.207 F 
ENDBRANCH   9  10
ENDBRANCH   7   9
ENDBRANCH   6   7
ENDBRANCH   5   6
ENDBRANCH   4   5
ENDBRANCH   3   4
ENDBRANCH   2   3
ENDBRANCH   1   2
BRANCH   1  26
ATOM     26  O   UNL A   1      32.544  29.566  24.975  1.00  0.00    -0.376 OA
BRANCH  26  27
ATOM     27  C   UNL A   1      31.443  30.180  25.627  1.00  0.00     0.202 C 
BRANCH  27  28
ATOM     28  C   UNL A   1      31.753  31.408  26.490  1.00  0.00     0.261 C 
BRANCH  28  29
ATOM     29  O   UNL A   1      32.825  31.204  27.431  1.00  0.00    -0.460 OA
BRANCH  29  30
ATOM     30  C   UNL A   1      33.661  32.257  27.626  1.00  0.00     0.338 C 
ATOM     31  O   UNL A   1      33.390  33.436  27.555  1.00  0.00    -0.246 OA
BRANCH  30  32
ATOM     32  C   UNL A   1      34.964  31.758  28.139  1.00  0.00     0.060 A 
ATOM     33  C   UNL A   1      36.084  32.588  28.228  1.00  0.00     0.016 A 
ATOM     34  C   UNL A   1      35.052  30.420  28.549  1.00  0.00     0.016 A 
ATOM     35  C   UNL A   1      37.277  32.086  28.762  1.00  0.00     0.010 A 
ATOM     36  C   UNL A   1      36.249  29.915  29.069  1.00  0.00     0.010 A 
ATOM     37  C   UNL A   1      37.365  30.752  29.205  1.00  0.00    -0.014 A 
BRANCH  37  38
ATOM     38  C   UNL A   1      38.557  30.304  29.974  1.00  0.00     0.031 A 
ATOM     39  C   UNL A   1      38.842  30.770  31.367  1.00  0.00     0.074 A 
ATOM     40  C   UNL A   1      39.399  29.435  29.386  1.00  0.00     0.049 A 
ATOM     41  N   UNL A   1      39.747  30.341  32.213  1.00  0.00    -0.248 NA
ATOM     42  C   UNL A   1      38.007  31.860  31.880  1.00  0.00     0.031 C 
ATOM     43  C   UNL A   1      39.256  28.930  28.021  1.00  0.00     0.029 A 
ATOM     44  N   UNL A   1      40.526  28.814  29.862  1.00  0.00    -0.354 N 
ATOM     45  C   UNL A   1      39.562  31.074  33.376  1.00  0.00     0.074 A 
ATOM     46  C   UNL A   1      38.497  32.021  33.104  1.00  0.00     0.031 C 
ATOM     47  C   UNL A   1      40.235  28.045  27.782  1.00  0.00     0.029 A 
ATOM     48  C   UNL A   1      41.080  27.933  28.968  1.00  0.00     0.049 A 
ATOM     49  H   UNL A   1      40.899  28.983  30.757  1.00  0.00     0.167 HD
ATOM     50  C   UNL A   1      40.205  30.951  34.564  1.00  0.00     0.037 A 
ATOM     51  C   UNL A   1      42.137  27.109  29.092  1.00  0.00     0.037 A 
ATOM     52  C   UNL A   1      41.309  30.054  34.812  1.00  0.00     0.049 A 
ATOM     53  C   UNL A   1      42.888  27.048  30.391  1.00  0.00     0.074 A 
ATOM     54  C   UNL A   1      42.013  29.852  35.989  1.00  0.00     0.029 A 
ATOM     55  N   UNL A   1      41.896  29.231  33.859  1.00  0.00    -0.354 N 
ATOM     56  N   UNL A   1      42.649  27.677  31.515  1.00  0.00    -0.248 NA
ATOM     57  C   UNL A   1      44.052  26.153  30.437  1.00  0.00     0.031 C 
ATOM     58  C   UNL A   1      43.057  28.955  35.733  1.00  0.00     0.029 A 
ATOM     59  C   UNL A   1      42.971  28.549  34.412  1.00  0.00     0.049 A 
ATOM     60  H   UNL A   1      41.591  29.143  32.927  1.00  0.00     0.167 HD
ATOM     61  C   UNL A   1      43.618  27.244  32.408  1.00  0.00     0.074 A 
ATOM     62  C   UNL A   1      44.439  26.283  31.700  1.00  0.00     0.031 C 
ATOM     63  C   UNL A   1      43.806  27.611  33.701  1.00  0.00     0.037 A 
BRANCH  50  64
ATOM     64  C   UNL A   1      39.723  31.808  35.702  1.00  0.00     0.064 A 
ATOM     65  C   UNL A   1      40.305  33.060  35.964  1.00  0.00     0.173 A 
ATOM     66  C   UNL A   1      38.642  31.411  36.501  1.00  0.00     0.173 A 
ATOM     67  F   UNL A   1      41.347  33.484  35.235  1.00  0.00    -0.203 F 
ATOM     68  C   UNL A   1      39.836  33.868  36.998  1.00  0.00     0.198 A 
ATOM     69  C   UNL A   1      38.159  32.232  37.517  1.00  0.00     0.198 A 
ATOM     70  F   UNL A   1      38.044  30.228  36.291  1.00  0.00    -0.203 F 
ATOM     71  F   UNL A   1      40.433  35.040  37.254  1.00  0.00    -0.200 F 
ATOM     72  C   UNL A   1      38.759  33.456  37.769  1.00  0.00     0.200 A 
ATOM     73  F   UNL A   1      37.111  31.839  38.254  1.00  0.00    -0.200 F 
ATOM     74  F   UNL A   1      38.305  34.237  38.759  1.00  0.00    -0.200 F 
ENDBRANCH  50  64
BRANCH  51  75
ATOM     75  C   UNL A   1      42.489  26.222  27.957  1.00  0.00     0.064 A 
ATOM     76  C   UNL A   1      41.845  24.989  27.789  1.00  0.00     0.173 A 
ATOM     77  C   UNL A   1      43.420  26.616  26.985  1.00  0.00     0.173 A 
ATOM     78  F   UNL A   1      40.960  24.567  28.704  1.00  0.00    -0.203 F 
ATOM     79  C   UNL A   1      42.112  24.186  26.685  1.00  0.00     0.198 A 
ATOM     80  C   UNL A   1      43.669  25.821  25.869  1.00  0.00     0.198 A 
ATOM     81  F   UNL A   1      44.056  27.790  27.102  1.00  0.00    -0.203 F 
ATOM     82  F   UNL A   1      41.493  23.005  26.553  1.00  0.00    -0.200 F 
ATOM     83  C   UNL A   1      43.016  24.607  25.720  1.00  0.00     0.200 A 
ATOM     84  F   UNL A   1      44.530  26.239  24.931  1.00  0.00    -0.200 F 
ATOM     85  F   UNL A   1      43.255  23.844  24.646  1.00  0.00    -0.200 F 
ENDBRANCH  51  75
BRANCH  63  86
ATOM     86  C   UNL A   1      44.950  26.974  34.439  1.00  0.00     0.064 A 
ATOM     87  C   UNL A   1      46.240  27.528  34.415  1.00  0.00     0.173 A 
ATOM     88  C   UNL A   1      44.753  25.815  35.206  1.00  0.00     0.173 A 
ATOM     89  F   UNL A   1      46.489  28.626  33.686  1.00  0.00    -0.203 F 
ATOM     90  C   UNL A   1      47.291  26.932  35.108  1.00  0.00     0.198 A 
ATOM     91  C   UNL A   1      45.799  25.239  35.922  1.00  0.00     0.198 A 
ATOM     92  F   UNL A   1      43.540  25.244  35.269  1.00  0.00    -0.203 F 
ATOM     93  F   UNL A   1      48.524  27.452  35.030  1.00  0.00    -0.200 F 
ATOM     94  C   UNL A   1      47.068  25.793  35.867  1.00  0.00     0.200 A 
ATOM     95  F   UNL A   1      45.579  24.144  36.665  1.00  0.00    -0.200 F 
ATOM     96  F   UNL A   1      48.080  25.225  36.538  1.00  0.00    -0.200 F 
ENDBRANCH  63  86
ENDBRANCH  37  38
ENDBRANCH  30  32
ENDBRANCH  29  30
ENDBRANCH  28  29
ENDBRANCH  27  28
ENDBRANCH  26  27
ENDBRANCH   1  26
TORSDOF 18
ENDMDL
