MODEL 1
REMARK VINA RESULT:      -9.8      0.000      0.000
REMARK SMILES C[C@H]([NH2+]CC1CCCC1)[C@H](C)C(=O)OCCOCCOCCOC(=O)c1ccc(-c2c3nc(c(-c4c(F)c(F)c(F)c(F)c4F)c4ccc([nH]4)c(-c4c(F)c(F)c(F)c(F)c4F)c4nc(c(-c5c(F)c(F)c(F)c(F)c5F)c5ccc2[nH]5)C=C4)C=C3)cc1
REMARK SMILES IDX 18 1 17 2 16 3 15 4 14 5 12 6 13 7 10 8 11 9 2 10 1 11 3 12
REMARK SMILES IDX 4 15 5 16 6 17 9 18 7 19 8 20 19 21 20 22 21 23 22 24 23 25
REMARK SMILES IDX 24 26 25 27 26 28 27 29 88 30 28 31 87 32 29 33 30 34 31 35
REMARK SMILES IDX 81 36 32 37 86 38 80 39 82 40 33 41 85 42 79 43 78 44 34 46
REMARK SMILES IDX 66 47 46 48 65 49 47 50 50 51 64 52 83 53 48 54 49 55 63 57
REMARK SMILES IDX 84 58 51 59 35 60 36 61 44 62 37 63 38 64 42 65 45 66 39 67
REMARK SMILES IDX 40 68 43 69 41 70 67 71 68 72 76 73 69 74 70 75 74 76 77 77
REMARK SMILES IDX 71 78 72 79 75 80 73 81 52 82 53 83 61 84 54 85 55 86 59 87
REMARK SMILES IDX 62 88 56 89 57 90 60 91 58 92
REMARK H PARENT 3 13 3 14 82 45 50 56
REMARK Flexibility Score: inf
ROOT
ATOM      1  C   UNL A   1      42.278  19.726  26.813  1.00  0.00     0.188 C 
ENDROOT
BRANCH   1   2
ATOM      2  O   UNL A   1      41.903  21.008  27.293  1.00  0.00    -0.376 OA
BRANCH   2   3
ATOM      3  C   UNL A   1      40.516  21.292  27.324  1.00  0.00     0.202 C 
BRANCH   3   4
ATOM      4  C   UNL A   1      39.919  21.942  26.081  1.00  0.00     0.261 C 
BRANCH   4   5
ATOM      5  O   UNL A   1      38.533  22.342  26.165  1.00  0.00    -0.463 OA
BRANCH   5   6
ATOM      6  C   UNL A   1      37.669  21.839  25.234  1.00  0.00     0.314 C 
ATOM      7  O   UNL A   1      37.692  20.681  24.834  1.00  0.00    -0.252 OA
BRANCH   6   8
ATOM      8  C   UNL A   1      36.725  22.897  24.656  1.00  0.00     0.154 C 
ATOM      9  C   UNL A   1      36.653  22.926  23.127  1.00  0.00     0.026 C 
BRANCH   8  10
ATOM     10  C   UNL A   1      35.310  22.918  25.332  1.00  0.00     0.193 C 
ATOM     11  C   UNL A   1      34.384  21.894  24.659  1.00  0.00     0.076 C 
BRANCH  10  12
ATOM     12  N   UNL A   1      34.546  24.171  25.575  1.00  0.00    -0.343 N 
ATOM     13  H   UNL A   1      35.152  24.821  26.077  1.00  0.00     0.346 HD
ATOM     14  H   UNL A   1      33.717  23.905  26.105  1.00  0.00     0.346 HD
BRANCH  12  15
ATOM     15  C   UNL A   1      34.069  24.834  24.369  1.00  0.00     0.264 C 
BRANCH  15  16
ATOM     16  C   UNL A   1      33.361  26.186  24.490  1.00  0.00     0.044 C 
ATOM     17  C   UNL A   1      33.861  26.914  25.747  1.00  0.00     0.009 C 
ATOM     18  C   UNL A   1      33.701  27.201  23.404  1.00  0.00     0.009 C 
ATOM     19  C   UNL A   1      33.462  28.359  25.559  1.00  0.00     0.001 C 
ATOM     20  C   UNL A   1      33.449  28.570  24.049  1.00  0.00     0.001 C 
ENDBRANCH  15  16
ENDBRANCH  12  15
ENDBRANCH  10  12
ENDBRANCH   8  10
ENDBRANCH   6   8
ENDBRANCH   5   6
ENDBRANCH   4   5
ENDBRANCH   3   4
ENDBRANCH   2   3
ENDBRANCH   1   2
BRANCH   1  21
ATOM     21  C   UNL A   1      42.898  19.632  25.402  1.00  0.00     0.188 C 
BRANCH  21  22
ATOM     22  O   UNL A   1      44.299  19.402  25.372  1.00  0.00    -0.376 OA
BRANCH  22  23
ATOM     23  C   UNL A   1      45.110  20.562  25.217  1.00  0.00     0.202 C 
BRANCH  23  24
ATOM     24  C   UNL A   1      44.381  21.824  24.726  1.00  0.00     0.261 C 
BRANCH  24  25
ATOM     25  O   UNL A   1      44.232  22.869  25.706  1.00  0.00    -0.460 OA
BRANCH  25  26
ATOM     26  C   UNL A   1      44.395  24.147  25.299  1.00  0.00     0.338 C 
ATOM     27  O   UNL A   1      44.889  24.527  24.251  1.00  0.00    -0.246 OA
BRANCH  26  28
ATOM     28  C   UNL A   1      43.602  25.007  26.214  1.00  0.00     0.060 A 
ATOM     29  C   UNL A   1      44.002  26.341  26.386  1.00  0.00     0.016 A 
ATOM     30  C   UNL A   1      42.420  24.548  26.804  1.00  0.00     0.016 A 
ATOM     31  C   UNL A   1      43.240  27.208  27.169  1.00  0.00     0.010 A 
ATOM     32  C   UNL A   1      41.672  25.408  27.616  1.00  0.00     0.010 A 
ATOM     33  C   UNL A   1      42.101  26.729  27.833  1.00  0.00    -0.014 A 
BRANCH  33  34
ATOM     34  C   UNL A   1      41.574  27.510  28.979  1.00  0.00     0.031 A 
ATOM     35  C   UNL A   1      42.314  27.384  30.286  1.00  0.00     0.074 A 
ATOM     36  C   UNL A   1      40.528  28.346  28.872  1.00  0.00     0.049 A 
ATOM     37  N   UNL A   1      42.109  27.992  31.426  1.00  0.00    -0.248 NA
ATOM     38  C   UNL A   1      43.447  26.443  30.300  1.00  0.00     0.031 C 
ATOM     39  C   UNL A   1      39.748  28.587  27.662  1.00  0.00     0.029 A 
ATOM     40  N   UNL A   1      39.946  29.159  29.816  1.00  0.00    -0.354 N 
ATOM     41  C   UNL A   1      43.093  27.516  32.282  1.00  0.00     0.074 A 
ATOM     42  C   UNL A   1      43.868  26.541  31.549  1.00  0.00     0.031 C 
ATOM     43  C   UNL A   1      38.785  29.485  27.937  1.00  0.00     0.029 A 
ATOM     44  C   UNL A   1      38.872  29.873  29.346  1.00  0.00     0.049 A 
ATOM     45  H   UNL A   1      40.270  29.223  30.744  1.00  0.00     0.167 HD
ATOM     46  C   UNL A   1      43.344  27.867  33.564  1.00  0.00     0.037 A 
ATOM     47  C   UNL A   1      38.056  30.734  29.986  1.00  0.00     0.037 A 
ATOM     48  C   UNL A   1      42.565  28.818  34.307  1.00  0.00     0.049 A 
ATOM     49  C   UNL A   1      38.310  31.057  31.440  1.00  0.00     0.074 A 
ATOM     50  C   UNL A   1      42.728  29.236  35.615  1.00  0.00     0.029 A 
ATOM     51  N   UNL A   1      41.461  29.493  33.805  1.00  0.00    -0.354 N 
ATOM     52  N   UNL A   1      39.262  30.629  32.233  1.00  0.00    -0.248 NA
ATOM     53  C   UNL A   1      37.379  31.997  32.081  1.00  0.00     0.031 C 
ATOM     54  C   UNL A   1      41.695  30.128  35.920  1.00  0.00     0.029 A 
ATOM     55  C   UNL A   1      40.923  30.311  34.783  1.00  0.00     0.049 A 
ATOM     56  H   UNL A   1      41.113  29.403  32.888  1.00  0.00     0.167 HD
ATOM     57  C   UNL A   1      39.067  31.273  33.450  1.00  0.00     0.074 A 
ATOM     58  C   UNL A   1      37.913  32.131  33.287  1.00  0.00     0.031 C 
ATOM     59  C   UNL A   1      39.780  31.167  34.600  1.00  0.00     0.037 A 
BRANCH  46  60
ATOM     60  C   UNL A   1      44.496  27.189  34.244  1.00  0.00     0.064 A 
ATOM     61  C   UNL A   1      45.788  27.736  34.222  1.00  0.00     0.173 A 
ATOM     62  C   UNL A   1      44.305  25.977  34.921  1.00  0.00     0.173 A 
ATOM     63  F   UNL A   1      46.027  28.880  33.563  1.00  0.00    -0.203 F 
ATOM     64  C   UNL A   1      46.853  27.078  34.830  1.00  0.00     0.198 A 
ATOM     65  C   UNL A   1      45.367  25.338  35.554  1.00  0.00     0.198 A 
ATOM     66  F   UNL A   1      43.090  25.410  34.966  1.00  0.00    -0.203 F 
ATOM     67  F   UNL A   1      48.090  27.589  34.748  1.00  0.00    -0.200 F 
ATOM     68  C   UNL A   1      46.640  25.884  35.501  1.00  0.00     0.200 A 
ATOM     69  F   UNL A   1      45.159  24.186  36.208  1.00  0.00    -0.200 F 
ATOM     70  F   UNL A   1      47.667  25.252  36.089  1.00  0.00    -0.200 F 
ENDBRANCH  46  60
BRANCH  47  71
ATOM     71  C   UNL A   1      36.918  31.366  29.265  1.00  0.00     0.064 A 
ATOM     72  C   UNL A   1      36.935  32.729  28.936  1.00  0.00     0.173 A 
ATOM     73  C   UNL A   1      35.771  30.631  28.932  1.00  0.00     0.173 A 
ATOM     74  F   UNL A   1      37.995  33.484  29.264  1.00  0.00    -0.203 F 
ATOM     75  C   UNL A   1      35.841  33.336  28.322  1.00  0.00     0.198 A 
ATOM     76  C   UNL A   1      34.689  31.234  28.292  1.00  0.00     0.198 A 
ATOM     77  F   UNL A   1      35.698  29.327  29.235  1.00  0.00    -0.203 F 
ATOM     78  F   UNL A   1      35.862  34.653  28.070  1.00  0.00    -0.200 F 
ATOM     79  C   UNL A   1      34.721  32.587  27.995  1.00  0.00     0.200 A 
ATOM     80  F   UNL A   1      33.610  30.505  27.977  1.00  0.00    -0.200 F 
ATOM     81  F   UNL A   1      33.668  33.173  27.409  1.00  0.00    -0.200 F 
ENDBRANCH  47  71
BRANCH  59  82
ATOM     82  C   UNL A   1      39.366  32.035  35.754  1.00  0.00     0.064 A 
ATOM     83  C   UNL A   1      39.932  33.299  35.973  1.00  0.00     0.173 A 
ATOM     84  C   UNL A   1      38.363  31.604  36.637  1.00  0.00     0.173 A 
ATOM     85  F   UNL A   1      40.900  33.754  35.162  1.00  0.00    -0.203 F 
ATOM     86  C   UNL A   1      39.538  34.083  37.054  1.00  0.00     0.198 A 
ATOM     87  C   UNL A   1      37.947  32.406  37.698  1.00  0.00     0.198 A 
ATOM     88  F   UNL A   1      37.778  30.410  36.467  1.00  0.00    -0.203 F 
ATOM     89  F   UNL A   1      40.134  35.263  37.276  1.00  0.00    -0.200 F 
ATOM     90  C   UNL A   1      38.543  33.640  37.912  1.00  0.00     0.200 A 
ATOM     91  F   UNL A   1      36.974  31.981  38.515  1.00  0.00    -0.200 F 
ATOM     92  F   UNL A   1      38.164  34.396  38.950  1.00  0.00    -0.200 F 
ENDBRANCH  59  82
ENDBRANCH  33  34
ENDBRANCH  26  28
ENDBRANCH  25  26
ENDBRANCH  24  25
ENDBRANCH  23  24
ENDBRANCH  22  23
ENDBRANCH  21  22
ENDBRANCH   1  21
TORSDOF 21
ENDMDL
MODEL 2
REMARK VINA RESULT:      -9.8      3.479      9.228
REMARK SMILES C[C@H]([NH2+]CC1CCCC1)[C@H](C)C(=O)OCCOCCOCCOC(=O)c1ccc(-c2c3nc(c(-c4c(F)c(F)c(F)c(F)c4F)c4ccc([nH]4)c(-c4c(F)c(F)c(F)c(F)c4F)c4nc(c(-c5c(F)c(F)c(F)c(F)c5F)c5ccc2[nH]5)C=C4)C=C3)cc1
REMARK SMILES IDX 18 1 17 2 16 3 15 4 14 5 12 6 13 7 10 8 11 9 2 10 1 11 3 12
REMARK SMILES IDX 4 15 5 16 6 17 9 18 7 19 8 20 19 21 20 22 21 23 22 24 23 25
REMARK SMILES IDX 24 26 25 27 26 28 27 29 88 30 28 31 87 32 29 33 30 34 31 35
REMARK SMILES IDX 81 36 32 37 86 38 80 39 82 40 33 41 85 42 79 43 78 44 34 46
REMARK SMILES IDX 66 47 46 48 65 49 47 50 50 51 64 52 83 53 48 54 49 55 63 57
REMARK SMILES IDX 84 58 51 59 35 60 36 61 44 62 37 63 38 64 42 65 45 66 39 67
REMARK SMILES IDX 40 68 43 69 41 70 67 71 68 72 76 73 69 74 70 75 74 76 77 77
REMARK SMILES IDX 71 78 72 79 75 80 73 81 52 82 53 83 61 84 54 85 55 86 59 87
REMARK SMILES IDX 62 88 56 89 57 90 60 91 58 92
REMARK H PARENT 3 13 3 14 82 45 50 56
REMARK Flexibility Score: inf
ROOT
ATOM      1  C   UNL A   1      32.023  26.760  25.295  1.00  0.00     0.188 C 
ENDROOT
BRANCH   1   2
ATOM      2  O   UNL A   1      31.271  26.320  24.175  1.00  0.00    -0.376 OA
BRANCH   2   3
ATOM      3  C   UNL A   1      31.886  25.356  23.338  1.00  0.00     0.202 C 
BRANCH   3   4
ATOM      4  C   UNL A   1      33.257  25.710  22.774  1.00  0.00     0.261 C 
BRANCH   4   5
ATOM      5  O   UNL A   1      34.225  24.639  22.711  1.00  0.00    -0.463 OA
BRANCH   5   6
ATOM      6  C   UNL A   1      33.755  23.357  22.710  1.00  0.00     0.314 C 
ATOM      7  O   UNL A   1      32.937  22.929  21.904  1.00  0.00    -0.252 OA
BRANCH   6   8
ATOM      8  C   UNL A   1      34.277  22.524  23.884  1.00  0.00     0.154 C 
ATOM      9  C   UNL A   1      35.556  23.061  24.533  1.00  0.00     0.026 C 
BRANCH   8  10
ATOM     10  C   UNL A   1      33.173  22.151  24.935  1.00  0.00     0.193 C 
ATOM     11  C   UNL A   1      33.815  21.864  26.300  1.00  0.00     0.076 C 
BRANCH  10  12
ATOM     12  N   UNL A   1      32.118  21.135  24.676  1.00  0.00    -0.343 N 
ATOM     13  H   UNL A   1      31.291  21.618  24.325  1.00  0.00     0.346 HD
ATOM     14  H   UNL A   1      31.956  20.655  25.560  1.00  0.00     0.346 HD
BRANCH  12  15
ATOM     15  C   UNL A   1      32.488  20.108  23.711  1.00  0.00     0.264 C 
BRANCH  15  16
ATOM     16  C   UNL A   1      32.975  18.748  24.218  1.00  0.00     0.044 C 
ATOM     17  C   UNL A   1      32.949  17.733  23.067  1.00  0.00     0.009 C 
ATOM     18  C   UNL A   1      34.442  18.693  24.631  1.00  0.00     0.009 C 
ATOM     19  C   UNL A   1      33.824  16.588  23.521  1.00  0.00     0.001 C 
ATOM     20  C   UNL A   1      34.846  17.223  24.458  1.00  0.00     0.001 C 
ENDBRANCH  15  16
ENDBRANCH  12  15
ENDBRANCH  10  12
ENDBRANCH   8  10
ENDBRANCH   6   8
ENDBRANCH   5   6
ENDBRANCH   4   5
ENDBRANCH   3   4
ENDBRANCH   2   3
ENDBRANCH   1   2
BRANCH   1  21
ATOM     21  C   UNL A   1      31.642  28.110  25.940  1.00  0.00     0.188 C 
BRANCH  21  22
ATOM     22  O   UNL A   1      32.167  29.259  25.292  1.00  0.00    -0.376 OA
BRANCH  22  23
ATOM     23  C   UNL A   1      31.375  30.439  25.395  1.00  0.00     0.202 C 
BRANCH  23  24
ATOM     24  C   UNL A   1      31.775  31.414  26.515  1.00  0.00     0.261 C 
BRANCH  24  25
ATOM     25  O   UNL A   1      33.028  31.125  27.163  1.00  0.00    -0.460 OA
BRANCH  25  26
ATOM     26  C   UNL A   1      33.719  32.158  27.695  1.00  0.00     0.338 C 
ATOM     27  O   UNL A   1      33.278  33.250  28.013  1.00  0.00    -0.246 OA
BRANCH  26  28
ATOM     28  C   UNL A   1      35.048  31.637  28.103  1.00  0.00     0.060 A 
ATOM     29  C   UNL A   1      35.232  30.247  28.151  1.00  0.00     0.016 A 
ATOM     30  C   UNL A   1      36.131  32.495  28.324  1.00  0.00     0.016 A 
ATOM     31  C   UNL A   1      36.486  29.713  28.447  1.00  0.00     0.010 A 
ATOM     32  C   UNL A   1      37.382  31.961  28.652  1.00  0.00     0.010 A 
ATOM     33  C   UNL A   1      37.553  30.569  28.754  1.00  0.00    -0.014 A 
BRANCH  33  34
ATOM     34  C   UNL A   1      38.718  30.009  29.481  1.00  0.00     0.031 A 
ATOM     35  C   UNL A   1      38.933  30.486  30.894  1.00  0.00     0.074 A 
ATOM     36  C   UNL A   1      39.525  29.071  28.954  1.00  0.00     0.049 A 
ATOM     37  N   UNL A   1      39.831  30.124  31.773  1.00  0.00    -0.248 NA
ATOM     38  C   UNL A   1      37.996  31.514  31.379  1.00  0.00     0.031 C 
ATOM     39  C   UNL A   1      39.407  28.499  27.617  1.00  0.00     0.029 A 
ATOM     40  N   UNL A   1      40.610  28.430  29.503  1.00  0.00    -0.354 N 
ATOM     41  C   UNL A   1      39.556  30.868  32.913  1.00  0.00     0.074 A 
ATOM     42  C   UNL A   1      38.439  31.731  32.605  1.00  0.00     0.031 C 
ATOM     43  C   UNL A   1      40.387  27.592  27.445  1.00  0.00     0.029 A 
ATOM     44  C   UNL A   1      41.207  27.530  28.655  1.00  0.00     0.049 A 
ATOM     45  H   UNL A   1      40.930  28.600  30.418  1.00  0.00     0.167 HD
ATOM     46  C   UNL A   1      40.168  30.829  34.119  1.00  0.00     0.037 A 
ATOM     47  C   UNL A   1      42.294  26.753  28.841  1.00  0.00     0.037 A 
ATOM     48  C   UNL A   1      41.294  29.991  34.426  1.00  0.00     0.049 A 
ATOM     49  C   UNL A   1      43.007  26.780  30.173  1.00  0.00     0.074 A 
ATOM     50  C   UNL A   1      41.994  29.885  35.613  1.00  0.00     0.029 A 
ATOM     51  N   UNL A   1      41.892  29.119  33.527  1.00  0.00    -0.354 N 
ATOM     52  N   UNL A   1      42.721  27.460  31.257  1.00  0.00    -0.248 NA
ATOM     53  C   UNL A   1      44.188  25.915  30.307  1.00  0.00     0.031 C 
ATOM     54  C   UNL A   1      43.046  28.984  35.420  1.00  0.00     0.029 A 
ATOM     55  C   UNL A   1      42.965  28.485  34.129  1.00  0.00     0.049 A 
ATOM     56  H   UNL A   1      41.597  28.974  32.600  1.00  0.00     0.167 HD
ATOM     57  C   UNL A   1      43.660  27.080  32.208  1.00  0.00     0.074 A 
ATOM     58  C   UNL A   1      44.518  26.099  31.578  1.00  0.00     0.031 C 
ATOM     59  C   UNL A   1      43.801  27.502  33.491  1.00  0.00     0.037 A 
BRANCH  46  60
ATOM     60  C   UNL A   1      39.641  31.748  35.181  1.00  0.00     0.064 A 
ATOM     61  C   UNL A   1      38.669  31.326  36.101  1.00  0.00     0.173 A 
ATOM     62  C   UNL A   1      40.110  33.065  35.275  1.00  0.00     0.173 A 
ATOM     63  F   UNL A   1      38.169  30.083  36.034  1.00  0.00    -0.203 F 
ATOM     64  C   UNL A   1      38.166  32.201  37.060  1.00  0.00     0.198 A 
ATOM     65  C   UNL A   1      39.627  33.927  36.255  1.00  0.00     0.198 A 
ATOM     66  F   UNL A   1      41.034  33.518  34.415  1.00  0.00    -0.203 F 
ATOM     67  F   UNL A   1      37.197  31.794  37.893  1.00  0.00    -0.200 F 
ATOM     68  C   UNL A   1      38.651  33.497  37.141  1.00  0.00     0.200 A 
ATOM     69  F   UNL A   1      40.100  35.178  36.336  1.00  0.00    -0.200 F 
ATOM     70  F   UNL A   1      38.167  34.338  38.066  1.00  0.00    -0.200 F 
ENDBRANCH  46  60
BRANCH  47  71
ATOM     71  C   UNL A   1      42.782  25.871  27.747  1.00  0.00     0.064 A 
ATOM     72  C   UNL A   1      43.762  26.309  26.845  1.00  0.00     0.173 A 
ATOM     73  C   UNL A   1      42.244  24.591  27.552  1.00  0.00     0.173 A 
ATOM     74  F   UNL A   1      44.284  27.539  26.967  1.00  0.00    -0.203 F 
ATOM     75  C   UNL A   1      44.170  25.509  25.779  1.00  0.00     0.198 A 
ATOM     76  C   UNL A   1      42.673  23.781  26.502  1.00  0.00     0.198 A 
ATOM     77  F   UNL A   1      41.295  24.128  28.378  1.00  0.00    -0.203 F 
ATOM     78  F   UNL A   1      45.068  25.974  24.899  1.00  0.00    -0.200 F 
ATOM     79  C   UNL A   1      43.629  24.243  25.611  1.00  0.00     0.200 A 
ATOM     80  F   UNL A   1      42.149  22.557  26.346  1.00  0.00    -0.200 F 
ATOM     81  F   UNL A   1      44.018  23.476  24.583  1.00  0.00    -0.200 F 
ENDBRANCH  47  71
BRANCH  59  82
ATOM     82  C   UNL A   1      44.888  26.869  34.312  1.00  0.00     0.064 A 
ATOM     83  C   UNL A   1      44.675  25.691  35.043  1.00  0.00     0.173 A 
ATOM     84  C   UNL A   1      46.171  27.437  34.344  1.00  0.00     0.173 A 
ATOM     85  F   UNL A   1      43.464  25.112  35.053  1.00  0.00    -0.203 F 
ATOM     86  C   UNL A   1      45.695  25.127  35.804  1.00  0.00     0.198 A 
ATOM     87  C   UNL A   1      47.198  26.851  35.079  1.00  0.00     0.198 A 
ATOM     88  F   UNL A   1      46.433  28.556  33.653  1.00  0.00    -0.203 F 
ATOM     89  F   UNL A   1      45.452  24.032  36.540  1.00  0.00    -0.200 F 
ATOM     90  C   UNL A   1      46.956  25.702  35.818  1.00  0.00     0.200 A 
ATOM     91  F   UNL A   1      48.420  27.401  35.077  1.00  0.00    -0.200 F 
ATOM     92  F   UNL A   1      47.936  25.157  36.550  1.00  0.00    -0.200 F 
ENDBRANCH  59  82
ENDBRANCH  33  34
ENDBRANCH  26  28
ENDBRANCH  25  26
ENDBRANCH  24  25
ENDBRANCH  23  24
ENDBRANCH  22  23
ENDBRANCH  21  22
ENDBRANCH   1  21
TORSDOF 21
ENDMDL
MODEL 3
REMARK VINA RESULT:      -9.5      4.694      7.381
REMARK SMILES C[C@H]([NH2+]CC1CCCC1)[C@H](C)C(=O)OCCOCCOCCOC(=O)c1ccc(-c2c3nc(c(-c4c(F)c(F)c(F)c(F)c4F)c4ccc([nH]4)c(-c4c(F)c(F)c(F)c(F)c4F)c4nc(c(-c5c(F)c(F)c(F)c(F)c5F)c5ccc2[nH]5)C=C4)C=C3)cc1
REMARK SMILES IDX 18 1 17 2 16 3 15 4 14 5 12 6 13 7 10 8 11 9 2 10 1 11 3 12
REMARK SMILES IDX 4 15 5 16 6 17 9 18 7 19 8 20 19 21 20 22 21 23 22 24 23 25
REMARK SMILES IDX 24 26 25 27 26 28 27 29 88 30 28 31 87 32 29 33 30 34 31 35
REMARK SMILES IDX 81 36 32 37 86 38 80 39 82 40 33 41 85 42 79 43 78 44 34 46
REMARK SMILES IDX 66 47 46 48 65 49 47 50 50 51 64 52 83 53 48 54 49 55 63 57
REMARK SMILES IDX 84 58 51 59 35 60 36 61 44 62 37 63 38 64 42 65 45 66 39 67
REMARK SMILES IDX 40 68 43 69 41 70 67 71 68 72 76 73 69 74 70 75 74 76 77 77
REMARK SMILES IDX 71 78 72 79 75 80 73 81 52 82 53 83 61 84 54 85 55 86 59 87
REMARK SMILES IDX 62 88 56 89 57 90 60 91 58 92
REMARK H PARENT 3 13 3 14 82 45 50 56
REMARK Flexibility Score: inf
ROOT
ATOM      1  C   UNL A   1      35.969  21.440  26.146  1.00  0.00     0.188 C 
ENDROOT
BRANCH   1   2
ATOM      2  O   UNL A   1      34.574  21.665  26.282  1.00  0.00    -0.376 OA
BRANCH   2   3
ATOM      3  C   UNL A   1      34.084  21.827  27.601  1.00  0.00     0.202 C 
BRANCH   3   4
ATOM      4  C   UNL A   1      32.743  22.535  27.753  1.00  0.00     0.261 C 
BRANCH   4   5
ATOM      5  O   UNL A   1      32.447  23.571  26.790  1.00  0.00    -0.463 OA
BRANCH   5   6
ATOM      6  C   UNL A   1      31.152  23.705  26.379  1.00  0.00     0.314 C 
ATOM      7  O   UNL A   1      30.213  23.925  27.135  1.00  0.00    -0.252 OA
BRANCH   6   8
ATOM      8  C   UNL A   1      30.968  23.453  24.880  1.00  0.00     0.154 C 
ATOM      9  C   UNL A   1      30.910  24.718  24.019  1.00  0.00     0.026 C 
BRANCH   8  10
ATOM     10  C   UNL A   1      31.937  22.365  24.298  1.00  0.00     0.193 C 
ATOM     11  C   UNL A   1      31.973  22.451  22.765  1.00  0.00     0.076 C 
BRANCH  10  12
ATOM     12  N   UNL A   1      31.883  20.934  24.698  1.00  0.00    -0.343 N 
ATOM     13  H   UNL A   1      30.904  20.674  24.822  1.00  0.00     0.346 HD
ATOM     14  H   UNL A   1      32.431  20.852  25.554  1.00  0.00     0.346 HD
BRANCH  12  15
ATOM     15  C   UNL A   1      32.479  20.013  23.739  1.00  0.00     0.264 C 
BRANCH  15  16
ATOM     16  C   UNL A   1      32.986  18.653  24.226  1.00  0.00     0.044 C 
ATOM     17  C   UNL A   1      32.857  17.623  23.094  1.00  0.00     0.009 C 
ATOM     18  C   UNL A   1      34.480  18.582  24.525  1.00  0.00     0.009 C 
ATOM     19  C   UNL A   1      33.750  16.472  23.495  1.00  0.00     0.001 C 
ATOM     20  C   UNL A   1      34.850  17.104  24.342  1.00  0.00     0.001 C 
ENDBRANCH  15  16
ENDBRANCH  12  15
ENDBRANCH  10  12
ENDBRANCH   8  10
ENDBRANCH   6   8
ENDBRANCH   5   6
ENDBRANCH   4   5
ENDBRANCH   3   4
ENDBRANCH   2   3
ENDBRANCH   1   2
BRANCH   1  21
ATOM     21  C   UNL A   1      36.756  22.334  25.163  1.00  0.00     0.188 C 
BRANCH  21  22
ATOM     22  O   UNL A   1      38.126  21.999  25.006  1.00  0.00    -0.376 OA
BRANCH  22  23
ATOM     23  C   UNL A   1      38.467  20.648  25.302  1.00  0.00     0.202 C 
BRANCH  23  24
ATOM     24  C   UNL A   1      39.661  20.455  26.252  1.00  0.00     0.261 C 
BRANCH  24  25
ATOM     25  O   UNL A   1      40.744  19.665  25.725  1.00  0.00    -0.460 OA
BRANCH  25  26
ATOM     26  C   UNL A   1      41.978  19.857  26.241  1.00  0.00     0.338 C 
ATOM     27  O   UNL A   1      42.940  19.115  26.142  1.00  0.00    -0.246 OA
BRANCH  26  28
ATOM     28  C   UNL A   1      42.049  21.268  26.701  1.00  0.00     0.060 A 
ATOM     29  C   UNL A   1      41.851  22.286  25.756  1.00  0.00     0.016 A 
ATOM     30  C   UNL A   1      42.192  21.587  28.056  1.00  0.00     0.016 A 
ATOM     31  C   UNL A   1      41.825  23.622  26.157  1.00  0.00     0.010 A 
ATOM     32  C   UNL A   1      42.198  22.928  28.454  1.00  0.00     0.010 A 
ATOM     33  C   UNL A   1      42.055  23.951  27.500  1.00  0.00    -0.014 A 
BRANCH  33  34
ATOM     34  C   UNL A   1      42.460  25.341  27.825  1.00  0.00     0.031 A 
ATOM     35  C   UNL A   1      43.870  25.738  27.473  1.00  0.00     0.074 A 
ATOM     36  C   UNL A   1      41.614  26.244  28.350  1.00  0.00     0.049 A 
ATOM     37  N   UNL A   1      44.468  26.895  27.591  1.00  0.00    -0.248 NA
ATOM     38  C   UNL A   1      44.718  24.678  26.903  1.00  0.00     0.031 C 
ATOM     39  C   UNL A   1      40.219  26.000  28.704  1.00  0.00     0.029 A 
ATOM     40  N   UNL A   1      41.819  27.564  28.671  1.00  0.00    -0.354 N 
ATOM     41  C   UNL A   1      45.752  26.702  27.098  1.00  0.00     0.074 A 
ATOM     42  C   UNL A   1      45.863  25.312  26.720  1.00  0.00     0.031 C 
ATOM     43  C   UNL A   1      39.692  27.136  29.198  1.00  0.00     0.029 A 
ATOM     44  C   UNL A   1      40.716  28.181  29.208  1.00  0.00     0.049 A 
ATOM     45  H   UNL A   1      42.677  28.025  28.529  1.00  0.00     0.167 HD
ATOM     46  C   UNL A   1      46.751  27.603  26.958  1.00  0.00     0.037 A 
ATOM     47  C   UNL A   1      40.561  29.442  29.657  1.00  0.00     0.037 A 
ATOM     48  C   UNL A   1      46.656  28.981  27.354  1.00  0.00     0.049 A 
ATOM     49  C   UNL A   1      41.714  30.414  29.558  1.00  0.00     0.074 A 
ATOM     50  C   UNL A   1      47.615  29.973  27.265  1.00  0.00     0.029 A 
ATOM     51  N   UNL A   1      45.533  29.558  27.928  1.00  0.00    -0.354 N 
ATOM     52  N   UNL A   1      42.914  30.233  29.060  1.00  0.00    -0.248 NA
ATOM     53  C   UNL A   1      41.481  31.771  30.073  1.00  0.00     0.031 C 
ATOM     54  C   UNL A   1      47.088  31.140  27.829  1.00  0.00     0.029 A 
ATOM     55  C   UNL A   1      45.780  30.889  28.215  1.00  0.00     0.049 A 
ATOM     56  H   UNL A   1      44.685  29.089  28.104  1.00  0.00     0.167 HD
ATOM     57  C   UNL A   1      43.563  31.458  29.167  1.00  0.00     0.074 A 
ATOM     58  C   UNL A   1      42.620  32.378  29.767  1.00  0.00     0.031 C 
ATOM     59  C   UNL A   1      44.826  31.794  28.801  1.00  0.00     0.037 A 
BRANCH  46  60
ATOM     60  C   UNL A   1      48.041  27.106  26.376  1.00  0.00     0.064 A 
ATOM     61  C   UNL A   1      48.274  27.114  24.992  1.00  0.00     0.173 A 
ATOM     62  C   UNL A   1      49.052  26.613  27.211  1.00  0.00     0.173 A 
ATOM     63  F   UNL A   1      47.326  27.551  24.149  1.00  0.00    -0.203 F 
ATOM     64  C   UNL A   1      49.463  26.619  24.465  1.00  0.00     0.198 A 
ATOM     65  C   UNL A   1      50.252  26.147  26.683  1.00  0.00     0.198 A 
ATOM     66  F   UNL A   1      48.875  26.578  28.541  1.00  0.00    -0.203 F 
ATOM     67  F   UNL A   1      49.642  26.584  23.137  1.00  0.00    -0.200 F 
ATOM     68  C   UNL A   1      50.453  26.143  25.311  1.00  0.00     0.200 A 
ATOM     69  F   UNL A   1      51.211  25.692  27.501  1.00  0.00    -0.200 F 
ATOM     70  F   UNL A   1      51.599  25.669  24.802  1.00  0.00    -0.200 F 
ENDBRANCH  46  60
BRANCH  47  71
ATOM     71  C   UNL A   1      39.263  29.877  30.240  1.00  0.00     0.064 A 
ATOM     72  C   UNL A   1      39.015  29.778  31.617  1.00  0.00     0.173 A 
ATOM     73  C   UNL A   1      38.227  30.357  29.426  1.00  0.00     0.173 A 
ATOM     74  F   UNL A   1      39.962  29.293  32.434  1.00  0.00    -0.203 F 
ATOM     75  C   UNL A   1      37.776  30.122  32.153  1.00  0.00     0.198 A 
ATOM     76  C   UNL A   1      36.996  30.726  29.967  1.00  0.00     0.198 A 
ATOM     77  F   UNL A   1      38.406  30.460  28.101  1.00  0.00    -0.203 F 
ATOM     78  F   UNL A   1      37.548  29.963  33.465  1.00  0.00    -0.200 F 
ATOM     79  C   UNL A   1      36.769  30.600  31.329  1.00  0.00     0.200 A 
ATOM     80  F   UNL A   1      36.027  31.191  29.167  1.00  0.00    -0.200 F 
ATOM     81  F   UNL A   1      35.575  30.926  31.844  1.00  0.00    -0.200 F 
ENDBRANCH  47  71
BRANCH  59  82
ATOM     82  C   UNL A   1      45.244  33.224  28.990  1.00  0.00     0.064 A 
ATOM     83  C   UNL A   1      45.893  33.660  30.154  1.00  0.00     0.173 A 
ATOM     84  C   UNL A   1      45.017  34.166  27.974  1.00  0.00     0.173 A 
ATOM     85  F   UNL A   1      46.127  32.801  31.159  1.00  0.00    -0.203 F 
ATOM     86  C   UNL A   1      46.265  34.993  30.311  1.00  0.00     0.198 A 
ATOM     87  C   UNL A   1      45.421  35.491  28.121  1.00  0.00     0.198 A 
ATOM     88  F   UNL A   1      44.412  33.801  26.835  1.00  0.00    -0.203 F 
ATOM     89  F   UNL A   1      46.833  35.397  31.456  1.00  0.00    -0.200 F 
ATOM     90  C   UNL A   1      46.034  35.905  29.293  1.00  0.00     0.200 A 
ATOM     91  F   UNL A   1      45.210  36.367  27.129  1.00  0.00    -0.200 F 
ATOM     92  F   UNL A   1      46.394  37.187  29.445  1.00  0.00    -0.200 F 
ENDBRANCH  59  82
ENDBRANCH  33  34
ENDBRANCH  26  28
ENDBRANCH  25  26
ENDBRANCH  24  25
ENDBRANCH  23  24
ENDBRANCH  22  23
ENDBRANCH  21  22
ENDBRANCH   1  21
TORSDOF 21
ENDMDL
