MODEL 1
REMARK VINA RESULT:      -9.6      0.000      0.000
REMARK SMILES CCOc1cc(OCC)cc(-c2ccc([C@@H](C)C(=O)OCCOCCOCCOC(=O)c3ccc(-c4c5nc(c(-c6c(F)c(F)c(F)c(F)c6F)c6ccc([nH]6)c(-c6c(F)c(F)c(F)c(F)c6F)c6nc(c(-c7c(F)c(F)c(F)c(F)c7F)c7ccc4[nH]7)C=C6)C=C5)cc3)cc2)c1
REMARK SMILES IDX 24 1 23 2 22 3 21 4 20 5 18 6 19 7 16 8 17 9 15 10 12 11
REMARK SMILES IDX 13 12 96 13 14 14 95 15 11 16 4 17 5 18 97 19 6 20 10 21
REMARK SMILES IDX 3 22 2 23 1 24 7 25 8 26 9 27 25 28 26 29 27 30 28 31 29 32
REMARK SMILES IDX 30 33 31 34 32 35 33 36 94 37 34 38 93 39 35 40 36 41 37 42
REMARK SMILES IDX 87 43 38 44 92 45 86 46 88 47 39 48 91 49 85 50 84 51 40 53
REMARK SMILES IDX 72 54 52 55 71 56 53 57 56 58 70 59 89 60 54 61 55 62 69 64
REMARK SMILES IDX 90 65 57 66 41 67 42 68 50 69 43 70 44 71 48 72 51 73 45 74
REMARK SMILES IDX 46 75 49 76 47 77 73 78 74 79 82 80 75 81 76 82 80 83 83 84
REMARK SMILES IDX 77 85 78 86 81 87 79 88 58 89 59 90 67 91 60 92 61 93 65 94
REMARK SMILES IDX 68 95 62 96 63 97 66 98 64 99
REMARK H PARENT 88 52 56 63
REMARK Flexibility Score: inf
ROOT
ATOM      1  C   UNL A   1      34.410  35.545  32.125  1.00  0.00     0.188 C 
ENDROOT
BRANCH   1   2
ATOM      2  O   UNL A   1      33.153  35.124  31.609  1.00  0.00    -0.376 OA
BRANCH   2   3
ATOM      3  C   UNL A   1      32.472  35.948  30.673  1.00  0.00     0.202 C 
BRANCH   3   4
ATOM      4  C   UNL A   1      32.920  35.903  29.202  1.00  0.00     0.261 C 
BRANCH   4   5
ATOM      5  O   UNL A   1      32.989  34.587  28.608  1.00  0.00    -0.463 OA
BRANCH   5   6
ATOM      6  C   UNL A   1      34.169  34.240  28.033  1.00  0.00     0.313 C 
ATOM      7  O   UNL A   1      34.744  34.939  27.200  1.00  0.00    -0.252 OA
BRANCH   6   8
ATOM      8  C   UNL A   1      34.781  32.911  28.483  1.00  0.00     0.126 C 
ATOM      9  C   UNL A   1      36.297  32.981  28.313  1.00  0.00     0.025 C 
BRANCH   8  10
ATOM     10  C   UNL A   1      34.255  31.578  27.959  1.00  0.00    -0.034 A 
ATOM     11  C   UNL A   1      33.389  29.045  26.960  1.00  0.00    -0.018 A 
ATOM     12  C   UNL A   1      32.560  30.181  26.910  1.00  0.00     0.009 A 
ATOM     13  C   UNL A   1      34.658  29.194  27.530  1.00  0.00     0.009 A 
ATOM     14  C   UNL A   1      32.988  31.431  27.384  1.00  0.00     0.005 A 
ATOM     15  C   UNL A   1      35.085  30.439  28.017  1.00  0.00     0.005 A 
BRANCH  11  16
ATOM     16  C   UNL A   1      32.975  27.779  26.328  1.00  0.00    -0.011 A 
ATOM     17  C   UNL A   1      31.624  25.760  26.199  1.00  0.00     0.123 A 
ATOM     18  C   UNL A   1      32.312  25.357  25.052  1.00  0.00     0.092 A 
ATOM     19  C   UNL A   1      31.959  26.960  26.840  1.00  0.00     0.055 A 
ATOM     20  C   UNL A   1      33.342  26.144  24.541  1.00  0.00     0.123 A 
ATOM     21  C   UNL A   1      33.663  27.340  25.183  1.00  0.00     0.055 A 
BRANCH  17  22
ATOM     22  O   UNL A   1      30.753  24.863  26.756  1.00  0.00    -0.494 OA
BRANCH  22  23
ATOM     23  C   UNL A   1      30.926  23.510  26.320  1.00  0.00     0.226 C 
ATOM     24  C   UNL A   1      29.846  22.603  26.880  1.00  0.00     0.049 C 
ENDBRANCH  22  23
ENDBRANCH  17  22
BRANCH  20  25
ATOM     25  O   UNL A   1      33.962  25.666  23.417  1.00  0.00    -0.494 OA
BRANCH  25  26
ATOM     26  C   UNL A   1      34.125  24.250  23.304  1.00  0.00     0.226 C 
ATOM     27  C   UNL A   1      35.296  23.751  24.138  1.00  0.00     0.049 C 
ENDBRANCH  25  26
ENDBRANCH  20  25
ENDBRANCH  11  16
ENDBRANCH   8  10
ENDBRANCH   6   8
ENDBRANCH   5   6
ENDBRANCH   4   5
ENDBRANCH   3   4
ENDBRANCH   2   3
ENDBRANCH   1   2
BRANCH   1  28
ATOM     28  C   UNL A   1      34.814  35.158  33.556  1.00  0.00     0.188 C 
BRANCH  28  29
ATOM     29  O   UNL A   1      36.165  34.775  33.703  1.00  0.00    -0.376 OA
BRANCH  29  30
ATOM     30  C   UNL A   1      36.397  33.488  34.240  1.00  0.00     0.202 C 
BRANCH  30  31
ATOM     31  C   UNL A   1      36.152  32.342  33.250  1.00  0.00     0.261 C 
BRANCH  31  32
ATOM     32  O   UNL A   1      37.017  31.197  33.395  1.00  0.00    -0.460 OA
BRANCH  32  33
ATOM     33  C   UNL A   1      37.137  30.390  32.321  1.00  0.00     0.338 C 
ATOM     34  O   UNL A   1      36.258  29.692  31.832  1.00  0.00    -0.246 OA
BRANCH  33  35
ATOM     35  C   UNL A   1      38.449  30.627  31.683  1.00  0.00     0.060 A 
ATOM     36  C   UNL A   1      39.589  30.758  32.491  1.00  0.00     0.016 A 
ATOM     37  C   UNL A   1      38.550  30.745  30.297  1.00  0.00     0.016 A 
ATOM     38  C   UNL A   1      40.828  31.044  31.913  1.00  0.00     0.010 A 
ATOM     39  C   UNL A   1      39.788  31.052  29.722  1.00  0.00     0.010 A 
ATOM     40  C   UNL A   1      40.926  31.239  30.529  1.00  0.00    -0.014 A 
BRANCH  40  41
ATOM     41  C   UNL A   1      42.156  31.833  29.944  1.00  0.00     0.031 A 
ATOM     42  C   UNL A   1      43.245  30.905  29.474  1.00  0.00     0.074 A 
ATOM     43  C   UNL A   1      42.311  33.163  29.822  1.00  0.00     0.049 A 
ATOM     44  N   UNL A   1      44.432  31.182  28.997  1.00  0.00    -0.248 NA
ATOM     45  C   UNL A   1      42.952  29.466  29.561  1.00  0.00     0.031 C 
ATOM     46  C   UNL A   1      41.323  34.170  30.199  1.00  0.00     0.029 A 
ATOM     47  N   UNL A   1      43.376  33.894  29.353  1.00  0.00    -0.354 N 
ATOM     48  C   UNL A   1      45.029  29.954  28.739  1.00  0.00     0.074 A 
ATOM     49  C   UNL A   1      44.088  28.932  29.142  1.00  0.00     0.031 C 
ATOM     50  C   UNL A   1      41.832  35.391  29.960  1.00  0.00     0.029 A 
ATOM     51  C   UNL A   1      43.195  35.252  29.447  1.00  0.00     0.049 A 
ATOM     52  H   UNL A   1      44.192  33.484  28.985  1.00  0.00     0.167 HD
ATOM     53  C   UNL A   1      46.248  29.701  28.205  1.00  0.00     0.037 A 
ATOM     54  C   UNL A   1      44.043  36.264  29.172  1.00  0.00     0.037 A 
ATOM     55  C   UNL A   1      47.186  30.717  27.807  1.00  0.00     0.049 A 
ATOM     56  C   UNL A   1      45.424  35.955  28.647  1.00  0.00     0.074 A 
ATOM     57  C   UNL A   1      48.441  30.561  27.244  1.00  0.00     0.029 A 
ATOM     58  N   UNL A   1      46.975  32.082  27.937  1.00  0.00    -0.354 N 
ATOM     59  N   UNL A   1      45.974  34.794  28.383  1.00  0.00    -0.248 NA
ATOM     60  C   UNL A   1      46.300  37.104  28.373  1.00  0.00     0.031 C 
ATOM     61  C   UNL A   1      49.013  31.828  27.090  1.00  0.00     0.029 A 
ATOM     62  C   UNL A   1      48.086  32.778  27.488  1.00  0.00     0.049 A 
ATOM     63  H   UNL A   1      46.156  32.495  28.296  1.00  0.00     0.167 HD
ATOM     64  C   UNL A   1      47.239  35.074  27.878  1.00  0.00     0.074 A 
ATOM     65  C   UNL A   1      47.370  36.515  27.860  1.00  0.00     0.031 C 
ATOM     66  C   UNL A   1      48.202  34.215  27.462  1.00  0.00     0.037 A 
BRANCH  53  67
ATOM     67  C   UNL A   1      46.651  28.261  28.052  1.00  0.00     0.064 A 
ATOM     68  C   UNL A   1      47.297  27.559  29.081  1.00  0.00     0.173 A 
ATOM     69  C   UNL A   1      46.359  27.567  26.868  1.00  0.00     0.173 A 
ATOM     70  F   UNL A   1      47.611  28.180  30.228  1.00  0.00    -0.203 F 
ATOM     71  C   UNL A   1      47.663  26.225  28.918  1.00  0.00     0.198 A 
ATOM     72  C   UNL A   1      46.696  26.224  26.722  1.00  0.00     0.198 A 
ATOM     73  F   UNL A   1      45.740  28.189  25.852  1.00  0.00    -0.203 F 
ATOM     74  F   UNL A   1      48.328  25.592  29.894  1.00  0.00    -0.200 F 
ATOM     75  C   UNL A   1      47.356  25.556  27.743  1.00  0.00     0.200 A 
ATOM     76  F   UNL A   1      46.386  25.576  25.590  1.00  0.00    -0.200 F 
ATOM     77  F   UNL A   1      47.702  24.272  27.591  1.00  0.00    -0.200 F 
ENDBRANCH  53  67
BRANCH  54  78
ATOM     78  C   UNL A   1      43.621  37.674  29.395  1.00  0.00     0.064 A 
ATOM     79  C   UNL A   1      42.888  38.372  28.425  1.00  0.00     0.173 A 
ATOM     80  C   UNL A   1      43.976  38.365  30.564  1.00  0.00     0.173 A 
ATOM     81  F   UNL A   1      42.550  37.768  27.277  1.00  0.00    -0.203 F 
ATOM     82  C   UNL A   1      42.546  39.712  28.606  1.00  0.00     0.198 A 
ATOM     83  C   UNL A   1      43.604  39.694  30.757  1.00  0.00     0.198 A 
ATOM     84  F   UNL A   1      44.683  37.746  31.521  1.00  0.00    -0.203 F 
ATOM     85  F   UNL A   1      41.895  40.371  27.636  1.00  0.00    -0.200 F 
ATOM     86  C   UNL A   1      42.899  40.369  29.774  1.00  0.00     0.200 A 
ATOM     87  F   UNL A   1      43.940  40.322  31.892  1.00  0.00    -0.200 F 
ATOM     88  F   UNL A   1      42.571  41.657  29.946  1.00  0.00    -0.200 F 
ENDBRANCH  54  78
BRANCH  66  89
ATOM     89  C   UNL A   1      49.463  34.807  26.893  1.00  0.00     0.064 A 
ATOM     90  C   UNL A   1      50.628  34.957  27.660  1.00  0.00     0.173 A 
ATOM     91  C   UNL A   1      49.512  35.203  25.546  1.00  0.00     0.173 A 
ATOM     92  F   UNL A   1      50.636  34.604  28.954  1.00  0.00    -0.203 F 
ATOM     93  C   UNL A   1      51.780  35.518  27.112  1.00  0.00     0.198 A 
ATOM     94  C   UNL A   1      50.675  35.728  24.992  1.00  0.00     0.198 A 
ATOM     95  F   UNL A   1      48.431  35.072  24.763  1.00  0.00    -0.203 F 
ATOM     96  F   UNL A   1      52.861  35.709  27.880  1.00  0.00    -0.200 F 
ATOM     97  C   UNL A   1      51.805  35.897  25.777  1.00  0.00     0.200 A 
ATOM     98  F   UNL A   1      50.702  36.076  23.698  1.00  0.00    -0.200 F 
ATOM     99  F   UNL A   1      52.915  36.431  25.251  1.00  0.00    -0.200 F 
ENDBRANCH  66  89
ENDBRANCH  40  41
ENDBRANCH  33  35
ENDBRANCH  32  33
ENDBRANCH  31  32
ENDBRANCH  30  31
ENDBRANCH  29  30
ENDBRANCH  28  29
ENDBRANCH   1  28
TORSDOF 23
ENDMDL
MODEL 2
REMARK VINA RESULT:      -9.5      0.766      2.359
REMARK SMILES CCOc1cc(OCC)cc(-c2ccc([C@@H](C)C(=O)OCCOCCOCCOC(=O)c3ccc(-c4c5nc(c(-c6c(F)c(F)c(F)c(F)c6F)c6ccc([nH]6)c(-c6c(F)c(F)c(F)c(F)c6F)c6nc(c(-c7c(F)c(F)c(F)c(F)c7F)c7ccc4[nH]7)C=C6)C=C5)cc3)cc2)c1
REMARK SMILES IDX 24 1 23 2 22 3 21 4 20 5 18 6 19 7 16 8 17 9 15 10 12 11
REMARK SMILES IDX 13 12 96 13 14 14 95 15 11 16 4 17 5 18 97 19 6 20 10 21
REMARK SMILES IDX 3 22 2 23 1 24 7 25 8 26 9 27 25 28 26 29 27 30 28 31 29 32
REMARK SMILES IDX 30 33 31 34 32 35 33 36 94 37 34 38 93 39 35 40 36 41 37 42
REMARK SMILES IDX 87 43 38 44 92 45 86 46 88 47 39 48 91 49 85 50 84 51 40 53
REMARK SMILES IDX 72 54 52 55 71 56 53 57 56 58 70 59 89 60 54 61 55 62 69 64
REMARK SMILES IDX 90 65 57 66 41 67 42 68 50 69 43 70 44 71 48 72 51 73 45 74
REMARK SMILES IDX 46 75 49 76 47 77 73 78 74 79 82 80 75 81 76 82 80 83 83 84
REMARK SMILES IDX 77 85 78 86 81 87 79 88 58 89 59 90 67 91 60 92 61 93 65 94
REMARK SMILES IDX 68 95 62 96 63 97 66 98 64 99
REMARK H PARENT 88 52 56 63
REMARK Flexibility Score: inf
ROOT
ATOM      1  C   UNL A   1      34.649  35.390  32.497  1.00  0.00     0.188 C 
ENDROOT
BRANCH   1   2
ATOM      2  O   UNL A   1      33.312  35.110  32.099  1.00  0.00    -0.376 OA
BRANCH   2   3
ATOM      3  C   UNL A   1      32.632  36.024  31.249  1.00  0.00     0.202 C 
BRANCH   3   4
ATOM      4  C   UNL A   1      32.837  35.895  29.730  1.00  0.00     0.261 C 
BRANCH   4   5
ATOM      5  O   UNL A   1      32.900  34.545  29.218  1.00  0.00    -0.463 OA
BRANCH   5   6
ATOM      6  C   UNL A   1      34.056  34.180  28.606  1.00  0.00     0.313 C 
ATOM      7  O   UNL A   1      34.641  34.892  27.792  1.00  0.00    -0.252 OA
BRANCH   6   8
ATOM      8  C   UNL A   1      34.626  32.811  28.988  1.00  0.00     0.126 C 
ATOM      9  C   UNL A   1      36.115  32.963  29.294  1.00  0.00     0.025 C 
BRANCH   8  10
ATOM     10  C   UNL A   1      34.393  31.583  28.114  1.00  0.00    -0.034 A 
ATOM     11  C   UNL A   1      33.833  29.309  26.477  1.00  0.00    -0.018 A 
ATOM     12  C   UNL A   1      34.979  29.368  27.290  1.00  0.00     0.009 A 
ATOM     13  C   UNL A   1      32.974  30.413  26.486  1.00  0.00     0.009 A 
ATOM     14  C   UNL A   1      35.249  30.475  28.109  1.00  0.00     0.005 A 
ATOM     15  C   UNL A   1      33.247  31.528  27.293  1.00  0.00     0.005 A 
BRANCH  11  16
ATOM     16  C   UNL A   1      33.495  28.080  25.736  1.00  0.00    -0.011 A 
ATOM     17  C   UNL A   1      32.991  26.844  23.702  1.00  0.00     0.123 A 
ATOM     18  C   UNL A   1      32.801  25.675  24.444  1.00  0.00     0.092 A 
ATOM     19  C   UNL A   1      33.327  28.042  24.344  1.00  0.00     0.055 A 
ATOM     20  C   UNL A   1      32.938  25.696  25.830  1.00  0.00     0.123 A 
ATOM     21  C   UNL A   1      33.279  26.894  26.459  1.00  0.00     0.055 A 
BRANCH  17  22
ATOM     22  O   UNL A   1      32.664  26.803  22.374  1.00  0.00    -0.494 OA
BRANCH  22  23
ATOM     23  C   UNL A   1      33.013  25.585  21.707  1.00  0.00     0.226 C 
ATOM     24  C   UNL A   1      32.530  25.580  20.268  1.00  0.00     0.049 C 
ENDBRANCH  22  23
ENDBRANCH  17  22
BRANCH  20  25
ATOM     25  O   UNL A   1      32.728  24.505  26.473  1.00  0.00    -0.494 OA
BRANCH  25  26
ATOM     26  C   UNL A   1      33.294  23.329  25.888  1.00  0.00     0.226 C 
ATOM     27  C   UNL A   1      34.572  22.907  26.600  1.00  0.00     0.049 C 
ENDBRANCH  25  26
ENDBRANCH  20  25
ENDBRANCH  11  16
ENDBRANCH   8  10
ENDBRANCH   6   8
ENDBRANCH   5   6
ENDBRANCH   4   5
ENDBRANCH   3   4
ENDBRANCH   2   3
ENDBRANCH   1   2
BRANCH   1  28
ATOM     28  C   UNL A   1      35.138  34.952  33.886  1.00  0.00     0.188 C 
BRANCH  28  29
ATOM     29  O   UNL A   1      36.467  34.476  33.919  1.00  0.00    -0.376 OA
BRANCH  29  30
ATOM     30  C   UNL A   1      36.640  33.131  34.317  1.00  0.00     0.202 C 
BRANCH  30  31
ATOM     31  C   UNL A   1      36.293  32.106  33.228  1.00  0.00     0.261 C 
BRANCH  31  32
ATOM     32  O   UNL A   1      37.082  30.900  33.234  1.00  0.00    -0.460 OA
BRANCH  32  33
ATOM     33  C   UNL A   1      37.179  30.235  32.064  1.00  0.00     0.338 C 
ATOM     34  O   UNL A   1      36.279  29.636  31.489  1.00  0.00    -0.246 OA
BRANCH  33  35
ATOM     35  C   UNL A   1      38.500  30.509  31.461  1.00  0.00     0.060 A 
ATOM     36  C   UNL A   1      39.596  30.761  32.299  1.00  0.00     0.016 A 
ATOM     37  C   UNL A   1      38.651  30.543  30.074  1.00  0.00     0.016 A 
ATOM     38  C   UNL A   1      40.839  31.084  31.750  1.00  0.00     0.010 A 
ATOM     39  C   UNL A   1      39.891  30.887  29.526  1.00  0.00     0.010 A 
ATOM     40  C   UNL A   1      40.982  31.194  30.360  1.00  0.00    -0.014 A 
BRANCH  40  41
ATOM     41  C   UNL A   1      42.199  31.823  29.783  1.00  0.00     0.031 A 
ATOM     42  C   UNL A   1      43.322  30.926  29.332  1.00  0.00     0.074 A 
ATOM     43  C   UNL A   1      42.313  33.156  29.650  1.00  0.00     0.049 A 
ATOM     44  N   UNL A   1      44.504  31.237  28.865  1.00  0.00    -0.248 NA
ATOM     45  C   UNL A   1      43.075  29.479  29.429  1.00  0.00     0.031 C 
ATOM     46  C   UNL A   1      41.288  34.133  30.009  1.00  0.00     0.029 A 
ATOM     47  N   UNL A   1      43.358  33.917  29.186  1.00  0.00    -0.354 N 
ATOM     48  C   UNL A   1      45.143  30.027  28.624  1.00  0.00     0.074 A 
ATOM     49  C   UNL A   1      44.232  28.978  29.026  1.00  0.00     0.031 C 
ATOM     50  C   UNL A   1      41.761  35.369  29.764  1.00  0.00     0.029 A 
ATOM     51  C   UNL A   1      43.132  35.269  29.266  1.00  0.00     0.049 A 
ATOM     52  H   UNL A   1      44.190  33.530  28.830  1.00  0.00     0.167 HD
ATOM     53  C   UNL A   1      46.376  29.808  28.105  1.00  0.00     0.037 A 
ATOM     54  C   UNL A   1      43.950  36.305  28.990  1.00  0.00     0.037 A 
ATOM     55  C   UNL A   1      47.284  30.851  27.707  1.00  0.00     0.049 A 
ATOM     56  C   UNL A   1      45.346  36.037  28.482  1.00  0.00     0.074 A 
ATOM     57  C   UNL A   1      48.550  30.730  27.159  1.00  0.00     0.029 A 
ATOM     58  N   UNL A   1      47.028  32.209  27.823  1.00  0.00    -0.354 N 
ATOM     59  N   UNL A   1      45.936  34.892  28.234  1.00  0.00    -0.248 NA
ATOM     60  C   UNL A   1      46.188  37.211  28.207  1.00  0.00     0.031 C 
ATOM     61  C   UNL A   1      49.082  32.014  26.999  1.00  0.00     0.029 A 
ATOM     62  C   UNL A   1      48.121  32.937  27.380  1.00  0.00     0.049 A 
ATOM     63  H   UNL A   1      46.193  32.599  28.170  1.00  0.00     0.167 HD
ATOM     64  C   UNL A   1      47.196  35.208  27.740  1.00  0.00     0.074 A 
ATOM     65  C   UNL A   1      47.281  36.652  27.711  1.00  0.00     0.031 C 
ATOM     66  C   UNL A   1      48.191  34.376  27.341  1.00  0.00     0.037 A 
BRANCH  53  67
ATOM     67  C   UNL A   1      46.825  28.381  27.968  1.00  0.00     0.064 A 
ATOM     68  C   UNL A   1      46.616  27.649  26.790  1.00  0.00     0.173 A 
ATOM     69  C   UNL A   1      47.501  27.748  29.022  1.00  0.00     0.173 A 
ATOM     70  F   UNL A   1      45.962  28.203  25.757  1.00  0.00    -0.203 F 
ATOM     71  C   UNL A   1      47.040  26.326  26.684  1.00  0.00     0.198 A 
ATOM     72  C   UNL A   1      47.954  26.437  28.900  1.00  0.00     0.198 A 
ATOM     73  F   UNL A   1      47.731  28.403  30.171  1.00  0.00    -0.203 F 
ATOM     74  F   UNL A   1      46.780  25.629  25.569  1.00  0.00    -0.200 F 
ATOM     75  C   UNL A   1      47.715  25.724  27.735  1.00  0.00     0.200 A 
ATOM     76  F   UNL A   1      48.618  25.861  29.912  1.00  0.00    -0.200 F 
ATOM     77  F   UNL A   1      48.128  24.454  27.628  1.00  0.00    -0.200 F 
ENDBRANCH  53  67
BRANCH  54  78
ATOM     78  C   UNL A   1      43.481  37.703  29.196  1.00  0.00     0.064 A 
ATOM     79  C   UNL A   1      43.805  38.411  30.362  1.00  0.00     0.173 A 
ATOM     80  C   UNL A   1      42.668  38.345  28.250  1.00  0.00     0.173 A 
ATOM     81  F   UNL A   1      44.554  37.832  31.311  1.00  0.00    -0.203 F 
ATOM     82  C   UNL A   1      43.316  39.698  30.583  1.00  0.00     0.198 A 
ATOM     83  C   UNL A   1      42.207  39.644  28.458  1.00  0.00     0.198 A 
ATOM     84  F   UNL A   1      42.322  37.710  27.120  1.00  0.00    -0.203 F 
ATOM     85  F   UNL A   1      43.593  40.329  31.733  1.00  0.00    -0.200 F 
ATOM     86  C   UNL A   1      42.522  40.315  29.628  1.00  0.00     0.200 A 
ATOM     87  F   UNL A   1      41.447  40.239  27.528  1.00  0.00    -0.200 F 
ATOM     88  F   UNL A   1      42.050  41.550  29.844  1.00  0.00    -0.200 F 
ENDBRANCH  54  78
BRANCH  66  89
ATOM     89  C   UNL A   1      49.439  35.004  26.780  1.00  0.00     0.064 A 
ATOM     90  C   UNL A   1      49.516  35.448  25.451  1.00  0.00     0.173 A 
ATOM     91  C   UNL A   1      50.565  35.189  27.597  1.00  0.00     0.173 A 
ATOM     92  F   UNL A   1      48.473  35.287  24.623  1.00  0.00    -0.203 F 
ATOM     93  C   UNL A   1      50.686  36.016  24.952  1.00  0.00     0.198 A 
ATOM     94  C   UNL A   1      51.720  35.791  27.106  1.00  0.00     0.198 A 
ATOM     95  F   UNL A   1      50.544  34.794  28.879  1.00  0.00    -0.203 F 
ATOM     96  F   UNL A   1      50.757  36.376  23.663  1.00  0.00    -0.200 F 
ATOM     97  C   UNL A   1      51.784  36.193  25.781  1.00  0.00     0.200 A 
ATOM     98  F   UNL A   1      52.773  35.978  27.914  1.00  0.00    -0.200 F 
ATOM     99  F   UNL A   1      52.907  36.744  25.300  1.00  0.00    -0.200 F 
ENDBRANCH  66  89
ENDBRANCH  40  41
ENDBRANCH  33  35
ENDBRANCH  32  33
ENDBRANCH  31  32
ENDBRANCH  30  31
ENDBRANCH  29  30
ENDBRANCH  28  29
ENDBRANCH   1  28
TORSDOF 23
ENDMDL
MODEL 3
REMARK VINA RESULT:      -9.4      7.225     11.692
REMARK SMILES CCOc1cc(OCC)cc(-c2ccc([C@@H](C)C(=O)OCCOCCOCCOC(=O)c3ccc(-c4c5nc(c(-c6c(F)c(F)c(F)c(F)c6F)c6ccc([nH]6)c(-c6c(F)c(F)c(F)c(F)c6F)c6nc(c(-c7c(F)c(F)c(F)c(F)c7F)c7ccc4[nH]7)C=C6)C=C5)cc3)cc2)c1
REMARK SMILES IDX 24 1 23 2 22 3 21 4 20 5 18 6 19 7 16 8 17 9 15 10 12 11
REMARK SMILES IDX 13 12 96 13 14 14 95 15 11 16 4 17 5 18 97 19 6 20 10 21
REMARK SMILES IDX 3 22 2 23 1 24 7 25 8 26 9 27 25 28 26 29 27 30 28 31 29 32
REMARK SMILES IDX 30 33 31 34 32 35 33 36 94 37 34 38 93 39 35 40 36 41 37 42
REMARK SMILES IDX 87 43 38 44 92 45 86 46 88 47 39 48 91 49 85 50 84 51 40 53
REMARK SMILES IDX 72 54 52 55 71 56 53 57 56 58 70 59 89 60 54 61 55 62 69 64
REMARK SMILES IDX 90 65 57 66 41 67 42 68 50 69 43 70 44 71 48 72 51 73 45 74
REMARK SMILES IDX 46 75 49 76 47 77 73 78 74 79 82 80 75 81 76 82 80 83 83 84
REMARK SMILES IDX 77 85 78 86 81 87 79 88 58 89 59 90 67 91 60 92 61 93 65 94
REMARK SMILES IDX 68 95 62 96 63 97 66 98 64 99
REMARK H PARENT 88 52 56 63
REMARK Flexibility Score: inf
ROOT
ATOM      1  C   UNL A   1      33.249  37.206  31.605  1.00  0.00     0.188 C 
ENDROOT
BRANCH   1   2
ATOM      2  O   UNL A   1      32.459  36.513  30.645  1.00  0.00    -0.376 OA
BRANCH   2   3
ATOM      3  C   UNL A   1      32.968  36.320  29.332  1.00  0.00     0.202 C 
BRANCH   3   4
ATOM      4  C   UNL A   1      34.224  35.450  29.159  1.00  0.00     0.261 C 
BRANCH   4   5
ATOM      5  O   UNL A   1      33.988  34.032  29.007  1.00  0.00    -0.463 OA
BRANCH   5   6
ATOM      6  C   UNL A   1      34.862  33.351  28.222  1.00  0.00     0.313 C 
ATOM      7  O   UNL A   1      35.559  33.890  27.365  1.00  0.00    -0.252 OA
BRANCH   6   8
ATOM      8  C   UNL A   1      34.958  31.841  28.461  1.00  0.00     0.126 C 
ATOM      9  C   UNL A   1      36.425  31.422  28.397  1.00  0.00     0.025 C 
BRANCH   8  10
ATOM     10  C   UNL A   1      34.096  30.858  27.674  1.00  0.00    -0.034 A 
ATOM     11  C   UNL A   1      32.381  29.080  26.239  1.00  0.00    -0.018 A 
ATOM     12  C   UNL A   1      33.663  28.686  26.662  1.00  0.00     0.009 A 
ATOM     13  C   UNL A   1      31.973  30.384  26.535  1.00  0.00     0.009 A 
ATOM     14  C   UNL A   1      34.502  29.551  27.383  1.00  0.00     0.005 A 
ATOM     15  C   UNL A   1      32.814  31.256  27.243  1.00  0.00     0.005 A 
BRANCH  11  16
ATOM     16  C   UNL A   1      31.463  28.112  25.611  1.00  0.00    -0.011 A 
ATOM     17  C   UNL A   1      29.936  27.395  23.858  1.00  0.00     0.123 A 
ATOM     18  C   UNL A   1      29.693  26.201  24.540  1.00  0.00     0.092 A 
ATOM     19  C   UNL A   1      30.808  28.351  24.394  1.00  0.00     0.055 A 
ATOM     20  C   UNL A   1      30.313  25.954  25.763  1.00  0.00     0.123 A 
ATOM     21  C   UNL A   1      31.185  26.910  26.285  1.00  0.00     0.055 A 
BRANCH  17  22
ATOM     22  O   UNL A   1      29.162  27.659  22.760  1.00  0.00    -0.494 OA
BRANCH  22  23
ATOM     23  C   UNL A   1      28.871  29.044  22.550  1.00  0.00     0.226 C 
ATOM     24  C   UNL A   1      27.498  29.412  23.082  1.00  0.00     0.049 C 
ENDBRANCH  22  23
ENDBRANCH  17  22
BRANCH  20  25
ATOM     25  O   UNL A   1      30.011  24.760  26.361  1.00  0.00    -0.494 OA
BRANCH  25  26
ATOM     26  C   UNL A   1      31.100  23.912  26.732  1.00  0.00     0.226 C 
ATOM     27  C   UNL A   1      30.995  22.543  26.076  1.00  0.00     0.049 C 
ENDBRANCH  25  26
ENDBRANCH  20  25
ENDBRANCH  11  16
ENDBRANCH   8  10
ENDBRANCH   6   8
ENDBRANCH   5   6
ENDBRANCH   4   5
ENDBRANCH   3   4
ENDBRANCH   2   3
ENDBRANCH   1   2
BRANCH   1  28
ATOM     28  C   UNL A   1      33.911  36.428  32.752  1.00  0.00     0.188 C 
BRANCH  28  29
ATOM     29  O   UNL A   1      33.469  35.095  32.891  1.00  0.00    -0.376 OA
BRANCH  29  30
ATOM     30  C   UNL A   1      34.463  34.132  33.177  1.00  0.00     0.202 C 
BRANCH  30  31
ATOM     31  C   UNL A   1      34.444  32.914  32.243  1.00  0.00     0.261 C 
BRANCH  31  32
ATOM     32  O   UNL A   1      35.657  32.135  32.209  1.00  0.00    -0.460 OA
BRANCH  32  33
ATOM     33  C   UNL A   1      36.799  32.808  31.960  1.00  0.00     0.338 C 
ATOM     34  O   UNL A   1      36.990  33.615  31.060  1.00  0.00    -0.246 OA
BRANCH  33  35
ATOM     35  C   UNL A   1      37.746  32.579  33.072  1.00  0.00     0.060 A 
ATOM     36  C   UNL A   1      39.046  33.098  32.982  1.00  0.00     0.016 A 
ATOM     37  C   UNL A   1      37.360  31.834  34.187  1.00  0.00     0.016 A 
ATOM     38  C   UNL A   1      39.975  32.840  33.993  1.00  0.00     0.010 A 
ATOM     39  C   UNL A   1      38.297  31.559  35.188  1.00  0.00     0.010 A 
ATOM     40  C   UNL A   1      39.620  32.030  35.080  1.00  0.00    -0.014 A 
BRANCH  40  41
ATOM     41  C   UNL A   1      40.667  31.504  35.994  1.00  0.00     0.031 A 
ATOM     42  C   UNL A   1      41.043  32.326  37.198  1.00  0.00     0.074 A 
ATOM     43  C   UNL A   1      41.272  30.324  35.774  1.00  0.00     0.049 A 
ATOM     44  N   UNL A   1      41.970  32.116  38.098  1.00  0.00    -0.248 NA
ATOM     45  C   UNL A   1      40.266  33.558  37.411  1.00  0.00     0.031 C 
ATOM     46  C   UNL A   1      40.976  29.413  34.671  1.00  0.00     0.029 A 
ATOM     47  N   UNL A   1      42.277  29.697  36.469  1.00  0.00    -0.354 N 
ATOM     48  C   UNL A   1      41.895  33.193  38.973  1.00  0.00     0.074 A 
ATOM     49  C   UNL A   1      40.855  34.069  38.480  1.00  0.00     0.031 C 
ATOM     50  C   UNL A   1      41.793  28.348  34.755  1.00  0.00     0.029 A 
ATOM     51  C   UNL A   1      42.692  28.520  35.896  1.00  0.00     0.049 A 
ATOM     52  H   UNL A   1      42.664  30.058  37.299  1.00  0.00     0.167 HD
ATOM     53  C   UNL A   1      42.621  33.426  40.093  1.00  0.00     0.037 A 
ATOM     54  C   UNL A   1      43.697  27.691  36.243  1.00  0.00     0.037 A 
ATOM     55  C   UNL A   1      43.658  32.556  40.583  1.00  0.00     0.049 A 
ATOM     56  C   UNL A   1      44.540  28.009  37.453  1.00  0.00     0.074 A 
ATOM     57  C   UNL A   1      44.441  32.699  41.716  1.00  0.00     0.029 A 
ATOM     58  N   UNL A   1      44.063  31.383  39.964  1.00  0.00    -0.354 N 
ATOM     59  N   UNL A   1      44.450  29.015  38.290  1.00  0.00    -0.248 NA
ATOM     60  C   UNL A   1      45.624  27.067  37.771  1.00  0.00     0.031 C 
ATOM     61  C   UNL A   1      45.360  31.645  41.749  1.00  0.00     0.029 A 
ATOM     62  C   UNL A   1      45.102  30.805  40.677  1.00  0.00     0.049 A 
ATOM     63  H   UNL A   1      43.671  31.015  39.139  1.00  0.00     0.167 HD
ATOM     64  C   UNL A   1      45.433  28.807  39.250  1.00  0.00     0.074 A 
ATOM     65  C   UNL A   1      46.101  27.571  38.900  1.00  0.00     0.031 C 
ATOM     66  C   UNL A   1      45.751  29.567  40.328  1.00  0.00     0.037 A 
BRANCH  53  67
ATOM     67  C   UNL A   1      42.338  34.693  40.849  1.00  0.00     0.064 A 
ATOM     68  C   UNL A   1      42.996  35.896  40.550  1.00  0.00     0.173 A 
ATOM     69  C   UNL A   1      41.374  34.710  41.869  1.00  0.00     0.173 A 
ATOM     70  F   UNL A   1      43.937  35.932  39.594  1.00  0.00    -0.203 F 
ATOM     71  C   UNL A   1      42.720  37.060  41.264  1.00  0.00     0.198 A 
ATOM     72  C   UNL A   1      41.077  35.882  42.557  1.00  0.00     0.198 A 
ATOM     73  F   UNL A   1      40.713  33.588  42.195  1.00  0.00    -0.203 F 
ATOM     74  F   UNL A   1      43.400  38.183  40.998  1.00  0.00    -0.200 F 
ATOM     75  C   UNL A   1      41.757  37.055  42.261  1.00  0.00     0.200 A 
ATOM     76  F   UNL A   1      40.136  35.878  43.511  1.00  0.00    -0.200 F 
ATOM     77  F   UNL A   1      41.488  38.177  42.942  1.00  0.00    -0.200 F 
ENDBRANCH  53  67
BRANCH  54  78
ATOM     78  C   UNL A   1      43.978  26.477  35.429  1.00  0.00     0.064 A 
ATOM     79  C   UNL A   1      43.306  25.270  35.673  1.00  0.00     0.173 A 
ATOM     80  C   UNL A   1      44.951  26.486  34.417  1.00  0.00     0.173 A 
ATOM     81  F   UNL A   1      42.389  25.200  36.649  1.00  0.00    -0.203 F 
ATOM     82  C   UNL A   1      43.612  24.116  34.954  1.00  0.00     0.198 A 
ATOM     83  C   UNL A   1      45.232  25.339  33.677  1.00  0.00     0.198 A 
ATOM     84  F   UNL A   1      45.628  27.611  34.148  1.00  0.00    -0.203 F 
ATOM     85  F   UNL A   1      42.996  22.963  35.249  1.00  0.00    -0.200 F 
ATOM     86  C   UNL A   1      44.571  24.153  33.952  1.00  0.00     0.200 A 
ATOM     87  F   UNL A   1      46.153  25.383  32.704  1.00  0.00    -0.200 F 
ATOM     88  F   UNL A   1      44.865  23.043  33.263  1.00  0.00    -0.200 F 
ENDBRANCH  54  78
BRANCH  66  89
ATOM     89  C   UNL A   1      46.830  29.057  41.245  1.00  0.00     0.064 A 
ATOM     90  C   UNL A   1      46.537  28.308  42.395  1.00  0.00     0.173 A 
ATOM     91  C   UNL A   1      48.181  29.298  40.949  1.00  0.00     0.173 A 
ATOM     92  F   UNL A   1      45.263  28.056  42.731  1.00  0.00    -0.203 F 
ATOM     93  C   UNL A   1      47.553  27.856  43.234  1.00  0.00     0.198 A 
ATOM     94  C   UNL A   1      49.195  28.814  41.770  1.00  0.00     0.198 A 
ATOM     95  F   UNL A   1      48.519  29.999  39.857  1.00  0.00    -0.203 F 
ATOM     96  F   UNL A   1      47.247  27.196  44.360  1.00  0.00    -0.200 F 
ATOM     97  C   UNL A   1      48.881  28.103  42.918  1.00  0.00     0.200 A 
ATOM     98  F   UNL A   1      50.478  29.038  41.451  1.00  0.00    -0.200 F 
ATOM     99  F   UNL A   1      49.857  27.663  43.724  1.00  0.00    -0.200 F 
ENDBRANCH  66  89
ENDBRANCH  40  41
ENDBRANCH  33  35
ENDBRANCH  32  33
ENDBRANCH  31  32
ENDBRANCH  30  31
ENDBRANCH  29  30
ENDBRANCH  28  29
ENDBRANCH   1  28
TORSDOF 23
ENDMDL
