MODEL 1
REMARK VINA RESULT:     -11.7      0.000      0.000
REMARK SMILES O=C(OCCOCCOCCOC(=O)[C@@H](c1ccsc1)[NH+]1CCC(Oc2cccnc2)CC1)c1ccc(-c2c3nc(c(-c4c(F)c(F)c(F)c(F)c4F)c4ccc([nH]4)c(-c4c(F)c(F)c(F)c(F)c4F)c4nc(c(-c5c(F)c(F)c(F)c(F)c5F)c5ccc2[nH]5)C=C4)C=C3)cc1
REMARK SMILES IDX 8 1 7 2 6 3 5 4 4 5 3 6 2 7 1 8 34 9 35 10 96 11 36 12 95 13
REMARK SMILES IDX 37 14 38 15 39 16 89 17 40 18 94 19 88 20 90 21 41 22 93 23
REMARK SMILES IDX 87 24 86 25 42 27 74 28 54 29 73 30 55 31 58 32 72 33 91 34
REMARK SMILES IDX 56 35 57 36 71 38 92 39 59 40 43 41 44 42 52 43 45 44 46 45
REMARK SMILES IDX 50 46 53 47 47 48 48 49 51 50 49 51 75 52 76 53 84 54 77 55
REMARK SMILES IDX 78 56 82 57 85 58 79 59 80 60 83 61 81 62 60 63 61 64 69 65
REMARK SMILES IDX 62 66 63 67 67 68 70 69 64 70 65 71 68 72 66 73 9 74 10 75
REMARK SMILES IDX 11 76 12 77 13 78 14 79 15 80 16 81 17 82 20 83 18 84 19 85
REMARK SMILES IDX 21 86 22 87 33 88 23 90 32 91 24 92 25 93 26 94 27 95 31 96
REMARK SMILES IDX 28 97 30 98 29 99
REMARK H PARENT 90 26 58 37 21 89
REMARK Flexibility Score: inf
ROOT
ATOM      1  C   UNL A   1      40.796  20.906  26.876  1.00  0.00     0.188 C 
ENDROOT
BRANCH   1   2
ATOM      2  C   UNL A   1      41.263  19.646  26.141  1.00  0.00     0.188 C 
BRANCH   2   3
ATOM      3  O   UNL A   1      42.474  19.825  25.392  1.00  0.00    -0.376 OA
BRANCH   3   4
ATOM      4  C   UNL A   1      43.270  20.917  25.873  1.00  0.00     0.202 C 
BRANCH   4   5
ATOM      5  C   UNL A   1      43.998  21.733  24.796  1.00  0.00     0.261 C 
BRANCH   5   6
ATOM      6  O   UNL A   1      43.487  23.061  24.633  1.00  0.00    -0.460 OA
BRANCH   6   7
ATOM      7  C   UNL A   1      44.046  24.238  24.990  1.00  0.00     0.338 C 
ATOM      8  O   UNL A   1      45.121  24.539  24.461  1.00  0.00    -0.246 OA
BRANCH   7   9
ATOM      9  C   UNL A   1      43.488  25.189  26.012  1.00  0.00     0.060 A 
ATOM     10  C   UNL A   1      43.841  26.531  26.196  1.00  0.00     0.016 A 
ATOM     11  C   UNL A   1      42.450  24.686  26.816  1.00  0.00     0.016 A 
ATOM     12  C   UNL A   1      43.185  27.351  27.118  1.00  0.00     0.010 A 
ATOM     13  C   UNL A   1      41.761  25.510  27.713  1.00  0.00     0.010 A 
ATOM     14  C   UNL A   1      42.131  26.851  27.874  1.00  0.00    -0.014 A 
BRANCH  14  15
ATOM     15  C   UNL A   1      41.577  27.653  28.985  1.00  0.00     0.031 A 
ATOM     16  C   UNL A   1      42.263  27.523  30.311  1.00  0.00     0.074 A 
ATOM     17  C   UNL A   1      40.557  28.516  28.820  1.00  0.00     0.049 A 
ATOM     18  N   UNL A   1      41.978  28.079  31.457  1.00  0.00    -0.248 NA
ATOM     19  C   UNL A   1      43.449  26.646  30.346  1.00  0.00     0.031 C 
ATOM     20  C   UNL A   1      39.882  28.812  27.556  1.00  0.00     0.029 A 
ATOM     21  N   UNL A   1      39.909  29.315  29.732  1.00  0.00    -0.354 N 
ATOM     22  C   UNL A   1      42.957  27.632  32.332  1.00  0.00     0.074 A 
ATOM     23  C   UNL A   1      43.776  26.680  31.624  1.00  0.00     0.031 C 
ATOM     24  C   UNL A   1      38.902  29.705  27.782  1.00  0.00     0.029 A 
ATOM     25  C   UNL A   1      38.850  30.012  29.203  1.00  0.00     0.049 A 
ATOM     26  H   UNL A   1      40.179  29.380  30.676  1.00  0.00     0.167 HD
ATOM     27  C   UNL A   1      43.192  28.028  33.601  1.00  0.00     0.037 A 
ATOM     28  C   UNL A   1      37.934  30.793  29.806  1.00  0.00     0.037 A 
ATOM     29  C   UNL A   1      42.374  28.973  34.298  1.00  0.00     0.049 A 
ATOM     30  C   UNL A   1      38.100  31.074  31.275  1.00  0.00     0.074 A 
ATOM     31  C   UNL A   1      42.498  29.437  35.592  1.00  0.00     0.029 A 
ATOM     32  N   UNL A   1      41.259  29.593  33.746  1.00  0.00    -0.354 N 
ATOM     33  N   UNL A   1      39.041  30.665  32.092  1.00  0.00    -0.248 NA
ATOM     34  C   UNL A   1      37.102  31.954  31.899  1.00  0.00     0.031 C 
ATOM     35  C   UNL A   1      41.425  30.298  35.843  1.00  0.00     0.029 A 
ATOM     36  C   UNL A   1      40.668  30.417  34.686  1.00  0.00     0.049 A 
ATOM     37  H   UNL A   1      40.939  29.465  32.825  1.00  0.00     0.167 HD
ATOM     38  C   UNL A   1      38.789  31.287  33.306  1.00  0.00     0.074 A 
ATOM     39  C   UNL A   1      37.596  32.089  33.122  1.00  0.00     0.031 C 
ATOM     40  C   UNL A   1      39.492  31.218  34.462  1.00  0.00     0.037 A 
BRANCH  27  41
ATOM     41  C   UNL A   1      44.373  27.405  34.280  1.00  0.00     0.064 A 
ATOM     42  C   UNL A   1      44.250  26.215  35.018  1.00  0.00     0.173 A 
ATOM     43  C   UNL A   1      45.615  28.052  34.275  1.00  0.00     0.173 A 
ATOM     44  F   UNL A   1      43.070  25.580  35.086  1.00  0.00    -0.203 F 
ATOM     45  C   UNL A   1      45.316  25.726  35.768  1.00  0.00     0.198 A 
ATOM     46  C   UNL A   1      46.688  27.541  34.999  1.00  0.00     0.198 A 
ATOM     47  F   UNL A   1      45.778  29.197  33.597  1.00  0.00    -0.203 F 
ATOM     48  F   UNL A   1      45.149  24.641  36.537  1.00  0.00    -0.200 F 
ATOM     49  C   UNL A   1      46.534  26.388  35.757  1.00  0.00     0.200 A 
ATOM     50  F   UNL A   1      47.865  28.181  34.989  1.00  0.00    -0.200 F 
ATOM     51  F   UNL A   1      47.553  25.929  36.495  1.00  0.00    -0.200 F 
ENDBRANCH  27  41
BRANCH  28  52
ATOM     52  C   UNL A   1      36.773  31.357  29.062  1.00  0.00     0.064 A 
ATOM     53  C   UNL A   1      36.697  32.720  28.744  1.00  0.00     0.173 A 
ATOM     54  C   UNL A   1      35.665  30.557  28.747  1.00  0.00     0.173 A 
ATOM     55  F   UNL A   1      37.719  33.533  29.050  1.00  0.00    -0.203 F 
ATOM     56  C   UNL A   1      35.548  33.269  28.172  1.00  0.00     0.198 A 
ATOM     57  C   UNL A   1      34.517  31.106  28.172  1.00  0.00     0.198 A 
ATOM     58  F   UNL A   1      35.687  29.242  29.010  1.00  0.00    -0.203 F 
ATOM     59  F   UNL A   1      35.487  34.585  27.929  1.00  0.00    -0.200 F 
ATOM     60  C   UNL A   1      34.456  32.461  27.891  1.00  0.00     0.200 A 
ATOM     61  F   UNL A   1      33.474  30.315  27.883  1.00  0.00    -0.200 F 
ATOM     62  F   UNL A   1      33.345  32.986  27.357  1.00  0.00    -0.200 F 
ENDBRANCH  28  52
BRANCH  40  63
ATOM     63  C   UNL A   1      39.034  32.087  35.593  1.00  0.00     0.064 A 
ATOM     64  C   UNL A   1      38.247  31.588  36.639  1.00  0.00     0.173 A 
ATOM     65  C   UNL A   1      39.446  33.427  35.655  1.00  0.00     0.173 A 
ATOM     66  F   UNL A   1      37.813  30.318  36.612  1.00  0.00    -0.203 F 
ATOM     67  C   UNL A   1      37.875  32.405  37.701  1.00  0.00     0.198 A 
ATOM     68  C   UNL A   1      39.102  34.231  36.736  1.00  0.00     0.198 A 
ATOM     69  F   UNL A   1      40.202  33.949  34.678  1.00  0.00    -0.203 F 
ATOM     70  F   UNL A   1      37.084  31.922  38.669  1.00  0.00    -0.200 F 
ATOM     71  C   UNL A   1      38.312  33.722  37.755  1.00  0.00     0.200 A 
ATOM     72  F   UNL A   1      39.541  35.495  36.794  1.00  0.00    -0.200 F 
ATOM     73  F   UNL A   1      37.967  34.502  38.788  1.00  0.00    -0.200 F 
ENDBRANCH  40  63
ENDBRANCH  14  15
ENDBRANCH   7   9
ENDBRANCH   6   7
ENDBRANCH   5   6
ENDBRANCH   4   5
ENDBRANCH   3   4
ENDBRANCH   2   3
ENDBRANCH   1   2
BRANCH   1  74
ATOM     74  O   UNL A   1      39.644  21.572  26.376  1.00  0.00    -0.376 OA
BRANCH  74  75
ATOM     75  C   UNL A   1      39.315  22.841  26.917  1.00  0.00     0.202 C 
BRANCH  75  76
ATOM     76  C   UNL A   1      38.433  23.811  26.118  1.00  0.00     0.261 C 
BRANCH  76  77
ATOM     77  O   UNL A   1      37.042  23.901  26.463  1.00  0.00    -0.459 OA
BRANCH  77  78
ATOM     78  C   UNL A   1      36.194  23.826  25.387  1.00  0.00     0.370 C 
ATOM     79  O   UNL A   1      36.585  23.706  24.228  1.00  0.00    -0.245 OA
BRANCH  78  80
ATOM     80  C   UNL A   1      34.715  24.086  25.737  1.00  0.00     0.327 C 
BRANCH  80  81
ATOM     81  C   UNL A   1      34.067  25.386  25.255  1.00  0.00     0.032 A 
ATOM     82  C   UNL A   1      33.540  26.429  26.126  1.00  0.00     0.022 A 
ATOM     83  C   UNL A   1      34.002  25.850  23.954  1.00  0.00     0.075 A 
ATOM     84  C   UNL A   1      33.139  27.568  25.473  1.00  0.00     0.065 A 
ATOM     85  S   UNL A   1      33.685  27.528  23.874  1.00  0.00    -0.152 S 
ENDBRANCH  80  81
BRANCH  80  86
ATOM     86  N   UNL A   1      33.906  22.853  25.602  1.00  0.00    -0.319 N 
ATOM     87  C   UNL A   1      34.643  21.613  25.703  1.00  0.00     0.267 C 
ATOM     88  C   UNL A   1      32.551  22.788  26.132  1.00  0.00     0.267 C 
ATOM     89  H   UNL A   1      33.669  22.986  24.618  1.00  0.00     0.349 HD
ATOM     90  C   UNL A   1      33.935  20.517  24.959  1.00  0.00     0.107 C 
ATOM     91  C   UNL A   1      31.752  21.709  25.376  1.00  0.00     0.107 C 
ATOM     92  C   UNL A   1      32.476  20.359  25.370  1.00  0.00     0.184 C 
BRANCH  92  93
ATOM     93  O   UNL A   1      31.781  19.323  24.634  1.00  0.00    -0.488 OA
BRANCH  93  94
ATOM     94  C   UNL A   1      32.533  18.211  24.371  1.00  0.00     0.138 A 
ATOM     95  C   UNL A   1      32.928  17.336  25.381  1.00  0.00     0.050 A 
ATOM     96  C   UNL A   1      32.924  17.923  23.075  1.00  0.00     0.157 A 
ATOM     97  C   UNL A   1      33.842  16.327  25.090  1.00  0.00     0.024 A 
ATOM     98  N   UNL A   1      33.775  16.921  22.751  1.00  0.00    -0.261 NA
ATOM     99  C   UNL A   1      34.240  16.168  23.774  1.00  0.00     0.111 A 
ENDBRANCH  93  94
ENDBRANCH  92  93
ENDBRANCH  80  86
ENDBRANCH  78  80
ENDBRANCH  77  78
ENDBRANCH  76  77
ENDBRANCH  75  76
ENDBRANCH  74  75
ENDBRANCH   1  74
TORSDOF 21
ENDMDL
MODEL 2
REMARK VINA RESULT:     -11.0      1.880      4.061
REMARK SMILES O=C(OCCOCCOCCOC(=O)[C@@H](c1ccsc1)[NH+]1CCC(Oc2cccnc2)CC1)c1ccc(-c2c3nc(c(-c4c(F)c(F)c(F)c(F)c4F)c4ccc([nH]4)c(-c4c(F)c(F)c(F)c(F)c4F)c4nc(c(-c5c(F)c(F)c(F)c(F)c5F)c5ccc2[nH]5)C=C4)C=C3)cc1
REMARK SMILES IDX 8 1 7 2 6 3 5 4 4 5 3 6 2 7 1 8 34 9 35 10 96 11 36 12 95 13
REMARK SMILES IDX 37 14 38 15 39 16 89 17 40 18 94 19 88 20 90 21 41 22 93 23
REMARK SMILES IDX 87 24 86 25 42 27 74 28 54 29 73 30 55 31 58 32 72 33 91 34
REMARK SMILES IDX 56 35 57 36 71 38 92 39 59 40 43 41 44 42 52 43 45 44 46 45
REMARK SMILES IDX 50 46 53 47 47 48 48 49 51 50 49 51 75 52 76 53 84 54 77 55
REMARK SMILES IDX 78 56 82 57 85 58 79 59 80 60 83 61 81 62 60 63 61 64 69 65
REMARK SMILES IDX 62 66 63 67 67 68 70 69 64 70 65 71 68 72 66 73 9 74 10 75
REMARK SMILES IDX 11 76 12 77 13 78 14 79 15 80 16 81 17 82 20 83 18 84 19 85
REMARK SMILES IDX 21 86 22 87 33 88 23 90 32 91 24 92 25 93 26 94 27 95 31 96
REMARK SMILES IDX 28 97 30 98 29 99
REMARK H PARENT 90 26 58 37 21 89
REMARK Flexibility Score: inf
ROOT
ATOM      1  C   UNL A   1      40.023  21.843  26.582  1.00  0.00     0.188 C 
ENDROOT
BRANCH   1   2
ATOM      2  C   UNL A   1      40.961  20.655  26.817  1.00  0.00     0.188 C 
BRANCH   2   3
ATOM      3  O   UNL A   1      41.927  20.462  25.773  1.00  0.00    -0.376 OA
BRANCH   3   4
ATOM      4  C   UNL A   1      43.203  21.039  26.083  1.00  0.00     0.202 C 
BRANCH   4   5
ATOM      5  C   UNL A   1      43.925  21.723  24.914  1.00  0.00     0.261 C 
BRANCH   5   6
ATOM      6  O   UNL A   1      43.467  23.055  24.653  1.00  0.00    -0.460 OA
BRANCH   6   7
ATOM      7  C   UNL A   1      44.027  24.233  25.010  1.00  0.00     0.338 C 
ATOM      8  O   UNL A   1      45.106  24.529  24.489  1.00  0.00    -0.246 OA
BRANCH   7   9
ATOM      9  C   UNL A   1      43.465  25.189  26.025  1.00  0.00     0.060 A 
ATOM     10  C   UNL A   1      43.810  26.534  26.199  1.00  0.00     0.016 A 
ATOM     11  C   UNL A   1      42.429  24.687  26.833  1.00  0.00     0.016 A 
ATOM     12  C   UNL A   1      43.150  27.357  27.115  1.00  0.00     0.010 A 
ATOM     13  C   UNL A   1      41.736  25.513  27.724  1.00  0.00     0.010 A 
ATOM     14  C   UNL A   1      42.099  26.858  27.875  1.00  0.00    -0.014 A 
BRANCH  14  15
ATOM     15  C   UNL A   1      41.541  27.665  28.980  1.00  0.00     0.031 A 
ATOM     16  C   UNL A   1      42.225  27.545  30.308  1.00  0.00     0.074 A 
ATOM     17  C   UNL A   1      40.519  28.525  28.808  1.00  0.00     0.049 A 
ATOM     18  N   UNL A   1      41.937  28.108  31.450  1.00  0.00    -0.248 NA
ATOM     19  C   UNL A   1      43.412  26.671  30.351  1.00  0.00     0.031 C 
ATOM     20  C   UNL A   1      39.846  28.812  27.541  1.00  0.00     0.029 A 
ATOM     21  N   UNL A   1      39.868  29.328  29.713  1.00  0.00    -0.354 N 
ATOM     22  C   UNL A   1      42.914  27.669  32.329  1.00  0.00     0.074 A 
ATOM     23  C   UNL A   1      43.737  26.714  31.629  1.00  0.00     0.031 C 
ATOM     24  C   UNL A   1      38.864  29.704  27.759  1.00  0.00     0.029 A 
ATOM     25  C   UNL A   1      38.809  30.019  29.178  1.00  0.00     0.049 A 
ATOM     26  H   UNL A   1      40.136  29.400  30.658  1.00  0.00     0.167 HD
ATOM     27  C   UNL A   1      43.147  28.072  33.597  1.00  0.00     0.037 A 
ATOM     28  C   UNL A   1      37.889  30.802  29.775  1.00  0.00     0.037 A 
ATOM     29  C   UNL A   1      42.325  29.020  34.286  1.00  0.00     0.049 A 
ATOM     30  C   UNL A   1      38.052  31.093  31.242  1.00  0.00     0.074 A 
ATOM     31  C   UNL A   1      42.445  29.492  35.577  1.00  0.00     0.029 A 
ATOM     32  N   UNL A   1      41.210  29.634  33.729  1.00  0.00    -0.354 N 
ATOM     33  N   UNL A   1      38.992  30.691  32.063  1.00  0.00    -0.248 NA
ATOM     34  C   UNL A   1      37.051  31.974  31.859  1.00  0.00     0.031 C 
ATOM     35  C   UNL A   1      41.370  30.353  35.821  1.00  0.00     0.029 A 
ATOM     36  C   UNL A   1      40.615  30.463  34.662  1.00  0.00     0.049 A 
ATOM     37  H   UNL A   1      40.892  29.500  32.808  1.00  0.00     0.167 HD
ATOM     38  C   UNL A   1      38.736  31.320  33.273  1.00  0.00     0.074 A 
ATOM     39  C   UNL A   1      37.542  32.118  33.082  1.00  0.00     0.031 C 
ATOM     40  C   UNL A   1      39.438  31.260  34.431  1.00  0.00     0.037 A 
BRANCH  27  41
ATOM     41  C   UNL A   1      44.328  27.456  34.282  1.00  0.00     0.064 A 
ATOM     42  C   UNL A   1      45.588  28.077  34.268  1.00  0.00     0.173 A 
ATOM     43  C   UNL A   1      44.222  26.191  34.873  1.00  0.00     0.173 A 
ATOM     44  F   UNL A   1      45.748  29.272  33.679  1.00  0.00    -0.203 F 
ATOM     45  C   UNL A   1      46.710  27.428  34.775  1.00  0.00     0.198 A 
ATOM     46  C   UNL A   1      45.340  25.560  35.410  1.00  0.00     0.198 A 
ATOM     47  F   UNL A   1      43.043  25.553  34.898  1.00  0.00    -0.203 F 
ATOM     48  F   UNL A   1      47.918  27.999  34.669  1.00  0.00    -0.200 F 
ATOM     49  C   UNL A   1      46.585  26.171  35.347  1.00  0.00     0.200 A 
ATOM     50  F   UNL A   1      45.219  24.345  35.962  1.00  0.00    -0.200 F 
ATOM     51  F   UNL A   1      47.668  25.538  35.817  1.00  0.00    -0.200 F 
ENDBRANCH  27  41
BRANCH  28  52
ATOM     52  C   UNL A   1      36.729  31.359  29.025  1.00  0.00     0.064 A 
ATOM     53  C   UNL A   1      36.632  32.726  28.731  1.00  0.00     0.173 A 
ATOM     54  C   UNL A   1      35.640  30.545  28.680  1.00  0.00     0.173 A 
ATOM     55  F   UNL A   1      37.635  33.551  29.066  1.00  0.00    -0.203 F 
ATOM     56  C   UNL A   1      35.481  33.264  28.153  1.00  0.00     0.198 A 
ATOM     57  C   UNL A   1      34.490  31.084  28.099  1.00  0.00     0.198 A 
ATOM     58  F   UNL A   1      35.682  29.226  28.919  1.00  0.00    -0.203 F 
ATOM     59  F   UNL A   1      35.399  34.583  27.933  1.00  0.00    -0.200 F 
ATOM     60  C   UNL A   1      34.408  32.443  27.842  1.00  0.00     0.200 A 
ATOM     61  F   UNL A   1      33.465  30.280  27.781  1.00  0.00    -0.200 F 
ATOM     62  F   UNL A   1      33.295  32.957  27.302  1.00  0.00    -0.200 F 
ENDBRANCH  28  52
BRANCH  40  63
ATOM     63  C   UNL A   1      38.975  32.135  35.556  1.00  0.00     0.064 A 
ATOM     64  C   UNL A   1      38.200  31.637  36.610  1.00  0.00     0.173 A 
ATOM     65  C   UNL A   1      39.373  33.480  35.602  1.00  0.00     0.173 A 
ATOM     66  F   UNL A   1      37.780  30.362  36.598  1.00  0.00    -0.203 F 
ATOM     67  C   UNL A   1      37.823  32.461  37.666  1.00  0.00     0.198 A 
ATOM     68  C   UNL A   1      39.025  34.290  36.677  1.00  0.00     0.198 A 
ATOM     69  F   UNL A   1      40.118  34.000  34.616  1.00  0.00    -0.203 F 
ATOM     70  F   UNL A   1      37.043  31.979  38.643  1.00  0.00    -0.200 F 
ATOM     71  C   UNL A   1      38.246  33.783  37.704  1.00  0.00     0.200 A 
ATOM     72  F   UNL A   1      39.450  35.560  36.720  1.00  0.00    -0.200 F 
ATOM     73  F   UNL A   1      37.898  34.569  38.732  1.00  0.00    -0.200 F 
ENDBRANCH  40  63
ENDBRANCH  14  15
ENDBRANCH   7   9
ENDBRANCH   6   7
ENDBRANCH   5   6
ENDBRANCH   4   5
ENDBRANCH   3   4
ENDBRANCH   2   3
ENDBRANCH   1   2
BRANCH   1  74
ATOM     74  O   UNL A   1      38.630  21.573  26.491  1.00  0.00    -0.376 OA
BRANCH  74  75
ATOM     75  C   UNL A   1      37.989  21.775  25.242  1.00  0.00     0.202 C 
BRANCH  75  76
ATOM     76  C   UNL A   1      37.345  23.131  24.920  1.00  0.00     0.261 C 
BRANCH  76  77
ATOM     77  O   UNL A   1      35.917  23.186  24.780  1.00  0.00    -0.459 OA
BRANCH  77  78
ATOM     78  C   UNL A   1      35.470  22.932  23.508  1.00  0.00     0.370 C 
ATOM     79  O   UNL A   1      36.198  22.970  22.518  1.00  0.00    -0.245 OA
BRANCH  78  80
ATOM     80  C   UNL A   1      33.940  22.769  23.403  1.00  0.00     0.327 C 
BRANCH  80  81
ATOM     81  C   UNL A   1      33.299  21.499  23.966  1.00  0.00     0.032 A 
ATOM     82  C   UNL A   1      32.504  20.553  23.195  1.00  0.00     0.022 A 
ATOM     83  C   UNL A   1      33.481  20.967  25.230  1.00  0.00     0.075 A 
ATOM     84  C   UNL A   1      32.154  19.413  23.876  1.00  0.00     0.065 A 
ATOM     85  S   UNL A   1      33.039  19.317  25.313  1.00  0.00    -0.152 S 
ENDBRANCH  80  81
BRANCH  80  86
ATOM     86  N   UNL A   1      33.243  24.045  23.688  1.00  0.00    -0.319 N 
ATOM     87  C   UNL A   1      33.117  24.948  22.565  1.00  0.00     0.267 C 
ATOM     88  C   UNL A   1      32.125  24.092  24.620  1.00  0.00     0.267 C 
ATOM     89  H   UNL A   1      33.961  24.426  24.304  1.00  0.00     0.349 HD
ATOM     90  C   UNL A   1      33.005  26.367  23.040  1.00  0.00     0.107 C 
ATOM     91  C   UNL A   1      31.983  25.518  25.184  1.00  0.00     0.107 C 
ATOM     92  C   UNL A   1      31.901  26.569  24.071  1.00  0.00     0.184 C 
BRANCH  92  93
ATOM     93  O   UNL A   1      31.808  27.931  24.555  1.00  0.00    -0.488 OA
BRANCH  93  94
ATOM     94  C   UNL A   1      30.818  28.675  23.973  1.00  0.00     0.138 A 
ATOM     95  C   UNL A   1      30.646  30.026  24.267  1.00  0.00     0.050 A 
ATOM     96  C   UNL A   1      29.954  28.094  23.062  1.00  0.00     0.157 A 
ATOM     97  C   UNL A   1      29.517  30.687  23.793  1.00  0.00     0.024 A 
ATOM     98  N   UNL A   1      28.873  28.724  22.544  1.00  0.00    -0.261 NA
ATOM     99  C   UNL A   1      28.662  29.997  22.951  1.00  0.00     0.111 A 
ENDBRANCH  93  94
ENDBRANCH  92  93
ENDBRANCH  80  86
ENDBRANCH  78  80
ENDBRANCH  77  78
ENDBRANCH  76  77
ENDBRANCH  75  76
ENDBRANCH  74  75
ENDBRANCH   1  74
TORSDOF 21
ENDMDL
MODEL 3
REMARK VINA RESULT:     -10.9      4.088      9.953
REMARK SMILES O=C(OCCOCCOCCOC(=O)[C@@H](c1ccsc1)[NH+]1CCC(Oc2cccnc2)CC1)c1ccc(-c2c3nc(c(-c4c(F)c(F)c(F)c(F)c4F)c4ccc([nH]4)c(-c4c(F)c(F)c(F)c(F)c4F)c4nc(c(-c5c(F)c(F)c(F)c(F)c5F)c5ccc2[nH]5)C=C4)C=C3)cc1
REMARK SMILES IDX 8 1 7 2 6 3 5 4 4 5 3 6 2 7 1 8 34 9 35 10 96 11 36 12 95 13
REMARK SMILES IDX 37 14 38 15 39 16 89 17 40 18 94 19 88 20 90 21 41 22 93 23
REMARK SMILES IDX 87 24 86 25 42 27 74 28 54 29 73 30 55 31 58 32 72 33 91 34
REMARK SMILES IDX 56 35 57 36 71 38 92 39 59 40 43 41 44 42 52 43 45 44 46 45
REMARK SMILES IDX 50 46 53 47 47 48 48 49 51 50 49 51 75 52 76 53 84 54 77 55
REMARK SMILES IDX 78 56 82 57 85 58 79 59 80 60 83 61 81 62 60 63 61 64 69 65
REMARK SMILES IDX 62 66 63 67 67 68 70 69 64 70 65 71 68 72 66 73 9 74 10 75
REMARK SMILES IDX 11 76 12 77 13 78 14 79 15 80 16 81 17 82 20 83 18 84 19 85
REMARK SMILES IDX 21 86 22 87 33 88 23 90 32 91 24 92 25 93 26 94 27 95 31 96
REMARK SMILES IDX 28 97 30 98 29 99
REMARK H PARENT 90 26 58 37 21 89
REMARK Flexibility Score: inf
ROOT
ATOM      1  C   UNL A   1      31.801  30.059  25.906  1.00  0.00     0.188 C 
ENDROOT
BRANCH   1   2
ATOM      2  C   UNL A   1      31.901  31.327  26.759  1.00  0.00     0.188 C 
BRANCH   2   3
ATOM      3  O   UNL A   1      33.135  31.445  27.482  1.00  0.00    -0.376 OA
BRANCH   3   4
ATOM      4  C   UNL A   1      33.507  32.808  27.727  1.00  0.00     0.202 C 
BRANCH   4   5
ATOM      5  C   UNL A   1      32.350  33.817  27.765  1.00  0.00     0.261 C 
BRANCH   5   6
ATOM      6  O   UNL A   1      32.679  35.048  28.418  1.00  0.00    -0.460 OA
BRANCH   6   7
ATOM      7  C   UNL A   1      33.116  35.253  29.681  1.00  0.00     0.338 C 
ATOM      8  O   UNL A   1      32.599  36.175  30.317  1.00  0.00    -0.246 OA
BRANCH   7   9
ATOM      9  C   UNL A   1      34.213  34.476  30.354  1.00  0.00     0.060 A 
ATOM     10  C   UNL A   1      34.079  33.582  31.423  1.00  0.00     0.016 A 
ATOM     11  C   UNL A   1      35.496  34.617  29.797  1.00  0.00     0.016 A 
ATOM     12  C   UNL A   1      35.159  32.840  31.909  1.00  0.00     0.010 A 
ATOM     13  C   UNL A   1      36.574  33.848  30.250  1.00  0.00     0.010 A 
ATOM     14  C   UNL A   1      36.411  32.957  31.319  1.00  0.00    -0.014 A 
BRANCH  14  15
ATOM     15  C   UNL A   1      37.587  32.331  31.958  1.00  0.00     0.031 A 
ATOM     16  C   UNL A   1      38.225  31.193  31.218  1.00  0.00     0.074 A 
ATOM     17  C   UNL A   1      38.120  32.788  33.107  1.00  0.00     0.049 A 
ATOM     18  N   UNL A   1      39.241  30.445  31.551  1.00  0.00    -0.248 NA
ATOM     19  C   UNL A   1      37.635  30.859  29.908  1.00  0.00     0.031 C 
ATOM     20  C   UNL A   1      37.658  33.954  33.860  1.00  0.00     0.029 A 
ATOM     21  N   UNL A   1      39.182  32.322  33.844  1.00  0.00    -0.354 N 
ATOM     22  C   UNL A   1      39.416  29.574  30.487  1.00  0.00     0.074 A 
ATOM     23  C   UNL A   1      38.344  29.806  29.550  1.00  0.00     0.031 C 
ATOM     24  C   UNL A   1      38.417  34.093  34.962  1.00  0.00     0.029 A 
ATOM     25  C   UNL A   1      39.386  33.009  35.016  1.00  0.00     0.049 A 
ATOM     26  H   UNL A   1      39.745  31.567  33.558  1.00  0.00     0.167 HD
ATOM     27  C   UNL A   1      40.419  28.695  30.277  1.00  0.00     0.037 A 
ATOM     28  C   UNL A   1      40.246  32.772  36.025  1.00  0.00     0.037 A 
ATOM     29  C   UNL A   1      41.479  28.470  31.212  1.00  0.00     0.049 A 
ATOM     30  C   UNL A   1      41.243  31.658  35.859  1.00  0.00     0.074 A 
ATOM     31  C   UNL A   1      42.540  27.592  31.123  1.00  0.00     0.029 A 
ATOM     32  N   UNL A   1      41.598  29.132  32.428  1.00  0.00    -0.354 N 
ATOM     33  N   UNL A   1      41.417  30.852  34.840  1.00  0.00    -0.248 NA
ATOM     34  C   UNL A   1      42.189  31.445  36.964  1.00  0.00     0.031 C 
ATOM     35  C   UNL A   1      43.274  27.683  32.310  1.00  0.00     0.029 A 
ATOM     36  C   UNL A   1      42.704  28.660  33.113  1.00  0.00     0.049 A 
ATOM     37  H   UNL A   1      40.988  29.832  32.753  1.00  0.00     0.167 HD
ATOM     38  C   UNL A   1      42.528  30.080  35.149  1.00  0.00     0.074 A 
ATOM     39  C   UNL A   1      42.977  30.506  36.459  1.00  0.00     0.031 C 
ATOM     40  C   UNL A   1      43.134  29.122  34.407  1.00  0.00     0.037 A 
BRANCH  27  41
ATOM     41  C   UNL A   1      40.370  27.929  28.991  1.00  0.00     0.064 A 
ATOM     42  C   UNL A   1      39.684  26.706  28.893  1.00  0.00     0.173 A 
ATOM     43  C   UNL A   1      41.094  28.369  27.876  1.00  0.00     0.173 A 
ATOM     44  F   UNL A   1      39.009  26.224  29.948  1.00  0.00    -0.203 F 
ATOM     45  C   UNL A   1      39.769  25.929  27.742  1.00  0.00     0.198 A 
ATOM     46  C   UNL A   1      41.149  27.604  26.715  1.00  0.00     0.198 A 
ATOM     47  F   UNL A   1      41.776  29.522  27.926  1.00  0.00    -0.203 F 
ATOM     48  F   UNL A   1      39.182  24.724  27.704  1.00  0.00    -0.200 F 
ATOM     49  C   UNL A   1      40.499  26.379  26.654  1.00  0.00     0.200 A 
ATOM     50  F   UNL A   1      41.855  28.039  25.663  1.00  0.00    -0.200 F 
ATOM     51  F   UNL A   1      40.598  25.622  25.553  1.00  0.00    -0.200 F 
ENDBRANCH  27  41
BRANCH  28  52
ATOM     52  C   UNL A   1      40.215  33.569  37.284  1.00  0.00     0.064 A 
ATOM     53  C   UNL A   1      39.293  33.294  38.304  1.00  0.00     0.173 A 
ATOM     54  C   UNL A   1      41.042  34.691  37.444  1.00  0.00     0.173 A 
ATOM     55  F   UNL A   1      38.462  32.249  38.186  1.00  0.00    -0.203 F 
ATOM     56  C   UNL A   1      39.175  34.127  39.418  1.00  0.00     0.198 A 
ATOM     57  C   UNL A   1      40.925  35.521  38.560  1.00  0.00     0.198 A 
ATOM     58  F   UNL A   1      41.956  34.992  36.511  1.00  0.00    -0.203 F 
ATOM     59  F   UNL A   1      38.248  33.868  40.350  1.00  0.00    -0.200 F 
ATOM     60  C   UNL A   1      39.988  35.244  39.543  1.00  0.00     0.200 A 
ATOM     61  F   UNL A   1      41.729  36.587  38.684  1.00  0.00    -0.200 F 
ATOM     62  F   UNL A   1      39.867  36.055  40.602  1.00  0.00    -0.200 F 
ENDBRANCH  28  52
BRANCH  40  63
ATOM     63  C   UNL A   1      44.390  28.522  34.962  1.00  0.00     0.064 A 
ATOM     64  C   UNL A   1      45.647  29.099  34.740  1.00  0.00     0.173 A 
ATOM     65  C   UNL A   1      44.317  27.385  35.781  1.00  0.00     0.173 A 
ATOM     66  F   UNL A   1      45.767  30.176  33.948  1.00  0.00    -0.203 F 
ATOM     67  C   UNL A   1      46.792  28.547  35.306  1.00  0.00     0.198 A 
ATOM     68  C   UNL A   1      45.459  26.858  36.373  1.00  0.00     0.198 A 
ATOM     69  F   UNL A   1      43.135  26.800  36.024  1.00  0.00    -0.203 F 
ATOM     70  F   UNL A   1      47.991  29.086  35.045  1.00  0.00    -0.200 F 
ATOM     71  C   UNL A   1      46.696  27.435  36.131  1.00  0.00     0.200 A 
ATOM     72  F   UNL A   1      45.361  25.796  37.184  1.00  0.00    -0.200 F 
ATOM     73  F   UNL A   1      47.798  26.917  36.690  1.00  0.00    -0.200 F 
ENDBRANCH  40  63
ENDBRANCH  14  15
ENDBRANCH   7   9
ENDBRANCH   6   7
ENDBRANCH   5   6
ENDBRANCH   4   5
ENDBRANCH   3   4
ENDBRANCH   2   3
ENDBRANCH   1   2
BRANCH   1  74
ATOM     74  O   UNL A   1      32.904  29.739  25.068  1.00  0.00    -0.376 OA
BRANCH  74  75
ATOM     75  C   UNL A   1      33.920  28.898  25.590  1.00  0.00     0.202 C 
BRANCH  75  76
ATOM     76  C   UNL A   1      33.583  27.878  26.687  1.00  0.00     0.261 C 
BRANCH  76  77
ATOM     77  O   UNL A   1      33.523  26.489  26.326  1.00  0.00    -0.459 OA
BRANCH  77  78
ATOM     78  C   UNL A   1      32.267  26.053  25.993  1.00  0.00     0.370 C 
ATOM     79  O   UNL A   1      31.433  25.701  26.825  1.00  0.00    -0.245 OA
BRANCH  78  80
ATOM     80  C   UNL A   1      32.049  25.870  24.477  1.00  0.00     0.327 C 
BRANCH  80  81
ATOM     81  C   UNL A   1      32.342  24.503  23.855  1.00  0.00     0.032 A 
ATOM     82  C   UNL A   1      32.767  24.287  22.478  1.00  0.00     0.022 A 
ATOM     83  C   UNL A   1      32.395  23.286  24.511  1.00  0.00     0.075 A 
ATOM     84  C   UNL A   1      33.111  22.990  22.186  1.00  0.00     0.065 A 
ATOM     85  S   UNL A   1      33.243  22.100  23.616  1.00  0.00    -0.152 S 
ENDBRANCH  80  81
BRANCH  80  86
ATOM     86  N   UNL A   1      30.815  26.552  24.025  1.00  0.00    -0.319 N 
ATOM     87  C   UNL A   1      31.016  27.673  23.133  1.00  0.00     0.267 C 
ATOM     88  C   UNL A   1      29.596  25.798  23.771  1.00  0.00     0.267 C 
ATOM     89  H   UNL A   1      30.561  26.933  24.937  1.00  0.00     0.349 HD
ATOM     90  C   UNL A   1      29.873  28.641  23.237  1.00  0.00     0.107 C 
ATOM     91  C   UNL A   1      28.375  26.727  23.908  1.00  0.00     0.107 C 
ATOM     92  C   UNL A   1      28.511  27.985  23.044  1.00  0.00     0.184 C 
BRANCH  92  93
ATOM     93  O   UNL A   1      27.404  28.910  23.173  1.00  0.00    -0.488 OA
BRANCH  93  94
ATOM     94  C   UNL A   1      27.640  30.154  22.657  1.00  0.00     0.138 A 
ATOM     95  C   UNL A   1      27.902  30.350  21.303  1.00  0.00     0.050 A 
ATOM     96  C   UNL A   1      27.622  31.266  23.481  1.00  0.00     0.157 A 
ATOM     97  C   UNL A   1      28.317  31.603  20.863  1.00  0.00     0.024 A 
ATOM     98  N   UNL A   1      27.974  32.509  23.075  1.00  0.00    -0.261 NA
ATOM     99  C   UNL A   1      28.347  32.639  21.781  1.00  0.00     0.111 A 
ENDBRANCH  93  94
ENDBRANCH  92  93
ENDBRANCH  80  86
ENDBRANCH  78  80
ENDBRANCH  77  78
ENDBRANCH  76  77
ENDBRANCH  75  76
ENDBRANCH  74  75
ENDBRANCH   1  74
TORSDOF 21
ENDMDL
