MODEL 1
REMARK VINA RESULT:     -11.9      0.000      0.000
REMARK SMILES CC(C)(CC(=O)OCCOCCOCCOC(=O)c1ccc(-c2c3nc(c(-c4c(F)c(F)c(F)c(F)c4F)c4ccc([nH]4)c(-c4c(F)c(F)c(F)c(F)c4F)c4nc(c(-c5c(F)c(F)c(F)c(F)c5F)c5ccc2[nH]5)C=C4)C=C3)cc1)CC(=O)N1CCN(c2nc3ccc(Cl)cc3s2)CC1
REMARK SMILES IDX 11 1 10 2 9 3 8 4 7 5 5 6 6 7 4 8 2 9 1 10 3 11 82 12 83 13
REMARK SMILES IDX 84 14 85 15 86 16 100 17 87 18 99 19 88 20 89 21 90 22 98 23
REMARK SMILES IDX 91 24 97 25 92 26 96 27 93 28 94 29 95 30 12 31 13 32 14 33
REMARK SMILES IDX 15 34 16 35 17 36 18 37 19 38 20 39 81 40 21 41 80 42 22 43
REMARK SMILES IDX 23 44 24 45 74 46 25 47 79 48 73 49 75 50 26 51 78 52 72 53
REMARK SMILES IDX 71 54 27 56 59 57 39 58 58 59 40 60 43 61 57 62 76 63 41 64
REMARK SMILES IDX 42 65 56 67 77 68 44 69 28 70 29 71 37 72 30 73 31 74 35 75
REMARK SMILES IDX 38 76 32 77 33 78 36 79 34 80 60 81 61 82 69 83 62 84 63 85
REMARK SMILES IDX 67 86 70 87 64 88 65 89 68 90 66 91 45 92 46 93 54 94 47 95
REMARK SMILES IDX 48 96 52 97 55 98 49 99 50 100 53 101 51 102
REMARK H PARENT 75 55 43 66
REMARK Flexibility Score: inf
ROOT
ATOM      1  C   UNL A   1      34.999  31.330  28.357  1.00  0.00     0.188 C 
ENDROOT
BRANCH   1   2
ATOM      2  O   UNL A   1      33.948  30.058  27.395  1.00  0.00    -0.376 OA
BRANCH   2   3
ATOM      3  C   UNL A   1      33.536  29.363  26.070  1.00  0.00     0.202 C 
BRANCH   3   4
ATOM      4  C   UNL A   1      32.413  29.696  24.990  1.00  0.00     0.261 C 
BRANCH   4   5
ATOM      5  O   UNL A   1      32.506  29.196  23.644  1.00  0.00    -0.463 OA
BRANCH   5   6
ATOM      6  C   UNL A   1      31.452  28.544  23.123  1.00  0.00     0.306 C 
ATOM      7  O   UNL A   1      30.565  29.079  22.462  1.00  0.00    -0.252 OA
BRANCH   6   8
ATOM      8  C   UNL A   1      31.548  27.028  23.219  1.00  0.00     0.129 C 
BRANCH   8   9
ATOM      9  C   UNL A   1      30.768  26.106  24.202  1.00  0.00    -0.016 C 
ATOM     10  C   UNL A   1      31.007  26.545  25.653  1.00  0.00     0.012 C 
ATOM     11  C   UNL A   1      29.258  26.361  23.879  1.00  0.00     0.012 C 
BRANCH   9  12
ATOM     12  C   UNL A   1      30.926  24.574  24.115  1.00  0.00     0.107 C 
BRANCH  12  13
ATOM     13  C   UNL A   1      31.354  23.778  25.338  1.00  0.00     0.223 C 
ATOM     14  O   UNL A   1      30.584  23.520  26.260  1.00  0.00    -0.275 OA
ATOM     15  N   UNL A   1      32.652  23.290  25.235  1.00  0.00    -0.339 N 
ATOM     16  C   UNL A   1      33.187  21.727  26.169  1.00  0.00     0.141 C 
ATOM     17  C   UNL A   1      33.897  24.212  24.177  1.00  0.00     0.141 C 
ATOM     18  C   UNL A   1      34.937  20.984  25.759  1.00  0.00     0.140 C 
ATOM     19  C   UNL A   1      35.573  23.367  23.771  1.00  0.00     0.140 C 
ATOM     20  N   UNL A   1      36.066  21.823  24.584  1.00  0.00    -0.345 N 
BRANCH  20  21
ATOM     21  C   UNL A   1      37.300  22.026  25.139  1.00  0.00     0.186 A 
ATOM     22  N   UNL A   1      38.201  21.076  25.198  1.00  0.00    -0.220 NA
ATOM     23  S   UNL A   1      37.736  23.474  25.955  1.00  0.00    -0.097 S 
ATOM     24  C   UNL A   1      39.267  21.444  25.972  1.00  0.00     0.084 A 
ATOM     25  C   UNL A   1      39.199  22.730  26.501  1.00  0.00     0.058 A 
ATOM     26  C   UNL A   1      40.370  20.620  26.268  1.00  0.00     0.031 A 
ATOM     27  C   UNL A   1      40.211  23.228  27.339  1.00  0.00     0.042 A 
ATOM     28  C   UNL A   1      41.380  21.100  27.101  1.00  0.00     0.023 A 
ATOM     29  C   UNL A   1      41.292  22.385  27.627  1.00  0.00     0.042 A 
ATOM     30  Cl  UNL A   1      42.546  22.950  28.664  1.00  0.00    -0.084 Cl
ENDBRANCH  20  21
ENDBRANCH  12  13
ENDBRANCH   9  12
ENDBRANCH   8   9
ENDBRANCH   6   8
ENDBRANCH   5   6
ENDBRANCH   4   5
ENDBRANCH   3   4
ENDBRANCH   2   3
ENDBRANCH   1   2
BRANCH   1  31
ATOM     31  C   UNL A   1      35.773  32.782  27.992  1.00  0.00     0.188 C 
BRANCH  31  32
ATOM     32  O   UNL A   1      35.094  34.023  27.916  1.00  0.00    -0.376 OA
BRANCH  32  33
ATOM     33  C   UNL A   1      33.693  34.163  28.072  1.00  0.00     0.202 C 
BRANCH  33  34
ATOM     34  C   UNL A   1      33.295  35.265  29.060  1.00  0.00     0.261 C 
BRANCH  34  35
ATOM     35  O   UNL A   1      32.694  34.731  30.244  1.00  0.00    -0.460 OA
BRANCH  35  36
ATOM     36  C   UNL A   1      32.899  35.455  31.363  1.00  0.00     0.338 C 
ATOM     37  O   UNL A   1      32.156  36.300  31.849  1.00  0.00    -0.246 OA
BRANCH  36  38
ATOM     38  C   UNL A   1      34.017  34.822  32.082  1.00  0.00     0.060 A 
ATOM     39  C   UNL A   1      35.236  35.514  32.140  1.00  0.00     0.016 A 
ATOM     40  C   UNL A   1      33.835  33.631  32.797  1.00  0.00     0.016 A 
ATOM     41  C   UNL A   1      36.299  34.980  32.858  1.00  0.00     0.010 A 
ATOM     42  C   UNL A   1      34.903  33.083  33.500  1.00  0.00     0.010 A 
ATOM     43  C   UNL A   1      36.152  33.726  33.469  1.00  0.00    -0.014 A 
BRANCH  43  44
ATOM     44  C   UNL A   1      37.365  32.915  33.685  1.00  0.00     0.031 A 
ATOM     45  C   UNL A   1      38.122  33.184  34.958  1.00  0.00     0.074 A 
ATOM     46  C   UNL A   1      37.767  31.977  32.815  1.00  0.00     0.049 A 
ATOM     47  N   UNL A   1      39.221  32.641  35.410  1.00  0.00    -0.248 NA
ATOM     48  C   UNL A   1      37.556  34.218  35.847  1.00  0.00     0.031 C 
ATOM     49  C   UNL A   1      37.091  31.619  31.571  1.00  0.00     0.029 A 
ATOM     50  N   UNL A   1      38.861  31.153  32.860  1.00  0.00    -0.354 N 
ATOM     51  C   UNL A   1      39.465  33.260  36.629  1.00  0.00     0.074 A 
ATOM     52  C   UNL A   1      38.431  34.245  36.835  1.00  0.00     0.031 C 
ATOM     53  C   UNL A   1      37.796  30.647  30.961  1.00  0.00     0.029 A 
ATOM     54  C   UNL A   1      38.981  30.339  31.762  1.00  0.00     0.049 A 
ATOM     55  H   UNL A   1      39.501  31.147  33.608  1.00  0.00     0.167 HD
ATOM     56  C   UNL A   1      40.461  33.023  37.508  1.00  0.00     0.037 A 
ATOM     57  C   UNL A   1      39.955  29.463  31.449  1.00  0.00     0.037 A 
ATOM     58  C   UNL A   1      41.506  32.068  37.284  1.00  0.00     0.049 A 
ATOM     59  C   UNL A   1      41.102  29.271  32.414  1.00  0.00     0.074 A 
ATOM     60  C   UNL A   1      42.580  31.755  38.094  1.00  0.00     0.029 A 
ATOM     61  N   UNL A   1      41.607  31.277  36.148  1.00  0.00    -0.354 N 
ATOM     62  N   UNL A   1      41.316  29.836  33.578  1.00  0.00    -0.248 NA
ATOM     63  C   UNL A   1      42.142  28.312  32.018  1.00  0.00     0.031 C 
ATOM     64  C   UNL A   1      43.360  30.807  37.425  1.00  0.00     0.029 A 
ATOM     65  C   UNL A   1      42.738  30.487  36.227  1.00  0.00     0.049 A 
ATOM     66  H   UNL A   1      40.969  31.278  35.400  1.00  0.00     0.167 HD
ATOM     67  C   UNL A   1      42.491  29.279  34.068  1.00  0.00     0.074 A 
ATOM     68  C   UNL A   1      42.938  28.321  33.078  1.00  0.00     0.031 C 
ATOM     69  C   UNL A   1      43.146  29.532  35.229  1.00  0.00     0.037 A 
BRANCH  56  70
ATOM     70  C   UNL A   1      40.475  33.847  38.761  1.00  0.00     0.064 A 
ATOM     71  C   UNL A   1      39.762  33.457  39.906  1.00  0.00     0.173 A 
ATOM     72  C   UNL A   1      41.187  35.053  38.809  1.00  0.00     0.173 A 
ATOM     73  F   UNL A   1      39.035  32.330  39.897  1.00  0.00    -0.203 F 
ATOM     74  C   UNL A   1      39.744  34.258  41.044  1.00  0.00     0.198 A 
ATOM     75  C   UNL A   1      41.192  35.836  39.959  1.00  0.00     0.198 A 
ATOM     76  F   UNL A   1      41.871  35.477  37.735  1.00  0.00    -0.203 F 
ATOM     77  F   UNL A   1      39.008  33.897  42.105  1.00  0.00    -0.200 F 
ATOM     78  C   UNL A   1      40.464  35.443  41.072  1.00  0.00     0.200 A 
ATOM     79  F   UNL A   1      41.889  36.981  39.985  1.00  0.00    -0.200 F 
ATOM     80  F   UNL A   1      40.445  36.214  42.168  1.00  0.00    -0.200 F 
ENDBRANCH  56  70
BRANCH  57  81
ATOM     81  C   UNL A   1      39.899  28.702  30.174  1.00  0.00     0.064 A 
ATOM     82  C   UNL A   1      39.281  27.447  30.105  1.00  0.00     0.173 A 
ATOM     83  C   UNL A   1      40.497  29.198  29.005  1.00  0.00     0.173 A 
ATOM     84  F   UNL A   1      38.717  26.918  31.202  1.00  0.00    -0.203 F 
ATOM     85  C   UNL A   1      39.283  26.704  28.926  1.00  0.00     0.198 A 
ATOM     86  C   UNL A   1      40.473  28.467  27.818  1.00  0.00     0.198 A 
ATOM     87  F   UNL A   1      41.106  30.393  29.016  1.00  0.00    -0.203 F 
ATOM     88  F   UNL A   1      38.732  25.483  28.904  1.00  0.00    -0.200 F 
ATOM     89  C   UNL A   1      39.876  27.217  27.782  1.00  0.00     0.200 A 
ATOM     90  F   UNL A   1      41.040  28.972  26.713  1.00  0.00    -0.200 F 
ATOM     91  F   UNL A   1      39.882  26.502  26.649  1.00  0.00    -0.200 F 
ENDBRANCH  57  81
BRANCH  69  92
ATOM     92  C   UNL A   1      44.381  28.728  35.513  1.00  0.00     0.064 A 
ATOM     93  C   UNL A   1      45.648  29.136  35.069  1.00  0.00     0.173 A 
ATOM     94  C   UNL A   1      44.300  27.559  36.286  1.00  0.00     0.173 A 
ATOM     95  F   UNL A   1      45.777  30.242  34.321  1.00  0.00    -0.203 F 
ATOM     96  C   UNL A   1      46.783  28.384  35.360  1.00  0.00     0.198 A 
ATOM     97  C   UNL A   1      45.440  26.829  36.603  1.00  0.00     0.198 A 
ATOM     98  F   UNL A   1      43.114  27.134  36.747  1.00  0.00    -0.203 F 
ATOM     99  F   UNL A   1      47.975  28.763  34.881  1.00  0.00    -0.200 F 
ATOM    100  C   UNL A   1      46.678  27.236  36.132  1.00  0.00     0.200 A 
ATOM    101  F   UNL A   1      45.340  25.730  37.365  1.00  0.00    -0.200 F 
ATOM    102  F   UNL A   1      47.773  26.517  36.417  1.00  0.00    -0.200 F 
ENDBRANCH  69  92
ENDBRANCH  43  44
ENDBRANCH  36  38
ENDBRANCH  35  36
ENDBRANCH  34  35
ENDBRANCH  33  34
ENDBRANCH  32  33
ENDBRANCH  31  32
ENDBRANCH   1  31
TORSDOF 21
ENDMDL
MODEL 2
REMARK VINA RESULT:     -11.2      0.950      6.993
REMARK SMILES CC(C)(CC(=O)OCCOCCOCCOC(=O)c1ccc(-c2c3nc(c(-c4c(F)c(F)c(F)c(F)c4F)c4ccc([nH]4)c(-c4c(F)c(F)c(F)c(F)c4F)c4nc(c(-c5c(F)c(F)c(F)c(F)c5F)c5ccc2[nH]5)C=C4)C=C3)cc1)CC(=O)N1CCN(c2nc3ccc(Cl)cc3s2)CC1
REMARK SMILES IDX 11 1 10 2 9 3 8 4 7 5 5 6 6 7 4 8 2 9 1 10 3 11 82 12 83 13
REMARK SMILES IDX 84 14 85 15 86 16 100 17 87 18 99 19 88 20 89 21 90 22 98 23
REMARK SMILES IDX 91 24 97 25 92 26 96 27 93 28 94 29 95 30 12 31 13 32 14 33
REMARK SMILES IDX 15 34 16 35 17 36 18 37 19 38 20 39 81 40 21 41 80 42 22 43
REMARK SMILES IDX 23 44 24 45 74 46 25 47 79 48 73 49 75 50 26 51 78 52 72 53
REMARK SMILES IDX 71 54 27 56 59 57 39 58 58 59 40 60 43 61 57 62 76 63 41 64
REMARK SMILES IDX 42 65 56 67 77 68 44 69 28 70 29 71 37 72 30 73 31 74 35 75
REMARK SMILES IDX 38 76 32 77 33 78 36 79 34 80 60 81 61 82 69 83 62 84 63 85
REMARK SMILES IDX 67 86 70 87 64 88 65 89 68 90 66 91 45 92 46 93 54 94 47 95
REMARK SMILES IDX 48 96 52 97 55 98 49 99 50 100 53 101 51 102
REMARK H PARENT 75 55 43 66
REMARK Flexibility Score: inf
ROOT
ATOM      1  C   UNL A   1      35.718  31.969  28.748  1.00  0.00     0.188 C 
ENDROOT
BRANCH   1   2
ATOM      2  O   UNL A   1      34.801  30.357  28.295  1.00  0.00    -0.376 OA
BRANCH   2   3
ATOM      3  C   UNL A   1      34.375  29.283  27.258  1.00  0.00     0.202 C 
BRANCH   3   4
ATOM      4  C   UNL A   1      33.421  29.343  25.984  1.00  0.00     0.261 C 
BRANCH   4   5
ATOM      5  O   UNL A   1      32.113  28.742  26.007  1.00  0.00    -0.463 OA
BRANCH   5   6
ATOM      6  C   UNL A   1      32.019  27.401  26.000  1.00  0.00     0.306 C 
ATOM      7  O   UNL A   1      32.870  26.645  26.460  1.00  0.00    -0.252 OA
BRANCH   6   8
ATOM      8  C   UNL A   1      30.654  26.875  25.575  1.00  0.00     0.129 C 
BRANCH   8   9
ATOM      9  C   UNL A   1      30.318  26.117  24.257  1.00  0.00    -0.016 C 
ATOM     10  C   UNL A   1      28.847  26.330  23.876  1.00  0.00     0.012 C 
ATOM     11  C   UNL A   1      31.190  26.813  23.160  1.00  0.00     0.012 C 
BRANCH   9  12
ATOM     12  C   UNL A   1      30.653  24.617  24.121  1.00  0.00     0.107 C 
BRANCH  12  13
ATOM     13  C   UNL A   1      31.103  23.820  25.335  1.00  0.00     0.223 C 
ATOM     14  O   UNL A   1      30.339  23.529  26.252  1.00  0.00    -0.275 OA
ATOM     15  N   UNL A   1      32.415  23.372  25.229  1.00  0.00    -0.339 N 
ATOM     16  C   UNL A   1      32.994  21.814  26.146  1.00  0.00     0.141 C 
ATOM     17  C   UNL A   1      33.634  24.343  24.185  1.00  0.00     0.141 C 
ATOM     18  C   UNL A   1      34.766  21.129  25.732  1.00  0.00     0.140 C 
ATOM     19  C   UNL A   1      35.335  23.553  23.772  1.00  0.00     0.140 C 
ATOM     20  N   UNL A   1      35.872  22.015  24.569  1.00  0.00    -0.345 N 
BRANCH  20  21
ATOM     21  C   UNL A   1      37.099  22.247  25.129  1.00  0.00     0.186 A 
ATOM     22  N   UNL A   1      38.024  21.320  25.185  1.00  0.00    -0.220 NA
ATOM     23  S   UNL A   1      37.493  23.702  25.954  1.00  0.00    -0.097 S 
ATOM     24  C   UNL A   1      39.078  21.713  25.965  1.00  0.00     0.084 A 
ATOM     25  C   UNL A   1      38.974  22.994  26.501  1.00  0.00     0.058 A 
ATOM     26  C   UNL A   1      40.200  20.917  26.261  1.00  0.00     0.031 A 
ATOM     27  C   UNL A   1      39.969  23.514  27.344  1.00  0.00     0.042 A 
ATOM     28  C   UNL A   1      41.195  21.419  27.100  1.00  0.00     0.023 A 
ATOM     29  C   UNL A   1      41.071  22.699  27.632  1.00  0.00     0.042 A 
ATOM     30  Cl  UNL A   1      42.307  23.291  28.675  1.00  0.00    -0.084 Cl
ENDBRANCH  20  21
ENDBRANCH  12  13
ENDBRANCH   9  12
ENDBRANCH   8   9
ENDBRANCH   6   8
ENDBRANCH   5   6
ENDBRANCH   4   5
ENDBRANCH   3   4
ENDBRANCH   2   3
ENDBRANCH   1   2
BRANCH   1  31
ATOM     31  C   UNL A   1      35.915  33.488  28.044  1.00  0.00     0.188 C 
BRANCH  31  32
ATOM     32  O   UNL A   1      34.831  34.269  27.571  1.00  0.00    -0.376 OA
BRANCH  32  33
ATOM     33  C   UNL A   1      33.505  34.144  28.053  1.00  0.00     0.202 C 
BRANCH  33  34
ATOM     34  C   UNL A   1      33.236  34.960  29.321  1.00  0.00     0.261 C 
BRANCH  34  35
ATOM     35  O   UNL A   1      33.456  34.192  30.509  1.00  0.00    -0.460 OA
BRANCH  35  36
ATOM     36  C   UNL A   1      33.355  34.884  31.662  1.00  0.00     0.338 C 
ATOM     37  O   UNL A   1      32.369  35.475  32.091  1.00  0.00    -0.246 OA
BRANCH  36  38
ATOM     38  C   UNL A   1      34.531  34.535  32.475  1.00  0.00     0.060 A 
ATOM     39  C   UNL A   1      35.754  35.141  32.155  1.00  0.00     0.016 A 
ATOM     40  C   UNL A   1      34.409  33.726  33.613  1.00  0.00     0.016 A 
ATOM     41  C   UNL A   1      36.877  34.884  32.933  1.00  0.00     0.010 A 
ATOM     42  C   UNL A   1      35.535  33.450  34.381  1.00  0.00     0.010 A 
ATOM     43  C   UNL A   1      36.779  33.976  33.997  1.00  0.00    -0.014 A 
BRANCH  43  44
ATOM     44  C   UNL A   1      38.002  33.262  34.410  1.00  0.00     0.031 A 
ATOM     45  C   UNL A   1      38.472  32.168  33.489  1.00  0.00     0.074 A 
ATOM     46  C   UNL A   1      38.675  33.575  35.528  1.00  0.00     0.049 A 
ATOM     47  N   UNL A   1      39.500  31.368  33.594  1.00  0.00    -0.248 NA
ATOM     48  C   UNL A   1      37.663  31.946  32.274  1.00  0.00     0.031 C 
ATOM     49  C   UNL A   1      38.322  34.633  36.470  1.00  0.00     0.029 A 
ATOM     50  N   UNL A   1      39.808  33.011  36.053  1.00  0.00    -0.354 N 
ATOM     51  C   UNL A   1      39.458  30.563  32.462  1.00  0.00     0.074 A 
ATOM     52  C   UNL A   1      38.291  30.936  31.702  1.00  0.00     0.031 C 
ATOM     53  C   UNL A   1      39.222  34.636  37.472  1.00  0.00     0.029 A 
ATOM     54  C   UNL A   1      40.192  33.565  37.248  1.00  0.00     0.049 A 
ATOM     55  H   UNL A   1      40.299  32.279  35.616  1.00  0.00     0.167 HD
ATOM     56  C   UNL A   1      40.324  29.599  32.084  1.00  0.00     0.037 A 
ATOM     57  C   UNL A   1      41.208  33.221  38.063  1.00  0.00     0.037 A 
ATOM     58  C   UNL A   1      41.464  29.208  32.860  1.00  0.00     0.049 A 
ATOM     59  C   UNL A   1      42.118  32.086  37.655  1.00  0.00     0.074 A 
ATOM     60  C   UNL A   1      42.402  28.231  32.588  1.00  0.00     0.029 A 
ATOM     61  N   UNL A   1      41.809  29.777  34.078  1.00  0.00    -0.354 N 
ATOM     62  N   UNL A   1      42.095  31.346  36.572  1.00  0.00    -0.248 NA
ATOM     63  C   UNL A   1      43.203  31.744  38.586  1.00  0.00     0.031 C 
ATOM     64  C   UNL A   1      43.289  28.175  33.667  1.00  0.00     0.029 A 
ATOM     65  C   UNL A   1      42.938  29.158  34.581  1.00  0.00     0.049 A 
ATOM     66  H   UNL A   1      41.323  30.511  34.517  1.00  0.00     0.167 HD
ATOM     67  C   UNL A   1      43.175  30.478  36.675  1.00  0.00     0.074 A 
ATOM     68  C   UNL A   1      43.841  30.792  37.922  1.00  0.00     0.031 C 
ATOM     69  C   UNL A   1      43.584  29.506  35.820  1.00  0.00     0.037 A 
BRANCH  56  70
ATOM     70  C   UNL A   1      40.032  28.888  30.797  1.00  0.00     0.064 A 
ATOM     71  C   UNL A   1      39.347  27.662  30.772  1.00  0.00     0.173 A 
ATOM     72  C   UNL A   1      40.462  29.426  29.576  1.00  0.00     0.173 A 
ATOM     73  F   UNL A   1      38.947  27.089  31.917  1.00  0.00    -0.203 F 
ATOM     74  C   UNL A   1      39.128  26.990  29.574  1.00  0.00     0.198 A 
ATOM     75  C   UNL A   1      40.214  28.766  28.376  1.00  0.00     0.198 A 
ATOM     76  F   UNL A   1      41.133  30.587  29.548  1.00  0.00    -0.203 F 
ATOM     77  F   UNL A   1      38.526  25.792  29.578  1.00  0.00    -0.200 F 
ATOM     78  C   UNL A   1      39.555  27.545  28.377  1.00  0.00     0.200 A 
ATOM     79  F   UNL A   1      40.626  29.304  27.220  1.00  0.00    -0.200 F 
ATOM     80  F   UNL A   1      39.343  26.897  27.223  1.00  0.00    -0.200 F 
ENDBRANCH  56  70
BRANCH  57  81
ATOM     81  C   UNL A   1      41.422  33.944  39.343  1.00  0.00     0.064 A 
ATOM     82  C   UNL A   1      42.195  35.112  39.395  1.00  0.00     0.173 A 
ATOM     83  C   UNL A   1      40.890  33.463  40.549  1.00  0.00     0.173 A 
ATOM     84  F   UNL A   1      42.748  35.599  38.272  1.00  0.00    -0.203 F 
ATOM     85  C   UNL A   1      42.450  35.757  40.603  1.00  0.00     0.198 A 
ATOM     86  C   UNL A   1      41.121  34.125  41.754  1.00  0.00     0.198 A 
ATOM     87  F   UNL A   1      40.146  32.348  40.557  1.00  0.00    -0.203 F 
ATOM     88  F   UNL A   1      43.238  36.840  40.630  1.00  0.00    -0.200 F 
ATOM     89  C   UNL A   1      41.909  35.265  41.781  1.00  0.00     0.200 A 
ATOM     90  F   UNL A   1      40.588  33.650  42.888  1.00  0.00    -0.200 F 
ATOM     91  F   UNL A   1      42.157  35.882  42.945  1.00  0.00    -0.200 F 
ENDBRANCH  57  81
BRANCH  69  92
ATOM     92  C   UNL A   1      44.832  28.753  36.177  1.00  0.00     0.064 A 
ATOM     93  C   UNL A   1      46.105  29.215  35.815  1.00  0.00     0.173 A 
ATOM     94  C   UNL A   1      44.752  27.576  36.938  1.00  0.00     0.173 A 
ATOM     95  F   UNL A   1      46.235  30.331  35.081  1.00  0.00    -0.203 F 
ATOM     96  C   UNL A   1      47.250  28.510  36.173  1.00  0.00     0.198 A 
ATOM     97  C   UNL A   1      45.900  26.892  37.323  1.00  0.00     0.198 A 
ATOM     98  F   UNL A   1      43.558  27.099  37.322  1.00  0.00    -0.203 F 
ATOM     99  F   UNL A   1      48.453  28.941  35.772  1.00  0.00    -0.200 F 
ATOM    100  C   UNL A   1      47.146  27.353  36.933  1.00  0.00     0.200 A 
ATOM    101  F   UNL A   1      45.798  25.785  38.073  1.00  0.00    -0.200 F 
ATOM    102  F   UNL A   1      48.250  26.679  37.282  1.00  0.00    -0.200 F 
ENDBRANCH  69  92
ENDBRANCH  43  44
ENDBRANCH  36  38
ENDBRANCH  35  36
ENDBRANCH  34  35
ENDBRANCH  33  34
ENDBRANCH  32  33
ENDBRANCH  31  32
ENDBRANCH   1  31
TORSDOF 21
ENDMDL
MODEL 3
REMARK VINA RESULT:     -11.0      5.472     11.182
REMARK SMILES CC(C)(CC(=O)OCCOCCOCCOC(=O)c1ccc(-c2c3nc(c(-c4c(F)c(F)c(F)c(F)c4F)c4ccc([nH]4)c(-c4c(F)c(F)c(F)c(F)c4F)c4nc(c(-c5c(F)c(F)c(F)c(F)c5F)c5ccc2[nH]5)C=C4)C=C3)cc1)CC(=O)N1CCN(c2nc3ccc(Cl)cc3s2)CC1
REMARK SMILES IDX 11 1 10 2 9 3 8 4 7 5 5 6 6 7 4 8 2 9 1 10 3 11 82 12 83 13
REMARK SMILES IDX 84 14 85 15 86 16 100 17 87 18 99 19 88 20 89 21 90 22 98 23
REMARK SMILES IDX 91 24 97 25 92 26 96 27 93 28 94 29 95 30 12 31 13 32 14 33
REMARK SMILES IDX 15 34 16 35 17 36 18 37 19 38 20 39 81 40 21 41 80 42 22 43
REMARK SMILES IDX 23 44 24 45 74 46 25 47 79 48 73 49 75 50 26 51 78 52 72 53
REMARK SMILES IDX 71 54 27 56 59 57 39 58 58 59 40 60 43 61 57 62 76 63 41 64
REMARK SMILES IDX 42 65 56 67 77 68 44 69 28 70 29 71 37 72 30 73 31 74 35 75
REMARK SMILES IDX 38 76 32 77 33 78 36 79 34 80 60 81 61 82 69 83 62 84 63 85
REMARK SMILES IDX 67 86 70 87 64 88 65 89 68 90 66 91 45 92 46 93 54 94 47 95
REMARK SMILES IDX 48 96 52 97 55 98 49 99 50 100 53 101 51 102
REMARK H PARENT 75 55 43 66
REMARK Flexibility Score: inf
ROOT
ATOM      1  C   UNL A   1      43.636  20.339  25.770  1.00  0.00     0.188 C 
ENDROOT
BRANCH   1   2
ATOM      2  O   UNL A   1      41.812  19.775  25.798  1.00  0.00    -0.376 OA
BRANCH   2   3
ATOM      3  C   UNL A   1      40.318  20.028  26.133  1.00  0.00     0.202 C 
BRANCH   3   4
ATOM      4  C   UNL A   1      39.426  21.349  26.122  1.00  0.00     0.261 C 
BRANCH   4   5
ATOM      5  O   UNL A   1      40.017  22.645  26.322  1.00  0.00    -0.463 OA
BRANCH   5   6
ATOM      6  C   UNL A   1      39.228  23.662  26.709  1.00  0.00     0.306 C 
ATOM      7  O   UNL A   1      38.108  23.881  26.255  1.00  0.00    -0.252 OA
BRANCH   6   8
ATOM      8  C   UNL A   1      39.733  24.411  27.935  1.00  0.00     0.129 C 
BRANCH   8   9
ATOM      9  C   UNL A   1      40.308  25.858  27.971  1.00  0.00    -0.016 C 
ATOM     10  C   UNL A   1      41.697  25.866  28.623  1.00  0.00     0.012 C 
ATOM     11  C   UNL A   1      40.494  26.252  26.468  1.00  0.00     0.012 C 
BRANCH   9  12
ATOM     12  C   UNL A   1      39.471  27.007  28.570  1.00  0.00     0.107 C 
BRANCH  12  13
ATOM     13  C   UNL A   1      40.109  28.362  28.831  1.00  0.00     0.223 C 
ATOM     14  O   UNL A   1      40.995  28.823  28.116  1.00  0.00    -0.275 OA
ATOM     15  N   UNL A   1      39.503  29.050  29.877  1.00  0.00    -0.339 N 
ATOM     16  C   UNL A   1      39.543  30.946  29.955  1.00  0.00     0.141 C 
ATOM     17  C   UNL A   1      38.660  28.081  31.244  1.00  0.00     0.141 C 
ATOM     18  C   UNL A   1      38.453  31.817  31.310  1.00  0.00     0.140 C 
ATOM     19  C   UNL A   1      37.548  29.022  32.496  1.00  0.00     0.140 C 
ATOM     20  N   UNL A   1      37.501  30.834  32.529  1.00  0.00    -0.345 N 
BRANCH  20  21
ATOM     21  C   UNL A   1      37.774  31.230  33.810  1.00  0.00     0.186 A 
ATOM     22  N   UNL A   1      37.018  32.090  34.449  1.00  0.00    -0.220 NA
ATOM     23  S   UNL A   1      39.206  30.780  34.645  1.00  0.00    -0.097 S 
ATOM     24  C   UNL A   1      37.596  32.488  35.623  1.00  0.00     0.084 A 
ATOM     25  C   UNL A   1      38.821  31.894  35.912  1.00  0.00     0.058 A 
ATOM     26  C   UNL A   1      37.053  33.442  36.504  1.00  0.00     0.031 A 
ATOM     27  C   UNL A   1      39.540  32.232  37.070  1.00  0.00     0.042 A 
ATOM     28  C   UNL A   1      37.758  33.791  37.656  1.00  0.00     0.023 A 
ATOM     29  C   UNL A   1      38.984  33.192  37.926  1.00  0.00     0.042 A 
ATOM     30  Cl  UNL A   1      39.841  33.648  39.349  1.00  0.00    -0.084 Cl
ENDBRANCH  20  21
ENDBRANCH  12  13
ENDBRANCH   9  12
ENDBRANCH   8   9
ENDBRANCH   6   8
ENDBRANCH   5   6
ENDBRANCH   4   5
ENDBRANCH   3   4
ENDBRANCH   2   3
ENDBRANCH   1   2
BRANCH   1  31
ATOM     31  C   UNL A   1      44.814  20.566  24.585  1.00  0.00     0.188 C 
BRANCH  31  32
ATOM     32  O   UNL A   1      44.932  21.759  23.830  1.00  0.00    -0.376 OA
BRANCH  32  33
ATOM     33  C   UNL A   1      44.277  22.969  24.166  1.00  0.00     0.202 C 
BRANCH  33  34
ATOM     34  C   UNL A   1      45.088  23.859  25.114  1.00  0.00     0.261 C 
BRANCH  34  35
ATOM     35  O   UNL A   1      44.711  25.236  25.008  1.00  0.00    -0.460 OA
BRANCH  35  36
ATOM     36  C   UNL A   1      45.738  26.110  25.014  1.00  0.00     0.338 C 
ATOM     37  O   UNL A   1      46.693  26.141  24.245  1.00  0.00    -0.246 OA
BRANCH  36  38
ATOM     38  C   UNL A   1      45.349  27.221  25.899  1.00  0.00     0.060 A 
ATOM     39  C   UNL A   1      46.371  27.971  26.499  1.00  0.00     0.016 A 
ATOM     40  C   UNL A   1      44.008  27.601  26.033  1.00  0.00     0.016 A 
ATOM     41  C   UNL A   1      46.049  29.064  27.294  1.00  0.00     0.010 A 
ATOM     42  C   UNL A   1      43.681  28.683  26.845  1.00  0.00     0.010 A 
ATOM     43  C   UNL A   1      44.700  29.367  27.528  1.00  0.00    -0.014 A 
BRANCH  43  44
ATOM     44  C   UNL A   1      44.357  30.077  28.774  1.00  0.00     0.031 A 
ATOM     45  C   UNL A   1      44.290  31.578  28.684  1.00  0.00     0.074 A 
ATOM     46  C   UNL A   1      44.098  29.432  29.922  1.00  0.00     0.049 A 
ATOM     47  N   UNL A   1      44.026  32.462  29.608  1.00  0.00    -0.248 NA
ATOM     48  C   UNL A   1      44.563  32.163  27.356  1.00  0.00     0.031 C 
ATOM     49  C   UNL A   1      44.107  27.983  30.109  1.00  0.00     0.029 A 
ATOM     50  N   UNL A   1      43.777  29.935  31.156  1.00  0.00    -0.354 N 
ATOM     51  C   UNL A   1      44.095  33.694  28.970  1.00  0.00     0.074 A 
ATOM     52  C   UNL A   1      44.461  33.457  27.596  1.00  0.00     0.031 C 
ATOM     53  C   UNL A   1      43.812  27.713  31.395  1.00  0.00     0.029 A 
ATOM     54  C   UNL A   1      43.622  28.970  32.118  1.00  0.00     0.049 A 
ATOM     55  H   UNL A   1      43.669  30.897  31.334  1.00  0.00     0.167 HD
ATOM     56  C   UNL A   1      43.863  34.921  29.484  1.00  0.00     0.037 A 
ATOM     57  C   UNL A   1      43.370  29.107  33.434  1.00  0.00     0.037 A 
ATOM     58  C   UNL A   1      43.533  35.155  30.859  1.00  0.00     0.049 A 
ATOM     59  C   UNL A   1      43.192  30.496  34.002  1.00  0.00     0.074 A 
ATOM     60  C   UNL A   1      43.296  36.356  31.499  1.00  0.00     0.029 A 
ATOM     61  N   UNL A   1      43.407  34.154  31.811  1.00  0.00    -0.354 N 
ATOM     62  N   UNL A   1      43.229  31.657  33.393  1.00  0.00    -0.248 NA
ATOM     63  C   UNL A   1      42.932  30.589  35.445  1.00  0.00     0.031 C 
ATOM     64  C   UNL A   1      43.073  36.085  32.853  1.00  0.00     0.029 A 
ATOM     65  C   UNL A   1      43.112  34.711  33.041  1.00  0.00     0.049 A 
ATOM     66  H   UNL A   1      43.511  33.191  31.636  1.00  0.00     0.167 HD
ATOM     67  C   UNL A   1      42.964  32.613  34.367  1.00  0.00     0.074 A 
ATOM     68  C   UNL A   1      42.756  31.893  35.606  1.00  0.00     0.031 C 
ATOM     69  C   UNL A   1      42.897  33.963  34.253  1.00  0.00     0.037 A 
BRANCH  56  70
ATOM     70  C   UNL A   1      44.006  36.087  28.553  1.00  0.00     0.064 A 
ATOM     71  C   UNL A   1      45.255  36.675  28.294  1.00  0.00     0.173 A 
ATOM     72  C   UNL A   1      42.878  36.641  27.932  1.00  0.00     0.173 A 
ATOM     73  F   UNL A   1      46.359  36.204  28.893  1.00  0.00    -0.203 F 
ATOM     74  C   UNL A   1      45.364  37.788  27.467  1.00  0.00     0.198 A 
ATOM     75  C   UNL A   1      42.995  37.736  27.080  1.00  0.00     0.198 A 
ATOM     76  F   UNL A   1      41.660  36.125  28.159  1.00  0.00    -0.203 F 
ATOM     77  F   UNL A   1      46.557  38.370  27.281  1.00  0.00    -0.200 F 
ATOM     78  C   UNL A   1      44.235  38.313  26.855  1.00  0.00     0.200 A 
ATOM     79  F   UNL A   1      41.903  38.241  26.489  1.00  0.00    -0.200 F 
ATOM     80  F   UNL A   1      44.341  39.386  26.059  1.00  0.00    -0.200 F 
ENDBRANCH  56  70
BRANCH  57  81
ATOM     81  C   UNL A   1      43.276  27.911  34.309  1.00  0.00     0.064 A 
ATOM     82  C   UNL A   1      44.416  27.360  34.911  1.00  0.00     0.173 A 
ATOM     83  C   UNL A   1      42.049  27.268  34.534  1.00  0.00     0.173 A 
ATOM     84  F   UNL A   1      45.617  27.923  34.706  1.00  0.00    -0.203 F 
ATOM     85  C   UNL A   1      44.339  26.201  35.680  1.00  0.00     0.198 A 
ATOM     86  C   UNL A   1      41.968  26.125  35.328  1.00  0.00     0.198 A 
ATOM     87  F   UNL A   1      40.927  27.750  33.979  1.00  0.00    -0.203 F 
ATOM     88  F   UNL A   1      45.454  25.667  36.197  1.00  0.00    -0.200 F 
ATOM     89  C   UNL A   1      43.114  25.587  35.891  1.00  0.00     0.200 A 
ATOM     90  F   UNL A   1      40.780  25.540  35.535  1.00  0.00    -0.200 F 
ATOM     91  F   UNL A   1      43.040  24.469  36.627  1.00  0.00    -0.200 F 
ENDBRANCH  57  81
BRANCH  69  92
ATOM     92  C   UNL A   1      42.537  34.742  35.484  1.00  0.00     0.064 A 
ATOM     93  C   UNL A   1      43.490  35.060  36.463  1.00  0.00     0.173 A 
ATOM     94  C   UNL A   1      41.229  35.220  35.660  1.00  0.00     0.173 A 
ATOM     95  F   UNL A   1      44.753  34.620  36.345  1.00  0.00    -0.203 F 
ATOM     96  C   UNL A   1      43.139  35.799  37.589  1.00  0.00     0.198 A 
ATOM     97  C   UNL A   1      40.890  35.987  36.770  1.00  0.00     0.198 A 
ATOM     98  F   UNL A   1      40.284  34.956  34.746  1.00  0.00    -0.203 F 
ATOM     99  F   UNL A   1      44.052  36.046  38.537  1.00  0.00    -0.200 F 
ATOM    100  C   UNL A   1      41.841  36.267  37.737  1.00  0.00     0.200 A 
ATOM    101  F   UNL A   1      39.640  36.455  36.902  1.00  0.00    -0.200 F 
ATOM    102  F   UNL A   1      41.506  36.985  38.818  1.00  0.00    -0.200 F 
ENDBRANCH  69  92
ENDBRANCH  43  44
ENDBRANCH  36  38
ENDBRANCH  35  36
ENDBRANCH  34  35
ENDBRANCH  33  34
ENDBRANCH  32  33
ENDBRANCH  31  32
ENDBRANCH   1  31
TORSDOF 21
ENDMDL
