MODEL 1
REMARK VINA RESULT:     -11.1      0.000      0.000
REMARK SMILES CCCn1cc(S(=O)(=O)N[C@H]2C=C[C@@H](C(=O)OCCOCCOCCOC(=O)c3ccc(-c4c5nc(c(-c6c(F)c(F)c(F)c(F)c6F)c6ccc([nH]6)c(-c6c(F)c(F)c(F)c(F)c6F)c6nc(c(-c7c(F)c(F)c(F)c(F)c7F)c7ccc4[nH]7)C=C6)C=C5)cc3)C2)nc1C
REMARK SMILES IDX 20 1 19 2 18 3 17 4 15 5 16 6 14 7 11 8 12 9 92 10 13 11
REMARK SMILES IDX 10 12 7 14 8 15 9 16 6 17 4 18 5 19 94 20 93 21 95 22 3 23
REMARK SMILES IDX 2 24 1 25 21 26 22 27 23 28 24 29 25 30 26 31 27 32 28 33
REMARK SMILES IDX 29 34 30 35 91 36 31 37 90 38 32 39 33 40 34 41 84 42 35 43
REMARK SMILES IDX 89 44 83 45 85 46 36 47 88 48 82 49 81 50 37 52 69 53 49 54
REMARK SMILES IDX 68 55 50 56 53 57 67 58 86 59 51 60 52 61 66 63 87 64 54 65
REMARK SMILES IDX 38 66 39 67 47 68 40 69 41 70 45 71 48 72 42 73 43 74 46 75
REMARK SMILES IDX 44 76 70 77 71 78 79 79 72 80 73 81 77 82 80 83 74 84 75 85
REMARK SMILES IDX 78 86 76 87 55 88 56 89 64 90 57 91 58 92 62 93 65 94 59 95
REMARK SMILES IDX 60 96 63 97 61 98
REMARK H PARENT 10 13 85 51 53 62
REMARK Flexibility Score: inf
ROOT
ATOM      1  O   UNL A   1      42.410  20.621  26.786  1.00  0.00    -0.376 OA
ENDROOT
BRANCH   1   2
ATOM      2  C   UNL A   1      41.584  21.719  26.428  1.00  0.00     0.202 C 
BRANCH   2   3
ATOM      3  C   UNL A   1      40.101  21.838  26.844  1.00  0.00     0.261 C 
BRANCH   3   4
ATOM      4  O   UNL A   1      39.133  21.453  25.850  1.00  0.00    -0.463 OA
BRANCH   4   5
ATOM      5  C   UNL A   1      38.146  22.349  25.584  1.00  0.00     0.312 C 
ATOM      6  O   UNL A   1      38.116  23.485  26.048  1.00  0.00    -0.252 OA
BRANCH   5   7
ATOM      7  C   UNL A   1      37.147  21.879  24.517  1.00  0.00     0.123 C 
ATOM      8  C   UNL A   1      34.724  22.157  24.045  1.00  0.00     0.093 C 
ATOM      9  C   UNL A   1      35.548  23.205  23.395  1.00  0.00    -0.011 C 
ATOM     10  C   UNL A   1      35.741  21.427  24.934  1.00  0.00     0.043 C 
ATOM     11  C   UNL A   1      36.855  23.029  23.605  1.00  0.00    -0.015 C 
BRANCH   8  12
ATOM     12  N   UNL A   1      33.620  22.626  24.877  1.00  0.00    -0.203 NA
ATOM     13  H   UNL A   1      34.036  23.196  25.613  1.00  0.00     0.142 HD
BRANCH  12  14
ATOM     14  S   UNL A   1      32.578  21.547  25.642  1.00  0.00     0.260 S 
ATOM     15  O   UNL A   1      31.243  22.118  25.518  1.00  0.00    -0.205 OA
ATOM     16  O   UNL A   1      33.152  21.256  26.926  1.00  0.00    -0.205 OA
BRANCH  14  17
ATOM     17  C   UNL A   1      32.524  20.024  24.797  1.00  0.00     0.188 A 
ATOM     18  N   UNL A   1      32.762  17.917  24.241  1.00  0.00    -0.334 N 
ATOM     19  C   UNL A   1      32.858  18.784  25.306  1.00  0.00     0.129 A 
ATOM     20  C   UNL A   1      32.353  18.648  23.147  1.00  0.00     0.107 A 
ATOM     21  N   UNL A   1      32.201  19.915  23.464  1.00  0.00    -0.221 NA
ATOM     22  C   UNL A   1      32.122  18.116  21.781  1.00  0.00     0.088 C 
BRANCH  18  23
ATOM     23  C   UNL A   1      33.223  16.540  24.269  1.00  0.00     0.123 C 
BRANCH  23  24
ATOM     24  C   UNL A   1      33.964  16.104  25.534  1.00  0.00     0.018 C 
ATOM     25  C   UNL A   1      35.432  15.775  25.315  1.00  0.00     0.006 C 
ENDBRANCH  23  24
ENDBRANCH  18  23
ENDBRANCH  14  17
ENDBRANCH  12  14
ENDBRANCH   8  12
ENDBRANCH   5   7
ENDBRANCH   4   5
ENDBRANCH   3   4
ENDBRANCH   2   3
ENDBRANCH   1   2
BRANCH   1  26
ATOM     26  C   UNL A   1      42.244  19.392  26.123  1.00  0.00     0.188 C 
BRANCH  26  27
ATOM     27  C   UNL A   1      43.295  18.287  26.294  1.00  0.00     0.188 C 
BRANCH  27  28
ATOM     28  O   UNL A   1      44.286  17.978  25.336  1.00  0.00    -0.376 OA
BRANCH  28  29
ATOM     29  C   UNL A   1      45.470  18.723  25.092  1.00  0.00     0.202 C 
BRANCH  29  30
ATOM     30  C   UNL A   1      45.514  20.108  24.454  1.00  0.00     0.261 C 
BRANCH  30  31
ATOM     31  O   UNL A   1      46.384  21.013  25.084  1.00  0.00    -0.460 OA
BRANCH  31  32
ATOM     32  C   UNL A   1      46.219  22.281  24.666  1.00  0.00     0.338 C 
ATOM     33  O   UNL A   1      46.778  22.847  23.735  1.00  0.00    -0.246 OA
BRANCH  32  34
ATOM     34  C   UNL A   1      45.221  22.904  25.528  1.00  0.00     0.060 A 
ATOM     35  C   UNL A   1      44.209  23.626  24.896  1.00  0.00     0.016 A 
ATOM     36  C   UNL A   1      45.509  23.025  26.894  1.00  0.00     0.016 A 
ATOM     37  C   UNL A   1      43.700  24.709  25.565  1.00  0.00     0.010 A 
ATOM     38  C   UNL A   1      45.026  24.121  27.547  1.00  0.00     0.010 A 
ATOM     39  C   UNL A   1      44.227  25.002  26.826  1.00  0.00    -0.014 A 
BRANCH  39  40
ATOM     40  C   UNL A   1      43.885  26.263  27.429  1.00  0.00     0.031 A 
ATOM     41  C   UNL A   1      44.868  27.298  27.087  1.00  0.00     0.074 A 
ATOM     42  C   UNL A   1      42.747  26.420  28.132  1.00  0.00     0.049 A 
ATOM     43  N   UNL A   1      45.772  27.792  27.863  1.00  0.00    -0.248 NA
ATOM     44  C   UNL A   1      45.027  27.661  25.669  1.00  0.00     0.031 C 
ATOM     45  C   UNL A   1      41.636  25.469  28.257  1.00  0.00     0.029 A 
ATOM     46  N   UNL A   1      42.298  27.508  28.816  1.00  0.00    -0.354 N 
ATOM     47  C   UNL A   1      46.428  28.735  27.085  1.00  0.00     0.074 A 
ATOM     48  C   UNL A   1      46.122  28.421  25.718  1.00  0.00     0.031 C 
ATOM     49  C   UNL A   1      40.559  26.102  28.776  1.00  0.00     0.029 A 
ATOM     50  C   UNL A   1      40.950  27.450  29.152  1.00  0.00     0.049 A 
ATOM     51  H   UNL A   1      42.876  28.269  29.053  1.00  0.00     0.167 HD
ATOM     52  C   UNL A   1      46.817  29.906  27.653  1.00  0.00     0.037 A 
ATOM     53  C   UNL A   1      40.213  28.467  29.662  1.00  0.00     0.037 A 
ATOM     54  C   UNL A   1      46.812  29.796  29.091  1.00  0.00     0.049 A 
ATOM     55  C   UNL A   1      41.155  29.437  30.263  1.00  0.00     0.074 A 
ATOM     56  C   UNL A   1      47.619  29.229  30.053  1.00  0.00     0.029 A 
ATOM     57  N   UNL A   1      45.579  29.996  29.656  1.00  0.00    -0.354 N 
ATOM     58  N   UNL A   1      41.857  29.178  31.332  1.00  0.00    -0.248 NA
ATOM     59  C   UNL A   1      41.619  30.574  29.472  1.00  0.00     0.031 C 
ATOM     60  C   UNL A   1      46.788  28.997  31.189  1.00  0.00     0.029 A 
ATOM     61  C   UNL A   1      45.505  29.459  30.913  1.00  0.00     0.049 A 
ATOM     62  H   UNL A   1      44.838  30.467  29.212  1.00  0.00     0.167 HD
ATOM     63  C   UNL A   1      43.060  29.820  31.112  1.00  0.00     0.074 A 
ATOM     64  C   UNL A   1      42.798  30.795  30.062  1.00  0.00     0.031 C 
ATOM     65  C   UNL A   1      44.225  29.266  31.551  1.00  0.00     0.037 A 
BRANCH  52  66
ATOM     66  C   UNL A   1      46.681  31.257  26.983  1.00  0.00     0.064 A 
ATOM     67  C   UNL A   1      47.823  32.078  26.897  1.00  0.00     0.173 A 
ATOM     68  C   UNL A   1      45.453  31.902  26.713  1.00  0.00     0.173 A 
ATOM     69  F   UNL A   1      49.042  31.580  27.153  1.00  0.00    -0.203 F 
ATOM     70  C   UNL A   1      47.731  33.447  26.632  1.00  0.00     0.198 A 
ATOM     71  C   UNL A   1      45.370  33.256  26.397  1.00  0.00     0.198 A 
ATOM     72  F   UNL A   1      44.271  31.294  26.850  1.00  0.00    -0.203 F 
ATOM     73  F   UNL A   1      48.832  34.209  26.678  1.00  0.00    -0.200 F 
ATOM     74  C   UNL A   1      46.504  34.036  26.387  1.00  0.00     0.200 A 
ATOM     75  F   UNL A   1      44.167  33.809  26.186  1.00  0.00    -0.200 F 
ATOM     76  F   UNL A   1      46.406  35.356  26.189  1.00  0.00    -0.200 F 
ENDBRANCH  52  66
BRANCH  53  77
ATOM     77  C   UNL A   1      38.782  28.785  29.467  1.00  0.00     0.064 A 
ATOM     78  C   UNL A   1      37.929  29.008  30.560  1.00  0.00     0.173 A 
ATOM     79  C   UNL A   1      38.299  29.172  28.202  1.00  0.00     0.173 A 
ATOM     80  F   UNL A   1      38.332  28.702  31.802  1.00  0.00    -0.203 F 
ATOM     81  C   UNL A   1      36.682  29.620  30.403  1.00  0.00     0.198 A 
ATOM     82  C   UNL A   1      37.052  29.782  28.047  1.00  0.00     0.198 A 
ATOM     83  F   UNL A   1      39.071  29.059  27.112  1.00  0.00    -0.203 F 
ATOM     84  F   UNL A   1      35.923  29.879  31.478  1.00  0.00    -0.200 F 
ATOM     85  C   UNL A   1      36.250  30.020  29.149  1.00  0.00     0.200 A 
ATOM     86  F   UNL A   1      36.663  30.200  26.834  1.00  0.00    -0.200 F 
ATOM     87  F   UNL A   1      35.088  30.671  29.007  1.00  0.00    -0.200 F 
ENDBRANCH  53  77
BRANCH  65  88
ATOM     88  C   UNL A   1      44.128  28.284  32.674  1.00  0.00     0.064 A 
ATOM     89  C   UNL A   1      43.983  26.897  32.506  1.00  0.00     0.173 A 
ATOM     90  C   UNL A   1      44.248  28.774  33.979  1.00  0.00     0.173 A 
ATOM     91  F   UNL A   1      43.934  26.353  31.283  1.00  0.00    -0.203 F 
ATOM     92  C   UNL A   1      43.923  26.045  33.607  1.00  0.00     0.198 A 
ATOM     93  C   UNL A   1      44.222  27.918  35.075  1.00  0.00     0.198 A 
ATOM     94  F   UNL A   1      44.425  30.087  34.190  1.00  0.00    -0.203 F 
ATOM     95  F   UNL A   1      43.766  24.724  33.429  1.00  0.00    -0.200 F 
ATOM     96  C   UNL A   1      44.049  26.556  34.889  1.00  0.00     0.200 A 
ATOM     97  F   UNL A   1      44.385  28.414  36.308  1.00  0.00    -0.200 F 
ATOM     98  F   UNL A   1      44.024  25.734  35.948  1.00  0.00    -0.200 F 
ENDBRANCH  65  88
ENDBRANCH  39  40
ENDBRANCH  32  34
ENDBRANCH  31  32
ENDBRANCH  30  31
ENDBRANCH  29  30
ENDBRANCH  28  29
ENDBRANCH  27  28
ENDBRANCH  26  27
ENDBRANCH   1  26
TORSDOF 22
ENDMDL
MODEL 2
REMARK VINA RESULT:     -10.5      4.822     10.334
REMARK SMILES CCCn1cc(S(=O)(=O)N[C@H]2C=C[C@@H](C(=O)OCCOCCOCCOC(=O)c3ccc(-c4c5nc(c(-c6c(F)c(F)c(F)c(F)c6F)c6ccc([nH]6)c(-c6c(F)c(F)c(F)c(F)c6F)c6nc(c(-c7c(F)c(F)c(F)c(F)c7F)c7ccc4[nH]7)C=C6)C=C5)cc3)C2)nc1C
REMARK SMILES IDX 20 1 19 2 18 3 17 4 15 5 16 6 14 7 11 8 12 9 92 10 13 11
REMARK SMILES IDX 10 12 7 14 8 15 9 16 6 17 4 18 5 19 94 20 93 21 95 22 3 23
REMARK SMILES IDX 2 24 1 25 21 26 22 27 23 28 24 29 25 30 26 31 27 32 28 33
REMARK SMILES IDX 29 34 30 35 91 36 31 37 90 38 32 39 33 40 34 41 84 42 35 43
REMARK SMILES IDX 89 44 83 45 85 46 36 47 88 48 82 49 81 50 37 52 69 53 49 54
REMARK SMILES IDX 68 55 50 56 53 57 67 58 86 59 51 60 52 61 66 63 87 64 54 65
REMARK SMILES IDX 38 66 39 67 47 68 40 69 41 70 45 71 48 72 42 73 43 74 46 75
REMARK SMILES IDX 44 76 70 77 71 78 79 79 72 80 73 81 77 82 80 83 74 84 75 85
REMARK SMILES IDX 78 86 76 87 55 88 56 89 64 90 57 91 58 92 62 93 65 94 59 95
REMARK SMILES IDX 60 96 63 97 61 98
REMARK H PARENT 10 13 85 51 53 62
REMARK Flexibility Score: inf
ROOT
ATOM      1  O   UNL A   1      34.504  32.315  29.271  1.00  0.00    -0.376 OA
ENDROOT
BRANCH   1   2
ATOM      2  C   UNL A   1      34.795  31.570  28.098  1.00  0.00     0.202 C 
BRANCH   2   3
ATOM      3  C   UNL A   1      33.708  30.931  27.205  1.00  0.00     0.261 C 
BRANCH   3   4
ATOM      4  O   UNL A   1      33.147  29.693  27.681  1.00  0.00    -0.463 OA
BRANCH   4   5
ATOM      5  C   UNL A   1      32.301  29.046  26.836  1.00  0.00     0.312 C 
ATOM      6  O   UNL A   1      31.386  28.320  27.215  1.00  0.00    -0.252 OA
BRANCH   5   7
ATOM      7  C   UNL A   1      32.479  29.427  25.359  1.00  0.00     0.123 C 
ATOM      8  C   UNL A   1      32.072  28.374  23.146  1.00  0.00     0.093 C 
ATOM      9  C   UNL A   1      30.901  29.147  23.626  1.00  0.00    -0.011 C 
ATOM     10  C   UNL A   1      33.010  28.388  24.362  1.00  0.00     0.043 C 
ATOM     11  C   UNL A   1      31.135  29.757  24.791  1.00  0.00    -0.015 C 
BRANCH   8  12
ATOM     12  N   UNL A   1      31.817  26.988  22.762  1.00  0.00    -0.203 NA
ATOM     13  H   UNL A   1      31.648  26.476  23.628  1.00  0.00     0.142 HD
BRANCH  12  14
ATOM     14  S   UNL A   1      32.951  26.096  21.894  1.00  0.00     0.260 S 
ATOM     15  O   UNL A   1      34.042  27.013  21.593  1.00  0.00    -0.205 OA
ATOM     16  O   UNL A   1      32.234  25.415  20.852  1.00  0.00    -0.205 OA
BRANCH  14  17
ATOM     17  C   UNL A   1      33.644  24.839  22.882  1.00  0.00     0.188 A 
ATOM     18  N   UNL A   1      34.100  22.911  23.821  1.00  0.00    -0.334 N 
ATOM     19  C   UNL A   1      33.434  23.479  22.759  1.00  0.00     0.129 A 
ATOM     20  C   UNL A   1      34.705  23.930  24.524  1.00  0.00     0.107 A 
ATOM     21  N   UNL A   1      34.446  25.095  23.972  1.00  0.00    -0.221 NA
ATOM     22  C   UNL A   1      35.528  23.774  25.749  1.00  0.00     0.088 C 
BRANCH  18  23
ATOM     23  C   UNL A   1      33.980  21.515  24.205  1.00  0.00     0.123 C 
BRANCH  23  24
ATOM     24  C   UNL A   1      32.593  20.890  24.040  1.00  0.00     0.018 C 
ATOM     25  C   UNL A   1      32.594  19.370  24.013  1.00  0.00     0.006 C 
ENDBRANCH  23  24
ENDBRANCH  18  23
ENDBRANCH  14  17
ENDBRANCH  12  14
ENDBRANCH   8  12
ENDBRANCH   5   7
ENDBRANCH   4   5
ENDBRANCH   3   4
ENDBRANCH   2   3
ENDBRANCH   1   2
BRANCH   1  26
ATOM     26  C   UNL A   1      34.808  33.688  29.305  1.00  0.00     0.188 C 
BRANCH  26  27
ATOM     27  C   UNL A   1      33.720  34.716  28.966  1.00  0.00     0.188 C 
BRANCH  27  28
ATOM     28  O   UNL A   1      33.873  36.113  29.116  1.00  0.00    -0.376 OA
BRANCH  28  29
ATOM     29  C   UNL A   1      33.146  36.939  30.013  1.00  0.00     0.202 C 
BRANCH  29  30
ATOM     30  C   UNL A   1      33.083  36.744  31.524  1.00  0.00     0.261 C 
BRANCH  30  31
ATOM     31  O   UNL A   1      34.198  36.091  32.074  1.00  0.00    -0.460 OA
BRANCH  31  32
ATOM     32  C   UNL A   1      33.894  34.902  32.625  1.00  0.00     0.338 C 
ATOM     33  O   UNL A   1      32.809  34.334  32.642  1.00  0.00    -0.246 OA
BRANCH  32  34
ATOM     34  C   UNL A   1      35.113  34.365  33.219  1.00  0.00     0.060 A 
ATOM     35  C   UNL A   1      36.272  35.126  33.069  1.00  0.00     0.016 A 
ATOM     36  C   UNL A   1      35.127  33.016  33.595  1.00  0.00     0.016 A 
ATOM     37  C   UNL A   1      37.460  34.449  32.981  1.00  0.00     0.010 A 
ATOM     38  C   UNL A   1      36.305  32.338  33.475  1.00  0.00     0.010 A 
ATOM     39  C   UNL A   1      37.420  33.053  33.053  1.00  0.00    -0.014 A 
BRANCH  39  40
ATOM     40  C   UNL A   1      38.613  32.321  32.716  1.00  0.00     0.031 A 
ATOM     41  C   UNL A   1      39.465  32.125  33.895  1.00  0.00     0.074 A 
ATOM     42  C   UNL A   1      38.812  31.835  31.476  1.00  0.00     0.049 A 
ATOM     43  N   UNL A   1      40.570  32.735  34.161  1.00  0.00    -0.248 NA
ATOM     44  C   UNL A   1      38.923  31.342  35.019  1.00  0.00     0.031 C 
ATOM     45  C   UNL A   1      37.852  31.797  30.366  1.00  0.00     0.029 A 
ATOM     46  N   UNL A   1      39.894  31.182  30.968  1.00  0.00    -0.354 N 
ATOM     47  C   UNL A   1      40.993  32.192  35.365  1.00  0.00     0.074 A 
ATOM     48  C   UNL A   1      39.842  31.570  35.958  1.00  0.00     0.031 C 
ATOM     49  C   UNL A   1      38.310  30.964  29.404  1.00  0.00     0.029 A 
ATOM     50  C   UNL A   1      39.649  30.531  29.764  1.00  0.00     0.049 A 
ATOM     51  H   UNL A   1      40.773  31.173  31.413  1.00  0.00     0.167 HD
ATOM     52  C   UNL A   1      42.317  31.958  35.557  1.00  0.00     0.037 A 
ATOM     53  C   UNL A   1      40.487  29.665  29.144  1.00  0.00     0.037 A 
ATOM     54  C   UNL A   1      43.103  32.686  34.591  1.00  0.00     0.049 A 
ATOM     55  C   UNL A   1      41.850  29.918  29.665  1.00  0.00     0.074 A 
ATOM     56  C   UNL A   1      43.508  33.990  34.411  1.00  0.00     0.029 A 
ATOM     57  N   UNL A   1      43.223  32.050  33.383  1.00  0.00    -0.354 N 
ATOM     58  N   UNL A   1      42.514  31.012  29.414  1.00  0.00    -0.248 NA
ATOM     59  C   UNL A   1      42.350  29.126  30.786  1.00  0.00     0.031 C 
ATOM     60  C   UNL A   1      43.774  34.141  33.018  1.00  0.00     0.029 A 
ATOM     61  C   UNL A   1      43.563  32.920  32.383  1.00  0.00     0.049 A 
ATOM     62  H   UNL A   1      43.079  31.085  33.250  1.00  0.00     0.167 HD
ATOM     63  C   UNL A   1      43.216  31.257  30.577  1.00  0.00     0.074 A 
ATOM     64  C   UNL A   1      43.223  29.995  31.305  1.00  0.00     0.031 C 
ATOM     65  C   UNL A   1      43.422  32.536  30.999  1.00  0.00     0.037 A 
BRANCH  52  66
ATOM     66  C   UNL A   1      42.869  30.712  36.218  1.00  0.00     0.064 A 
ATOM     67  C   UNL A   1      43.860  30.865  37.208  1.00  0.00     0.173 A 
ATOM     68  C   UNL A   1      42.709  29.399  35.721  1.00  0.00     0.173 A 
ATOM     69  F   UNL A   1      44.114  32.070  37.738  1.00  0.00    -0.203 F 
ATOM     70  C   UNL A   1      44.671  29.800  37.611  1.00  0.00     0.198 A 
ATOM     71  C   UNL A   1      43.484  28.330  36.164  1.00  0.00     0.198 A 
ATOM     72  F   UNL A   1      41.887  29.102  34.710  1.00  0.00    -0.203 F 
ATOM     73  F   UNL A   1      45.677  30.019  38.468  1.00  0.00    -0.200 F 
ATOM     74  C   UNL A   1      44.485  28.535  37.086  1.00  0.00     0.200 A 
ATOM     75  F   UNL A   1      43.301  27.117  35.622  1.00  0.00    -0.200 F 
ATOM     76  F   UNL A   1      45.296  27.527  37.428  1.00  0.00    -0.200 F 
ENDBRANCH  52  66
BRANCH  53  77
ATOM     77  C   UNL A   1      40.175  28.480  28.316  1.00  0.00     0.064 A 
ATOM     78  C   UNL A   1      40.785  28.283  27.067  1.00  0.00     0.173 A 
ATOM     79  C   UNL A   1      39.503  27.374  28.870  1.00  0.00     0.173 A 
ATOM     80  F   UNL A   1      41.477  29.277  26.491  1.00  0.00    -0.203 F 
ATOM     81  C   UNL A   1      40.760  27.040  26.427  1.00  0.00     0.198 A 
ATOM     82  C   UNL A   1      39.477  26.133  28.229  1.00  0.00     0.198 A 
ATOM     83  F   UNL A   1      38.950  27.450  30.089  1.00  0.00    -0.203 F 
ATOM     84  F   UNL A   1      41.411  26.870  25.267  1.00  0.00    -0.200 F 
ATOM     85  C   UNL A   1      40.118  25.962  27.015  1.00  0.00     0.200 A 
ATOM     86  F   UNL A   1      38.888  25.088  28.827  1.00  0.00    -0.200 F 
ATOM     87  F   UNL A   1      40.156  24.753  26.439  1.00  0.00    -0.200 F 
ENDBRANCH  53  77
BRANCH  65  88
ATOM     88  C   UNL A   1      43.347  33.612  29.964  1.00  0.00     0.064 A 
ATOM     89  C   UNL A   1      42.196  34.368  29.686  1.00  0.00     0.173 A 
ATOM     90  C   UNL A   1      44.518  33.926  29.265  1.00  0.00     0.173 A 
ATOM     91  F   UNL A   1      41.060  34.168  30.368  1.00  0.00    -0.203 F 
ATOM     92  C   UNL A   1      42.215  35.370  28.719  1.00  0.00     0.198 A 
ATOM     93  C   UNL A   1      44.543  34.950  28.325  1.00  0.00     0.198 A 
ATOM     94  F   UNL A   1      45.653  33.257  29.522  1.00  0.00    -0.203 F 
ATOM     95  F   UNL A   1      41.101  36.071  28.453  1.00  0.00    -0.200 F 
ATOM     96  C   UNL A   1      43.390  35.664  28.044  1.00  0.00     0.200 A 
ATOM     97  F   UNL A   1      45.691  35.255  27.706  1.00  0.00    -0.200 F 
ATOM     98  F   UNL A   1      43.417  36.651  27.137  1.00  0.00    -0.200 F 
ENDBRANCH  65  88
ENDBRANCH  39  40
ENDBRANCH  32  34
ENDBRANCH  31  32
ENDBRANCH  30  31
ENDBRANCH  29  30
ENDBRANCH  28  29
ENDBRANCH  27  28
ENDBRANCH  26  27
ENDBRANCH   1  26
TORSDOF 22
ENDMDL
MODEL 3
REMARK VINA RESULT:     -10.5      2.911      4.799
REMARK SMILES CCCn1cc(S(=O)(=O)N[C@H]2C=C[C@@H](C(=O)OCCOCCOCCOC(=O)c3ccc(-c4c5nc(c(-c6c(F)c(F)c(F)c(F)c6F)c6ccc([nH]6)c(-c6c(F)c(F)c(F)c(F)c6F)c6nc(c(-c7c(F)c(F)c(F)c(F)c7F)c7ccc4[nH]7)C=C6)C=C5)cc3)C2)nc1C
REMARK SMILES IDX 20 1 19 2 18 3 17 4 15 5 16 6 14 7 11 8 12 9 92 10 13 11
REMARK SMILES IDX 10 12 7 14 8 15 9 16 6 17 4 18 5 19 94 20 93 21 95 22 3 23
REMARK SMILES IDX 2 24 1 25 21 26 22 27 23 28 24 29 25 30 26 31 27 32 28 33
REMARK SMILES IDX 29 34 30 35 91 36 31 37 90 38 32 39 33 40 34 41 84 42 35 43
REMARK SMILES IDX 89 44 83 45 85 46 36 47 88 48 82 49 81 50 37 52 69 53 49 54
REMARK SMILES IDX 68 55 50 56 53 57 67 58 86 59 51 60 52 61 66 63 87 64 54 65
REMARK SMILES IDX 38 66 39 67 47 68 40 69 41 70 45 71 48 72 42 73 43 74 46 75
REMARK SMILES IDX 44 76 70 77 71 78 79 79 72 80 73 81 77 82 80 83 74 84 75 85
REMARK SMILES IDX 78 86 76 87 55 88 56 89 64 90 57 91 58 92 62 93 65 94 59 95
REMARK SMILES IDX 60 96 63 97 61 98
REMARK H PARENT 10 13 85 51 53 62
REMARK Flexibility Score: inf
ROOT
ATOM      1  O   UNL A   1      38.591  23.217  26.429  1.00  0.00    -0.376 OA
ENDROOT
BRANCH   1   2
ATOM      2  C   UNL A   1      37.451  23.446  25.614  1.00  0.00     0.202 C 
BRANCH   2   3
ATOM      3  C   UNL A   1      36.000  23.230  26.100  1.00  0.00     0.261 C 
BRANCH   3   4
ATOM      4  O   UNL A   1      35.422  21.945  25.809  1.00  0.00    -0.463 OA
BRANCH   4   5
ATOM      5  C   UNL A   1      34.239  21.660  26.416  1.00  0.00     0.312 C 
ATOM      6  O   UNL A   1      34.127  21.438  27.618  1.00  0.00    -0.252 OA
BRANCH   5   7
ATOM      7  C   UNL A   1      33.016  21.799  25.496  1.00  0.00     0.123 C 
ATOM      8  C   UNL A   1      32.168  23.436  23.831  1.00  0.00     0.093 C 
ATOM      9  C   UNL A   1      33.025  22.395  23.212  1.00  0.00    -0.011 C 
ATOM     10  C   UNL A   1      32.335  23.165  25.333  1.00  0.00     0.043 C 
ATOM     11  C   UNL A   1      33.440  21.484  24.096  1.00  0.00    -0.015 C 
BRANCH   8  12
ATOM     12  N   UNL A   1      32.536  24.822  23.557  1.00  0.00    -0.203 NA
ATOM     13  H   UNL A   1      33.012  25.164  24.391  1.00  0.00     0.142 HD
BRANCH  12  14
ATOM     14  S   UNL A   1      31.375  25.977  23.165  1.00  0.00     0.260 S 
ATOM     15  O   UNL A   1      30.118  25.490  23.719  1.00  0.00    -0.205 OA
ATOM     16  O   UNL A   1      31.520  26.252  21.763  1.00  0.00    -0.205 OA
BRANCH  14  17
ATOM     17  C   UNL A   1      31.698  27.487  23.974  1.00  0.00     0.188 A 
ATOM     18  N   UNL A   1      32.551  29.045  25.258  1.00  0.00    -0.334 N 
ATOM     19  C   UNL A   1      32.796  27.788  24.755  1.00  0.00     0.129 A 
ATOM     20  C   UNL A   1      31.341  29.467  24.749  1.00  0.00     0.107 A 
ATOM     21  N   UNL A   1      30.817  28.544  23.971  1.00  0.00    -0.221 NA
ATOM     22  C   UNL A   1      30.683  30.766  25.029  1.00  0.00     0.088 C 
BRANCH  18  23
ATOM     23  C   UNL A   1      33.346  29.677  26.296  1.00  0.00     0.123 C 
BRANCH  23  24
ATOM     24  C   UNL A   1      34.431  28.807  26.934  1.00  0.00     0.018 C 
ATOM     25  C   UNL A   1      35.592  29.591  27.523  1.00  0.00     0.006 C 
ENDBRANCH  23  24
ENDBRANCH  18  23
ENDBRANCH  14  17
ENDBRANCH  12  14
ENDBRANCH   8  12
ENDBRANCH   5   7
ENDBRANCH   4   5
ENDBRANCH   3   4
ENDBRANCH   2   3
ENDBRANCH   1   2
BRANCH   1  26
ATOM     26  C   UNL A   1      39.326  22.030  26.264  1.00  0.00     0.188 C 
BRANCH  26  27
ATOM     27  C   UNL A   1      40.430  21.673  27.268  1.00  0.00     0.188 C 
BRANCH  27  28
ATOM     28  O   UNL A   1      41.387  20.653  27.066  1.00  0.00    -0.376 OA
BRANCH  28  29
ATOM     29  C   UNL A   1      42.460  20.689  26.136  1.00  0.00     0.202 C 
BRANCH  29  30
ATOM     30  C   UNL A   1      43.264  21.935  25.779  1.00  0.00     0.261 C 
BRANCH  30  31
ATOM     31  O   UNL A   1      42.504  22.982  25.233  1.00  0.00    -0.460 OA
BRANCH  31  32
ATOM     32  C   UNL A   1      43.070  24.190  25.406  1.00  0.00     0.338 C 
ATOM     33  O   UNL A   1      44.093  24.625  24.892  1.00  0.00    -0.246 OA
BRANCH  32  34
ATOM     34  C   UNL A   1      42.235  24.940  26.338  1.00  0.00     0.060 A 
ATOM     35  C   UNL A   1      41.324  25.838  25.782  1.00  0.00     0.016 A 
ATOM     36  C   UNL A   1      42.610  24.968  27.688  1.00  0.00     0.016 A 
ATOM     37  C   UNL A   1      41.036  26.967  26.504  1.00  0.00     0.010 A 
ATOM     38  C   UNL A   1      42.350  26.106  28.393  1.00  0.00     0.010 A 
ATOM     39  C   UNL A   1      41.670  27.128  27.739  1.00  0.00    -0.014 A 
BRANCH  39  40
ATOM     40  C   UNL A   1      41.573  28.409  28.390  1.00  0.00     0.031 A 
ATOM     41  C   UNL A   1      42.731  29.253  28.074  1.00  0.00     0.074 A 
ATOM     42  C   UNL A   1      40.488  28.749  29.111  1.00  0.00     0.049 A 
ATOM     43  N   UNL A   1      43.715  29.541  28.856  1.00  0.00    -0.248 NA
ATOM     44  C   UNL A   1      42.948  29.632  26.667  1.00  0.00     0.031 C 
ATOM     45  C   UNL A   1      39.219  28.019  29.215  1.00  0.00     0.029 A 
ATOM     46  N   UNL A   1      40.253  29.877  29.838  1.00  0.00    -0.354 N 
ATOM     47  C   UNL A   1      44.532  30.373  28.104  1.00  0.00     0.074 A 
ATOM     48  C   UNL A   1      44.166  30.172  26.730  1.00  0.00     0.031 C 
ATOM     49  C   UNL A   1      38.282  28.823  29.768  1.00  0.00     0.029 A 
ATOM     50  C   UNL A   1      38.920  30.059  30.187  1.00  0.00     0.049 A 
ATOM     51  H   UNL A   1      40.965  30.507  30.095  1.00  0.00     0.167 HD
ATOM     52  C   UNL A   1      45.136  31.429  28.708  1.00  0.00     0.037 A 
ATOM     53  C   UNL A   1      38.388  31.176  30.741  1.00  0.00     0.037 A 
ATOM     54  C   UNL A   1      45.117  31.269  30.141  1.00  0.00     0.049 A 
ATOM     55  C   UNL A   1      39.499  31.931  31.365  1.00  0.00     0.074 A 
ATOM     56  C   UNL A   1      45.808  30.527  31.073  1.00  0.00     0.029 A 
ATOM     57  N   UNL A   1      43.946  31.675  30.727  1.00  0.00    -0.354 N 
ATOM     58  N   UNL A   1      40.145  31.506  32.416  1.00  0.00    -0.248 NA
ATOM     59  C   UNL A   1      40.163  32.990  30.609  1.00  0.00     0.031 C 
ATOM     60  C   UNL A   1      44.954  30.412  32.210  1.00  0.00     0.029 A 
ATOM     61  C   UNL A   1      43.779  31.116  31.965  1.00  0.00     0.049 A 
ATOM     62  H   UNL A   1      43.304  32.292  30.309  1.00  0.00     0.167 HD
ATOM     63  C   UNL A   1      41.445  31.920  32.204  1.00  0.00     0.074 A 
ATOM     64  C   UNL A   1      41.365  32.964  31.193  1.00  0.00     0.031 C 
ATOM     65  C   UNL A   1      42.488  31.142  32.611  1.00  0.00     0.037 A 
BRANCH  52  66
ATOM     66  C   UNL A   1      45.252  32.805  28.087  1.00  0.00     0.064 A 
ATOM     67  C   UNL A   1      46.541  33.332  27.867  1.00  0.00     0.173 A 
ATOM     68  C   UNL A   1      44.195  33.738  27.994  1.00  0.00     0.173 A 
ATOM     69  F   UNL A   1      47.623  32.544  27.950  1.00  0.00    -0.203 F 
ATOM     70  C   UNL A   1      46.753  34.695  27.642  1.00  0.00     0.198 A 
ATOM     71  C   UNL A   1      44.407  35.087  27.718  1.00  0.00     0.198 A 
ATOM     72  F   UNL A   1      42.926  33.426  28.275  1.00  0.00    -0.203 F 
ATOM     73  F   UNL A   1      48.003  35.168  27.557  1.00  0.00    -0.200 F 
ATOM     74  C   UNL A   1      45.686  35.572  27.573  1.00  0.00     0.200 A 
ATOM     75  F   UNL A   1      43.358  35.922  27.678  1.00  0.00    -0.200 F 
ATOM     76  F   UNL A   1      45.890  36.885  27.414  1.00  0.00    -0.200 F 
ENDBRANCH  52  66
BRANCH  53  77
ATOM     77  C   UNL A   1      37.042  31.764  30.573  1.00  0.00     0.064 A 
ATOM     78  C   UNL A   1      36.108  31.757  31.622  1.00  0.00     0.173 A 
ATOM     79  C   UNL A   1      36.757  32.606  29.482  1.00  0.00     0.173 A 
ATOM     80  F   UNL A   1      36.327  31.010  32.714  1.00  0.00    -0.203 F 
ATOM     81  C   UNL A   1      34.975  32.577  31.600  1.00  0.00     0.198 A 
ATOM     82  C   UNL A   1      35.625  33.423  29.460  1.00  0.00     0.198 A 
ATOM     83  F   UNL A   1      37.624  32.727  28.467  1.00  0.00    -0.203 F 
ATOM     84  F   UNL A   1      34.142  32.595  32.650  1.00  0.00    -0.200 F 
ATOM     85  C   UNL A   1      34.742  33.420  30.526  1.00  0.00     0.200 A 
ATOM     86  F   UNL A   1      35.431  34.263  28.434  1.00  0.00    -0.200 F 
ATOM     87  F   UNL A   1      33.697  34.258  30.536  1.00  0.00    -0.200 F 
ENDBRANCH  53  77
BRANCH  65  88
ATOM     88  C   UNL A   1      42.214  30.156  33.699  1.00  0.00     0.064 A 
ATOM     89  C   UNL A   1      41.781  28.837  33.485  1.00  0.00     0.173 A 
ATOM     90  C   UNL A   1      42.462  30.554  35.018  1.00  0.00     0.173 A 
ATOM     91  F   UNL A   1      41.592  28.367  32.245  1.00  0.00    -0.203 F 
ATOM     92  C   UNL A   1      41.569  27.970  34.556  1.00  0.00     0.198 A 
ATOM     93  C   UNL A   1      42.284  29.677  36.082  1.00  0.00     0.198 A 
ATOM     94  F   UNL A   1      42.914  31.793  35.270  1.00  0.00    -0.203 F 
ATOM     95  F   UNL A   1      41.137  26.719  34.335  1.00  0.00    -0.200 F 
ATOM     96  C   UNL A   1      41.827  28.390  35.852  1.00  0.00     0.200 A 
ATOM     97  F   UNL A   1      42.574  30.077  37.327  1.00  0.00    -0.200 F 
ATOM     98  F   UNL A   1      41.656  27.547  36.880  1.00  0.00    -0.200 F 
ENDBRANCH  65  88
ENDBRANCH  39  40
ENDBRANCH  32  34
ENDBRANCH  31  32
ENDBRANCH  30  31
ENDBRANCH  29  30
ENDBRANCH  28  29
ENDBRANCH  27  28
ENDBRANCH  26  27
ENDBRANCH   1  26
TORSDOF 22
ENDMDL
