MODEL 1
REMARK VINA RESULT:     -10.9      0.000      0.000
REMARK SMILES O=C(OCCOCCOCCOC(=O)c1cn(C[C@@H]2CCS(=O)(=O)C2)c(=O)[nH]c1=O)c1ccc(-c2c3nc(c(-c4c(F)c(F)c(F)c(F)c4F)c4ccc([nH]4)c(-c4c(F)c(F)c(F)c(F)c4F)c4nc(c(-c5c(F)c(F)c(F)c(F)c5F)c5ccc2[nH]5)C=C4)C=C3)cc1
REMARK SMILES IDX 7 1 6 2 5 3 4 4 3 5 2 6 1 7 31 8 32 9 93 10 33 11 92 12
REMARK SMILES IDX 34 13 35 14 36 15 86 16 37 17 91 18 85 19 87 20 38 21 90 22
REMARK SMILES IDX 84 23 83 24 39 26 71 27 51 28 70 29 52 30 55 31 69 32 88 33
REMARK SMILES IDX 53 34 54 35 68 37 89 38 56 39 40 40 41 41 49 42 42 43 43 44
REMARK SMILES IDX 47 45 50 46 44 47 45 48 48 49 46 50 72 51 73 52 81 53 74 54
REMARK SMILES IDX 75 55 79 56 82 57 76 58 77 59 80 60 78 61 57 62 58 63 66 64
REMARK SMILES IDX 59 65 60 66 64 67 67 68 61 69 62 70 65 71 63 72 8 73 9 74
REMARK SMILES IDX 10 75 11 76 12 77 13 78 14 79 15 80 16 81 29 82 17 83 28 84
REMARK SMILES IDX 30 85 26 86 27 88 18 89 19 90 20 91 25 92 21 93 22 94 23 95
REMARK SMILES IDX 24 96
REMARK H PARENT 87 25 55 36 28 87
REMARK Flexibility Score: inf
ROOT
ATOM      1  C   UNL A   1      40.060  20.680  26.391  1.00  0.00     0.188 C 
ENDROOT
BRANCH   1   2
ATOM      2  O   UNL A   1      41.376  20.990  26.865  1.00  0.00    -0.376 OA
BRANCH   2   3
ATOM      3  C   UNL A   1      42.412  20.413  26.071  1.00  0.00     0.202 C 
BRANCH   3   4
ATOM      4  C   UNL A   1      43.513  21.362  25.574  1.00  0.00     0.261 C 
BRANCH   4   5
ATOM      5  O   UNL A   1      43.079  22.606  24.995  1.00  0.00    -0.460 OA
BRANCH   5   6
ATOM      6  C   UNL A   1      43.493  23.884  25.094  1.00  0.00     0.338 C 
ATOM      7  O   UNL A   1      44.372  24.253  24.314  1.00  0.00    -0.246 OA
BRANCH   6   8
ATOM      8  C   UNL A   1      42.989  24.898  26.076  1.00  0.00     0.060 A 
ATOM      9  C   UNL A   1      41.884  24.511  26.865  1.00  0.00     0.016 A 
ATOM     10  C   UNL A   1      43.495  26.179  26.279  1.00  0.00     0.016 A 
ATOM     11  C   UNL A   1      41.311  25.371  27.812  1.00  0.00     0.010 A 
ATOM     12  C   UNL A   1      42.930  27.044  27.229  1.00  0.00     0.010 A 
ATOM     13  C   UNL A   1      41.834  26.652  28.006  1.00  0.00    -0.014 A 
BRANCH  13  14
ATOM     14  C   UNL A   1      41.397  27.490  29.149  1.00  0.00     0.031 A 
ATOM     15  C   UNL A   1      40.293  28.501  29.070  1.00  0.00     0.074 A 
ATOM     16  C   UNL A   1      42.146  27.471  30.263  1.00  0.00     0.049 A 
ATOM     17  N   UNL A   1      39.594  29.057  30.034  1.00  0.00    -0.248 NA
ATOM     18  C   UNL A   1      39.972  29.006  27.736  1.00  0.00     0.031 C 
ATOM     19  C   UNL A   1      43.342  26.657  30.471  1.00  0.00     0.029 A 
ATOM     20  N   UNL A   1      42.031  28.213  31.406  1.00  0.00    -0.354 N 
ATOM     21  C   UNL A   1      38.645  29.852  29.400  1.00  0.00     0.074 A 
ATOM     22  C   UNL A   1      38.989  29.853  28.010  1.00  0.00     0.031 C 
ATOM     23  C   UNL A   1      43.868  26.966  31.666  1.00  0.00     0.029 A 
ATOM     24  C   UNL A   1      43.039  27.988  32.301  1.00  0.00     0.049 A 
ATOM     25  H   UNL A   1      41.294  28.845  31.568  1.00  0.00     0.167 HD
ATOM     26  C   UNL A   1      37.602  30.536  29.932  1.00  0.00     0.037 A 
ATOM     27  C   UNL A   1      43.253  28.546  33.504  1.00  0.00     0.037 A 
ATOM     28  C   UNL A   1      37.583  30.936  31.303  1.00  0.00     0.049 A 
ATOM     29  C   UNL A   1      42.251  29.524  34.050  1.00  0.00     0.074 A 
ATOM     30  C   UNL A   1      36.710  31.806  31.928  1.00  0.00     0.029 A 
ATOM     31  N   UNL A   1      38.597  30.647  32.196  1.00  0.00    -0.354 N 
ATOM     32  N   UNL A   1      41.121  29.936  33.526  1.00  0.00    -0.248 NA
ATOM     33  C   UNL A   1      42.546  30.096  35.369  1.00  0.00     0.031 C 
ATOM     34  C   UNL A   1      37.298  32.184  33.134  1.00  0.00     0.029 A 
ATOM     35  C   UNL A   1      38.461  31.446  33.307  1.00  0.00     0.049 A 
ATOM     36  H   UNL A   1      39.303  29.975  32.058  1.00  0.00     0.167 HD
ATOM     37  C   UNL A   1      40.553  30.786  34.466  1.00  0.00     0.074 A 
ATOM     38  C   UNL A   1      41.462  30.830  35.591  1.00  0.00     0.031 C 
ATOM     39  C   UNL A   1      39.382  31.467  34.408  1.00  0.00     0.037 A 
BRANCH  26  40
ATOM     40  C   UNL A   1      36.463  31.025  29.080  1.00  0.00     0.064 A 
ATOM     41  C   UNL A   1      35.426  30.136  28.733  1.00  0.00     0.173 A 
ATOM     42  C   UNL A   1      36.310  32.363  28.705  1.00  0.00     0.173 A 
ATOM     43  F   UNL A   1      35.497  28.843  29.088  1.00  0.00    -0.203 F 
ATOM     44  C   UNL A   1      34.329  30.552  27.978  1.00  0.00     0.198 A 
ATOM     45  C   UNL A   1      35.216  32.777  27.943  1.00  0.00     0.198 A 
ATOM     46  F   UNL A   1      37.232  33.270  29.054  1.00  0.00    -0.203 F 
ATOM     47  F   UNL A   1      33.413  29.659  27.574  1.00  0.00    -0.200 F 
ATOM     48  C   UNL A   1      34.235  31.871  27.568  1.00  0.00     0.200 A 
ATOM     49  F   UNL A   1      35.134  34.052  27.538  1.00  0.00    -0.200 F 
ATOM     50  F   UNL A   1      33.229  32.258  26.771  1.00  0.00    -0.200 F 
ENDBRANCH  26  40
BRANCH  27  51
ATOM     51  C   UNL A   1      44.418  28.081  34.289  1.00  0.00     0.064 A 
ATOM     52  C   UNL A   1      44.305  26.941  35.092  1.00  0.00     0.173 A 
ATOM     53  C   UNL A   1      45.683  28.671  34.152  1.00  0.00     0.173 A 
ATOM     54  F   UNL A   1      43.111  26.350  35.249  1.00  0.00    -0.203 F 
ATOM     55  C   UNL A   1      45.418  26.397  35.723  1.00  0.00     0.198 A 
ATOM     56  C   UNL A   1      46.801  28.114  34.768  1.00  0.00     0.198 A 
ATOM     57  F   UNL A   1      45.841  29.752  33.374  1.00  0.00    -0.203 F 
ATOM     58  F   UNL A   1      45.285  25.302  36.483  1.00  0.00    -0.200 F 
ATOM     59  C   UNL A   1      46.667  26.976  35.550  1.00  0.00     0.200 A 
ATOM     60  F   UNL A   1      48.010  28.659  34.578  1.00  0.00    -0.200 F 
ATOM     61  F   UNL A   1      47.746  26.430  36.129  1.00  0.00    -0.200 F 
ENDBRANCH  27  51
BRANCH  39  62
ATOM     62  C   UNL A   1      38.991  32.329  35.566  1.00  0.00     0.064 A 
ATOM     63  C   UNL A   1      38.318  31.797  36.672  1.00  0.00     0.173 A 
ATOM     64  C   UNL A   1      39.457  33.651  35.641  1.00  0.00     0.173 A 
ATOM     65  F   UNL A   1      37.878  30.530  36.652  1.00  0.00    -0.203 F 
ATOM     66  C   UNL A   1      38.108  32.568  37.810  1.00  0.00     0.198 A 
ATOM     67  C   UNL A   1      39.281  34.403  36.794  1.00  0.00     0.198 A 
ATOM     68  F   UNL A   1      40.145  34.186  34.619  1.00  0.00    -0.203 F 
ATOM     69  F   UNL A   1      37.444  32.048  38.852  1.00  0.00    -0.200 F 
ATOM     70  C   UNL A   1      38.601  33.863  37.876  1.00  0.00     0.200 A 
ATOM     71  F   UNL A   1      39.797  35.637  36.873  1.00  0.00    -0.200 F 
ATOM     72  F   UNL A   1      38.431  34.588  38.989  1.00  0.00    -0.200 F 
ENDBRANCH  39  62
ENDBRANCH  13  14
ENDBRANCH   6   8
ENDBRANCH   5   6
ENDBRANCH   4   5
ENDBRANCH   3   4
ENDBRANCH   2   3
ENDBRANCH   1   2
BRANCH   1  73
ATOM     73  C   UNL A   1      39.154  21.887  26.130  1.00  0.00     0.188 C 
BRANCH  73  74
ATOM     74  O   UNL A   1      38.272  21.845  25.012  1.00  0.00    -0.376 OA
BRANCH  74  75
ATOM     75  C   UNL A   1      37.238  20.871  24.985  1.00  0.00     0.202 C 
BRANCH  75  76
ATOM     76  C   UNL A   1      35.875  21.204  25.598  1.00  0.00     0.261 C 
BRANCH  76  77
ATOM     77  O   UNL A   1      35.445  22.540  25.323  1.00  0.00    -0.459 OA
BRANCH  77  78
ATOM     78  C   UNL A   1      34.491  22.651  24.369  1.00  0.00     0.345 C 
ATOM     79  O   UNL A   1      34.663  22.791  23.164  1.00  0.00    -0.246 OA
BRANCH  78  80
ATOM     80  C   UNL A   1      33.200  22.758  25.019  1.00  0.00     0.141 A 
ATOM     81  C   UNL A   1      32.947  23.966  25.516  1.00  0.00     0.112 A 
ATOM     82  C   UNL A   1      32.158  21.730  25.115  1.00  0.00     0.268 A 
ATOM     83  N   UNL A   1      31.764  24.260  26.157  1.00  0.00    -0.299 N 
ATOM     84  N   UNL A   1      31.184  21.999  26.034  1.00  0.00    -0.273 N 
ATOM     85  O   UNL A   1      32.139  20.712  24.439  1.00  0.00    -0.268 OA
ATOM     86  C   UNL A   1      30.955  23.220  26.609  1.00  0.00     0.328 A 
ATOM     87  H   UNL A   1      30.598  21.255  26.305  1.00  0.00     0.175 HD
ATOM     88  O   UNL A   1      30.085  23.320  27.465  1.00  0.00    -0.248 OA
BRANCH  83  89
ATOM     89  C   UNL A   1      31.552  25.672  26.431  1.00  0.00     0.131 C 
BRANCH  89  90
ATOM     90  C   UNL A   1      30.738  26.578  25.507  1.00  0.00     0.025 C 
ATOM     91  C   UNL A   1      30.177  26.074  24.172  1.00  0.00     0.022 C 
ATOM     92  C   UNL A   1      31.437  27.894  25.202  1.00  0.00     0.142 C 
ATOM     93  C   UNL A   1      31.140  26.403  23.032  1.00  0.00     0.137 C 
ATOM     94  S   UNL A   1      32.262  27.639  23.657  1.00  0.00     0.150 S 
ATOM     95  O   UNL A   1      33.539  27.024  23.930  1.00  0.00    -0.229 OA
ATOM     96  O   UNL A   1      32.133  28.851  22.869  1.00  0.00    -0.229 OA
ENDBRANCH  89  90
ENDBRANCH  83  89
ENDBRANCH  78  80
ENDBRANCH  77  78
ENDBRANCH  76  77
ENDBRANCH  75  76
ENDBRANCH  74  75
ENDBRANCH  73  74
ENDBRANCH   1  73
TORSDOF 19
ENDMDL
MODEL 2
REMARK VINA RESULT:     -10.8      4.874      9.161
REMARK SMILES O=C(OCCOCCOCCOC(=O)c1cn(C[C@@H]2CCS(=O)(=O)C2)c(=O)[nH]c1=O)c1ccc(-c2c3nc(c(-c4c(F)c(F)c(F)c(F)c4F)c4ccc([nH]4)c(-c4c(F)c(F)c(F)c(F)c4F)c4nc(c(-c5c(F)c(F)c(F)c(F)c5F)c5ccc2[nH]5)C=C4)C=C3)cc1
REMARK SMILES IDX 7 1 6 2 5 3 4 4 3 5 2 6 1 7 31 8 32 9 93 10 33 11 92 12
REMARK SMILES IDX 34 13 35 14 36 15 86 16 37 17 91 18 85 19 87 20 38 21 90 22
REMARK SMILES IDX 84 23 83 24 39 26 71 27 51 28 70 29 52 30 55 31 69 32 88 33
REMARK SMILES IDX 53 34 54 35 68 37 89 38 56 39 40 40 41 41 49 42 42 43 43 44
REMARK SMILES IDX 47 45 50 46 44 47 45 48 48 49 46 50 72 51 73 52 81 53 74 54
REMARK SMILES IDX 75 55 79 56 82 57 76 58 77 59 80 60 78 61 57 62 58 63 66 64
REMARK SMILES IDX 59 65 60 66 64 67 67 68 61 69 62 70 65 71 63 72 8 73 9 74
REMARK SMILES IDX 10 75 11 76 12 77 13 78 14 79 15 80 16 81 29 82 17 83 28 84
REMARK SMILES IDX 30 85 26 86 27 88 18 89 19 90 20 91 25 92 21 93 22 94 23 95
REMARK SMILES IDX 24 96
REMARK H PARENT 87 25 55 36 28 87
REMARK Flexibility Score: inf
ROOT
ATOM      1  C   UNL A   1      41.212  20.959  26.935  1.00  0.00     0.188 C 
ENDROOT
BRANCH   1   2
ATOM      2  O   UNL A   1      41.829  20.298  25.822  1.00  0.00    -0.376 OA
BRANCH   2   3
ATOM      3  C   UNL A   1      41.902  18.882  25.978  1.00  0.00     0.202 C 
BRANCH   3   4
ATOM      4  C   UNL A   1      43.294  18.245  25.865  1.00  0.00     0.261 C 
BRANCH   4   5
ATOM      5  O   UNL A   1      44.047  18.546  24.676  1.00  0.00    -0.460 OA
BRANCH   5   6
ATOM      6  C   UNL A   1      44.984  19.463  24.363  1.00  0.00     0.338 C 
ATOM      7  O   UNL A   1      45.963  19.070  23.726  1.00  0.00    -0.246 OA
BRANCH   6   8
ATOM      8  C   UNL A   1      44.950  20.916  24.729  1.00  0.00     0.060 A 
ATOM      9  C   UNL A   1      45.001  21.216  26.107  1.00  0.00     0.016 A 
ATOM     10  C   UNL A   1      44.865  21.990  23.847  1.00  0.00     0.016 A 
ATOM     11  C   UNL A   1      44.965  22.535  26.580  1.00  0.00     0.010 A 
ATOM     12  C   UNL A   1      44.835  23.314  24.313  1.00  0.00     0.010 A 
ATOM     13  C   UNL A   1      44.884  23.603  25.682  1.00  0.00    -0.014 A 
BRANCH  13  14
ATOM     14  C   UNL A   1      45.073  25.001  26.139  1.00  0.00     0.031 A 
ATOM     15  C   UNL A   1      46.414  25.647  26.319  1.00  0.00     0.074 A 
ATOM     16  C   UNL A   1      43.996  25.666  26.587  1.00  0.00     0.049 A 
ATOM     17  N   UNL A   1      46.728  26.921  26.391  1.00  0.00    -0.248 NA
ATOM     18  C   UNL A   1      47.547  24.743  26.511  1.00  0.00     0.031 C 
ATOM     19  C   UNL A   1      42.631  25.147  26.624  1.00  0.00     0.029 A 
ATOM     20  N   UNL A   1      43.909  26.908  27.153  1.00  0.00    -0.354 N 
ATOM     21  C   UNL A   1      48.116  26.962  26.471  1.00  0.00     0.074 A 
ATOM     22  C   UNL A   1      48.547  25.605  26.636  1.00  0.00     0.031 C 
ATOM     23  C   UNL A   1      41.841  26.059  27.210  1.00  0.00     0.029 A 
ATOM     24  C   UNL A   1      42.648  27.221  27.577  1.00  0.00     0.049 A 
ATOM     25  H   UNL A   1      44.677  27.516  27.244  1.00  0.00     0.167 HD
ATOM     26  C   UNL A   1      48.949  28.031  26.436  1.00  0.00     0.037 A 
ATOM     27  C   UNL A   1      42.204  28.333  28.186  1.00  0.00     0.037 A 
ATOM     28  C   UNL A   1      48.506  29.344  26.785  1.00  0.00     0.049 A 
ATOM     29  C   UNL A   1      43.152  29.476  28.414  1.00  0.00     0.074 A 
ATOM     30  C   UNL A   1      49.270  30.474  27.002  1.00  0.00     0.029 A 
ATOM     31  N   UNL A   1      47.209  29.636  27.160  1.00  0.00    -0.354 N 
ATOM     32  N   UNL A   1      44.417  29.586  28.080  1.00  0.00    -0.248 NA
ATOM     33  C   UNL A   1      42.604  30.660  29.084  1.00  0.00     0.031 C 
ATOM     34  C   UNL A   1      48.468  31.390  27.681  1.00  0.00     0.029 A 
ATOM     35  C   UNL A   1      47.182  30.874  27.760  1.00  0.00     0.049 A 
ATOM     36  H   UNL A   1      46.430  29.051  27.020  1.00  0.00     0.167 HD
ATOM     37  C   UNL A   1      44.803  30.863  28.467  1.00  0.00     0.074 A 
ATOM     38  C   UNL A   1      43.641  31.488  29.058  1.00  0.00     0.031 C 
ATOM     39  C   UNL A   1      46.009  31.468  28.340  1.00  0.00     0.037 A 
BRANCH  26  40
ATOM     40  C   UNL A   1      50.418  27.878  26.152  1.00  0.00     0.064 A 
ATOM     41  C   UNL A   1      51.311  27.655  27.220  1.00  0.00     0.173 A 
ATOM     42  C   UNL A   1      50.943  27.823  24.858  1.00  0.00     0.173 A 
ATOM     43  F   UNL A   1      50.865  27.665  28.486  1.00  0.00    -0.203 F 
ATOM     44  C   UNL A   1      52.677  27.467  27.004  1.00  0.00     0.198 A 
ATOM     45  C   UNL A   1      52.311  27.643  24.643  1.00  0.00     0.198 A 
ATOM     46  F   UNL A   1      50.138  27.968  23.797  1.00  0.00    -0.203 F 
ATOM     47  F   UNL A   1      53.514  27.365  28.046  1.00  0.00    -0.200 F 
ATOM     48  C   UNL A   1      53.178  27.479  25.713  1.00  0.00     0.200 A 
ATOM     49  F   UNL A   1      52.794  27.667  23.393  1.00  0.00    -0.200 F 
ATOM     50  F   UNL A   1      54.498  27.386  25.503  1.00  0.00    -0.200 F 
ENDBRANCH  26  40
BRANCH  27  51
ATOM     51  C   UNL A   1      40.762  28.424  28.503  1.00  0.00     0.064 A 
ATOM     52  C   UNL A   1      40.304  28.059  29.774  1.00  0.00     0.173 A 
ATOM     53  C   UNL A   1      39.844  28.995  27.609  1.00  0.00     0.173 A 
ATOM     54  F   UNL A   1      41.151  27.508  30.656  1.00  0.00    -0.203 F 
ATOM     55  C   UNL A   1      38.981  28.272  30.147  1.00  0.00     0.198 A 
ATOM     56  C   UNL A   1      38.525  29.227  27.989  1.00  0.00     0.198 A 
ATOM     57  F   UNL A   1      40.245  29.379  26.387  1.00  0.00    -0.203 F 
ATOM     58  F   UNL A   1      38.569  27.919  31.371  1.00  0.00    -0.200 F 
ATOM     59  C   UNL A   1      38.096  28.868  29.259  1.00  0.00     0.200 A 
ATOM     60  F   UNL A   1      37.679  29.825  27.141  1.00  0.00    -0.200 F 
ATOM     61  F   UNL A   1      36.831  29.106  29.632  1.00  0.00    -0.200 F 
ENDBRANCH  27  51
BRANCH  39  62
ATOM     62  C   UNL A   1      46.172  32.866  28.843  1.00  0.00     0.064 A 
ATOM     63  C   UNL A   1      46.645  33.122  30.136  1.00  0.00     0.173 A 
ATOM     64  C   UNL A   1      46.026  33.948  27.960  1.00  0.00     0.173 A 
ATOM     65  F   UNL A   1      46.824  32.115  31.003  1.00  0.00    -0.203 F 
ATOM     66  C   UNL A   1      46.950  34.419  30.533  1.00  0.00     0.198 A 
ATOM     67  C   UNL A   1      46.370  35.235  28.348  1.00  0.00     0.198 A 
ATOM     68  F   UNL A   1      45.615  33.741  26.698  1.00  0.00    -0.203 F 
ATOM     69  F   UNL A   1      47.383  34.648  31.781  1.00  0.00    -0.200 F 
ATOM     70  C   UNL A   1      46.825  35.471  29.637  1.00  0.00     0.200 A 
ATOM     71  F   UNL A   1      46.291  36.242  27.468  1.00  0.00    -0.200 F 
ATOM     72  F   UNL A   1      47.157  36.713  30.012  1.00  0.00    -0.200 F 
ENDBRANCH  39  62
ENDBRANCH  13  14
ENDBRANCH   6   8
ENDBRANCH   5   6
ENDBRANCH   4   5
ENDBRANCH   3   4
ENDBRANCH   2   3
ENDBRANCH   1   2
BRANCH   1  73
ATOM     73  C   UNL A   1      39.958  21.773  26.603  1.00  0.00     0.188 C 
BRANCH  73  74
ATOM     74  O   UNL A   1      39.028  21.234  25.667  1.00  0.00    -0.376 OA
BRANCH  74  75
ATOM     75  C   UNL A   1      37.853  21.972  25.359  1.00  0.00     0.202 C 
BRANCH  75  76
ATOM     76  C   UNL A   1      36.484  21.391  25.721  1.00  0.00     0.261 C 
BRANCH  76  77
ATOM     77  O   UNL A   1      35.457  22.381  25.812  1.00  0.00    -0.459 OA
BRANCH  77  78
ATOM     78  C   UNL A   1      34.592  22.410  24.771  1.00  0.00     0.345 C 
ATOM     79  O   UNL A   1      34.871  22.429  23.578  1.00  0.00    -0.246 OA
BRANCH  78  80
ATOM     80  C   UNL A   1      33.251  22.595  25.290  1.00  0.00     0.141 A 
ATOM     81  C   UNL A   1      33.010  23.829  25.727  1.00  0.00     0.112 A 
ATOM     82  C   UNL A   1      32.157  21.619  25.313  1.00  0.00     0.268 A 
ATOM     83  N   UNL A   1      31.787  24.196  26.242  1.00  0.00    -0.299 N 
ATOM     84  N   UNL A   1      31.114  21.961  26.126  1.00  0.00    -0.273 N 
ATOM     85  O   UNL A   1      32.154  20.581  24.668  1.00  0.00    -0.268 OA
ATOM     86  C   UNL A   1      30.890  23.209  26.642  1.00  0.00     0.328 A 
ATOM     87  H   UNL A   1      30.471  21.254  26.360  1.00  0.00     0.175 HD
ATOM     88  O   UNL A   1      29.949  23.376  27.408  1.00  0.00    -0.248 OA
BRANCH  83  89
ATOM     89  C   UNL A   1      31.619  25.625  26.456  1.00  0.00     0.131 C 
BRANCH  89  90
ATOM     90  C   UNL A   1      30.731  26.492  25.563  1.00  0.00     0.025 C 
ATOM     91  C   UNL A   1      30.128  25.955  24.260  1.00  0.00     0.022 C 
ATOM     92  C   UNL A   1      31.366  27.829  25.216  1.00  0.00     0.142 C 
ATOM     93  C   UNL A   1      31.025  26.309  23.073  1.00  0.00     0.137 C 
ATOM     94  S   UNL A   1      32.128  27.589  23.637  1.00  0.00     0.150 S 
ATOM     95  O   UNL A   1      33.438  27.024  23.855  1.00  0.00    -0.229 OA
ATOM     96  O   UNL A   1      31.919  28.789  22.846  1.00  0.00    -0.229 OA
ENDBRANCH  89  90
ENDBRANCH  83  89
ENDBRANCH  78  80
ENDBRANCH  77  78
ENDBRANCH  76  77
ENDBRANCH  75  76
ENDBRANCH  74  75
ENDBRANCH  73  74
ENDBRANCH   1  73
TORSDOF 19
ENDMDL
MODEL 3
REMARK VINA RESULT:     -10.7      2.828      8.435
REMARK SMILES O=C(OCCOCCOCCOC(=O)c1cn(C[C@@H]2CCS(=O)(=O)C2)c(=O)[nH]c1=O)c1ccc(-c2c3nc(c(-c4c(F)c(F)c(F)c(F)c4F)c4ccc([nH]4)c(-c4c(F)c(F)c(F)c(F)c4F)c4nc(c(-c5c(F)c(F)c(F)c(F)c5F)c5ccc2[nH]5)C=C4)C=C3)cc1
REMARK SMILES IDX 7 1 6 2 5 3 4 4 3 5 2 6 1 7 31 8 32 9 93 10 33 11 92 12
REMARK SMILES IDX 34 13 35 14 36 15 86 16 37 17 91 18 85 19 87 20 38 21 90 22
REMARK SMILES IDX 84 23 83 24 39 26 71 27 51 28 70 29 52 30 55 31 69 32 88 33
REMARK SMILES IDX 53 34 54 35 68 37 89 38 56 39 40 40 41 41 49 42 42 43 43 44
REMARK SMILES IDX 47 45 50 46 44 47 45 48 48 49 46 50 72 51 73 52 81 53 74 54
REMARK SMILES IDX 75 55 79 56 82 57 76 58 77 59 80 60 78 61 57 62 58 63 66 64
REMARK SMILES IDX 59 65 60 66 64 67 67 68 61 69 62 70 65 71 63 72 8 73 9 74
REMARK SMILES IDX 10 75 11 76 12 77 13 78 14 79 15 80 16 81 29 82 17 83 28 84
REMARK SMILES IDX 30 85 26 86 27 88 18 89 19 90 20 91 25 92 21 93 22 94 23 95
REMARK SMILES IDX 24 96
REMARK H PARENT 87 25 55 36 28 87
REMARK Flexibility Score: inf
ROOT
ATOM      1  C   UNL A   1      33.310  29.293  23.721  1.00  0.00     0.188 C 
ENDROOT
BRANCH   1   2
ATOM      2  O   UNL A   1      33.252  29.141  25.145  1.00  0.00    -0.376 OA
BRANCH   2   3
ATOM      3  C   UNL A   1      31.952  29.376  25.685  1.00  0.00     0.202 C 
BRANCH   3   4
ATOM      4  C   UNL A   1      31.791  30.608  26.587  1.00  0.00     0.261 C 
BRANCH   4   5
ATOM      5  O   UNL A   1      32.857  31.574  26.557  1.00  0.00    -0.460 OA
BRANCH   5   6
ATOM      6  C   UNL A   1      33.660  32.118  27.492  1.00  0.00     0.338 C 
ATOM      7  O   UNL A   1      33.376  33.249  27.888  1.00  0.00    -0.246 OA
BRANCH   6   8
ATOM      8  C   UNL A   1      34.877  31.476  28.087  1.00  0.00     0.060 A 
ATOM      9  C   UNL A   1      35.999  32.312  28.273  1.00  0.00     0.016 A 
ATOM     10  C   UNL A   1      35.009  30.142  28.465  1.00  0.00     0.016 A 
ATOM     11  C   UNL A   1      37.201  31.831  28.810  1.00  0.00     0.010 A 
ATOM     12  C   UNL A   1      36.208  29.655  29.009  1.00  0.00     0.010 A 
ATOM     13  C   UNL A   1      37.316  30.491  29.188  1.00  0.00    -0.014 A 
BRANCH  13  14
ATOM     14  C   UNL A   1      38.488  30.014  29.963  1.00  0.00     0.031 A 
ATOM     15  C   UNL A   1      39.348  28.857  29.551  1.00  0.00     0.074 A 
ATOM     16  C   UNL A   1      38.681  30.529  31.188  1.00  0.00     0.049 A 
ATOM     17  N   UNL A   1      40.563  28.538  29.934  1.00  0.00    -0.248 NA
ATOM     18  C   UNL A   1      38.740  27.893  28.635  1.00  0.00     0.031 C 
ATOM     19  C   UNL A   1      37.860  31.560  31.817  1.00  0.00     0.029 A 
ATOM     20  N   UNL A   1      39.606  30.197  32.139  1.00  0.00    -0.354 N 
ATOM     21  C   UNL A   1      40.917  27.426  29.176  1.00  0.00     0.074 A 
ATOM     22  C   UNL A   1      39.731  27.027  28.477  1.00  0.00     0.031 C 
ATOM     23  C   UNL A   1      38.304  31.759  33.067  1.00  0.00     0.029 A 
ATOM     24  C   UNL A   1      39.442  30.876  33.314  1.00  0.00     0.049 A 
ATOM     25  H   UNL A   1      40.320  29.536  31.992  1.00  0.00     0.167 HD
ATOM     26  C   UNL A   1      42.108  26.785  29.092  1.00  0.00     0.037 A 
ATOM     27  C   UNL A   1      40.147  30.792  34.454  1.00  0.00     0.037 A 
ATOM     28  C   UNL A   1      43.082  26.862  30.136  1.00  0.00     0.049 A 
ATOM     29  C   UNL A   1      41.347  29.891  34.513  1.00  0.00     0.074 A 
ATOM     30  C   UNL A   1      44.229  26.109  30.292  1.00  0.00     0.029 A 
ATOM     31  N   UNL A   1      42.905  27.602  31.289  1.00  0.00    -0.354 N 
ATOM     32  N   UNL A   1      41.869  29.139  33.572  1.00  0.00    -0.248 NA
ATOM     33  C   UNL A   1      42.072  29.845  35.788  1.00  0.00     0.031 C 
ATOM     34  C   UNL A   1      44.643  26.258  31.615  1.00  0.00     0.029 A 
ATOM     35  C   UNL A   1      43.830  27.202  32.226  1.00  0.00     0.049 A 
ATOM     36  H   UNL A   1      42.226  28.302  31.419  1.00  0.00     0.167 HD
ATOM     37  C   UNL A   1      43.001  28.560  34.130  1.00  0.00     0.074 A 
ATOM     38  C   UNL A   1      43.091  29.049  35.489  1.00  0.00     0.031 C 
ATOM     39  C   UNL A   1      43.892  27.706  33.569  1.00  0.00     0.037 A 
BRANCH  26  40
ATOM     40  C   UNL A   1      42.424  25.852  27.955  1.00  0.00     0.064 A 
ATOM     41  C   UNL A   1      43.038  26.360  26.793  1.00  0.00     0.173 A 
ATOM     42  C   UNL A   1      42.250  24.468  28.033  1.00  0.00     0.173 A 
ATOM     43  F   UNL A   1      43.260  27.678  26.667  1.00  0.00    -0.203 F 
ATOM     44  C   UNL A   1      43.386  25.529  25.727  1.00  0.00     0.198 A 
ATOM     45  C   UNL A   1      42.591  23.637  26.964  1.00  0.00     0.198 A 
ATOM     46  F   UNL A   1      41.725  23.916  29.136  1.00  0.00    -0.203 F 
ATOM     47  F   UNL A   1      43.870  26.056  24.593  1.00  0.00    -0.200 F 
ATOM     48  C   UNL A   1      43.145  24.167  25.809  1.00  0.00     0.200 A 
ATOM     49  F   UNL A   1      42.346  22.322  27.042  1.00  0.00    -0.200 F 
ATOM     50  F   UNL A   1      43.397  23.376  24.757  1.00  0.00    -0.200 F 
ENDBRANCH  26  40
BRANCH  27  51
ATOM     51  C   UNL A   1      39.770  31.685  35.572  1.00  0.00     0.064 A 
ATOM     52  C   UNL A   1      40.365  32.947  35.686  1.00  0.00     0.173 A 
ATOM     53  C   UNL A   1      38.728  31.363  36.455  1.00  0.00     0.173 A 
ATOM     54  F   UNL A   1      41.364  33.290  34.861  1.00  0.00    -0.203 F 
ATOM     55  C   UNL A   1      39.925  33.862  36.636  1.00  0.00     0.198 A 
ATOM     56  C   UNL A   1      38.275  32.287  37.392  1.00  0.00     0.198 A 
ATOM     57  F   UNL A   1      38.115  30.172  36.367  1.00  0.00    -0.203 F 
ATOM     58  F   UNL A   1      40.507  35.064  36.722  1.00  0.00    -0.200 F 
ATOM     59  C   UNL A   1      38.872  33.537  37.479  1.00  0.00     0.200 A 
ATOM     60  F   UNL A   1      37.242  31.981  38.188  1.00  0.00    -0.200 F 
ATOM     61  F   UNL A   1      38.425  34.433  38.370  1.00  0.00    -0.200 F 
ENDBRANCH  27  51
BRANCH  39  62
ATOM     62  C   UNL A   1      45.042  27.220  34.392  1.00  0.00     0.064 A 
ATOM     63  C   UNL A   1      44.955  26.035  35.133  1.00  0.00     0.173 A 
ATOM     64  C   UNL A   1      46.291  27.851  34.288  1.00  0.00     0.173 A 
ATOM     65  F   UNL A   1      43.786  25.386  35.237  1.00  0.00    -0.203 F 
ATOM     66  C   UNL A   1      46.080  25.507  35.757  1.00  0.00     0.198 A 
ATOM     67  C   UNL A   1      47.419  27.299  34.879  1.00  0.00     0.198 A 
ATOM     68  F   UNL A   1      46.428  28.967  33.552  1.00  0.00    -0.203 F 
ATOM     69  F   UNL A   1      45.974  24.382  36.478  1.00  0.00    -0.200 F 
ATOM     70  C   UNL A   1      47.312  26.131  35.619  1.00  0.00     0.200 A 
ATOM     71  F   UNL A   1      48.615  27.878  34.707  1.00  0.00    -0.200 F 
ATOM     72  F   UNL A   1      48.399  25.598  36.190  1.00  0.00    -0.200 F 
ENDBRANCH  39  62
ENDBRANCH  13  14
ENDBRANCH   6   8
ENDBRANCH   5   6
ENDBRANCH   4   5
ENDBRANCH   3   4
ENDBRANCH   2   3
ENDBRANCH   1   2
BRANCH   1  73
ATOM     73  C   UNL A   1      33.399  27.989  22.924  1.00  0.00     0.188 C 
BRANCH  73  74
ATOM     74  O   UNL A   1      32.441  26.966  23.188  1.00  0.00    -0.376 OA
BRANCH  74  75
ATOM     75  C   UNL A   1      31.117  27.118  22.694  1.00  0.00     0.202 C 
BRANCH  75  76
ATOM     76  C   UNL A   1      29.934  26.942  23.650  1.00  0.00     0.261 C 
BRANCH  76  77
ATOM     77  O   UNL A   1      29.814  25.612  24.160  1.00  0.00    -0.459 OA
BRANCH  77  78
ATOM     78  C   UNL A   1      30.337  25.420  25.394  1.00  0.00     0.345 C 
ATOM     79  O   UNL A   1      30.470  26.257  26.280  1.00  0.00    -0.246 OA
BRANCH  78  80
ATOM     80  C   UNL A   1      30.894  24.083  25.455  1.00  0.00     0.141 A 
ATOM     81  C   UNL A   1      31.778  23.825  24.495  1.00  0.00     0.112 A 
ATOM     82  C   UNL A   1      30.644  23.055  26.471  1.00  0.00     0.268 A 
ATOM     83  N   UNL A   1      32.422  22.611  24.401  1.00  0.00    -0.299 N 
ATOM     84  N   UNL A   1      31.057  21.802  26.118  1.00  0.00    -0.273 N 
ATOM     85  O   UNL A   1      30.114  23.276  27.550  1.00  0.00    -0.268 OA
ATOM     86  C   UNL A   1      31.911  21.512  25.088  1.00  0.00     0.328 A 
ATOM     87  H   UNL A   1      30.714  21.046  26.647  1.00  0.00     0.175 HD
ATOM     88  O   UNL A   1      32.161  20.340  24.835  1.00  0.00    -0.248 OA
BRANCH  83  89
ATOM     89  C   UNL A   1      33.517  22.573  23.446  1.00  0.00     0.131 C 
BRANCH  89  90
ATOM     90  C   UNL A   1      34.770  23.437  23.593  1.00  0.00     0.025 C 
ATOM     91  C   UNL A   1      36.135  22.974  23.072  1.00  0.00     0.022 C 
ATOM     92  C   UNL A   1      34.999  23.907  25.021  1.00  0.00     0.142 C 
ATOM     93  C   UNL A   1      36.928  22.293  24.188  1.00  0.00     0.137 C 
ATOM     94  S   UNL A   1      36.137  22.746  25.719  1.00  0.00     0.150 S 
ATOM     95  O   UNL A   1      35.380  21.621  26.213  1.00  0.00    -0.229 OA
ATOM     96  O   UNL A   1      37.077  23.477  26.550  1.00  0.00    -0.229 OA
ENDBRANCH  89  90
ENDBRANCH  83  89
ENDBRANCH  78  80
ENDBRANCH  77  78
ENDBRANCH  76  77
ENDBRANCH  75  76
ENDBRANCH  74  75
ENDBRANCH  73  74
ENDBRANCH   1  73
TORSDOF 19
ENDMDL
