MODEL 1
REMARK VINA RESULT:     -10.6      0.000      0.000
REMARK SMILES CC[C@H](NC(=O)c1ccc(C)nc1)C(=O)OCCOCCOCCOC(=O)c1ccc(-c2c3nc(c(-c4c(F)c(F)c(F)c(F)c4F)c4ccc([nH]4)c(-c4c(F)c(F)c(F)c(F)c4F)c4nc(c(-c5c(F)c(F)c(F)c(F)c5F)c5ccc2[nH]5)C=C4)C=C3)cc1
REMARK SMILES IDX 20 1 19 2 18 3 17 4 16 5 14 6 15 7 3 8 2 9 1 10 4 11 5 12
REMARK SMILES IDX 6 14 7 15 8 16 13 17 9 18 12 19 10 20 11 21 21 22 22 23
REMARK SMILES IDX 23 24 24 25 25 26 26 27 27 28 28 29 29 30 90 31 30 32 89 33
REMARK SMILES IDX 31 34 32 35 33 36 83 37 34 38 88 39 82 40 84 41 35 42 87 43
REMARK SMILES IDX 81 44 80 45 36 47 68 48 48 49 67 50 49 51 52 52 66 53 85 54
REMARK SMILES IDX 50 55 51 56 65 58 86 59 53 60 37 61 38 62 46 63 39 64 40 65
REMARK SMILES IDX 44 66 47 67 41 68 42 69 45 70 43 71 69 72 70 73 78 74 71 75
REMARK SMILES IDX 72 76 76 77 79 78 73 79 74 80 77 81 75 82 54 83 55 84 63 85
REMARK SMILES IDX 56 86 57 87 61 88 64 89 58 90 59 91 62 92 60 93
REMARK H PARENT 4 13 84 46 52 57
REMARK Flexibility Score: inf
ROOT
ATOM      1  C   UNL A   1      40.013  22.064  26.123  1.00  0.00     0.188 C 
ENDROOT
BRANCH   1   2
ATOM      2  O   UNL A   1      38.595  22.103  26.267  1.00  0.00    -0.376 OA
BRANCH   2   3
ATOM      3  C   UNL A   1      37.892  21.279  25.330  1.00  0.00     0.202 C 
BRANCH   3   4
ATOM      4  C   UNL A   1      36.522  21.873  24.989  1.00  0.00     0.261 C 
BRANCH   4   5
ATOM      5  O   UNL A   1      35.523  21.101  25.682  1.00  0.00    -0.462 OA
BRANCH   5   6
ATOM      6  C   UNL A   1      34.472  20.626  24.987  1.00  0.00     0.328 C 
ATOM      7  O   UNL A   1      34.366  19.468  24.599  1.00  0.00    -0.250 OA
BRANCH   6   8
ATOM      8  C   UNL A   1      33.427  21.722  24.664  1.00  0.00     0.192 C 
BRANCH   8   9
ATOM      9  C   UNL A   1      32.058  21.326  25.255  1.00  0.00     0.033 C 
ATOM     10  C   UNL A   1      31.145  22.462  25.684  1.00  0.00     0.007 C 
ENDBRANCH   8   9
BRANCH   8  11
ATOM     11  N   UNL A   1      33.327  22.483  23.397  1.00  0.00    -0.339 N 
ATOM     12  C   UNL A   1      33.480  23.765  22.947  1.00  0.00     0.253 C 
ATOM     13  H   UNL A   1      33.074  21.886  22.656  1.00  0.00     0.164 HD
ATOM     14  O   UNL A   1      33.666  23.913  21.738  1.00  0.00    -0.269 OA
BRANCH  12  15
ATOM     15  C   UNL A   1      33.282  24.967  23.768  1.00  0.00     0.058 A 
ATOM     16  C   UNL A   1      33.885  25.228  24.988  1.00  0.00     0.017 A 
ATOM     17  C   UNL A   1      32.370  25.902  23.288  1.00  0.00     0.125 A 
ATOM     18  C   UNL A   1      33.425  26.305  25.754  1.00  0.00     0.024 A 
ATOM     19  N   UNL A   1      31.923  26.967  23.998  1.00  0.00    -0.261 NA
ATOM     20  C   UNL A   1      32.411  27.117  25.248  1.00  0.00     0.037 A 
ATOM     21  C   UNL A   1      31.705  28.116  26.113  1.00  0.00     0.066 C 
ENDBRANCH  12  15
ENDBRANCH   8  11
ENDBRANCH   6   8
ENDBRANCH   5   6
ENDBRANCH   4   5
ENDBRANCH   3   4
ENDBRANCH   2   3
ENDBRANCH   1   2
BRANCH   1  22
ATOM     22  C   UNL A   1      40.648  21.067  27.065  1.00  0.00     0.188 C 
BRANCH  22  23
ATOM     23  O   UNL A   1      42.065  21.211  27.104  1.00  0.00    -0.376 OA
BRANCH  23  24
ATOM     24  C   UNL A   1      42.717  20.920  25.867  1.00  0.00     0.202 C 
BRANCH  24  25
ATOM     25  C   UNL A   1      43.779  21.954  25.464  1.00  0.00     0.261 C 
BRANCH  25  26
ATOM     26  O   UNL A   1      43.149  23.185  25.062  1.00  0.00    -0.460 OA
BRANCH  26  27
ATOM     27  C   UNL A   1      43.895  24.311  25.216  1.00  0.00     0.338 C 
ATOM     28  O   UNL A   1      44.872  24.639  24.579  1.00  0.00    -0.246 OA
BRANCH  27  29
ATOM     29  C   UNL A   1      43.177  25.227  26.144  1.00  0.00     0.060 A 
ATOM     30  C   UNL A   1      43.509  26.591  26.102  1.00  0.00     0.016 A 
ATOM     31  C   UNL A   1      42.136  24.785  26.966  1.00  0.00     0.016 A 
ATOM     32  C   UNL A   1      42.829  27.508  26.904  1.00  0.00     0.010 A 
ATOM     33  C   UNL A   1      41.467  25.698  27.784  1.00  0.00     0.010 A 
ATOM     34  C   UNL A   1      41.839  27.054  27.783  1.00  0.00    -0.014 A 
BRANCH  34  35
ATOM     35  C   UNL A   1      41.402  27.915  28.904  1.00  0.00     0.031 A 
ATOM     36  C   UNL A   1      42.176  27.807  30.188  1.00  0.00     0.074 A 
ATOM     37  C   UNL A   1      40.349  28.744  28.806  1.00  0.00     0.049 A 
ATOM     38  N   UNL A   1      41.951  28.361  31.351  1.00  0.00    -0.248 NA
ATOM     39  C   UNL A   1      43.364  26.936  30.155  1.00  0.00     0.031 C 
ATOM     40  C   UNL A   1      39.545  28.958  27.605  1.00  0.00     0.029 A 
ATOM     41  N   UNL A   1      39.767  29.551  29.752  1.00  0.00    -0.354 N 
ATOM     42  C   UNL A   1      42.964  27.902  32.182  1.00  0.00     0.074 A 
ATOM     43  C   UNL A   1      43.786  27.003  31.407  1.00  0.00     0.031 C 
ATOM     44  C   UNL A   1      38.556  29.823  27.894  1.00  0.00     0.029 A 
ATOM     45  C   UNL A   1      38.643  30.199  29.305  1.00  0.00     0.049 A 
ATOM     46  H   UNL A   1      40.123  29.654  30.664  1.00  0.00     0.167 HD
ATOM     47  C   UNL A   1      43.193  28.207  33.480  1.00  0.00     0.037 A 
ATOM     48  C   UNL A   1      37.776  30.985  29.974  1.00  0.00     0.037 A 
ATOM     49  C   UNL A   1      42.364  29.089  34.253  1.00  0.00     0.049 A 
ATOM     50  C   UNL A   1      38.013  31.262  31.439  1.00  0.00     0.074 A 
ATOM     51  C   UNL A   1      42.501  29.466  35.575  1.00  0.00     0.029 A 
ATOM     52  N   UNL A   1      41.231  29.724  33.766  1.00  0.00    -0.354 N 
ATOM     53  N   UNL A   1      38.984  30.843  32.216  1.00  0.00    -0.248 NA
ATOM     54  C   UNL A   1      37.035  32.123  32.120  1.00  0.00     0.031 C 
ATOM     55  C   UNL A   1      41.426  30.301  35.901  1.00  0.00     0.029 A 
ATOM     56  C   UNL A   1      40.648  30.479  34.768  1.00  0.00     0.049 A 
ATOM     57  H   UNL A   1      40.891  29.649  32.845  1.00  0.00     0.167 HD
ATOM     58  C   UNL A   1      38.748  31.408  33.464  1.00  0.00     0.074 A 
ATOM     59  C   UNL A   1      37.549  32.209  33.338  1.00  0.00     0.031 C 
ATOM     60  C   UNL A   1      39.460  31.278  34.611  1.00  0.00     0.037 A 
BRANCH  47  61
ATOM     61  C   UNL A   1      44.369  27.551  34.138  1.00  0.00     0.064 A 
ATOM     62  C   UNL A   1      45.633  28.160  34.158  1.00  0.00     0.173 A 
ATOM     63  C   UNL A   1      44.234  26.292  34.740  1.00  0.00     0.173 A 
ATOM     64  F   UNL A   1      45.818  29.352  33.571  1.00  0.00    -0.203 F 
ATOM     65  C   UNL A   1      46.727  27.519  34.733  1.00  0.00     0.198 A 
ATOM     66  C   UNL A   1      45.324  25.666  35.339  1.00  0.00     0.198 A 
ATOM     67  F   UNL A   1      43.049  25.666  34.741  1.00  0.00    -0.203 F 
ATOM     68  F   UNL A   1      47.936  28.093  34.691  1.00  0.00    -0.200 F 
ATOM     69  C   UNL A   1      46.570  26.275  35.328  1.00  0.00     0.200 A 
ATOM     70  F   UNL A   1      45.171  24.468  35.919  1.00  0.00    -0.200 F 
ATOM     71  F   UNL A   1      47.623  25.658  35.881  1.00  0.00    -0.200 F 
ENDBRANCH  47  61
BRANCH  48  72
ATOM     72  C   UNL A   1      36.594  31.556  29.277  1.00  0.00     0.064 A 
ATOM     73  C   UNL A   1      35.505  30.748  28.921  1.00  0.00     0.173 A 
ATOM     74  C   UNL A   1      36.538  32.915  28.931  1.00  0.00     0.173 A 
ATOM     75  F   UNL A   1      35.525  29.437  29.202  1.00  0.00    -0.203 F 
ATOM     76  C   UNL A   1      34.413  31.273  28.232  1.00  0.00     0.198 A 
ATOM     77  C   UNL A   1      35.434  33.444  28.265  1.00  0.00     0.198 A 
ATOM     78  F   UNL A   1      37.557  33.729  29.240  1.00  0.00    -0.203 F 
ATOM     79  F   UNL A   1      33.406  30.468  27.864  1.00  0.00    -0.200 F 
ATOM     80  C   UNL A   1      34.375  32.622  27.910  1.00  0.00     0.200 A 
ATOM     81  F   UNL A   1      35.399  34.748  27.960  1.00  0.00    -0.200 F 
ATOM     82  F   UNL A   1      33.325  33.125  27.248  1.00  0.00    -0.200 F 
ENDBRANCH  48  72
BRANCH  60  83
ATOM     83  C   UNL A   1      38.985  32.046  35.810  1.00  0.00     0.064 A 
ATOM     84  C   UNL A   1      38.204  31.445  36.806  1.00  0.00     0.173 A 
ATOM     85  C   UNL A   1      39.372  33.383  35.991  1.00  0.00     0.173 A 
ATOM     86  F   UNL A   1      37.799  30.173  36.672  1.00  0.00    -0.203 F 
ATOM     87  C   UNL A   1      37.809  32.161  37.933  1.00  0.00     0.198 A 
ATOM     88  C   UNL A   1      38.999  34.086  37.131  1.00  0.00     0.198 A 
ATOM     89  F   UNL A   1      40.129  33.999  35.071  1.00  0.00    -0.203 F 
ATOM     90  F   UNL A   1      37.030  31.580  38.856  1.00  0.00    -0.200 F 
ATOM     91  C   UNL A   1      38.214  33.477  38.099  1.00  0.00     0.200 A 
ATOM     92  F   UNL A   1      39.403  35.353  37.298  1.00  0.00    -0.200 F 
ATOM     93  F   UNL A   1      37.842  34.161  39.190  1.00  0.00    -0.200 F 
ENDBRANCH  60  83
ENDBRANCH  34  35
ENDBRANCH  27  29
ENDBRANCH  26  27
ENDBRANCH  25  26
ENDBRANCH  24  25
ENDBRANCH  23  24
ENDBRANCH  22  23
ENDBRANCH   1  22
TORSDOF 20
ENDMDL
MODEL 2
REMARK VINA RESULT:     -10.3      0.748      2.123
REMARK SMILES CC[C@H](NC(=O)c1ccc(C)nc1)C(=O)OCCOCCOCCOC(=O)c1ccc(-c2c3nc(c(-c4c(F)c(F)c(F)c(F)c4F)c4ccc([nH]4)c(-c4c(F)c(F)c(F)c(F)c4F)c4nc(c(-c5c(F)c(F)c(F)c(F)c5F)c5ccc2[nH]5)C=C4)C=C3)cc1
REMARK SMILES IDX 20 1 19 2 18 3 17 4 16 5 14 6 15 7 3 8 2 9 1 10 4 11 5 12
REMARK SMILES IDX 6 14 7 15 8 16 13 17 9 18 12 19 10 20 11 21 21 22 22 23
REMARK SMILES IDX 23 24 24 25 25 26 26 27 27 28 28 29 29 30 90 31 30 32 89 33
REMARK SMILES IDX 31 34 32 35 33 36 83 37 34 38 88 39 82 40 84 41 35 42 87 43
REMARK SMILES IDX 81 44 80 45 36 47 68 48 48 49 67 50 49 51 52 52 66 53 85 54
REMARK SMILES IDX 50 55 51 56 65 58 86 59 53 60 37 61 38 62 46 63 39 64 40 65
REMARK SMILES IDX 44 66 47 67 41 68 42 69 45 70 43 71 69 72 70 73 78 74 71 75
REMARK SMILES IDX 72 76 76 77 79 78 73 79 74 80 77 81 75 82 54 83 55 84 63 85
REMARK SMILES IDX 56 86 57 87 61 88 64 89 58 90 59 91 62 92 60 93
REMARK H PARENT 4 13 84 46 52 57
REMARK Flexibility Score: inf
ROOT
ATOM      1  C   UNL A   1      39.817  22.193  26.343  1.00  0.00     0.188 C 
ENDROOT
BRANCH   1   2
ATOM      2  O   UNL A   1      38.412  21.961  26.262  1.00  0.00    -0.376 OA
BRANCH   2   3
ATOM      3  C   UNL A   1      38.017  21.173  25.133  1.00  0.00     0.202 C 
BRANCH   3   4
ATOM      4  C   UNL A   1      37.052  21.947  24.229  1.00  0.00     0.261 C 
BRANCH   4   5
ATOM      5  O   UNL A   1      35.958  22.406  25.046  1.00  0.00    -0.462 OA
BRANCH   5   6
ATOM      6  C   UNL A   1      34.709  22.361  24.544  1.00  0.00     0.328 C 
ATOM      7  O   UNL A   1      34.142  21.332  24.192  1.00  0.00    -0.250 OA
BRANCH   6   8
ATOM      8  C   UNL A   1      34.077  23.766  24.391  1.00  0.00     0.192 C 
BRANCH   8   9
ATOM      9  C   UNL A   1      33.037  23.993  25.507  1.00  0.00     0.033 C 
ATOM     10  C   UNL A   1      31.807  23.102  25.485  1.00  0.00     0.007 C 
ENDBRANCH   8   9
BRANCH   8  11
ATOM     11  N   UNL A   1      33.729  24.429  23.113  1.00  0.00    -0.339 N 
ATOM     12  C   UNL A   1      33.649  25.691  22.592  1.00  0.00     0.253 C 
ATOM     13  H   UNL A   1      33.482  23.760  22.435  1.00  0.00     0.164 HD
ATOM     14  O   UNL A   1      33.675  25.790  21.364  1.00  0.00    -0.269 OA
BRANCH  12  15
ATOM     15  C   UNL A   1      33.377  26.902  23.377  1.00  0.00     0.058 A 
ATOM     16  C   UNL A   1      33.744  27.117  24.696  1.00  0.00     0.017 A 
ATOM     17  C   UNL A   1      32.645  27.901  22.742  1.00  0.00     0.125 A 
ATOM     18  C   UNL A   1      33.219  28.223  25.373  1.00  0.00     0.024 A 
ATOM     19  N   UNL A   1      32.141  28.994  23.368  1.00  0.00    -0.261 NA
ATOM     20  C   UNL A   1      32.383  29.106  24.691  1.00  0.00     0.037 A 
ATOM     21  C   UNL A   1      31.592  30.151  25.417  1.00  0.00     0.066 C 
ENDBRANCH  12  15
ENDBRANCH   8  11
ENDBRANCH   6   8
ENDBRANCH   5   6
ENDBRANCH   4   5
ENDBRANCH   3   4
ENDBRANCH   2   3
ENDBRANCH   1   2
BRANCH   1  22
ATOM     22  C   UNL A   1      40.515  21.140  27.173  1.00  0.00     0.188 C 
BRANCH  22  23
ATOM     23  O   UNL A   1      41.932  21.281  27.114  1.00  0.00    -0.376 OA
BRANCH  23  24
ATOM     24  C   UNL A   1      42.503  20.932  25.852  1.00  0.00     0.202 C 
BRANCH  24  25
ATOM     25  C   UNL A   1      43.630  21.871  25.396  1.00  0.00     0.261 C 
BRANCH  25  26
ATOM     26  O   UNL A   1      43.079  23.102  24.893  1.00  0.00    -0.460 OA
BRANCH  26  27
ATOM     27  C   UNL A   1      43.845  24.211  25.071  1.00  0.00     0.338 C 
ATOM     28  O   UNL A   1      44.824  24.537  24.437  1.00  0.00    -0.246 OA
BRANCH  27  29
ATOM     29  C   UNL A   1      43.147  25.116  26.025  1.00  0.00     0.060 A 
ATOM     30  C   UNL A   1      43.370  26.496  25.897  1.00  0.00     0.016 A 
ATOM     31  C   UNL A   1      42.221  24.640  26.958  1.00  0.00     0.016 A 
ATOM     32  C   UNL A   1      42.698  27.399  26.722  1.00  0.00     0.010 A 
ATOM     33  C   UNL A   1      41.563  25.540  27.798  1.00  0.00     0.010 A 
ATOM     34  C   UNL A   1      41.829  26.917  27.709  1.00  0.00    -0.014 A 
BRANCH  34  35
ATOM     35  C   UNL A   1      41.433  27.797  28.830  1.00  0.00     0.031 A 
ATOM     36  C   UNL A   1      42.220  27.674  30.104  1.00  0.00     0.074 A 
ATOM     37  C   UNL A   1      40.403  28.655  28.741  1.00  0.00     0.049 A 
ATOM     38  N   UNL A   1      42.028  28.241  31.266  1.00  0.00    -0.248 NA
ATOM     39  C   UNL A   1      43.383  26.769  30.060  1.00  0.00     0.031 C 
ATOM     40  C   UNL A   1      39.589  28.885  27.549  1.00  0.00     0.029 A 
ATOM     41  N   UNL A   1      39.857  29.483  29.690  1.00  0.00    -0.354 N 
ATOM     42  C   UNL A   1      43.038  27.757  32.087  1.00  0.00     0.074 A 
ATOM     43  C   UNL A   1      43.824  26.830  31.306  1.00  0.00     0.031 C 
ATOM     44  C   UNL A   1      38.629  29.780  27.847  1.00  0.00     0.029 A 
ATOM     45  C   UNL A   1      38.746  30.161  29.254  1.00  0.00     0.049 A 
ATOM     46  H   UNL A   1      40.227  29.581  30.596  1.00  0.00     0.167 HD
ATOM     47  C   UNL A   1      43.293  28.062  33.379  1.00  0.00     0.037 A 
ATOM     48  C   UNL A   1      37.910  30.975  29.931  1.00  0.00     0.037 A 
ATOM     49  C   UNL A   1      42.501  28.972  34.158  1.00  0.00     0.049 A 
ATOM     50  C   UNL A   1      38.176  31.253  31.390  1.00  0.00     0.074 A 
ATOM     51  C   UNL A   1      42.667  29.353  35.476  1.00  0.00     0.029 A 
ATOM     52  N   UNL A   1      41.380  29.637  33.683  1.00  0.00    -0.354 N 
ATOM     53  N   UNL A   1      39.144  30.811  32.157  1.00  0.00    -0.248 NA
ATOM     54  C   UNL A   1      37.231  32.146  32.079  1.00  0.00     0.031 C 
ATOM     55  C   UNL A   1      41.620  30.219  35.812  1.00  0.00     0.029 A 
ATOM     56  C   UNL A   1      40.832  30.414  34.688  1.00  0.00     0.049 A 
ATOM     57  H   UNL A   1      41.025  29.566  32.767  1.00  0.00     0.167 HD
ATOM     58  C   UNL A   1      38.942  31.389  33.404  1.00  0.00     0.074 A 
ATOM     59  C   UNL A   1      37.764  32.223  33.290  1.00  0.00     0.031 C 
ATOM     60  C   UNL A   1      39.665  31.245  34.543  1.00  0.00     0.037 A 
BRANCH  47  61
ATOM     61  C   UNL A   1      44.459  27.377  34.025  1.00  0.00     0.064 A 
ATOM     62  C   UNL A   1      44.351  26.080  34.551  1.00  0.00     0.173 A 
ATOM     63  C   UNL A   1      45.694  28.032  34.136  1.00  0.00     0.173 A 
ATOM     64  F   UNL A   1      43.182  25.424  34.492  1.00  0.00    -0.203 F 
ATOM     65  C   UNL A   1      45.430  25.474  35.188  1.00  0.00     0.198 A 
ATOM     66  C   UNL A   1      46.779  27.412  34.750  1.00  0.00     0.198 A 
ATOM     67  F   UNL A   1      45.847  29.275  33.657  1.00  0.00    -0.203 F 
ATOM     68  F   UNL A   1      45.287  24.258  35.732  1.00  0.00    -0.200 F 
ATOM     69  C   UNL A   1      46.644  26.138  35.282  1.00  0.00     0.200 A 
ATOM     70  F   UNL A   1      47.954  28.051  34.835  1.00  0.00    -0.200 F 
ATOM     71  F   UNL A   1      47.682  25.555  35.897  1.00  0.00    -0.200 F 
ENDBRANCH  47  61
BRANCH  48  72
ATOM     72  C   UNL A   1      36.736  31.575  29.246  1.00  0.00     0.064 A 
ATOM     73  C   UNL A   1      36.690  32.946  28.957  1.00  0.00     0.173 A 
ATOM     74  C   UNL A   1      35.625  30.797  28.887  1.00  0.00     0.173 A 
ATOM     75  F   UNL A   1      37.714  33.738  29.308  1.00  0.00    -0.203 F 
ATOM     76  C   UNL A   1      35.573  33.518  28.350  1.00  0.00     0.198 A 
ATOM     77  C   UNL A   1      34.519  31.365  28.257  1.00  0.00     0.198 A 
ATOM     78  F   UNL A   1      35.614  29.482  29.149  1.00  0.00    -0.203 F 
ATOM     79  F   UNL A   1      35.538  34.839  28.127  1.00  0.00    -0.200 F 
ATOM     80  C   UNL A   1      34.491  32.726  27.995  1.00  0.00     0.200 A 
ATOM     81  F   UNL A   1      33.478  30.596  27.911  1.00  0.00    -0.200 F 
ATOM     82  F   UNL A   1      33.418  33.277  27.412  1.00  0.00    -0.200 F 
ENDBRANCH  48  72
BRANCH  60  83
ATOM     83  C   UNL A   1      39.228  32.033  35.743  1.00  0.00     0.064 A 
ATOM     84  C   UNL A   1      39.637  33.358  35.942  1.00  0.00     0.173 A 
ATOM     85  C   UNL A   1      38.339  31.470  36.672  1.00  0.00     0.173 A 
ATOM     86  F   UNL A   1      40.495  33.936  35.088  1.00  0.00    -0.203 F 
ATOM     87  C   UNL A   1      39.186  34.088  37.039  1.00  0.00     0.198 A 
ATOM     88  C   UNL A   1      37.869  32.211  37.751  1.00  0.00     0.198 A 
ATOM     89  F   UNL A   1      37.910  30.208  36.519  1.00  0.00    -0.203 F 
ATOM     90  F   UNL A   1      39.619  35.341  37.231  1.00  0.00    -0.200 F 
ATOM     91  C   UNL A   1      38.297  33.517  37.937  1.00  0.00     0.200 A 
ATOM     92  F   UNL A   1      36.998  31.663  38.610  1.00  0.00    -0.200 F 
ATOM     93  F   UNL A   1      37.855  34.224  38.986  1.00  0.00    -0.200 F 
ENDBRANCH  60  83
ENDBRANCH  34  35
ENDBRANCH  27  29
ENDBRANCH  26  27
ENDBRANCH  25  26
ENDBRANCH  24  25
ENDBRANCH  23  24
ENDBRANCH  22  23
ENDBRANCH   1  22
TORSDOF 20
ENDMDL
MODEL 3
REMARK VINA RESULT:     -10.2      4.340      9.428
REMARK SMILES CC[C@H](NC(=O)c1ccc(C)nc1)C(=O)OCCOCCOCCOC(=O)c1ccc(-c2c3nc(c(-c4c(F)c(F)c(F)c(F)c4F)c4ccc([nH]4)c(-c4c(F)c(F)c(F)c(F)c4F)c4nc(c(-c5c(F)c(F)c(F)c(F)c5F)c5ccc2[nH]5)C=C4)C=C3)cc1
REMARK SMILES IDX 20 1 19 2 18 3 17 4 16 5 14 6 15 7 3 8 2 9 1 10 4 11 5 12
REMARK SMILES IDX 6 14 7 15 8 16 13 17 9 18 12 19 10 20 11 21 21 22 22 23
REMARK SMILES IDX 23 24 24 25 25 26 26 27 27 28 28 29 29 30 90 31 30 32 89 33
REMARK SMILES IDX 31 34 32 35 33 36 83 37 34 38 88 39 82 40 84 41 35 42 87 43
REMARK SMILES IDX 81 44 80 45 36 47 68 48 48 49 67 50 49 51 52 52 66 53 85 54
REMARK SMILES IDX 50 55 51 56 65 58 86 59 53 60 37 61 38 62 46 63 39 64 40 65
REMARK SMILES IDX 44 66 47 67 41 68 42 69 45 70 43 71 69 72 70 73 78 74 71 75
REMARK SMILES IDX 72 76 76 77 79 78 73 79 74 80 77 81 75 82 54 83 55 84 63 85
REMARK SMILES IDX 56 86 57 87 61 88 64 89 58 90 59 91 62 92 60 93
REMARK H PARENT 4 13 84 46 52 57
REMARK Flexibility Score: inf
ROOT
ATOM      1  C   UNL A   1      35.941  32.661  28.242  1.00  0.00     0.188 C 
ENDROOT
BRANCH   1   2
ATOM      2  O   UNL A   1      35.123  31.941  27.322  1.00  0.00    -0.376 OA
BRANCH   2   3
ATOM      3  C   UNL A   1      33.961  31.350  27.915  1.00  0.00     0.202 C 
BRANCH   3   4
ATOM      4  C   UNL A   1      33.707  29.947  27.357  1.00  0.00     0.261 C 
BRANCH   4   5
ATOM      5  O   UNL A   1      33.415  30.079  25.953  1.00  0.00    -0.462 OA
BRANCH   5   6
ATOM      6  C   UNL A   1      32.235  29.624  25.489  1.00  0.00     0.328 C 
ATOM      7  O   UNL A   1      31.236  30.318  25.338  1.00  0.00    -0.250 OA
BRANCH   6   8
ATOM      8  C   UNL A   1      32.248  28.098  25.224  1.00  0.00     0.192 C 
BRANCH   8   9
ATOM      9  C   UNL A   1      33.497  27.723  24.400  1.00  0.00     0.033 C 
ATOM     10  C   UNL A   1      33.619  28.352  23.022  1.00  0.00     0.007 C 
ENDBRANCH   8   9
BRANCH   8  11
ATOM     11  N   UNL A   1      31.067  27.257  24.925  1.00  0.00    -0.339 N 
ATOM     12  C   UNL A   1      30.109  27.127  23.958  1.00  0.00     0.253 C 
ATOM     13  H   UNL A   1      30.930  26.590  25.636  1.00  0.00     0.164 HD
ATOM     14  O   UNL A   1      29.514  26.049  23.902  1.00  0.00    -0.269 OA
BRANCH  12  15
ATOM     15  C   UNL A   1      29.636  28.221  23.099  1.00  0.00     0.058 A 
ATOM     16  C   UNL A   1      30.415  28.968  22.229  1.00  0.00     0.017 A 
ATOM     17  C   UNL A   1      28.291  28.560  23.210  1.00  0.00     0.125 A 
ATOM     18  C   UNL A   1      29.870  30.119  21.651  1.00  0.00     0.024 A 
ATOM     19  N   UNL A   1      27.731  29.657  22.643  1.00  0.00    -0.261 NA
ATOM     20  C   UNL A   1      28.545  30.457  21.922  1.00  0.00     0.037 A 
ATOM     21  C   UNL A   1      27.987  31.795  21.547  1.00  0.00     0.066 C 
ENDBRANCH  12  15
ENDBRANCH   8  11
ENDBRANCH   6   8
ENDBRANCH   5   6
ENDBRANCH   4   5
ENDBRANCH   3   4
ENDBRANCH   2   3
ENDBRANCH   1   2
BRANCH   1  22
ATOM     22  C   UNL A   1      35.122  33.318  29.329  1.00  0.00     0.188 C 
BRANCH  22  23
ATOM     23  O   UNL A   1      34.682  34.617  28.942  1.00  0.00    -0.376 OA
BRANCH  23  24
ATOM     24  C   UNL A   1      33.269  34.806  29.032  1.00  0.00     0.202 C 
BRANCH  24  25
ATOM     25  C   UNL A   1      32.856  36.201  29.526  1.00  0.00     0.261 C 
BRANCH  25  26
ATOM     26  O   UNL A   1      33.388  36.441  30.842  1.00  0.00    -0.460 OA
BRANCH  26  27
ATOM     27  C   UNL A   1      32.917  35.632  31.828  1.00  0.00     0.338 C 
ATOM     28  O   UNL A   1      31.761  35.372  32.076  1.00  0.00    -0.246 OA
BRANCH  27  29
ATOM     29  C   UNL A   1      34.068  34.898  32.424  1.00  0.00     0.060 A 
ATOM     30  C   UNL A   1      35.325  35.523  32.397  1.00  0.00     0.016 A 
ATOM     31  C   UNL A   1      33.909  33.674  33.080  1.00  0.00     0.016 A 
ATOM     32  C   UNL A   1      36.430  34.912  32.992  1.00  0.00     0.010 A 
ATOM     33  C   UNL A   1      35.016  33.052  33.659  1.00  0.00     0.010 A 
ATOM     34  C   UNL A   1      36.286  33.650  33.582  1.00  0.00    -0.014 A 
BRANCH  34  35
ATOM     35  C   UNL A   1      37.484  32.824  33.848  1.00  0.00     0.031 A 
ATOM     36  C   UNL A   1      38.225  33.092  35.128  1.00  0.00     0.074 A 
ATOM     37  C   UNL A   1      37.919  31.891  32.985  1.00  0.00     0.049 A 
ATOM     38  N   UNL A   1      39.353  32.594  35.562  1.00  0.00    -0.248 NA
ATOM     39  C   UNL A   1      37.608  34.072  36.039  1.00  0.00     0.031 C 
ATOM     40  C   UNL A   1      37.266  31.521  31.731  1.00  0.00     0.029 A 
ATOM     41  N   UNL A   1      39.035  31.093  33.035  1.00  0.00    -0.354 N 
ATOM     42  C   UNL A   1      39.580  33.204  36.788  1.00  0.00     0.074 A 
ATOM     43  C   UNL A   1      38.494  34.128  37.019  1.00  0.00     0.031 C 
ATOM     44  C   UNL A   1      38.009  30.583  31.116  1.00  0.00     0.029 A 
ATOM     45  C   UNL A   1      39.200  30.309  31.920  1.00  0.00     0.049 A 
ATOM     46  H   UNL A   1      39.658  31.085  33.796  1.00  0.00     0.167 HD
ATOM     47  C   UNL A   1      40.602  33.008  37.651  1.00  0.00     0.037 A 
ATOM     48  C   UNL A   1      40.215  29.487  31.585  1.00  0.00     0.037 A 
ATOM     49  C   UNL A   1      41.689  32.100  37.412  1.00  0.00     0.049 A 
ATOM     50  C   UNL A   1      41.379  29.330  32.533  1.00  0.00     0.074 A 
ATOM     51  C   UNL A   1      42.779  31.825  38.216  1.00  0.00     0.029 A 
ATOM     52  N   UNL A   1      41.824  31.326  36.269  1.00  0.00    -0.354 N 
ATOM     53  N   UNL A   1      41.579  29.892  33.701  1.00  0.00    -0.248 NA
ATOM     54  C   UNL A   1      42.458  28.422  32.116  1.00  0.00     0.031 C 
ATOM     55  C   UNL A   1      43.595  30.911  37.540  1.00  0.00     0.029 A 
ATOM     56  C   UNL A   1      42.989  30.583  36.337  1.00  0.00     0.049 A 
ATOM     57  H   UNL A   1      41.185  31.307  35.519  1.00  0.00     0.167 HD
ATOM     58  C   UNL A   1      42.787  29.389  34.169  1.00  0.00     0.074 A 
ATOM     59  C   UNL A   1      43.270  28.467  33.162  1.00  0.00     0.031 C 
ATOM     60  C   UNL A   1      43.439  29.663  35.326  1.00  0.00     0.037 A 
BRANCH  47  61
ATOM     61  C   UNL A   1      40.596  33.818  38.912  1.00  0.00     0.064 A 
ATOM     62  C   UNL A   1      39.921  33.382  40.063  1.00  0.00     0.173 A 
ATOM     63  C   UNL A   1      41.259  35.053  38.966  1.00  0.00     0.173 A 
ATOM     64  F   UNL A   1      39.250  32.220  40.051  1.00  0.00    -0.203 F 
ATOM     65  C   UNL A   1      39.887  34.166  41.212  1.00  0.00     0.198 A 
ATOM     66  C   UNL A   1      41.245  35.821  40.127  1.00  0.00     0.198 A 
ATOM     67  F   UNL A   1      41.913  35.517  37.891  1.00  0.00    -0.203 F 
ATOM     68  F   UNL A   1      39.188  33.756  42.280  1.00  0.00    -0.200 F 
ATOM     69  C   UNL A   1      40.553  35.382  41.245  1.00  0.00     0.200 A 
ATOM     70  F   UNL A   1      41.895  36.993  40.160  1.00  0.00    -0.200 F 
ATOM     71  F   UNL A   1      40.518  36.137  42.351  1.00  0.00    -0.200 F 
ENDBRANCH  47  61
BRANCH  48  72
ATOM     72  C   UNL A   1      40.188  28.758  30.290  1.00  0.00     0.064 A 
ATOM     73  C   UNL A   1      40.777  29.305  29.141  1.00  0.00     0.173 A 
ATOM     74  C   UNL A   1      39.555  27.512  30.167  1.00  0.00     0.173 A 
ATOM     75  F   UNL A   1      41.368  30.507  29.200  1.00  0.00    -0.203 F 
ATOM     76  C   UNL A   1      40.720  28.641  27.917  1.00  0.00     0.198 A 
ATOM     77  C   UNL A   1      39.521  26.837  28.949  1.00  0.00     0.198 A 
ATOM     78  F   UNL A   1      38.969  26.949  31.234  1.00  0.00    -0.203 F 
ATOM     79  F   UNL A   1      41.251  29.208  26.824  1.00  0.00    -0.200 F 
ATOM     80  C   UNL A   1      40.097  27.405  27.822  1.00  0.00     0.200 A 
ATOM     81  F   UNL A   1      38.922  25.641  28.863  1.00  0.00    -0.200 F 
ATOM     82  F   UNL A   1      40.042  26.768  26.645  1.00  0.00    -0.200 F 
ENDBRANCH  48  72
BRANCH  60  83
ATOM     83  C   UNL A   1      44.724  28.931  35.585  1.00  0.00     0.064 A 
ATOM     84  C   UNL A   1      44.745  27.694  36.242  1.00  0.00     0.173 A 
ATOM     85  C   UNL A   1      45.940  29.449  35.113  1.00  0.00     0.173 A 
ATOM     86  F   UNL A   1      43.610  27.163  36.722  1.00  0.00    -0.203 F 
ATOM     87  C   UNL A   1      45.942  27.008  36.436  1.00  0.00     0.198 A 
ATOM     88  C   UNL A   1      47.129  28.748  35.283  1.00  0.00     0.198 A 
ATOM     89  F   UNL A   1      45.969  30.625  34.468  1.00  0.00    -0.203 F 
ATOM     90  F   UNL A   1      45.946  25.844  37.099  1.00  0.00    -0.200 F 
ATOM     91  C   UNL A   1      47.130  27.531  35.948  1.00  0.00     0.200 A 
ATOM     92  F   UNL A   1      48.275  29.248  34.799  1.00  0.00    -0.200 F 
ATOM     93  F   UNL A   1      48.279  26.865  36.125  1.00  0.00    -0.200 F 
ENDBRANCH  60  83
ENDBRANCH  34  35
ENDBRANCH  27  29
ENDBRANCH  26  27
ENDBRANCH  25  26
ENDBRANCH  24  25
ENDBRANCH  23  24
ENDBRANCH  22  23
ENDBRANCH   1  22
TORSDOF 20
ENDMDL
