MODEL 1
REMARK VINA RESULT:     -11.1      0.000      0.000
REMARK SMILES O=C(CN1C(=O)/C(=C\c2cccs2)SC1=S)Nc1ccccc1C(=O)OCCOCCOCCOC(=O)c1ccc(-c2c3nc(c(-c4c(F)c(F)c(F)c(F)c4F)c4ccc([nH]4)c(-c4c(F)c(F)c(F)c(F)c4F)c4nc(c(-c5c(F)c(F)c(F)c(F)c5F)c5ccc2[nH]5)C=C4)C=C3)cc1
REMARK SMILES IDX 30 1 29 2 28 3 27 4 26 5 24 6 25 7 23 8 18 9 19 10 20 11
REMARK SMILES IDX 22 12 21 13 17 14 1 15 2 16 3 18 4 19 5 20 15 21 6 22 7 23
REMARK SMILES IDX 14 24 16 25 8 26 9 27 10 28 13 29 11 30 12 31 31 32 32 33
REMARK SMILES IDX 33 34 34 35 35 36 36 37 37 38 38 39 39 40 100 41 40 42 99 43
REMARK SMILES IDX 41 44 42 45 43 46 93 47 44 48 98 49 92 50 94 51 45 52 97 53
REMARK SMILES IDX 91 54 90 55 46 57 78 58 58 59 77 60 59 61 62 62 76 63 95 64
REMARK SMILES IDX 60 65 61 66 75 68 96 69 63 70 47 71 48 72 56 73 49 74 50 75
REMARK SMILES IDX 54 76 57 77 51 78 52 79 55 80 53 81 79 82 80 83 88 84 81 85
REMARK SMILES IDX 82 86 86 87 89 88 83 89 84 90 87 91 85 92 64 93 65 94 73 95
REMARK SMILES IDX 66 96 67 97 71 98 74 99 68 100 69 101 72 102 70 103
REMARK H PARENT 17 17 94 56 62 67
REMARK Flexibility Score: inf
ROOT
ATOM      1  C   UNL A   1      32.913  29.715  25.030  1.00  0.00     0.188 C 
ENDROOT
BRANCH   1   2
ATOM      2  O   UNL A   1      33.313  28.445  25.521  1.00  0.00    -0.376 OA
BRANCH   2   3
ATOM      3  C   UNL A   1      33.070  28.108  26.881  1.00  0.00     0.202 C 
BRANCH   3   4
ATOM      4  C   UNL A   1      32.192  26.904  27.251  1.00  0.00     0.261 C 
BRANCH   4   5
ATOM      5  O   UNL A   1      30.834  27.014  26.813  1.00  0.00    -0.460 OA
BRANCH   5   6
ATOM      6  C   UNL A   1      30.335  25.970  26.099  1.00  0.00     0.340 C 
ATOM      7  O   UNL A   1      29.427  25.230  26.444  1.00  0.00    -0.246 OA
BRANCH   6   8
ATOM      8  C   UNL A   1      30.862  26.008  24.707  1.00  0.00     0.083 A 
ATOM      9  C   UNL A   1      31.953  25.260  24.226  1.00  0.00     0.055 A 
ATOM     10  C   UNL A   1      32.463  25.543  22.945  1.00  0.00     0.027 A 
ATOM     11  C   UNL A   1      31.894  26.536  22.145  1.00  0.00     0.002 A 
ATOM     12  C   UNL A   1      30.312  27.021  23.894  1.00  0.00     0.018 A 
ATOM     13  C   UNL A   1      30.825  27.284  22.624  1.00  0.00     0.001 A 
BRANCH   9  14
ATOM     14  N   UNL A   1      32.665  24.293  24.961  1.00  0.00    -0.324 N 
ATOM     15  O   UNL A   1      31.771  22.327  24.135  1.00  0.00    -0.273 OA
ATOM     16  C   UNL A   1      32.407  22.933  24.994  1.00  0.00     0.244 C 
ATOM     17  H   UNL A   1      33.420  24.615  25.505  1.00  0.00     0.170 HD
BRANCH  16  18
ATOM     18  C   UNL A   1      33.134  22.204  26.124  1.00  0.00     0.227 C 
BRANCH  18  19
ATOM     19  N   UNL A   1      34.363  21.670  25.545  1.00  0.00    -0.283 N 
ATOM     20  C   UNL A   1      34.310  20.379  25.062  1.00  0.00     0.266 C 
ATOM     21  C   UNL A   1      35.589  22.287  25.545  1.00  0.00     0.148 C 
ATOM     22  O   UNL A   1      33.274  19.729  24.991  1.00  0.00    -0.268 OA
ATOM     23  C   UNL A   1      35.674  19.873  24.763  1.00  0.00     0.081 C 
ATOM     24  S   UNL A   1      36.804  21.169  24.924  1.00  0.00    -0.054 SA
ATOM     25  S   UNL A   1      35.958  23.843  26.010  1.00  0.00    -0.052 S 
ATOM     26  C   UNL A   1      36.027  18.601  24.526  1.00  0.00     0.040 C 
BRANCH  26  27
ATOM     27  C   UNL A   1      35.081  17.539  24.495  1.00  0.00     0.028 A 
ATOM     28  C   UNL A   1      33.946  17.393  23.715  1.00  0.00     0.020 A 
ATOM     29  S   UNL A   1      35.261  16.199  25.558  1.00  0.00    -0.144 S 
ATOM     30  C   UNL A   1      33.179  16.244  24.062  1.00  0.00     0.012 A 
ATOM     31  C   UNL A   1      33.780  15.508  25.056  1.00  0.00     0.065 A 
ENDBRANCH  26  27
ENDBRANCH  18  19
ENDBRANCH  16  18
ENDBRANCH   9  14
ENDBRANCH   6   8
ENDBRANCH   5   6
ENDBRANCH   4   5
ENDBRANCH   3   4
ENDBRANCH   2   3
ENDBRANCH   1   2
BRANCH   1  32
ATOM     32  C   UNL A   1      31.467  30.207  25.258  1.00  0.00     0.188 C 
BRANCH  32  33
ATOM     33  O   UNL A   1      31.328  31.370  26.038  1.00  0.00    -0.376 OA
BRANCH  33  34
ATOM     34  C   UNL A   1      32.303  31.674  27.022  1.00  0.00     0.202 C 
BRANCH  34  35
ATOM     35  C   UNL A   1      32.953  33.055  27.269  1.00  0.00     0.261 C 
BRANCH  35  36
ATOM     36  O   UNL A   1      32.220  34.049  27.991  1.00  0.00    -0.460 OA
BRANCH  36  37
ATOM     37  C   UNL A   1      32.949  34.993  28.640  1.00  0.00     0.338 C 
ATOM     38  O   UNL A   1      32.640  36.144  28.859  1.00  0.00    -0.246 OA
BRANCH  37  39
ATOM     39  C   UNL A   1      34.138  34.331  29.221  1.00  0.00     0.060 A 
ATOM     40  C   UNL A   1      33.962  33.426  30.278  1.00  0.00     0.016 A 
ATOM     41  C   UNL A   1      35.413  34.587  28.716  1.00  0.00     0.016 A 
ATOM     42  C   UNL A   1      35.065  32.768  30.827  1.00  0.00     0.010 A 
ATOM     43  C   UNL A   1      36.519  33.946  29.285  1.00  0.00     0.010 A 
ATOM     44  C   UNL A   1      36.353  33.041  30.350  1.00  0.00    -0.014 A 
BRANCH  44  45
ATOM     45  C   UNL A   1      37.544  32.474  31.033  1.00  0.00     0.031 A 
ATOM     46  C   UNL A   1      38.298  31.355  30.371  1.00  0.00     0.074 A 
ATOM     47  C   UNL A   1      37.943  32.937  32.230  1.00  0.00     0.049 A 
ATOM     48  N   UNL A   1      39.303  30.648  30.820  1.00  0.00    -0.248 NA
ATOM     49  C   UNL A   1      37.855  30.984  29.018  1.00  0.00     0.031 C 
ATOM     50  C   UNL A   1      37.327  34.043  32.957  1.00  0.00     0.029 A 
ATOM     51  N   UNL A   1      38.960  32.516  33.054  1.00  0.00    -0.354 N 
ATOM     52  C   UNL A   1      39.608  29.743  29.811  1.00  0.00     0.074 A 
ATOM     53  C   UNL A   1      38.663  29.973  28.738  1.00  0.00     0.031 C 
ATOM     54  C   UNL A   1      37.964  34.203  34.130  1.00  0.00     0.029 A 
ATOM     55  C   UNL A   1      39.005  33.183  34.255  1.00  0.00     0.049 A 
ATOM     56  H   UNL A   1      39.594  31.804  32.808  1.00  0.00     0.167 HD
ATOM     57  C   UNL A   1      40.588  28.809  29.783  1.00  0.00     0.037 A 
ATOM     58  C   UNL A   1      39.774  32.970  35.341  1.00  0.00     0.037 A 
ATOM     59  C   UNL A   1      41.519  28.574  30.857  1.00  0.00     0.049 A 
ATOM     60  C   UNL A   1      40.794  31.857  35.322  1.00  0.00     0.074 A 
ATOM     61  C   UNL A   1      42.561  27.666  30.912  1.00  0.00     0.029 A 
ATOM     62  N   UNL A   1      41.509  29.244  32.072  1.00  0.00    -0.354 N 
ATOM     63  N   UNL A   1      41.100  31.027  34.354  1.00  0.00    -0.248 NA
ATOM     64  C   UNL A   1      41.574  31.650  36.552  1.00  0.00     0.031 C 
ATOM     65  C   UNL A   1      43.138  27.738  32.184  1.00  0.00     0.029 A 
ATOM     66  C   UNL A   1      42.501  28.738  32.899  1.00  0.00     0.049 A 
ATOM     67  H   UNL A   1      40.887  29.968  32.313  1.00  0.00     0.167 HD
ATOM     68  C   UNL A   1      42.121  30.222  34.847  1.00  0.00     0.074 A 
ATOM     69  C   UNL A   1      42.396  30.676  36.193  1.00  0.00     0.031 C 
ATOM     70  C   UNL A   1      42.770  29.199  34.238  1.00  0.00     0.037 A 
BRANCH  57  71
ATOM     71  C   UNL A   1      40.686  27.942  28.560  1.00  0.00     0.064 A 
ATOM     72  C   UNL A   1      40.005  26.718  28.464  1.00  0.00     0.173 A 
ATOM     73  C   UNL A   1      41.441  28.360  27.453  1.00  0.00     0.173 A 
ATOM     74  F   UNL A   1      39.280  26.266  29.497  1.00  0.00    -0.203 F 
ATOM     75  C   UNL A   1      40.101  25.934  27.317  1.00  0.00     0.198 A 
ATOM     76  C   UNL A   1      41.506  27.590  26.296  1.00  0.00     0.198 A 
ATOM     77  F   UNL A   1      42.107  29.524  27.489  1.00  0.00    -0.203 F 
ATOM     78  F   UNL A   1      39.483  24.745  27.267  1.00  0.00    -0.200 F 
ATOM     79  C   UNL A   1      40.843  26.374  26.231  1.00  0.00     0.200 A 
ATOM     80  F   UNL A   1      42.211  28.024  25.242  1.00  0.00    -0.200 F 
ATOM     81  F   UNL A   1      40.925  25.622  25.125  1.00  0.00    -0.200 F 
ENDBRANCH  57  71
BRANCH  58  82
ATOM     82  C   UNL A   1      39.599  33.810  36.556  1.00  0.00     0.064 A 
ATOM     83  C   UNL A   1      38.791  33.386  37.620  1.00  0.00     0.173 A 
ATOM     84  C   UNL A   1      40.209  35.069  36.666  1.00  0.00     0.173 A 
ATOM     85  F   UNL A   1      38.159  32.205  37.550  1.00  0.00    -0.203 F 
ATOM     86  C   UNL A   1      38.582  34.196  38.735  1.00  0.00     0.198 A 
ATOM     87  C   UNL A   1      40.027  35.864  37.796  1.00  0.00     0.198 A 
ATOM     88  F   UNL A   1      40.985  35.529  35.672  1.00  0.00    -0.203 F 
ATOM     89  F   UNL A   1      37.756  33.790  39.709  1.00  0.00    -0.200 F 
ATOM     90  C   UNL A   1      39.205  35.431  38.825  1.00  0.00     0.200 A 
ATOM     91  F   UNL A   1      40.638  37.053  37.882  1.00  0.00    -0.200 F 
ATOM     92  F   UNL A   1      39.003  36.209  39.896  1.00  0.00    -0.200 F 
ENDBRANCH  58  82
BRANCH  70  93
ATOM     93  C   UNL A   1      43.867  28.513  35.007  1.00  0.00     0.064 A 
ATOM     94  C   UNL A   1      45.183  28.998  35.005  1.00  0.00     0.173 A 
ATOM     95  C   UNL A   1      43.586  27.384  35.793  1.00  0.00     0.173 A 
ATOM     96  F   UNL A   1      45.509  30.066  34.262  1.00  0.00    -0.203 F 
ATOM     97  C   UNL A   1      46.183  28.362  35.739  1.00  0.00     0.198 A 
ATOM     98  C   UNL A   1      44.580  26.772  36.553  1.00  0.00     0.198 A 
ATOM     99  F   UNL A   1      42.343  26.884  35.839  1.00  0.00    -0.203 F 
ATOM    100  F   UNL A   1      47.443  28.812  35.682  1.00  0.00    -0.200 F 
ATOM    101  C   UNL A   1      45.878  27.256  36.519  1.00  0.00     0.200 A 
ATOM    102  F   UNL A   1      44.279  25.715  37.320  1.00  0.00    -0.200 F 
ATOM    103  F   UNL A   1      46.839  26.653  37.234  1.00  0.00    -0.200 F 
ENDBRANCH  70  93
ENDBRANCH  44  45
ENDBRANCH  37  39
ENDBRANCH  36  37
ENDBRANCH  35  36
ENDBRANCH  34  35
ENDBRANCH  33  34
ENDBRANCH  32  33
ENDBRANCH   1  32
TORSDOF 21
ENDMDL
MODEL 2
REMARK VINA RESULT:     -11.0      0.558      7.016
REMARK SMILES O=C(CN1C(=O)/C(=C\c2cccs2)SC1=S)Nc1ccccc1C(=O)OCCOCCOCCOC(=O)c1ccc(-c2c3nc(c(-c4c(F)c(F)c(F)c(F)c4F)c4ccc([nH]4)c(-c4c(F)c(F)c(F)c(F)c4F)c4nc(c(-c5c(F)c(F)c(F)c(F)c5F)c5ccc2[nH]5)C=C4)C=C3)cc1
REMARK SMILES IDX 30 1 29 2 28 3 27 4 26 5 24 6 25 7 23 8 18 9 19 10 20 11
REMARK SMILES IDX 22 12 21 13 17 14 1 15 2 16 3 18 4 19 5 20 15 21 6 22 7 23
REMARK SMILES IDX 14 24 16 25 8 26 9 27 10 28 13 29 11 30 12 31 31 32 32 33
REMARK SMILES IDX 33 34 34 35 35 36 36 37 37 38 38 39 39 40 100 41 40 42 99 43
REMARK SMILES IDX 41 44 42 45 43 46 93 47 44 48 98 49 92 50 94 51 45 52 97 53
REMARK SMILES IDX 91 54 90 55 46 57 78 58 58 59 77 60 59 61 62 62 76 63 95 64
REMARK SMILES IDX 60 65 61 66 75 68 96 69 63 70 47 71 48 72 56 73 49 74 50 75
REMARK SMILES IDX 54 76 57 77 51 78 52 79 55 80 53 81 79 82 80 83 88 84 81 85
REMARK SMILES IDX 82 86 86 87 89 88 83 89 84 90 87 91 85 92 64 93 65 94 73 95
REMARK SMILES IDX 66 96 67 97 71 98 74 99 68 100 69 101 72 102 70 103
REMARK H PARENT 17 17 94 56 62 67
REMARK Flexibility Score: inf
ROOT
ATOM      1  C   UNL A   1      32.895  29.931  25.283  1.00  0.00     0.188 C 
ENDROOT
BRANCH   1   2
ATOM      2  O   UNL A   1      33.505  29.134  26.286  1.00  0.00    -0.376 OA
BRANCH   2   3
ATOM      3  C   UNL A   1      32.697  28.509  27.276  1.00  0.00     0.202 C 
BRANCH   3   4
ATOM      4  C   UNL A   1      32.160  27.086  27.073  1.00  0.00     0.261 C 
BRANCH   4   5
ATOM      5  O   UNL A   1      30.752  27.022  26.826  1.00  0.00    -0.460 OA
BRANCH   5   6
ATOM      6  C   UNL A   1      30.299  25.940  26.138  1.00  0.00     0.340 C 
ATOM      7  O   UNL A   1      29.428  25.166  26.503  1.00  0.00    -0.246 OA
BRANCH   6   8
ATOM      8  C   UNL A   1      30.820  25.973  24.743  1.00  0.00     0.083 A 
ATOM      9  C   UNL A   1      31.906  25.221  24.258  1.00  0.00     0.055 A 
ATOM     10  C   UNL A   1      32.410  25.499  22.974  1.00  0.00     0.027 A 
ATOM     11  C   UNL A   1      31.840  26.491  22.174  1.00  0.00     0.002 A 
ATOM     12  C   UNL A   1      30.268  26.985  23.930  1.00  0.00     0.018 A 
ATOM     13  C   UNL A   1      30.776  27.243  22.656  1.00  0.00     0.001 A 
BRANCH   9  14
ATOM     14  N   UNL A   1      32.619  24.254  24.992  1.00  0.00    -0.324 N 
ATOM     15  O   UNL A   1      31.403  22.338  24.547  1.00  0.00    -0.273 OA
ATOM     16  C   UNL A   1      32.227  22.946  25.225  1.00  0.00     0.244 C 
ATOM     17  H   UNL A   1      33.480  24.534  25.378  1.00  0.00     0.170 HD
BRANCH  16  18
ATOM     18  C   UNL A   1      33.042  22.252  26.317  1.00  0.00     0.227 C 
BRANCH  18  19
ATOM     19  N   UNL A   1      34.196  21.656  25.652  1.00  0.00    -0.283 N 
ATOM     20  C   UNL A   1      34.064  20.349  25.233  1.00  0.00     0.266 C 
ATOM     21  C   UNL A   1      35.434  22.235  25.510  1.00  0.00     0.148 C 
ATOM     22  O   UNL A   1      33.008  19.729  25.287  1.00  0.00    -0.268 OA
ATOM     23  C   UNL A   1      35.379  19.789  24.832  1.00  0.00     0.081 C 
ATOM     24  S   UNL A   1      36.555  21.054  24.831  1.00  0.00    -0.054 SA
ATOM     25  S   UNL A   1      35.887  23.796  25.871  1.00  0.00    -0.052 S 
ATOM     26  C   UNL A   1      35.674  18.497  24.621  1.00  0.00     0.040 C 
BRANCH  26  27
ATOM     27  C   UNL A   1      34.700  17.465  24.724  1.00  0.00     0.028 A 
ATOM     28  C   UNL A   1      34.513  16.528  25.727  1.00  0.00     0.020 A 
ATOM     29  S   UNL A   1      33.553  17.238  23.463  1.00  0.00    -0.144 S 
ATOM     30  C   UNL A   1      33.506  15.571  25.411  1.00  0.00     0.012 A 
ATOM     31  C   UNL A   1      32.907  15.839  24.202  1.00  0.00     0.065 A 
ENDBRANCH  26  27
ENDBRANCH  18  19
ENDBRANCH  16  18
ENDBRANCH   9  14
ENDBRANCH   6   8
ENDBRANCH   5   6
ENDBRANCH   4   5
ENDBRANCH   3   4
ENDBRANCH   2   3
ENDBRANCH   1   2
BRANCH   1  32
ATOM     32  C   UNL A   1      31.406  30.319  25.407  1.00  0.00     0.188 C 
BRANCH  32  33
ATOM     33  O   UNL A   1      31.146  31.630  25.847  1.00  0.00    -0.376 OA
BRANCH  33  34
ATOM     34  C   UNL A   1      31.739  32.097  27.047  1.00  0.00     0.202 C 
BRANCH  34  35
ATOM     35  C   UNL A   1      32.539  33.410  27.221  1.00  0.00     0.261 C 
BRANCH  35  36
ATOM     36  O   UNL A   1      32.250  34.255  28.339  1.00  0.00    -0.460 OA
BRANCH  36  37
ATOM     37  C   UNL A   1      33.206  35.156  28.684  1.00  0.00     0.338 C 
ATOM     38  O   UNL A   1      33.148  36.364  28.601  1.00  0.00    -0.246 OA
BRANCH  37  39
ATOM     39  C   UNL A   1      34.293  34.426  29.373  1.00  0.00     0.060 A 
ATOM     40  C   UNL A   1      35.592  34.490  28.849  1.00  0.00     0.016 A 
ATOM     41  C   UNL A   1      34.036  33.698  30.535  1.00  0.00     0.016 A 
ATOM     42  C   UNL A   1      36.641  33.832  29.495  1.00  0.00     0.010 A 
ATOM     43  C   UNL A   1      35.083  33.018  31.165  1.00  0.00     0.010 A 
ATOM     44  C   UNL A   1      36.389  33.072  30.643  1.00  0.00    -0.014 A 
BRANCH  44  45
ATOM     45  C   UNL A   1      37.461  32.237  31.243  1.00  0.00     0.031 A 
ATOM     46  C   UNL A   1      37.964  32.575  32.618  1.00  0.00     0.074 A 
ATOM     47  C   UNL A   1      37.991  31.200  30.570  1.00  0.00     0.049 A 
ATOM     48  N   UNL A   1      38.951  32.048  33.298  1.00  0.00    -0.248 NA
ATOM     49  C   UNL A   1      37.257  33.657  33.320  1.00  0.00     0.031 C 
ATOM     50  C   UNL A   1      37.565  30.742  29.251  1.00  0.00     0.029 A 
ATOM     51  N   UNL A   1      39.020  30.353  30.905  1.00  0.00    -0.354 N 
ATOM     52  C   UNL A   1      38.989  32.738  34.502  1.00  0.00     0.074 A 
ATOM     53  C   UNL A   1      37.945  33.740  34.450  1.00  0.00     0.031 C 
ATOM     54  C   UNL A   1      38.339  29.709  28.877  1.00  0.00     0.029 A 
ATOM     55  C   UNL A   1      39.343  29.461  29.911  1.00  0.00     0.049 A 
ATOM     56  H   UNL A   1      39.484  30.385  31.773  1.00  0.00     0.167 HD
ATOM     57  C   UNL A   1      39.819  32.549  35.556  1.00  0.00     0.037 A 
ATOM     58  C   UNL A   1      40.353  28.572  29.833  1.00  0.00     0.037 A 
ATOM     59  C   UNL A   1      40.865  31.561  35.602  1.00  0.00     0.049 A 
ATOM     60  C   UNL A   1      41.326  28.450  30.981  1.00  0.00     0.074 A 
ATOM     61  C   UNL A   1      41.741  31.279  36.634  1.00  0.00     0.029 A 
ATOM     62  N   UNL A   1      41.185  30.701  34.561  1.00  0.00    -0.354 N 
ATOM     63  N   UNL A   1      41.337  29.081  32.130  1.00  0.00    -0.248 NA
ATOM     64  C   UNL A   1      42.429  27.491  30.817  1.00  0.00     0.031 C 
ATOM     65  C   UNL A   1      42.635  30.297  36.194  1.00  0.00     0.029 A 
ATOM     66  C   UNL A   1      42.274  29.917  34.913  1.00  0.00     0.049 A 
ATOM     67  H   UNL A   1      40.712  30.656  33.699  1.00  0.00     0.167 HD
ATOM     68  C   UNL A   1      42.427  28.578  32.833  1.00  0.00     0.074 A 
ATOM     69  C   UNL A   1      43.040  27.575  31.989  1.00  0.00     0.031 C 
ATOM     70  C   UNL A   1      42.877  28.918  34.066  1.00  0.00     0.037 A 
BRANCH  57  71
ATOM     71  C   UNL A   1      39.652  33.457  36.742  1.00  0.00     0.064 A 
ATOM     72  C   UNL A   1      40.315  34.691  36.828  1.00  0.00     0.173 A 
ATOM     73  C   UNL A   1      38.786  33.104  37.789  1.00  0.00     0.173 A 
ATOM     74  F   UNL A   1      41.163  35.071  35.862  1.00  0.00    -0.203 F 
ATOM     75  C   UNL A   1      40.139  35.523  37.931  1.00  0.00     0.198 A 
ATOM     76  C   UNL A   1      38.586  33.953  38.873  1.00  0.00     0.198 A 
ATOM     77  F   UNL A   1      38.122  31.939  37.754  1.00  0.00    -0.203 F 
ATOM     78  F   UNL A   1      40.821  36.674  38.016  1.00  0.00    -0.200 F 
ATOM     79  C   UNL A   1      39.268  35.158  38.948  1.00  0.00     0.200 A 
ATOM     80  F   UNL A   1      37.733  33.606  39.846  1.00  0.00    -0.200 F 
ATOM     81  F   UNL A   1      39.092  35.965  40.003  1.00  0.00    -0.200 F 
ENDBRANCH  57  71
BRANCH  58  82
ATOM     82  C   UNL A   1      40.522  27.739  28.612  1.00  0.00     0.064 A 
ATOM     83  C   UNL A   1      41.314  28.174  27.541  1.00  0.00     0.173 A 
ATOM     84  C   UNL A   1      39.866  26.505  28.475  1.00  0.00     0.173 A 
ATOM     85  F   UNL A   1      41.936  29.361  27.608  1.00  0.00    -0.203 F 
ATOM     86  C   UNL A   1      41.429  27.420  26.374  1.00  0.00     0.198 A 
ATOM     87  C   UNL A   1      40.007  25.736  27.322  1.00  0.00     0.198 A 
ATOM     88  F   UNL A   1      39.086  26.046  29.466  1.00  0.00    -0.203 F 
ATOM     89  F   UNL A   1      42.146  27.889  25.344  1.00  0.00    -0.200 F 
ATOM     90  C   UNL A   1      40.780  26.198  26.269  1.00  0.00     0.200 A 
ATOM     91  F   UNL A   1      39.386  24.553  27.227  1.00  0.00    -0.200 F 
ATOM     92  F   UNL A   1      40.890  25.474  25.147  1.00  0.00    -0.200 F 
ENDBRANCH  58  82
BRANCH  70  93
ATOM     93  C   UNL A   1      44.076  28.181  34.598  1.00  0.00     0.064 A 
ATOM     94  C   UNL A   1      45.385  28.618  34.341  1.00  0.00     0.173 A 
ATOM     95  C   UNL A   1      43.912  27.049  35.412  1.00  0.00     0.173 A 
ATOM     96  F   UNL A   1      45.599  29.685  33.558  1.00  0.00    -0.203 F 
ATOM     97  C   UNL A   1      46.484  27.933  34.857  1.00  0.00     0.198 A 
ATOM     98  C   UNL A   1      45.012  26.389  35.956  1.00  0.00     0.198 A 
ATOM     99  F   UNL A   1      42.684  26.593  35.697  1.00  0.00    -0.203 F 
ATOM    100  F   UNL A   1      47.724  28.339  34.557  1.00  0.00    -0.200 F 
ATOM    101  C   UNL A   1      46.296  26.826  35.671  1.00  0.00     0.200 A 
ATOM    102  F   UNL A   1      44.827  25.331  36.757  1.00  0.00    -0.200 F 
ATOM    103  F   UNL A   1      47.354  26.176  36.177  1.00  0.00    -0.200 F 
ENDBRANCH  70  93
ENDBRANCH  44  45
ENDBRANCH  37  39
ENDBRANCH  36  37
ENDBRANCH  35  36
ENDBRANCH  34  35
ENDBRANCH  33  34
ENDBRANCH  32  33
ENDBRANCH   1  32
TORSDOF 21
ENDMDL
MODEL 3
REMARK VINA RESULT:     -10.8      6.620      9.941
REMARK SMILES O=C(CN1C(=O)/C(=C\c2cccs2)SC1=S)Nc1ccccc1C(=O)OCCOCCOCCOC(=O)c1ccc(-c2c3nc(c(-c4c(F)c(F)c(F)c(F)c4F)c4ccc([nH]4)c(-c4c(F)c(F)c(F)c(F)c4F)c4nc(c(-c5c(F)c(F)c(F)c(F)c5F)c5ccc2[nH]5)C=C4)C=C3)cc1
REMARK SMILES IDX 30 1 29 2 28 3 27 4 26 5 24 6 25 7 23 8 18 9 19 10 20 11
REMARK SMILES IDX 22 12 21 13 17 14 1 15 2 16 3 18 4 19 5 20 15 21 6 22 7 23
REMARK SMILES IDX 14 24 16 25 8 26 9 27 10 28 13 29 11 30 12 31 31 32 32 33
REMARK SMILES IDX 33 34 34 35 35 36 36 37 37 38 38 39 39 40 100 41 40 42 99 43
REMARK SMILES IDX 41 44 42 45 43 46 93 47 44 48 98 49 92 50 94 51 45 52 97 53
REMARK SMILES IDX 91 54 90 55 46 57 78 58 58 59 77 60 59 61 62 62 76 63 95 64
REMARK SMILES IDX 60 65 61 66 75 68 96 69 63 70 47 71 48 72 56 73 49 74 50 75
REMARK SMILES IDX 54 76 57 77 51 78 52 79 55 80 53 81 79 82 80 83 88 84 81 85
REMARK SMILES IDX 82 86 86 87 89 88 83 89 84 90 87 91 85 92 64 93 65 94 73 95
REMARK SMILES IDX 66 96 67 97 71 98 74 99 68 100 69 101 72 102 70 103
REMARK H PARENT 17 17 94 56 62 67
REMARK Flexibility Score: inf
ROOT
ATOM      1  C   UNL A   1      35.344  35.159  32.973  1.00  0.00     0.188 C 
ENDROOT
BRANCH   1   2
ATOM      2  O   UNL A   1      34.208  35.469  32.181  1.00  0.00    -0.376 OA
BRANCH   2   3
ATOM      3  C   UNL A   1      33.854  34.621  31.096  1.00  0.00     0.202 C 
BRANCH   3   4
ATOM      4  C   UNL A   1      33.181  35.188  29.838  1.00  0.00     0.261 C 
BRANCH   4   5
ATOM      5  O   UNL A   1      33.811  34.802  28.612  1.00  0.00    -0.460 OA
BRANCH   5   6
ATOM      6  C   UNL A   1      33.503  33.569  28.128  1.00  0.00     0.340 C 
ATOM      7  O   UNL A   1      32.448  33.243  27.606  1.00  0.00    -0.246 OA
BRANCH   6   8
ATOM      8  C   UNL A   1      34.729  32.726  28.070  1.00  0.00     0.083 A 
ATOM      9  C   UNL A   1      34.751  31.320  28.004  1.00  0.00     0.055 A 
ATOM     10  C   UNL A   1      35.979  30.650  28.153  1.00  0.00     0.027 A 
ATOM     11  C   UNL A   1      37.168  31.355  28.348  1.00  0.00     0.002 A 
ATOM     12  C   UNL A   1      35.936  33.423  28.286  1.00  0.00     0.018 A 
ATOM     13  C   UNL A   1      37.146  32.742  28.426  1.00  0.00     0.001 A 
BRANCH   9  14
ATOM     14  N   UNL A   1      33.618  30.492  27.895  1.00  0.00    -0.324 N 
ATOM     15  O   UNL A   1      33.990  29.455  25.862  1.00  0.00    -0.273 OA
ATOM     16  C   UNL A   1      33.235  29.768  26.779  1.00  0.00     0.244 C 
ATOM     17  H   UNL A   1      33.041  30.421  28.690  1.00  0.00     0.170 HD
BRANCH  16  18
ATOM     18  C   UNL A   1      31.804  29.236  26.861  1.00  0.00     0.227 C 
BRANCH  18  19
ATOM     19  N   UNL A   1      31.577  28.477  25.635  1.00  0.00    -0.283 N 
ATOM     20  C   UNL A   1      30.951  29.142  24.602  1.00  0.00     0.266 C 
ATOM     21  C   UNL A   1      31.821  27.137  25.459  1.00  0.00     0.148 C 
ATOM     22  O   UNL A   1      30.697  30.340  24.628  1.00  0.00    -0.268 OA
ATOM     23  C   UNL A   1      30.539  28.191  23.538  1.00  0.00     0.081 C 
ATOM     24  S   UNL A   1      31.193  26.632  23.889  1.00  0.00    -0.054 SA
ATOM     25  S   UNL A   1      32.599  26.088  26.493  1.00  0.00    -0.052 S 
ATOM     26  C   UNL A   1      29.696  28.434  22.524  1.00  0.00     0.040 C 
BRANCH  26  27
ATOM     27  C   UNL A   1      29.096  29.708  22.316  1.00  0.00     0.028 A 
ATOM     28  C   UNL A   1      29.522  30.762  21.526  1.00  0.00     0.020 A 
ATOM     29  S   UNL A   1      27.641  30.115  23.136  1.00  0.00    -0.144 S 
ATOM     30  C   UNL A   1      28.716  31.927  21.676  1.00  0.00     0.012 A 
ATOM     31  C   UNL A   1      27.660  31.712  22.530  1.00  0.00     0.065 A 
ENDBRANCH  26  27
ENDBRANCH  18  19
ENDBRANCH  16  18
ENDBRANCH   9  14
ENDBRANCH   6   8
ENDBRANCH   5   6
ENDBRANCH   4   5
ENDBRANCH   3   4
ENDBRANCH   2   3
ENDBRANCH   1   2
BRANCH   1  32
ATOM     32  C   UNL A   1      35.159  34.569  34.388  1.00  0.00     0.188 C 
BRANCH  32  33
ATOM     33  O   UNL A   1      35.740  33.307  34.609  1.00  0.00    -0.376 OA
BRANCH  33  34
ATOM     34  C   UNL A   1      36.396  32.640  33.542  1.00  0.00     0.202 C 
BRANCH  34  35
ATOM     35  C   UNL A   1      37.288  31.382  33.661  1.00  0.00     0.261 C 
BRANCH  35  36
ATOM     36  O   UNL A   1      37.188  30.364  32.661  1.00  0.00    -0.460 OA
BRANCH  36  37
ATOM     37  C   UNL A   1      38.146  29.402  32.673  1.00  0.00     0.338 C 
ATOM     38  O   UNL A   1      38.039  28.257  33.057  1.00  0.00    -0.246 OA
BRANCH  37  39
ATOM     39  C   UNL A   1      39.327  29.925  31.952  1.00  0.00     0.060 A 
ATOM     40  C   UNL A   1      40.420  30.399  32.693  1.00  0.00     0.016 A 
ATOM     41  C   UNL A   1      39.363  29.934  30.557  1.00  0.00     0.016 A 
ATOM     42  C   UNL A   1      41.557  30.873  32.037  1.00  0.00     0.010 A 
ATOM     43  C   UNL A   1      40.493  30.435  29.903  1.00  0.00     0.010 A 
ATOM     44  C   UNL A   1      41.592  30.917  30.637  1.00  0.00    -0.014 A 
BRANCH  44  45
ATOM     45  C   UNL A   1      42.726  31.570  29.933  1.00  0.00     0.031 A 
ATOM     46  C   UNL A   1      43.965  30.769  29.650  1.00  0.00     0.074 A 
ATOM     47  C   UNL A   1      42.660  32.860  29.560  1.00  0.00     0.049 A 
ATOM     48  N   UNL A   1      45.106  31.153  29.136  1.00  0.00    -0.248 NA
ATOM     49  C   UNL A   1      43.910  29.341  29.998  1.00  0.00     0.031 C 
ATOM     50  C   UNL A   1      41.502  33.733  29.737  1.00  0.00     0.029 A 
ATOM     51  N   UNL A   1      43.603  33.666  28.968  1.00  0.00    -0.354 N 
ATOM     52  C   UNL A   1      45.906  30.018  29.105  1.00  0.00     0.074 A 
ATOM     53  C   UNL A   1      45.131  28.938  29.678  1.00  0.00     0.031 C 
ATOM     54  C   UNL A   1      41.808  34.960  29.281  1.00  0.00     0.029 A 
ATOM     55  C   UNL A   1      43.197  34.970  28.822  1.00  0.00     0.049 A 
ATOM     56  H   UNL A   1      44.486  33.339  28.679  1.00  0.00     0.167 HD
ATOM     57  C   UNL A   1      47.171  29.890  28.638  1.00  0.00     0.037 A 
ATOM     58  C   UNL A   1      43.880  36.052  28.399  1.00  0.00     0.037 A 
ATOM     59  C   UNL A   1      47.945  30.968  28.080  1.00  0.00     0.049 A 
ATOM     60  C   UNL A   1      45.322  35.902  27.976  1.00  0.00     0.074 A 
ATOM     61  C   UNL A   1      49.227  30.931  27.560  1.00  0.00     0.029 A 
ATOM     62  N   UNL A   1      47.513  32.284  27.983  1.00  0.00    -0.354 N 
ATOM     63  N   UNL A   1      46.062  34.822  27.918  1.00  0.00    -0.248 NA
ATOM     64  C   UNL A   1      46.023  37.128  27.563  1.00  0.00     0.031 C 
ATOM     65  C   UNL A   1      49.596  32.234  27.212  1.00  0.00     0.029 A 
ATOM     66  C   UNL A   1      48.521  33.074  27.450  1.00  0.00     0.049 A 
ATOM     67  H   UNL A   1      46.625  32.608  28.256  1.00  0.00     0.167 HD
ATOM     68  C   UNL A   1      47.301  35.231  27.439  1.00  0.00     0.074 A 
ATOM     69  C   UNL A   1      47.207  36.656  27.203  1.00  0.00     0.031 C 
ATOM     70  C   UNL A   1      48.417  34.492  27.216  1.00  0.00     0.037 A 
BRANCH  57  71
ATOM     71  C   UNL A   1      47.815  28.537  28.742  1.00  0.00     0.064 A 
ATOM     72  C   UNL A   1      47.664  27.566  27.738  1.00  0.00     0.173 A 
ATOM     73  C   UNL A   1      48.628  28.220  29.841  1.00  0.00     0.173 A 
ATOM     74  F   UNL A   1      46.889  27.813  26.672  1.00  0.00    -0.203 F 
ATOM     75  C   UNL A   1      48.279  26.322  27.848  1.00  0.00     0.198 A 
ATOM     76  C   UNL A   1      49.268  26.988  29.930  1.00  0.00     0.198 A 
ATOM     77  F   UNL A   1      48.811  29.113  30.826  1.00  0.00    -0.203 F 
ATOM     78  F   UNL A   1      48.080  25.393  26.902  1.00  0.00    -0.200 F 
ATOM     79  C   UNL A   1      49.087  26.036  28.938  1.00  0.00     0.200 A 
ATOM     80  F   UNL A   1      50.061  26.720  30.977  1.00  0.00    -0.200 F 
ATOM     81  F   UNL A   1      49.686  24.842  29.036  1.00  0.00    -0.200 F 
ENDBRANCH  57  71
BRANCH  58  82
ATOM     82  C   UNL A   1      43.223  37.387  28.374  1.00  0.00     0.064 A 
ATOM     83  C   UNL A   1      43.337  38.271  29.456  1.00  0.00     0.173 A 
ATOM     84  C   UNL A   1      42.440  37.794  27.282  1.00  0.00     0.173 A 
ATOM     85  F   UNL A   1      44.048  37.916  30.537  1.00  0.00    -0.203 F 
ATOM     86  C   UNL A   1      42.677  39.499  29.458  1.00  0.00     0.198 A 
ATOM     87  C   UNL A   1      41.807  39.036  27.271  1.00  0.00     0.198 A 
ATOM     88  F   UNL A   1      42.288  36.982  26.225  1.00  0.00    -0.203 F 
ATOM     89  F   UNL A   1      42.756  40.297  30.531  1.00  0.00    -0.200 F 
ATOM     90  C   UNL A   1      41.919  39.883  28.362  1.00  0.00     0.200 A 
ATOM     91  F   UNL A   1      41.082  39.406  26.207  1.00  0.00    -0.200 F 
ATOM     92  F   UNL A   1      41.284  41.062  28.364  1.00  0.00    -0.200 F 
ENDBRANCH  58  82
BRANCH  70  93
ATOM     93  C   UNL A   1      49.622  35.201  26.660  1.00  0.00     0.064 A 
ATOM     94  C   UNL A   1      49.729  35.517  25.297  1.00  0.00     0.173 A 
ATOM     95  C   UNL A   1      50.662  35.609  27.509  1.00  0.00     0.173 A 
ATOM     96  F   UNL A   1      48.770  35.139  24.438  1.00  0.00    -0.203 F 
ATOM     97  C   UNL A   1      50.844  36.191  24.802  1.00  0.00     0.198 A 
ATOM     98  C   UNL A   1      51.759  36.313  27.017  1.00  0.00     0.198 A 
ATOM     99  F   UNL A   1      50.608  35.341  28.822  1.00  0.00    -0.203 F 
ATOM    100  F   UNL A   1      50.947  36.436  23.490  1.00  0.00    -0.200 F 
ATOM    101  C   UNL A   1      51.852  36.596  25.663  1.00  0.00     0.200 A 
ATOM    102  F   UNL A   1      52.722  36.720  27.854  1.00  0.00    -0.200 F 
ATOM    103  F   UNL A   1      52.919  37.255  25.187  1.00  0.00    -0.200 F 
ENDBRANCH  70  93
ENDBRANCH  44  45
ENDBRANCH  37  39
ENDBRANCH  36  37
ENDBRANCH  35  36
ENDBRANCH  34  35
ENDBRANCH  33  34
ENDBRANCH  32  33
ENDBRANCH   1  32
TORSDOF 21
ENDMDL
