MODEL 1
REMARK VINA RESULT:     -12.8      0.000      0.000
REMARK SMILES Cc1ccccc1/C=C1\SC(=O)N(CC(=O)Nc2ccccc2C(=O)OCCOCCOCCOC(=O)c2ccc(-c3c4nc(c(-c5c(F)c(F)c(F)c(F)c5F)c5ccc([nH]5)c(-c5c(F)c(F)c(F)c(F)c5F)c5nc(c(-c6c(F)c(F)c(F)c(F)c6F)c6ccc3[nH]6)C=C5)C=C4)cc2)C1=O
REMARK SMILES IDX 30 1 29 2 28 3 27 4 26 5 24 6 25 7 23 8 18 9 19 10 20 11
REMARK SMILES IDX 22 12 21 13 17 14 15 15 16 16 14 18 13 19 8 20 9 21 10 22
REMARK SMILES IDX 101 23 11 24 102 25 12 26 7 27 1 28 2 29 3 30 4 31 6 32 5 33
REMARK SMILES IDX 31 34 32 35 33 36 34 37 35 38 36 39 37 40 38 41 39 42 100 43
REMARK SMILES IDX 40 44 99 45 41 46 42 47 43 48 93 49 44 50 98 51 92 52 94 53
REMARK SMILES IDX 45 54 97 55 91 56 90 57 46 59 78 60 58 61 77 62 59 63 62 64
REMARK SMILES IDX 76 65 95 66 60 67 61 68 75 70 96 71 63 72 47 73 48 74 56 75
REMARK SMILES IDX 49 76 50 77 54 78 57 79 51 80 52 81 55 82 53 83 79 84 80 85
REMARK SMILES IDX 88 86 81 87 82 88 86 89 89 90 83 91 84 92 87 93 85 94 64 95
REMARK SMILES IDX 65 96 73 97 66 98 67 99 71 100 74 101 68 102 69 103 72 104
REMARK SMILES IDX 70 105
REMARK H PARENT 17 17 94 58 62 69
REMARK Flexibility Score: inf
ROOT
ATOM      1  C   UNL A   1      32.681  31.736  27.262  1.00  0.00     0.188 C 
ENDROOT
BRANCH   1   2
ATOM      2  O   UNL A   1      32.060  30.534  26.870  1.00  0.00    -0.376 OA
BRANCH   2   3
ATOM      3  C   UNL A   1      32.733  29.303  27.122  1.00  0.00     0.202 C 
BRANCH   3   4
ATOM      4  C   UNL A   1      32.000  27.809  27.006  1.00  0.00     0.261 C 
BRANCH   4   5
ATOM      5  O   UNL A   1      30.831  26.825  25.637  1.00  0.00    -0.460 OA
BRANCH   5   6
ATOM      6  C   UNL A   1      29.978  27.040  24.222  1.00  0.00     0.340 C 
ATOM      7  O   UNL A   1      29.898  26.043  23.482  1.00  0.00    -0.246 OA
BRANCH   6   8
ATOM      8  C   UNL A   1      29.249  28.200  23.416  1.00  0.00     0.083 A 
ATOM      9  C   UNL A   1      30.043  29.308  23.116  1.00  0.00     0.055 A 
ATOM     10  C   UNL A   1      29.493  30.447  22.430  1.00  0.00     0.027 A 
ATOM     11  C   UNL A   1      28.196  30.480  21.920  1.00  0.00     0.002 A 
ATOM     12  C   UNL A   1      27.849  28.449  23.134  1.00  0.00     0.018 A 
ATOM     13  C   UNL A   1      27.352  29.467  22.286  1.00  0.00     0.001 A 
BRANCH   9  14
ATOM     14  N   UNL A   1      31.393  29.450  23.445  1.00  0.00    -0.324 N 
ATOM     15  C   UNL A   1      32.560  28.780  23.327  1.00  0.00     0.244 C 
ATOM     16  O   UNL A   1      33.494  29.455  23.815  1.00  0.00    -0.273 OA
ATOM     17  H   UNL A   1      31.539  30.306  23.908  1.00  0.00     0.170 HD
BRANCH  15  18
ATOM     18  C   UNL A   1      33.020  27.476  22.546  1.00  0.00     0.230 C 
BRANCH  18  19
ATOM     19  N   UNL A   1      33.493  26.060  22.818  1.00  0.00    -0.259 N 
ATOM     20  C   UNL A   1      34.258  22.273  25.072  1.00  0.00     0.029 C 
ATOM     21  C   UNL A   1      33.784  23.319  24.304  1.00  0.00     0.083 C 
ATOM     22  S   UNL A   1      33.127  22.783  22.223  1.00  0.00    -0.022 SA
ATOM     23  C   UNL A   1      33.935  25.302  24.399  1.00  0.00     0.268 C 
ATOM     24  C   UNL A   1      33.023  24.987  21.559  1.00  0.00     0.294 C 
ATOM     25  O   UNL A   1      34.513  25.901  25.296  1.00  0.00    -0.268 OA
ATOM     26  O   UNL A   1      33.029  25.319  20.391  1.00  0.00    -0.261 OA
BRANCH  20  27
ATOM     27  C   UNL A   1      34.092  20.750  24.989  1.00  0.00    -0.021 A 
ATOM     28  C   UNL A   1      36.546  19.985  24.891  1.00  0.00     0.045 C 
ATOM     29  C   UNL A   1      35.071  19.764  24.747  1.00  0.00    -0.044 A 
ATOM     30  C   UNL A   1      34.701  18.414  24.474  1.00  0.00     0.004 A 
ATOM     31  C   UNL A   1      33.390  17.975  24.580  1.00  0.00     0.000 A 
ATOM     32  C   UNL A   1      32.792  20.227  25.224  1.00  0.00     0.008 A 
ATOM     33  C   UNL A   1      32.439  18.877  25.016  1.00  0.00     0.001 A 
ENDBRANCH  20  27
ENDBRANCH  18  19
ENDBRANCH  15  18
ENDBRANCH   9  14
ENDBRANCH   6   8
ENDBRANCH   5   6
ENDBRANCH   4   5
ENDBRANCH   3   4
ENDBRANCH   2   3
ENDBRANCH   1   2
BRANCH   1  34
ATOM     34  C   UNL A   1      34.194  31.612  27.625  1.00  0.00     0.188 C 
BRANCH  34  35
ATOM     35  O   UNL A   1      34.818  32.883  27.664  1.00  0.00    -0.376 OA
BRANCH  35  36
ATOM     36  C   UNL A   1      34.186  34.068  28.150  1.00  0.00     0.202 C 
BRANCH  36  37
ATOM     37  C   UNL A   1      33.879  34.282  29.665  1.00  0.00     0.261 C 
BRANCH  37  38
ATOM     38  O   UNL A   1      34.957  33.773  30.545  1.00  0.00    -0.460 OA
BRANCH  38  39
ATOM     39  C   UNL A   1      34.656  32.733  31.406  1.00  0.00     0.338 C 
ATOM     40  O   UNL A   1      33.828  32.796  32.306  1.00  0.00    -0.246 OA
BRANCH  39  41
ATOM     41  C   UNL A   1      35.742  31.637  31.356  1.00  0.00     0.060 A 
ATOM     42  C   UNL A   1      36.369  31.257  32.542  1.00  0.00     0.016 A 
ATOM     43  C   UNL A   1      36.417  31.256  30.201  1.00  0.00     0.016 A 
ATOM     44  C   UNL A   1      37.723  30.771  32.542  1.00  0.00     0.010 A 
ATOM     45  C   UNL A   1      37.787  30.788  30.252  1.00  0.00     0.010 A 
ATOM     46  C   UNL A   1      38.591  30.763  31.431  1.00  0.00    -0.014 A 
BRANCH  46  47
ATOM     47  C   UNL A   1      40.311  30.793  31.276  1.00  0.00     0.031 A 
ATOM     48  C   UNL A   1      40.796  32.196  31.408  1.00  0.00     0.074 A 
ATOM     49  C   UNL A   1      41.468  29.998  30.858  1.00  0.00     0.049 A 
ATOM     50  N   UNL A   1      41.848  32.658  30.794  1.00  0.00    -0.248 NA
ATOM     51  C   UNL A   1      40.019  33.255  32.053  1.00  0.00     0.031 C 
ATOM     52  C   UNL A   1      42.861  30.108  31.352  1.00  0.00     0.029 A 
ATOM     53  N   UNL A   1      41.737  28.893  29.973  1.00  0.00    -0.354 N 
ATOM     54  C   UNL A   1      42.122  33.823  31.454  1.00  0.00     0.074 A 
ATOM     55  C   UNL A   1      40.828  34.293  31.842  1.00  0.00     0.031 C 
ATOM     56  C   UNL A   1      43.675  29.120  30.876  1.00  0.00     0.029 A 
ATOM     57  C   UNL A   1      42.953  28.202  29.998  1.00  0.00     0.049 A 
ATOM     58  H   UNL A   1      41.044  28.616  29.330  1.00  0.00     0.167 HD
ATOM     59  C   UNL A   1      43.368  33.981  31.988  1.00  0.00     0.037 A 
ATOM     60  C   UNL A   1      43.455  27.412  28.971  1.00  0.00     0.037 A 
ATOM     61  C   UNL A   1      44.392  33.110  31.331  1.00  0.00     0.049 A 
ATOM     62  C   UNL A   1      44.265  28.361  28.159  1.00  0.00     0.074 A 
ATOM     63  C   UNL A   1      45.420  32.309  31.808  1.00  0.00     0.029 A 
ATOM     64  N   UNL A   1      44.324  32.809  29.948  1.00  0.00    -0.354 N 
ATOM     65  N   UNL A   1      44.162  29.637  28.375  1.00  0.00    -0.248 NA
ATOM     66  C   UNL A   1      45.234  28.025  27.126  1.00  0.00     0.031 C 
ATOM     67  C   UNL A   1      45.936  31.524  30.741  1.00  0.00     0.029 A 
ATOM     68  C   UNL A   1      45.268  31.864  29.575  1.00  0.00     0.049 A 
ATOM     69  H   UNL A   1      43.682  33.222  29.325  1.00  0.00     0.167 HD
ATOM     70  C   UNL A   1      45.202  30.247  27.787  1.00  0.00     0.074 A 
ATOM     71  C   UNL A   1      45.766  29.242  26.897  1.00  0.00     0.031 C 
ATOM     72  C   UNL A   1      45.553  31.497  28.180  1.00  0.00     0.037 A 
BRANCH  59  73
ATOM     73  C   UNL A   1      43.564  34.710  33.348  1.00  0.00     0.064 A 
ATOM     74  C   UNL A   1      43.459  33.999  34.562  1.00  0.00     0.173 A 
ATOM     75  C   UNL A   1      43.753  36.109  33.550  1.00  0.00     0.173 A 
ATOM     76  F   UNL A   1      43.325  32.667  34.577  1.00  0.00    -0.203 F 
ATOM     77  C   UNL A   1      43.492  34.622  35.824  1.00  0.00     0.198 A 
ATOM     78  C   UNL A   1      43.853  36.718  34.805  1.00  0.00     0.198 A 
ATOM     79  F   UNL A   1      43.811  37.006  32.566  1.00  0.00    -0.203 F 
ATOM     80  F   UNL A   1      43.308  33.888  36.930  1.00  0.00    -0.200 F 
ATOM     81  C   UNL A   1      43.702  35.978  35.946  1.00  0.00     0.200 A 
ATOM     82  F   UNL A   1      44.069  38.040  34.880  1.00  0.00    -0.200 F 
ATOM     83  F   UNL A   1      43.753  36.570  37.147  1.00  0.00    -0.200 F 
ENDBRANCH  59  73
BRANCH  60  84
ATOM     84  C   UNL A   1      42.788  26.209  28.306  1.00  0.00     0.064 A 
ATOM     85  C   UNL A   1      43.119  24.883  28.680  1.00  0.00     0.173 A 
ATOM     86  C   UNL A   1      41.680  26.317  27.451  1.00  0.00     0.173 A 
ATOM     87  F   UNL A   1      44.224  24.652  29.409  1.00  0.00    -0.203 F 
ATOM     88  C   UNL A   1      42.229  23.798  28.473  1.00  0.00     0.198 A 
ATOM     89  C   UNL A   1      40.792  25.239  27.244  1.00  0.00     0.198 A 
ATOM     90  F   UNL A   1      41.365  27.506  26.919  1.00  0.00    -0.203 F 
ATOM     91  F   UNL A   1      42.464  22.607  29.051  1.00  0.00    -0.200 F 
ATOM     92  C   UNL A   1      41.023  24.007  27.831  1.00  0.00     0.200 A 
ATOM     93  F   UNL A   1      39.653  25.435  26.560  1.00  0.00    -0.200 F 
ATOM     94  F   UNL A   1      40.075  23.053  27.818  1.00  0.00    -0.200 F 
ENDBRANCH  60  84
BRANCH  72  95
ATOM     95  C   UNL A   1      46.434  32.355  27.355  1.00  0.00     0.064 A 
ATOM     96  C   UNL A   1      45.955  33.447  26.614  1.00  0.00     0.173 A 
ATOM     97  C   UNL A   1      47.830  32.194  27.419  1.00  0.00     0.173 A 
ATOM     98  F   UNL A   1      44.652  33.767  26.594  1.00  0.00    -0.203 F 
ATOM     99  C   UNL A   1      46.819  34.277  25.914  1.00  0.00     0.198 A 
ATOM    100  C   UNL A   1      48.691  33.064  26.774  1.00  0.00     0.198 A 
ATOM    101  F   UNL A   1      48.402  31.214  28.130  1.00  0.00    -0.203 F 
ATOM    102  F   UNL A   1      46.322  35.275  25.174  1.00  0.00    -0.200 F 
ATOM    103  C   UNL A   1      48.187  34.093  26.006  1.00  0.00     0.200 A 
ATOM    104  F   UNL A   1      50.013  32.908  26.923  1.00  0.00    -0.200 F 
ATOM    105  F   UNL A   1      49.022  34.924  25.374  1.00  0.00    -0.200 F 
ENDBRANCH  72  95
ENDBRANCH  46  47
ENDBRANCH  39  41
ENDBRANCH  38  39
ENDBRANCH  37  38
ENDBRANCH  36  37
ENDBRANCH  35  36
ENDBRANCH  34  35
ENDBRANCH   1  34
TORSDOF 21
ENDMDL
MODEL 2
REMARK VINA RESULT:     -12.4      3.683      6.309
REMARK SMILES Cc1ccccc1/C=C1\SC(=O)N(CC(=O)Nc2ccccc2C(=O)OCCOCCOCCOC(=O)c2ccc(-c3c4nc(c(-c5c(F)c(F)c(F)c(F)c5F)c5ccc([nH]5)c(-c5c(F)c(F)c(F)c(F)c5F)c5nc(c(-c6c(F)c(F)c(F)c(F)c6F)c6ccc3[nH]6)C=C5)C=C4)cc2)C1=O
REMARK SMILES IDX 30 1 29 2 28 3 27 4 26 5 24 6 25 7 23 8 18 9 19 10 20 11
REMARK SMILES IDX 22 12 21 13 17 14 15 15 16 16 14 18 13 19 8 20 9 21 10 22
REMARK SMILES IDX 101 23 11 24 102 25 12 26 7 27 1 28 2 29 3 30 4 31 6 32 5 33
REMARK SMILES IDX 31 34 32 35 33 36 34 37 35 38 36 39 37 40 38 41 39 42 100 43
REMARK SMILES IDX 40 44 99 45 41 46 42 47 43 48 93 49 44 50 98 51 92 52 94 53
REMARK SMILES IDX 45 54 97 55 91 56 90 57 46 59 78 60 58 61 77 62 59 63 62 64
REMARK SMILES IDX 76 65 95 66 60 67 61 68 75 70 96 71 63 72 47 73 48 74 56 75
REMARK SMILES IDX 49 76 50 77 54 78 57 79 51 80 52 81 55 82 53 83 79 84 80 85
REMARK SMILES IDX 88 86 81 87 82 88 86 89 89 90 83 91 84 92 87 93 85 94 64 95
REMARK SMILES IDX 65 96 73 97 66 98 67 99 71 100 74 101 68 102 69 103 72 104
REMARK SMILES IDX 70 105
REMARK H PARENT 17 17 94 58 62 69
REMARK Flexibility Score: inf
ROOT
ATOM      1  C   UNL A   1      33.026  31.702  27.368  1.00  0.00     0.188 C 
ENDROOT
BRANCH   1   2
ATOM      2  O   UNL A   1      32.544  30.542  26.730  1.00  0.00    -0.376 OA
BRANCH   2   3
ATOM      3  C   UNL A   1      32.918  29.270  27.252  1.00  0.00     0.202 C 
BRANCH   3   4
ATOM      4  C   UNL A   1      32.055  27.869  26.975  1.00  0.00     0.261 C 
BRANCH   4   5
ATOM      5  O   UNL A   1      31.141  26.973  25.372  1.00  0.00    -0.460 OA
BRANCH   5   6
ATOM      6  C   UNL A   1      29.907  27.167  24.269  1.00  0.00     0.340 C 
ATOM      7  O   UNL A   1      29.282  26.133  23.970  1.00  0.00    -0.246 OA
BRANCH   6   8
ATOM      8  C   UNL A   1      29.272  28.301  23.355  1.00  0.00     0.083 A 
ATOM      9  C   UNL A   1      30.135  29.343  23.011  1.00  0.00     0.055 A 
ATOM     10  C   UNL A   1      29.673  30.456  22.225  1.00  0.00     0.027 A 
ATOM     11  C   UNL A   1      28.400  30.518  21.661  1.00  0.00     0.002 A 
ATOM     12  C   UNL A   1      27.899  28.600  22.999  1.00  0.00     0.018 A 
ATOM     13  C   UNL A   1      27.490  29.578  22.062  1.00  0.00     0.001 A 
BRANCH   9  14
ATOM     14  N   UNL A   1      31.477  29.438  23.384  1.00  0.00    -0.324 N 
ATOM     15  C   UNL A   1      32.628  28.738  23.289  1.00  0.00     0.244 C 
ATOM     16  O   UNL A   1      33.565  29.376  23.819  1.00  0.00    -0.273 OA
ATOM     17  H   UNL A   1      31.633  30.281  23.869  1.00  0.00     0.170 HD
BRANCH  15  18
ATOM     18  C   UNL A   1      33.076  27.437  22.495  1.00  0.00     0.230 C 
BRANCH  18  19
ATOM     19  N   UNL A   1      33.529  26.012  22.753  1.00  0.00    -0.259 N 
ATOM     20  C   UNL A   1      34.270  22.205  24.980  1.00  0.00     0.029 C 
ATOM     21  C   UNL A   1      33.800  23.261  24.226  1.00  0.00     0.083 C 
ATOM     22  S   UNL A   1      33.090  22.744  22.156  1.00  0.00    -0.022 SA
ATOM     23  C   UNL A   1      33.988  25.241  24.323  1.00  0.00     0.268 C 
ATOM     24  C   UNL A   1      33.014  24.951  21.501  1.00  0.00     0.294 C 
ATOM     25  O   UNL A   1      34.595  25.826  25.210  1.00  0.00    -0.268 OA
ATOM     26  O   UNL A   1      33.002  25.287  20.335  1.00  0.00    -0.261 OA
BRANCH  20  27
ATOM     27  C   UNL A   1      34.075  20.685  24.896  1.00  0.00    -0.021 A 
ATOM     28  C   UNL A   1      36.512  19.863  24.968  1.00  0.00     0.045 C 
ATOM     29  C   UNL A   1      35.044  19.675  24.727  1.00  0.00    -0.044 A 
ATOM     30  C   UNL A   1      34.662  18.332  24.438  1.00  0.00     0.004 A 
ATOM     31  C   UNL A   1      33.337  17.924  24.460  1.00  0.00     0.000 A 
ATOM     32  C   UNL A   1      32.750  20.193  25.047  1.00  0.00     0.008 A 
ATOM     33  C   UNL A   1      32.381  18.850  24.825  1.00  0.00     0.001 A 
ENDBRANCH  20  27
ENDBRANCH  18  19
ENDBRANCH  15  18
ENDBRANCH   9  14
ENDBRANCH   6   8
ENDBRANCH   5   6
ENDBRANCH   4   5
ENDBRANCH   3   4
ENDBRANCH   2   3
ENDBRANCH   1   2
BRANCH   1  34
ATOM     34  C   UNL A   1      34.555  31.700  27.681  1.00  0.00     0.188 C 
BRANCH  34  35
ATOM     35  O   UNL A   1      35.078  33.016  27.699  1.00  0.00    -0.376 OA
BRANCH  35  36
ATOM     36  C   UNL A   1      34.322  34.169  28.072  1.00  0.00     0.202 C 
BRANCH  36  37
ATOM     37  C   UNL A   1      33.791  34.378  29.525  1.00  0.00     0.261 C 
BRANCH  37  38
ATOM     38  O   UNL A   1      34.861  34.282  30.545  1.00  0.00    -0.460 OA
BRANCH  38  39
ATOM     39  C   UNL A   1      35.051  33.064  31.174  1.00  0.00     0.338 C 
ATOM     40  O   UNL A   1      34.213  32.505  31.871  1.00  0.00    -0.246 OA
BRANCH  39  41
ATOM     41  C   UNL A   1      36.548  32.688  31.219  1.00  0.00     0.060 A 
ATOM     42  C   UNL A   1      37.068  32.139  32.390  1.00  0.00     0.016 A 
ATOM     43  C   UNL A   1      37.506  33.184  30.341  1.00  0.00     0.016 A 
ATOM     44  C   UNL A   1      38.446  32.338  32.754  1.00  0.00     0.010 A 
ATOM     45  C   UNL A   1      38.878  33.382  30.761  1.00  0.00     0.010 A 
ATOM     46  C   UNL A   1      39.353  33.192  32.093  1.00  0.00    -0.014 A 
BRANCH  46  47
ATOM     47  C   UNL A   1      40.777  34.024  32.605  1.00  0.00     0.031 A 
ATOM     48  C   UNL A   1      40.488  34.776  33.859  1.00  0.00     0.074 A 
ATOM     49  C   UNL A   1      42.111  34.446  32.172  1.00  0.00     0.049 A 
ATOM     50  N   UNL A   1      41.065  35.900  34.175  1.00  0.00    -0.248 NA
ATOM     51  C   UNL A   1      39.372  34.453  34.748  1.00  0.00     0.031 C 
ATOM     52  C   UNL A   1      43.303  34.675  33.023  1.00  0.00     0.029 A 
ATOM     53  N   UNL A   1      42.788  34.730  30.932  1.00  0.00    -0.354 N 
ATOM     54  C   UNL A   1      40.788  36.042  35.506  1.00  0.00     0.074 A 
ATOM     55  C   UNL A   1      39.500  35.435  35.641  1.00  0.00     0.031 C 
ATOM     56  C   UNL A   1      44.437  34.912  32.300  1.00  0.00     0.029 A 
ATOM     57  C   UNL A   1      44.177  34.878  30.863  1.00  0.00     0.049 A 
ATOM     58  H   UNL A   1      42.257  34.823  30.108  1.00  0.00     0.167 HD
ATOM     59  C   UNL A   1      41.836  36.201  36.366  1.00  0.00     0.037 A 
ATOM     60  C   UNL A   1      44.872  35.515  29.842  1.00  0.00     0.037 A 
ATOM     61  C   UNL A   1      43.065  36.722  35.689  1.00  0.00     0.049 A 
ATOM     62  C   UNL A   1      44.968  36.926  30.307  1.00  0.00     0.074 A 
ATOM     63  C   UNL A   1      44.410  36.388  35.751  1.00  0.00     0.029 A 
ATOM     64  N   UNL A   1      42.978  37.638  34.611  1.00  0.00    -0.354 N 
ATOM     65  N   UNL A   1      44.257  37.314  31.321  1.00  0.00    -0.248 NA
ATOM     66  C   UNL A   1      45.827  37.971  29.768  1.00  0.00     0.031 C 
ATOM     67  C   UNL A   1      45.109  37.064  34.714  1.00  0.00     0.029 A 
ATOM     68  C   UNL A   1      44.214  37.868  34.026  1.00  0.00     0.049 A 
ATOM     69  H   UNL A   1      42.140  38.060  34.313  1.00  0.00     0.167 HD
ATOM     70  C   UNL A   1      44.750  38.484  31.755  1.00  0.00     0.074 A 
ATOM     71  C   UNL A   1      45.625  38.938  30.685  1.00  0.00     0.031 C 
ATOM     72  C   UNL A   1      44.460  38.905  33.012  1.00  0.00     0.037 A 
BRANCH  59  73
ATOM     73  C   UNL A   1      41.809  35.557  37.781  1.00  0.00     0.064 A 
ATOM     74  C   UNL A   1      41.881  34.156  37.931  1.00  0.00     0.173 A 
ATOM     75  C   UNL A   1      41.612  36.228  39.024  1.00  0.00     0.173 A 
ATOM     76  F   UNL A   1      42.109  33.357  36.881  1.00  0.00    -0.203 F 
ATOM     77  C   UNL A   1      41.726  33.505  39.170  1.00  0.00     0.198 A 
ATOM     78  C   UNL A   1      41.526  35.585  40.263  1.00  0.00     0.198 A 
ATOM     79  F   UNL A   1      41.442  37.545  39.145  1.00  0.00    -0.203 F 
ATOM     80  F   UNL A   1      41.730  32.166  39.219  1.00  0.00    -0.200 F 
ATOM     81  C   UNL A   1      41.563  34.219  40.336  1.00  0.00     0.200 A 
ATOM     82  F   UNL A   1      41.378  36.319  41.377  1.00  0.00    -0.200 F 
ATOM     83  F   UNL A   1      41.435  33.602  41.519  1.00  0.00    -0.200 F 
ENDBRANCH  59  73
BRANCH  60  84
ATOM     84  C   UNL A   1      44.834  35.201  28.347  1.00  0.00     0.064 A 
ATOM     85  C   UNL A   1      45.796  34.351  27.747  1.00  0.00     0.173 A 
ATOM     86  C   UNL A   1      43.758  35.545  27.514  1.00  0.00     0.173 A 
ATOM     87  F   UNL A   1      46.922  34.044  28.415  1.00  0.00    -0.203 F 
ATOM     88  C   UNL A   1      45.538  33.657  26.538  1.00  0.00     0.198 A 
ATOM     89  C   UNL A   1      43.498  34.856  26.310  1.00  0.00     0.198 A 
ATOM     90  F   UNL A   1      42.864  36.456  27.926  1.00  0.00    -0.203 F 
ATOM     91  F   UNL A   1      46.366  32.682  26.125  1.00  0.00    -0.200 F 
ATOM     92  C   UNL A   1      44.343  33.850  25.872  1.00  0.00     0.200 A 
ATOM     93  F   UNL A   1      42.364  35.099  25.633  1.00  0.00    -0.200 F 
ATOM     94  F   UNL A   1      43.984  33.049  24.854  1.00  0.00    -0.200 F 
ENDBRANCH  60  84
BRANCH  72  95
ATOM     95  C   UNL A   1      44.661  40.312  33.429  1.00  0.00     0.064 A 
ATOM     96  C   UNL A   1      43.638  41.274  33.377  1.00  0.00     0.173 A 
ATOM     97  C   UNL A   1      45.863  40.695  34.050  1.00  0.00     0.173 A 
ATOM     98  F   UNL A   1      42.412  40.974  32.923  1.00  0.00    -0.203 F 
ATOM     99  C   UNL A   1      43.839  42.564  33.848  1.00  0.00     0.198 A 
ATOM    100  C   UNL A   1      46.035  41.962  34.579  1.00  0.00     0.198 A 
ATOM    101  F   UNL A   1      46.891  39.849  34.195  1.00  0.00    -0.203 F 
ATOM    102  F   UNL A   1      42.860  43.469  33.732  1.00  0.00    -0.200 F 
ATOM    103  C   UNL A   1      45.033  42.903  34.460  1.00  0.00     0.200 A 
ATOM    104  F   UNL A   1      47.172  42.255  35.222  1.00  0.00    -0.200 F 
ATOM    105  F   UNL A   1      45.207  44.130  34.960  1.00  0.00    -0.200 F 
ENDBRANCH  72  95
ENDBRANCH  46  47
ENDBRANCH  39  41
ENDBRANCH  38  39
ENDBRANCH  37  38
ENDBRANCH  36  37
ENDBRANCH  35  36
ENDBRANCH  34  35
ENDBRANCH   1  34
TORSDOF 21
ENDMDL
MODEL 3
REMARK VINA RESULT:     -12.1      2.827      4.441
REMARK SMILES Cc1ccccc1/C=C1\SC(=O)N(CC(=O)Nc2ccccc2C(=O)OCCOCCOCCOC(=O)c2ccc(-c3c4nc(c(-c5c(F)c(F)c(F)c(F)c5F)c5ccc([nH]5)c(-c5c(F)c(F)c(F)c(F)c5F)c5nc(c(-c6c(F)c(F)c(F)c(F)c6F)c6ccc3[nH]6)C=C5)C=C4)cc2)C1=O
REMARK SMILES IDX 30 1 29 2 28 3 27 4 26 5 24 6 25 7 23 8 18 9 19 10 20 11
REMARK SMILES IDX 22 12 21 13 17 14 15 15 16 16 14 18 13 19 8 20 9 21 10 22
REMARK SMILES IDX 101 23 11 24 102 25 12 26 7 27 1 28 2 29 3 30 4 31 6 32 5 33
REMARK SMILES IDX 31 34 32 35 33 36 34 37 35 38 36 39 37 40 38 41 39 42 100 43
REMARK SMILES IDX 40 44 99 45 41 46 42 47 43 48 93 49 44 50 98 51 92 52 94 53
REMARK SMILES IDX 45 54 97 55 91 56 90 57 46 59 78 60 58 61 77 62 59 63 62 64
REMARK SMILES IDX 76 65 95 66 60 67 61 68 75 70 96 71 63 72 47 73 48 74 56 75
REMARK SMILES IDX 49 76 50 77 54 78 57 79 51 80 52 81 55 82 53 83 79 84 80 85
REMARK SMILES IDX 88 86 81 87 82 88 86 89 89 90 83 91 84 92 87 93 85 94 64 95
REMARK SMILES IDX 65 96 73 97 66 98 67 99 71 100 74 101 68 102 69 103 72 104
REMARK SMILES IDX 70 105
REMARK H PARENT 17 17 94 58 62 69
REMARK Flexibility Score: inf
ROOT
ATOM      1  C   UNL A   1      33.605  31.370  27.789  1.00  0.00     0.188 C 
ENDROOT
BRANCH   1   2
ATOM      2  O   UNL A   1      32.994  30.463  26.902  1.00  0.00    -0.376 OA
BRANCH   2   3
ATOM      3  C   UNL A   1      33.142  29.066  27.143  1.00  0.00     0.202 C 
BRANCH   3   4
ATOM      4  C   UNL A   1      31.873  27.984  27.116  1.00  0.00     0.261 C 
BRANCH   4   5
ATOM      5  O   UNL A   1      30.866  26.903  25.692  1.00  0.00    -0.460 OA
BRANCH   5   6
ATOM      6  C   UNL A   1      29.963  27.059  24.300  1.00  0.00     0.340 C 
ATOM      7  O   UNL A   1      29.843  26.027  23.616  1.00  0.00    -0.246 OA
BRANCH   6   8
ATOM      8  C   UNL A   1      29.218  28.187  23.465  1.00  0.00     0.083 A 
ATOM      9  C   UNL A   1      30.003  29.288  23.116  1.00  0.00     0.055 A 
ATOM     10  C   UNL A   1      29.439  30.400  22.398  1.00  0.00     0.027 A 
ATOM     11  C   UNL A   1      28.136  30.409  21.904  1.00  0.00     0.002 A 
ATOM     12  C   UNL A   1      27.814  28.420  23.192  1.00  0.00     0.018 A 
ATOM     13  C   UNL A   1      27.302  29.406  22.315  1.00  0.00     0.001 A 
BRANCH   9  14
ATOM     14  N   UNL A   1      31.356  29.446  23.422  1.00  0.00    -0.324 N 
ATOM     15  C   UNL A   1      32.530  28.792  23.284  1.00  0.00     0.244 C 
ATOM     16  O   UNL A   1      33.463  29.478  23.757  1.00  0.00    -0.273 OA
ATOM     17  H   UNL A   1      31.499  30.304  23.884  1.00  0.00     0.170 HD
BRANCH  15  18
ATOM     18  C   UNL A   1      32.995  27.495  22.493  1.00  0.00     0.230 C 
BRANCH  18  19
ATOM     19  N   UNL A   1      33.470  26.078  22.754  1.00  0.00    -0.259 N 
ATOM     20  C   UNL A   1      34.220  22.268  24.973  1.00  0.00     0.029 C 
ATOM     21  C   UNL A   1      33.752  23.321  24.212  1.00  0.00     0.083 C 
ATOM     22  S   UNL A   1      33.123  22.807  22.116  1.00  0.00    -0.022 SA
ATOM     23  C   UNL A   1      33.894  25.303  24.332  1.00  0.00     0.268 C 
ATOM     24  C   UNL A   1      33.019  25.018  21.477  1.00  0.00     0.294 C 
ATOM     25  O   UNL A   1      34.459  25.893  25.243  1.00  0.00    -0.268 OA
ATOM     26  O   UNL A   1      33.039  25.364  20.314  1.00  0.00    -0.261 OA
BRANCH  20  27
ATOM     27  C   UNL A   1      34.062  20.745  24.870  1.00  0.00    -0.021 A 
ATOM     28  C   UNL A   1      36.508  19.973  25.068  1.00  0.00     0.045 C 
ATOM     29  C   UNL A   1      35.060  19.756  24.748  1.00  0.00    -0.044 A 
ATOM     30  C   UNL A   1      34.721  18.407  24.431  1.00  0.00     0.004 A 
ATOM     31  C   UNL A   1      33.406  17.972  24.378  1.00  0.00     0.000 A 
ATOM     32  C   UNL A   1      32.741  20.225  24.947  1.00  0.00     0.008 A 
ATOM     33  C   UNL A   1      32.412  18.877  24.697  1.00  0.00     0.001 A 
ENDBRANCH  20  27
ENDBRANCH  18  19
ENDBRANCH  15  18
ENDBRANCH   9  14
ENDBRANCH   6   8
ENDBRANCH   5   6
ENDBRANCH   4   5
ENDBRANCH   3   4
ENDBRANCH   2   3
ENDBRANCH   1   2
BRANCH   1  34
ATOM     34  C   UNL A   1      35.137  31.161  27.999  1.00  0.00     0.188 C 
BRANCH  34  35
ATOM     35  O   UNL A   1      35.710  32.239  28.716  1.00  0.00    -0.376 OA
BRANCH  35  36
ATOM     36  C   UNL A   1      34.999  33.031  29.668  1.00  0.00     0.202 C 
BRANCH  36  37
ATOM     37  C   UNL A   1      34.787  32.563  31.142  1.00  0.00     0.261 C 
BRANCH  37  38
ATOM     38  O   UNL A   1      35.538  33.385  32.119  1.00  0.00    -0.460 OA
BRANCH  38  39
ATOM     39  C   UNL A   1      35.482  33.022  33.452  1.00  0.00     0.338 C 
ATOM     40  O   UNL A   1      34.632  33.413  34.243  1.00  0.00    -0.246 OA
BRANCH  39  41
ATOM     41  C   UNL A   1      36.815  32.394  33.915  1.00  0.00     0.060 A 
ATOM     42  C   UNL A   1      37.754  33.203  34.552  1.00  0.00     0.016 A 
ATOM     43  C   UNL A   1      37.325  31.193  33.430  1.00  0.00     0.016 A 
ATOM     44  C   UNL A   1      39.162  32.927  34.451  1.00  0.00     0.010 A 
ATOM     45  C   UNL A   1      38.752  30.969  33.332  1.00  0.00     0.010 A 
ATOM     46  C   UNL A   1      39.748  31.951  33.617  1.00  0.00    -0.014 A 
BRANCH  46  47
ATOM     47  C   UNL A   1      41.309  31.799  32.895  1.00  0.00     0.031 A 
ATOM     48  C   UNL A   1      41.314  32.491  31.575  1.00  0.00     0.074 A 
ATOM     49  C   UNL A   1      42.579  31.075  32.982  1.00  0.00     0.049 A 
ATOM     50  N   UNL A   1      42.037  32.108  30.562  1.00  0.00    -0.248 NA
ATOM     51  C   UNL A   1      40.346  33.526  31.209  1.00  0.00     0.031 C 
ATOM     52  C   UNL A   1      43.918  31.551  32.559  1.00  0.00     0.029 A 
ATOM     53  N   UNL A   1      43.051  29.810  33.485  1.00  0.00    -0.354 N 
ATOM     54  C   UNL A   1      42.012  33.185  29.721  1.00  0.00     0.074 A 
ATOM     55  C   UNL A   1      40.718  33.750  29.948  1.00  0.00     0.031 C 
ATOM     56  C   UNL A   1      44.924  30.700  32.916  1.00  0.00     0.029 A 
ATOM     57  C   UNL A   1      44.414  29.532  33.629  1.00  0.00     0.049 A 
ATOM     58  H   UNL A   1      42.394  29.119  33.734  1.00  0.00     0.167 HD
ATOM     59  C   UNL A   1      43.204  33.720  29.327  1.00  0.00     0.037 A 
ATOM     60  C   UNL A   1      44.974  28.263  33.725  1.00  0.00     0.037 A 
ATOM     61  C   UNL A   1      44.337  32.749  29.437  1.00  0.00     0.049 A 
ATOM     62  C   UNL A   1      45.277  27.903  32.313  1.00  0.00     0.074 A 
ATOM     63  C   UNL A   1      45.637  32.839  29.916  1.00  0.00     0.029 A 
ATOM     64  N   UNL A   1      44.146  31.366  29.195  1.00  0.00    -0.354 N 
ATOM     65  N   UNL A   1      44.793  28.628  31.351  1.00  0.00    -0.248 NA
ATOM     66  C   UNL A   1      46.119  26.810  31.847  1.00  0.00     0.031 C 
ATOM     67  C   UNL A   1      46.201  31.536  29.986  1.00  0.00     0.029 A 
ATOM     68  C   UNL A   1      45.276  30.624  29.505  1.00  0.00     0.049 A 
ATOM     69  H   UNL A   1      43.311  30.977  28.847  1.00  0.00     0.167 HD
ATOM     70  C   UNL A   1      45.459  28.329  30.225  1.00  0.00     0.074 A 
ATOM     71  C   UNL A   1      46.171  27.096  30.531  1.00  0.00     0.031 C 
ATOM     72  C   UNL A   1      45.433  29.197  29.183  1.00  0.00     0.037 A 
BRANCH  59  73
ATOM     73  C   UNL A   1      43.367  35.257  29.150  1.00  0.00     0.064 A 
ATOM     74  C   UNL A   1      43.745  36.066  30.242  1.00  0.00     0.173 A 
ATOM     75  C   UNL A   1      43.075  36.020  27.981  1.00  0.00     0.173 A 
ATOM     76  F   UNL A   1      44.102  35.527  31.414  1.00  0.00    -0.203 F 
ATOM     77  C   UNL A   1      43.779  37.472  30.182  1.00  0.00     0.198 A 
ATOM     78  C   UNL A   1      43.174  37.413  27.904  1.00  0.00     0.198 A 
ATOM     79  F   UNL A   1      42.629  35.498  26.838  1.00  0.00    -0.203 F 
ATOM     80  F   UNL A   1      44.073  38.175  31.285  1.00  0.00    -0.200 F 
ATOM     81  C   UNL A   1      43.507  38.144  29.011  1.00  0.00     0.200 A 
ATOM     82  F   UNL A   1      42.911  38.028  26.740  1.00  0.00    -0.200 F 
ATOM     83  F   UNL A   1      43.558  39.482  28.947  1.00  0.00    -0.200 F 
ENDBRANCH  59  73
BRANCH  60  84
ATOM     84  C   UNL A   1      44.646  27.171  34.741  1.00  0.00     0.064 A 
ATOM     85  C   UNL A   1      43.514  26.332  34.584  1.00  0.00     0.173 A 
ATOM     86  C   UNL A   1      45.524  26.782  35.765  1.00  0.00     0.173 A 
ATOM     87  F   UNL A   1      42.554  26.668  33.705  1.00  0.00    -0.203 F 
ATOM     88  C   UNL A   1      43.439  25.049  35.183  1.00  0.00     0.198 A 
ATOM     89  C   UNL A   1      45.451  25.505  36.364  1.00  0.00     0.198 A 
ATOM     90  F   UNL A   1      46.549  27.579  36.099  1.00  0.00    -0.203 F 
ATOM     91  F   UNL A   1      42.472  24.187  34.822  1.00  0.00    -0.200 F 
ATOM     92  C   UNL A   1      44.460  24.608  36.003  1.00  0.00     0.200 A 
ATOM     93  F   UNL A   1      46.413  25.111  37.213  1.00  0.00    -0.200 F 
ATOM     94  F   UNL A   1      44.518  23.326  36.402  1.00  0.00    -0.200 F 
ENDBRANCH  60  84
BRANCH  72  95
ATOM     95  C   UNL A   1      45.831  28.788  27.816  1.00  0.00     0.064 A 
ATOM     96  C   UNL A   1      47.164  28.800  27.377  1.00  0.00     0.173 A 
ATOM     97  C   UNL A   1      44.882  28.213  26.952  1.00  0.00     0.173 A 
ATOM     98  F   UNL A   1      48.165  29.206  28.174  1.00  0.00    -0.203 F 
ATOM     99  C   UNL A   1      47.511  28.336  26.115  1.00  0.00     0.198 A 
ATOM    100  C   UNL A   1      45.242  27.691  25.722  1.00  0.00     0.198 A 
ATOM    101  F   UNL A   1      43.588  28.109  27.282  1.00  0.00    -0.203 F 
ATOM    102  F   UNL A   1      48.784  28.414  25.710  1.00  0.00    -0.200 F 
ATOM    103  C   UNL A   1      46.552  27.771  25.295  1.00  0.00     0.200 A 
ATOM    104  F   UNL A   1      44.314  27.092  24.967  1.00  0.00    -0.200 F 
ATOM    105  F   UNL A   1      46.894  27.277  24.101  1.00  0.00    -0.200 F 
ENDBRANCH  72  95
ENDBRANCH  46  47
ENDBRANCH  39  41
ENDBRANCH  38  39
ENDBRANCH  37  38
ENDBRANCH  36  37
ENDBRANCH  35  36
ENDBRANCH  34  35
ENDBRANCH   1  34
TORSDOF 21
ENDMDL
