MODEL 1
REMARK VINA RESULT:     -12.2      0.000      0.000
REMARK SMILES Cc1ccc(NC(=O)c2ccccc2NC(=O)[C@H]2CCCC[C@H]2C(=O)OCCOCCOCCOC(=O)c2ccc(-c3c4nc(c(-c5c(F)c(F)c(F)c(F)c5F)c5ccc([nH]5)c(-c5c(F)c(F)c(F)c(F)c5F)c5nc(c(-c6c(F)c(F)c(F)c(F)c6F)c6ccc3[nH]6)C=C5)C=C4)cc2)cc1
REMARK SMILES IDX 30 1 29 2 28 3 27 4 26 5 24 6 25 7 23 8 18 9 19 10 20 11
REMARK SMILES IDX 22 12 21 13 16 14 15 15 17 17 14 18 9 19 10 20 11 21 13 22
REMARK SMILES IDX 12 23 7 24 6 25 8 27 5 28 1 29 2 30 3 31 102 32 4 33 101 34
REMARK SMILES IDX 31 35 32 36 33 37 34 38 35 39 36 40 37 41 38 42 39 43 100 44
REMARK SMILES IDX 40 45 99 46 41 47 42 48 43 49 93 50 44 51 98 52 92 53 94 54
REMARK SMILES IDX 45 55 97 56 91 57 90 58 46 60 78 61 58 62 77 63 59 64 62 65
REMARK SMILES IDX 76 66 95 67 60 68 61 69 75 71 96 72 63 73 47 74 48 75 56 76
REMARK SMILES IDX 49 77 50 78 54 79 57 80 51 81 52 82 55 83 53 84 79 85 80 86
REMARK SMILES IDX 88 87 81 88 82 89 86 90 89 91 83 92 84 93 87 94 85 95 64 96
REMARK SMILES IDX 65 97 73 98 66 99 67 100 71 101 74 102 68 103 69 104 72 105
REMARK SMILES IDX 70 106
REMARK H PARENT 15 16 6 26 94 59 62 70
REMARK Flexibility Score: inf
ROOT
ATOM      1  C   UNL A   1      42.311  20.748  26.670  1.00  0.00     0.188 C 
ENDROOT
BRANCH   1   2
ATOM      2  O   UNL A   1      41.109  21.083  26.024  1.00  0.00    -0.376 OA
BRANCH   2   3
ATOM      3  C   UNL A   1      40.062  20.103  26.035  1.00  0.00     0.202 C 
BRANCH   3   4
ATOM      4  C   UNL A   1      38.661  20.529  25.423  1.00  0.00     0.261 C 
BRANCH   4   5
ATOM      5  O   UNL A   1      37.627  21.813  25.817  1.00  0.00    -0.463 OA
BRANCH   5   6
ATOM      6  C   UNL A   1      36.622  22.788  25.595  1.00  0.00     0.309 C 
ATOM      7  O   UNL A   1      37.102  23.864  25.203  1.00  0.00    -0.252 OA
BRANCH   6   8
ATOM      8  C   UNL A   1      34.935  22.933  25.860  1.00  0.00     0.111 C 
ATOM      9  C   UNL A   1      33.673  23.728  25.123  1.00  0.00     0.093 C 
ATOM     10  C   UNL A   1      32.656  24.186  26.231  1.00  0.00     0.014 C 
ATOM     11  C   UNL A   1      32.218  23.083  27.208  1.00  0.00     0.001 C 
ATOM     12  C   UNL A   1      34.404  21.859  26.854  1.00  0.00     0.016 C 
ATOM     13  C   UNL A   1      33.410  22.421  27.881  1.00  0.00     0.001 C 
BRANCH   9  14
ATOM     14  C   UNL A   1      32.741  22.996  24.078  1.00  0.00     0.228 C 
ATOM     15  N   UNL A   1      31.740  23.518  23.284  1.00  0.00    -0.325 N 
ATOM     16  H   UNL A   1      31.420  22.839  22.649  1.00  0.00     0.169 HD
ATOM     17  O   UNL A   1      32.915  21.781  23.902  1.00  0.00    -0.274 OA
BRANCH  15  18
ATOM     18  C   UNL A   1      31.026  24.741  23.101  1.00  0.00     0.054 A 
ATOM     19  C   UNL A   1      31.614  25.948  22.550  1.00  0.00     0.063 A 
ATOM     20  C   UNL A   1      30.851  27.145  22.610  1.00  0.00     0.016 A 
ATOM     21  C   UNL A   1      29.590  27.195  23.189  1.00  0.00     0.001 A 
ATOM     22  C   UNL A   1      29.701  24.812  23.564  1.00  0.00     0.027 A 
ATOM     23  C   UNL A   1      29.012  26.027  23.652  1.00  0.00     0.002 A 
BRANCH  19  24
ATOM     24  C   UNL A   1      33.054  26.303  22.166  1.00  0.00     0.257 C 
ATOM     25  N   UNL A   1      33.797  27.343  22.657  1.00  0.00    -0.322 N 
ATOM     26  H   UNL A   1      34.484  27.691  22.043  1.00  0.00     0.170 HD
ATOM     27  O   UNL A   1      33.591  25.685  21.235  1.00  0.00    -0.269 OA
BRANCH  25  28
ATOM     28  C   UNL A   1      33.730  27.979  23.882  1.00  0.00     0.041 A 
ATOM     29  C   UNL A   1      32.335  29.392  27.621  1.00  0.00     0.044 C 
ATOM     30  C   UNL A   1      32.985  29.011  26.328  1.00  0.00    -0.051 A 
ATOM     31  C   UNL A   1      33.745  27.839  26.266  1.00  0.00     0.005 A 
ATOM     32  C   UNL A   1      32.727  29.738  25.159  1.00  0.00     0.005 A 
ATOM     33  C   UNL A   1      34.137  27.330  25.041  1.00  0.00     0.026 A 
ATOM     34  C   UNL A   1      33.128  29.234  23.926  1.00  0.00     0.026 A 
ENDBRANCH  25  28
ENDBRANCH  19  24
ENDBRANCH  15  18
ENDBRANCH   9  14
ENDBRANCH   6   8
ENDBRANCH   5   6
ENDBRANCH   4   5
ENDBRANCH   3   4
ENDBRANCH   2   3
ENDBRANCH   1   2
BRANCH   1  35
ATOM     35  C   UNL A   1      43.408  21.150  25.698  1.00  0.00     0.188 C 
BRANCH  35  36
ATOM     36  O   UNL A   1      43.154  22.202  24.808  1.00  0.00    -0.376 OA
BRANCH  36  37
ATOM     37  C   UNL A   1      43.958  23.338  25.035  1.00  0.00     0.202 C 
BRANCH  37  38
ATOM     38  C   UNL A   1      43.792  24.287  26.249  1.00  0.00     0.261 C 
BRANCH  38  39
ATOM     39  O   UNL A   1      42.640  24.382  27.178  1.00  0.00    -0.460 OA
BRANCH  39  40
ATOM     40  C   UNL A   1      41.601  24.557  27.973  1.00  0.00     0.338 C 
ATOM     41  O   UNL A   1      40.893  23.581  28.198  1.00  0.00    -0.246 OA
BRANCH  40  42
ATOM     42  C   UNL A   1      41.084  25.908  28.427  1.00  0.00     0.060 A 
ATOM     43  C   UNL A   1      42.006  26.906  28.317  1.00  0.00     0.016 A 
ATOM     44  C   UNL A   1      39.859  26.337  28.968  1.00  0.00     0.016 A 
ATOM     45  C   UNL A   1      41.777  28.135  28.966  1.00  0.00     0.010 A 
ATOM     46  C   UNL A   1      39.680  27.580  29.683  1.00  0.00     0.010 A 
ATOM     47  C   UNL A   1      40.720  28.490  29.840  1.00  0.00    -0.014 A 
BRANCH  47  48
ATOM     48  C   UNL A   1      40.730  29.432  31.126  1.00  0.00     0.031 A 
ATOM     49  C   UNL A   1      41.598  29.117  32.301  1.00  0.00     0.074 A 
ATOM     50  C   UNL A   1      40.149  30.678  31.338  1.00  0.00     0.049 A 
ATOM     51  N   UNL A   1      41.432  29.634  33.484  1.00  0.00    -0.248 NA
ATOM     52  C   UNL A   1      42.624  28.094  32.275  1.00  0.00     0.031 C 
ATOM     53  C   UNL A   1      40.793  31.877  31.922  1.00  0.00     0.029 A 
ATOM     54  N   UNL A   1      38.900  31.209  31.053  1.00  0.00    -0.354 N 
ATOM     55  C   UNL A   1      42.499  29.248  34.256  1.00  0.00     0.074 A 
ATOM     56  C   UNL A   1      43.080  28.144  33.530  1.00  0.00     0.031 C 
ATOM     57  C   UNL A   1      39.960  32.944  31.885  1.00  0.00     0.029 A 
ATOM     58  C   UNL A   1      38.659  32.529  31.373  1.00  0.00     0.049 A 
ATOM     59  H   UNL A   1      38.202  30.656  30.632  1.00  0.00     0.167 HD
ATOM     60  C   UNL A   1      42.914  30.020  35.306  1.00  0.00     0.037 A 
ATOM     61  C   UNL A   1      37.403  33.051  31.540  1.00  0.00     0.037 A 
ATOM     62  C   UNL A   1      42.097  31.233  35.453  1.00  0.00     0.049 A 
ATOM     63  C   UNL A   1      37.288  33.246  33.017  1.00  0.00     0.074 A 
ATOM     64  C   UNL A   1      42.322  32.543  35.055  1.00  0.00     0.029 A 
ATOM     65  N   UNL A   1      40.744  31.172  35.807  1.00  0.00    -0.354 N 
ATOM     66  N   UNL A   1      38.201  32.771  33.811  1.00  0.00    -0.248 NA
ATOM     67  C   UNL A   1      36.221  33.931  33.729  1.00  0.00     0.031 C 
ATOM     68  C   UNL A   1      41.111  33.266  35.171  1.00  0.00     0.029 A 
ATOM     69  C   UNL A   1      40.139  32.414  35.668  1.00  0.00     0.049 A 
ATOM     70  H   UNL A   1      40.285  30.357  36.114  1.00  0.00     0.167 HD
ATOM     71  C   UNL A   1      37.910  33.081  35.089  1.00  0.00     0.074 A 
ATOM     72  C   UNL A   1      36.648  33.798  34.999  1.00  0.00     0.031 C 
ATOM     73  C   UNL A   1      38.756  32.681  36.075  1.00  0.00     0.037 A 
BRANCH  60  74
ATOM     74  C   UNL A   1      44.312  29.856  35.904  1.00  0.00     0.064 A 
ATOM     75  C   UNL A   1      44.574  28.943  36.949  1.00  0.00     0.173 A 
ATOM     76  C   UNL A   1      45.426  30.632  35.526  1.00  0.00     0.173 A 
ATOM     77  F   UNL A   1      43.671  28.033  37.331  1.00  0.00    -0.203 F 
ATOM     78  C   UNL A   1      45.789  28.921  37.648  1.00  0.00     0.198 A 
ATOM     79  C   UNL A   1      46.615  30.662  36.265  1.00  0.00     0.198 A 
ATOM     80  F   UNL A   1      45.420  31.345  34.392  1.00  0.00    -0.203 F 
ATOM     81  F   UNL A   1      45.972  28.035  38.637  1.00  0.00    -0.200 F 
ATOM     82  C   UNL A   1      46.793  29.813  37.336  1.00  0.00     0.200 A 
ATOM     83  F   UNL A   1      47.588  31.522  35.927  1.00  0.00    -0.200 F 
ATOM     84  F   UNL A   1      47.936  29.829  38.037  1.00  0.00    -0.200 F 
ENDBRANCH  60  74
BRANCH  61  85
ATOM     85  C   UNL A   1      36.298  32.585  30.610  1.00  0.00     0.064 A 
ATOM     86  C   UNL A   1      35.806  33.493  29.655  1.00  0.00     0.173 A 
ATOM     87  C   UNL A   1      35.944  31.250  30.388  1.00  0.00     0.173 A 
ATOM     88  F   UNL A   1      35.960  34.813  29.856  1.00  0.00    -0.203 F 
ATOM     89  C   UNL A   1      35.320  33.071  28.401  1.00  0.00     0.198 A 
ATOM     90  C   UNL A   1      35.442  30.821  29.137  1.00  0.00     0.198 A 
ATOM     91  F   UNL A   1      36.175  30.336  31.337  1.00  0.00    -0.203 F 
ATOM     92  F   UNL A   1      35.125  33.967  27.419  1.00  0.00    -0.200 F 
ATOM     93  C   UNL A   1      35.229  31.728  28.114  1.00  0.00     0.200 A 
ATOM     94  F   UNL A   1      35.283  29.515  28.879  1.00  0.00    -0.200 F 
ATOM     95  F   UNL A   1      34.997  31.316  26.857  1.00  0.00    -0.200 F 
ENDBRANCH  61  85
BRANCH  73  96
ATOM     96  C   UNL A   1      38.376  32.676  37.514  1.00  0.00     0.064 A 
ATOM     97  C   UNL A   1      38.568  33.782  38.357  1.00  0.00     0.173 A 
ATOM     98  C   UNL A   1      37.668  31.586  38.058  1.00  0.00     0.173 A 
ATOM     99  F   UNL A   1      39.115  34.921  37.908  1.00  0.00    -0.203 F 
ATOM    100  C   UNL A   1      38.151  33.768  39.684  1.00  0.00     0.198 A 
ATOM    101  C   UNL A   1      37.193  31.603  39.363  1.00  0.00     0.198 A 
ATOM    102  F   UNL A   1      37.393  30.492  37.334  1.00  0.00    -0.203 F 
ATOM    103  F   UNL A   1      38.405  34.824  40.468  1.00  0.00    -0.200 F 
ATOM    104  C   UNL A   1      37.453  32.685  40.182  1.00  0.00     0.200 A 
ATOM    105  F   UNL A   1      36.464  30.574  39.815  1.00  0.00    -0.200 F 
ATOM    106  F   UNL A   1      37.010  32.692  41.445  1.00  0.00    -0.200 F 
ENDBRANCH  73  96
ENDBRANCH  47  48
ENDBRANCH  40  42
ENDBRANCH  39  40
ENDBRANCH  38  39
ENDBRANCH  37  38
ENDBRANCH  36  37
ENDBRANCH  35  36
ENDBRANCH   1  35
TORSDOF 21
ENDMDL
MODEL 2
REMARK VINA RESULT:     -11.7      4.540      9.291
REMARK SMILES Cc1ccc(NC(=O)c2ccccc2NC(=O)[C@H]2CCCC[C@H]2C(=O)OCCOCCOCCOC(=O)c2ccc(-c3c4nc(c(-c5c(F)c(F)c(F)c(F)c5F)c5ccc([nH]5)c(-c5c(F)c(F)c(F)c(F)c5F)c5nc(c(-c6c(F)c(F)c(F)c(F)c6F)c6ccc3[nH]6)C=C5)C=C4)cc2)cc1
REMARK SMILES IDX 30 1 29 2 28 3 27 4 26 5 24 6 25 7 23 8 18 9 19 10 20 11
REMARK SMILES IDX 22 12 21 13 16 14 15 15 17 17 14 18 9 19 10 20 11 21 13 22
REMARK SMILES IDX 12 23 7 24 6 25 8 27 5 28 1 29 2 30 3 31 102 32 4 33 101 34
REMARK SMILES IDX 31 35 32 36 33 37 34 38 35 39 36 40 37 41 38 42 39 43 100 44
REMARK SMILES IDX 40 45 99 46 41 47 42 48 43 49 93 50 44 51 98 52 92 53 94 54
REMARK SMILES IDX 45 55 97 56 91 57 90 58 46 60 78 61 58 62 77 63 59 64 62 65
REMARK SMILES IDX 76 66 95 67 60 68 61 69 75 71 96 72 63 73 47 74 48 75 56 76
REMARK SMILES IDX 49 77 50 78 54 79 57 80 51 81 52 82 55 83 53 84 79 85 80 86
REMARK SMILES IDX 88 87 81 88 82 89 86 90 89 91 83 92 84 93 87 94 85 95 64 96
REMARK SMILES IDX 65 97 73 98 66 99 67 100 71 101 74 102 68 103 69 104 72 105
REMARK SMILES IDX 70 106
REMARK H PARENT 15 16 6 26 94 59 62 70
REMARK Flexibility Score: inf
ROOT
ATOM      1  C   UNL A   1      41.387  28.052  28.573  1.00  0.00     0.188 C 
ENDROOT
BRANCH   1   2
ATOM      2  O   UNL A   1      40.677  28.912  29.429  1.00  0.00    -0.376 OA
BRANCH   2   3
ATOM      3  C   UNL A   1      39.543  29.597  28.879  1.00  0.00     0.202 C 
BRANCH   3   4
ATOM      4  C   UNL A   1      38.118  28.932  29.092  1.00  0.00     0.261 C 
BRANCH   4   5
ATOM      5  O   UNL A   1      36.706  29.019  28.157  1.00  0.00    -0.463 OA
BRANCH   5   6
ATOM      6  C   UNL A   1      35.526  29.608  27.638  1.00  0.00     0.309 C 
ATOM      7  O   UNL A   1      35.598  30.848  27.622  1.00  0.00    -0.252 OA
BRANCH   6   8
ATOM      8  C   UNL A   1      33.967  29.080  27.162  1.00  0.00     0.111 C 
ATOM      9  C   UNL A   1      32.427  29.708  27.210  1.00  0.00     0.093 C 
ATOM     10  C   UNL A   1      31.415  28.531  27.466  1.00  0.00     0.014 C 
ATOM     11  C   UNL A   1      31.572  27.323  26.529  1.00  0.00     0.001 C 
ATOM     12  C   UNL A   1      34.029  27.844  26.219  1.00  0.00     0.016 C 
ATOM     13  C   UNL A   1      32.988  26.768  26.559  1.00  0.00     0.001 C 
BRANCH   9  14
ATOM     14  C   UNL A   1      31.800  30.437  25.955  1.00  0.00     0.228 C 
ATOM     15  N   UNL A   1      31.749  30.023  24.640  1.00  0.00    -0.325 N 
ATOM     16  H   UNL A   1      31.189  30.635  24.111  1.00  0.00     0.169 HD
ATOM     17  O   UNL A   1      31.249  31.532  26.140  1.00  0.00    -0.274 OA
BRANCH  15  18
ATOM     18  C   UNL A   1      32.258  28.979  23.809  1.00  0.00     0.054 A 
ATOM     19  C   UNL A   1      31.432  27.954  23.197  1.00  0.00     0.063 A 
ATOM     20  C   UNL A   1      32.086  26.864  22.563  1.00  0.00     0.016 A 
ATOM     21  C   UNL A   1      33.469  26.743  22.533  1.00  0.00     0.001 A 
ATOM     22  C   UNL A   1      33.650  28.878  23.646  1.00  0.00     0.027 A 
ATOM     23  C   UNL A   1      34.248  27.756  23.062  1.00  0.00     0.002 A 
BRANCH  19  24
ATOM     24  C   UNL A   1      29.944  27.617  23.341  1.00  0.00     0.257 C 
ATOM     25  N   UNL A   1      28.907  28.510  23.399  1.00  0.00    -0.322 N 
ATOM     26  H   UNL A   1      28.119  28.202  23.904  1.00  0.00     0.170 HD
ATOM     27  O   UNL A   1      29.618  26.440  23.553  1.00  0.00    -0.269 OA
BRANCH  25  28
ATOM     28  C   UNL A   1      28.796  29.776  22.856  1.00  0.00     0.041 A 
ATOM     29  C   UNL A   1      27.456  33.083  20.578  1.00  0.00     0.044 C 
ATOM     30  C   UNL A   1      28.085  32.028  21.433  1.00  0.00    -0.051 A 
ATOM     31  C   UNL A   1      27.645  31.866  22.751  1.00  0.00     0.005 A 
ATOM     32  C   UNL A   1      29.002  31.121  20.888  1.00  0.00     0.005 A 
ATOM     33  C   UNL A   1      28.018  30.746  23.473  1.00  0.00     0.026 A 
ATOM     34  C   UNL A   1      29.386  29.999  21.614  1.00  0.00     0.026 A 
ENDBRANCH  25  28
ENDBRANCH  19  24
ENDBRANCH  15  18
ENDBRANCH   9  14
ENDBRANCH   6   8
ENDBRANCH   5   6
ENDBRANCH   4   5
ENDBRANCH   3   4
ENDBRANCH   2   3
ENDBRANCH   1   2
BRANCH   1  35
ATOM     35  C   UNL A   1      41.934  28.950  27.476  1.00  0.00     0.188 C 
BRANCH  35  36
ATOM     36  O   UNL A   1      41.614  28.645  26.147  1.00  0.00    -0.376 OA
BRANCH  36  37
ATOM     37  C   UNL A   1      42.546  27.787  25.526  1.00  0.00     0.202 C 
BRANCH  37  38
ATOM     38  C   UNL A   1      42.392  26.246  25.458  1.00  0.00     0.261 C 
BRANCH  38  39
ATOM     39  O   UNL A   1      43.341  25.215  25.943  1.00  0.00    -0.460 OA
BRANCH  39  40
ATOM     40  C   UNL A   1      44.129  24.286  26.451  1.00  0.00     0.338 C 
ATOM     41  O   UNL A   1      44.284  23.259  25.798  1.00  0.00    -0.246 OA
BRANCH  40  42
ATOM     42  C   UNL A   1      44.656  24.290  27.872  1.00  0.00     0.060 A 
ATOM     43  C   UNL A   1      44.154  23.281  28.640  1.00  0.00     0.016 A 
ATOM     44  C   UNL A   1      45.534  25.139  28.571  1.00  0.00     0.016 A 
ATOM     45  C   UNL A   1      44.316  23.327  30.038  1.00  0.00     0.010 A 
ATOM     46  C   UNL A   1      45.626  25.200  30.011  1.00  0.00     0.010 A 
ATOM     47  C   UNL A   1      44.875  24.362  30.829  1.00  0.00    -0.014 A 
BRANCH  47  48
ATOM     48  C   UNL A   1      44.464  24.871  32.284  1.00  0.00     0.031 A 
ATOM     49  C   UNL A   1      43.948  26.257  32.493  1.00  0.00     0.074 A 
ATOM     50  C   UNL A   1      44.345  24.177  33.483  1.00  0.00     0.049 A 
ATOM     51  N   UNL A   1      43.898  26.844  33.654  1.00  0.00    -0.248 NA
ATOM     52  C   UNL A   1      43.583  27.139  31.404  1.00  0.00     0.031 C 
ATOM     53  C   UNL A   1      43.218  24.237  34.441  1.00  0.00     0.029 A 
ATOM     54  N   UNL A   1      45.134  23.230  34.120  1.00  0.00    -0.354 N 
ATOM     55  C   UNL A   1      43.222  28.027  33.490  1.00  0.00     0.074 A 
ATOM     56  C   UNL A   1      43.239  28.249  32.063  1.00  0.00     0.031 C 
ATOM     57  C   UNL A   1      43.392  23.353  35.453  1.00  0.00     0.029 A 
ATOM     58  C   UNL A   1      44.690  22.704  35.316  1.00  0.00     0.049 A 
ATOM     59  H   UNL A   1      45.989  22.940  33.727  1.00  0.00     0.167 HD
ATOM     60  C   UNL A   1      42.536  28.588  34.531  1.00  0.00     0.037 A 
ATOM     61  C   UNL A   1      45.515  22.109  36.234  1.00  0.00     0.037 A 
ATOM     62  C   UNL A   1      42.632  27.775  35.753  1.00  0.00     0.049 A 
ATOM     63  C   UNL A   1      45.603  23.109  37.340  1.00  0.00     0.074 A 
ATOM     64  C   UNL A   1      41.751  26.866  36.321  1.00  0.00     0.029 A 
ATOM     65  N   UNL A   1      43.847  27.594  36.423  1.00  0.00    -0.354 N 
ATOM     66  N   UNL A   1      45.105  24.300  37.184  1.00  0.00    -0.248 NA
ATOM     67  C   UNL A   1      46.215  22.920  38.645  1.00  0.00     0.031 C 
ATOM     68  C   UNL A   1      42.432  26.144  37.329  1.00  0.00     0.029 A 
ATOM     69  C   UNL A   1      43.730  26.622  37.408  1.00  0.00     0.049 A 
ATOM     70  H   UNL A   1      44.674  28.091  36.223  1.00  0.00     0.167 HD
ATOM     71  C   UNL A   1      45.274  25.023  38.308  1.00  0.00     0.074 A 
ATOM     72  C   UNL A   1      45.991  24.127  39.200  1.00  0.00     0.031 C 
ATOM     73  C   UNL A   1      44.808  26.299  38.348  1.00  0.00     0.037 A 
BRANCH  60  74
ATOM     74  C   UNL A   1      41.452  29.639  34.290  1.00  0.00     0.064 A 
ATOM     75  C   UNL A   1      41.590  30.970  34.742  1.00  0.00     0.173 A 
ATOM     76  C   UNL A   1      40.214  29.368  33.672  1.00  0.00     0.173 A 
ATOM     77  F   UNL A   1      42.750  31.434  35.220  1.00  0.00    -0.203 F 
ATOM     78  C   UNL A   1      40.535  31.891  34.715  1.00  0.00     0.198 A 
ATOM     79  C   UNL A   1      39.137  30.261  33.707  1.00  0.00     0.198 A 
ATOM     80  F   UNL A   1      40.027  28.248  32.962  1.00  0.00    -0.203 F 
ATOM     81  F   UNL A   1      40.727  33.138  35.168  1.00  0.00    -0.200 F 
ATOM     82  C   UNL A   1      39.293  31.523  34.240  1.00  0.00     0.200 A 
ATOM     83  F   UNL A   1      37.946  29.888  33.216  1.00  0.00    -0.200 F 
ATOM     84  F   UNL A   1      38.269  32.386  34.262  1.00  0.00    -0.200 F 
ENDBRANCH  60  74
BRANCH  61  85
ATOM     85  C   UNL A   1      46.647  21.234  35.727  1.00  0.00     0.064 A 
ATOM     86  C   UNL A   1      46.343  19.921  35.325  1.00  0.00     0.173 A 
ATOM     87  C   UNL A   1      47.899  21.699  35.314  1.00  0.00     0.173 A 
ATOM     88  F   UNL A   1      45.234  19.325  35.796  1.00  0.00    -0.203 F 
ATOM     89  C   UNL A   1      47.057  19.266  34.302  1.00  0.00     0.198 A 
ATOM     90  C   UNL A   1      48.629  21.040  34.297  1.00  0.00     0.198 A 
ATOM     91  F   UNL A   1      48.379  22.844  35.811  1.00  0.00    -0.203 F 
ATOM     92  F   UNL A   1      46.570  18.140  33.756  1.00  0.00    -0.200 F 
ATOM     93  C   UNL A   1      48.148  19.875  33.725  1.00  0.00     0.200 A 
ATOM     94  F   UNL A   1      49.735  21.597  33.782  1.00  0.00    -0.200 F 
ATOM     95  F   UNL A   1      48.689  19.378  32.601  1.00  0.00    -0.200 F 
ENDBRANCH  61  85
BRANCH  73  96
ATOM     96  C   UNL A   1      45.222  27.280  39.389  1.00  0.00     0.064 A 
ATOM     97  C   UNL A   1      44.878  27.145  40.743  1.00  0.00     0.173 A 
ATOM     98  C   UNL A   1      46.110  28.325  39.068  1.00  0.00     0.173 A 
ATOM     99  F   UNL A   1      44.144  26.112  41.183  1.00  0.00    -0.203 F 
ATOM    100  C   UNL A   1      45.328  28.046  41.703  1.00  0.00     0.198 A 
ATOM    101  C   UNL A   1      46.611  29.182  40.039  1.00  0.00     0.198 A 
ATOM    102  F   UNL A   1      46.537  28.526  37.812  1.00  0.00    -0.203 F 
ATOM    103  F   UNL A   1      44.929  27.912  42.975  1.00  0.00    -0.200 F 
ATOM    104  C   UNL A   1      46.203  29.056  41.353  1.00  0.00     0.200 A 
ATOM    105  F   UNL A   1      47.508  30.117  39.697  1.00  0.00    -0.200 F 
ATOM    106  F   UNL A   1      46.674  29.893  42.285  1.00  0.00    -0.200 F 
ENDBRANCH  73  96
ENDBRANCH  47  48
ENDBRANCH  40  42
ENDBRANCH  39  40
ENDBRANCH  38  39
ENDBRANCH  37  38
ENDBRANCH  36  37
ENDBRANCH  35  36
ENDBRANCH   1  35
TORSDOF 21
ENDMDL
MODEL 3
REMARK VINA RESULT:     -11.7      4.098      8.018
REMARK SMILES Cc1ccc(NC(=O)c2ccccc2NC(=O)[C@H]2CCCC[C@H]2C(=O)OCCOCCOCCOC(=O)c2ccc(-c3c4nc(c(-c5c(F)c(F)c(F)c(F)c5F)c5ccc([nH]5)c(-c5c(F)c(F)c(F)c(F)c5F)c5nc(c(-c6c(F)c(F)c(F)c(F)c6F)c6ccc3[nH]6)C=C5)C=C4)cc2)cc1
REMARK SMILES IDX 30 1 29 2 28 3 27 4 26 5 24 6 25 7 23 8 18 9 19 10 20 11
REMARK SMILES IDX 22 12 21 13 16 14 15 15 17 17 14 18 9 19 10 20 11 21 13 22
REMARK SMILES IDX 12 23 7 24 6 25 8 27 5 28 1 29 2 30 3 31 102 32 4 33 101 34
REMARK SMILES IDX 31 35 32 36 33 37 34 38 35 39 36 40 37 41 38 42 39 43 100 44
REMARK SMILES IDX 40 45 99 46 41 47 42 48 43 49 93 50 44 51 98 52 92 53 94 54
REMARK SMILES IDX 45 55 97 56 91 57 90 58 46 60 78 61 58 62 77 63 59 64 62 65
REMARK SMILES IDX 76 66 95 67 60 68 61 69 75 71 96 72 63 73 47 74 48 75 56 76
REMARK SMILES IDX 49 77 50 78 54 79 57 80 51 81 52 82 55 83 53 84 79 85 80 86
REMARK SMILES IDX 88 87 81 88 82 89 86 90 89 91 83 92 84 93 87 94 85 95 64 96
REMARK SMILES IDX 65 97 73 98 66 99 67 100 71 101 74 102 68 103 69 104 72 105
REMARK SMILES IDX 70 106
REMARK H PARENT 15 16 6 26 94 59 62 70
REMARK Flexibility Score: inf
ROOT
ATOM      1  C   UNL A   1      43.429  18.610  25.886  1.00  0.00     0.188 C 
ENDROOT
BRANCH   1   2
ATOM      2  O   UNL A   1      44.232  19.201  24.895  1.00  0.00    -0.376 OA
BRANCH   2   3
ATOM      3  C   UNL A   1      45.545  19.629  25.282  1.00  0.00     0.202 C 
BRANCH   3   4
ATOM      4  C   UNL A   1      46.048  21.026  24.723  1.00  0.00     0.261 C 
BRANCH   4   5
ATOM      5  O   UNL A   1      45.921  22.587  25.372  1.00  0.00    -0.463 OA
BRANCH   5   6
ATOM      6  C   UNL A   1      46.072  23.996  25.408  1.00  0.00     0.309 C 
ATOM      7  O   UNL A   1      45.588  24.537  24.400  1.00  0.00    -0.252 OA
BRANCH   6   8
ATOM      8  C   UNL A   1      46.872  25.146  26.395  1.00  0.00     0.111 C 
ATOM      9  C   UNL A   1      46.710  26.773  26.705  1.00  0.00     0.093 C 
ATOM     10  C   UNL A   1      48.140  27.382  26.939  1.00  0.00     0.014 C 
ATOM     11  C   UNL A   1      49.007  26.631  27.963  1.00  0.00     0.001 C 
ATOM     12  C   UNL A   1      47.788  24.472  27.456  1.00  0.00     0.016 C 
ATOM     13  C   UNL A   1      49.152  25.160  27.605  1.00  0.00     0.001 C 
BRANCH   9  14
ATOM     14  C   UNL A   1      45.902  27.292  27.960  1.00  0.00     0.228 C 
ATOM     15  N   UNL A   1      46.006  28.495  28.629  1.00  0.00    -0.325 N 
ATOM     16  H   UNL A   1      45.288  28.577  29.296  1.00  0.00     0.169 HD
ATOM     17  O   UNL A   1      45.027  26.550  28.429  1.00  0.00    -0.274 OA
BRANCH  15  18
ATOM     18  C   UNL A   1      46.834  29.657  28.652  1.00  0.00     0.054 A 
ATOM     19  C   UNL A   1      46.769  30.718  27.663  1.00  0.00     0.063 A 
ATOM     20  C   UNL A   1      47.783  31.713  27.690  1.00  0.00     0.016 A 
ATOM     21  C   UNL A   1      48.826  31.688  28.606  1.00  0.00     0.001 A 
ATOM     22  C   UNL A   1      47.836  29.740  29.634  1.00  0.00     0.027 A 
ATOM     23  C   UNL A   1      48.844  30.710  29.583  1.00  0.00     0.002 A 
BRANCH  19  24
ATOM     24  C   UNL A   1      45.985  30.851  26.354  1.00  0.00     0.257 C 
ATOM     25  N   UNL A   1      44.845  31.583  26.156  1.00  0.00    -0.322 N 
ATOM     26  H   UNL A   1      44.249  31.244  25.449  1.00  0.00     0.170 HD
ATOM     27  O   UNL A   1      46.314  30.145  25.389  1.00  0.00    -0.269 OA
BRANCH  25  28
ATOM     28  C   UNL A   1      44.403  32.725  26.796  1.00  0.00     0.041 A 
ATOM     29  C   UNL A   1      41.900  35.782  28.317  1.00  0.00     0.044 C 
ATOM     30  C   UNL A   1      42.937  34.814  27.839  1.00  0.00    -0.051 A 
ATOM     31  C   UNL A   1      43.284  33.730  28.652  1.00  0.00     0.005 A 
ATOM     32  C   UNL A   1      43.456  34.908  26.542  1.00  0.00     0.005 A 
ATOM     33  C   UNL A   1      44.036  32.690  28.135  1.00  0.00     0.026 A 
ATOM     34  C   UNL A   1      44.220  33.869  26.023  1.00  0.00     0.026 A 
ENDBRANCH  25  28
ENDBRANCH  19  24
ENDBRANCH  15  18
ENDBRANCH   9  14
ENDBRANCH   6   8
ENDBRANCH   5   6
ENDBRANCH   4   5
ENDBRANCH   3   4
ENDBRANCH   2   3
ENDBRANCH   1   2
BRANCH   1  35
ATOM     35  C   UNL A   1      42.147  19.429  25.895  1.00  0.00     0.188 C 
BRANCH  35  36
ATOM     36  O   UNL A   1      42.243  20.815  25.714  1.00  0.00    -0.376 OA
BRANCH  36  37
ATOM     37  C   UNL A   1      41.098  21.518  26.141  1.00  0.00     0.202 C 
BRANCH  37  38
ATOM     38  C   UNL A   1      41.146  22.813  26.992  1.00  0.00     0.261 C 
BRANCH  38  39
ATOM     39  O   UNL A   1      41.391  24.199  26.526  1.00  0.00    -0.460 OA
BRANCH  39  40
ATOM     40  C   UNL A   1      41.571  25.464  26.194  1.00  0.00     0.338 C 
ATOM     41  O   UNL A   1      42.541  25.730  25.492  1.00  0.00    -0.246 OA
BRANCH  40  42
ATOM     42  C   UNL A   1      40.818  26.629  26.806  1.00  0.00     0.060 A 
ATOM     43  C   UNL A   1      41.229  27.843  26.343  1.00  0.00     0.016 A 
ATOM     44  C   UNL A   1      39.804  26.716  27.777  1.00  0.00     0.016 A 
ATOM     45  C   UNL A   1      40.838  29.012  27.023  1.00  0.00     0.010 A 
ATOM     46  C   UNL A   1      39.475  27.923  28.498  1.00  0.00     0.010 A 
ATOM     47  C   UNL A   1      40.115  29.130  28.236  1.00  0.00    -0.014 A 
BRANCH  47  48
ATOM     48  C   UNL A   1      40.261  30.196  29.413  1.00  0.00     0.031 A 
ATOM     49  C   UNL A   1      41.415  30.139  30.361  1.00  0.00     0.074 A 
ATOM     50  C   UNL A   1      39.541  31.358  29.674  1.00  0.00     0.049 A 
ATOM     51  N   UNL A   1      41.440  30.750  31.510  1.00  0.00    -0.248 NA
ATOM     52  C   UNL A   1      42.565  29.283  30.156  1.00  0.00     0.031 C 
ATOM     53  C   UNL A   1      40.091  32.694  29.999  1.00  0.00     0.029 A 
ATOM     54  N   UNL A   1      38.189  31.664  29.666  1.00  0.00    -0.354 N 
ATOM     55  C   UNL A   1      42.704  30.611  32.024  1.00  0.00     0.074 A 
ATOM     56  C   UNL A   1      43.281  29.533  31.256  1.00  0.00     0.031 C 
ATOM     57  C   UNL A   1      39.103  33.616  30.094  1.00  0.00     0.029 A 
ATOM     58  C   UNL A   1      37.809  32.962  29.944  1.00  0.00     0.049 A 
ATOM     59  H   UNL A   1      37.517  30.973  29.466  1.00  0.00     0.167 HD
ATOM     60  C   UNL A   1      43.213  31.543  32.886  1.00  0.00     0.037 A 
ATOM     61  C   UNL A   1      36.555  33.307  30.375  1.00  0.00     0.037 A 
ATOM     62  C   UNL A   1      42.258  32.631  33.143  1.00  0.00     0.049 A 
ATOM     63  C   UNL A   1      36.750  33.640  31.818  1.00  0.00     0.074 A 
ATOM     64  C   UNL A   1      42.161  33.910  32.613  1.00  0.00     0.029 A 
ATOM     65  N   UNL A   1      41.053  32.409  33.819  1.00  0.00    -0.354 N 
ATOM     66  N   UNL A   1      37.888  33.393  32.397  1.00  0.00    -0.248 NA
ATOM     67  C   UNL A   1      35.775  34.232  32.719  1.00  0.00     0.031 C 
ATOM     68  C   UNL A   1      40.905  34.455  32.970  1.00  0.00     0.029 A 
ATOM     69  C   UNL A   1      40.231  33.527  33.747  1.00  0.00     0.049 A 
ATOM     70  H   UNL A   1      40.820  31.573  34.284  1.00  0.00     0.167 HD
ATOM     71  C   UNL A   1      37.849  33.792  33.682  1.00  0.00     0.074 A 
ATOM     72  C   UNL A   1      36.497  34.300  33.854  1.00  0.00     0.031 C 
ATOM     73  C   UNL A   1      38.953  33.629  34.458  1.00  0.00     0.037 A 
BRANCH  60  74
ATOM     74  C   UNL A   1      44.717  31.653  33.135  1.00  0.00     0.064 A 
ATOM     75  C   UNL A   1      45.571  32.353  32.254  1.00  0.00     0.173 A 
ATOM     76  C   UNL A   1      45.387  31.021  34.202  1.00  0.00     0.173 A 
ATOM     77  F   UNL A   1      45.089  33.125  31.273  1.00  0.00    -0.203 F 
ATOM     78  C   UNL A   1      46.968  32.295  32.348  1.00  0.00     0.198 A 
ATOM     79  C   UNL A   1      46.781  30.903  34.260  1.00  0.00     0.198 A 
ATOM     80  F   UNL A   1      44.713  30.547  35.258  1.00  0.00    -0.203 F 
ATOM     81  F   UNL A   1      47.723  32.975  31.474  1.00  0.00    -0.200 F 
ATOM     82  C   UNL A   1      47.574  31.531  33.323  1.00  0.00     0.200 A 
ATOM     83  F   UNL A   1      47.349  30.174  35.233  1.00  0.00    -0.200 F 
ATOM     84  F   UNL A   1      48.909  31.433  33.383  1.00  0.00    -0.200 F 
ENDBRANCH  60  74
BRANCH  61  85
ATOM     85  C   UNL A   1      35.361  32.586  29.776  1.00  0.00     0.064 A 
ATOM     86  C   UNL A   1      34.360  33.358  29.159  1.00  0.00     0.173 A 
ATOM     87  C   UNL A   1      35.310  31.219  29.487  1.00  0.00     0.173 A 
ATOM     88  F   UNL A   1      34.226  34.654  29.488  1.00  0.00    -0.203 F 
ATOM     89  C   UNL A   1      33.606  32.875  28.071  1.00  0.00     0.198 A 
ATOM     90  C   UNL A   1      34.545  30.724  28.405  1.00  0.00     0.198 A 
ATOM     91  F   UNL A   1      36.074  30.366  30.178  1.00  0.00    -0.203 F 
ATOM     92  F   UNL A   1      32.868  33.722  27.335  1.00  0.00    -0.200 F 
ATOM     93  C   UNL A   1      33.773  31.578  27.638  1.00  0.00     0.200 A 
ATOM     94  F   UNL A   1      34.650  29.442  28.027  1.00  0.00    -0.200 F 
ATOM     95  F   UNL A   1      33.246  31.179  26.469  1.00  0.00    -0.200 F 
ENDBRANCH  61  85
BRANCH  73  96
ATOM     96  C   UNL A   1      38.920  33.721  35.944  1.00  0.00     0.064 A 
ATOM     97  C   UNL A   1      39.288  34.882  36.643  1.00  0.00     0.173 A 
ATOM     98  C   UNL A   1      38.374  32.672  36.709  1.00  0.00     0.173 A 
ATOM     99  F   UNL A   1      39.698  35.987  36.004  1.00  0.00    -0.203 F 
ATOM    100  C   UNL A   1      39.192  34.958  38.029  1.00  0.00     0.198 A 
ATOM    101  C   UNL A   1      38.216  32.779  38.085  1.00  0.00     0.198 A 
ATOM    102  F   UNL A   1      37.953  31.532  36.143  1.00  0.00    -0.203 F 
ATOM    103  F   UNL A   1      39.607  36.065  38.660  1.00  0.00    -0.200 F 
ATOM    104  C   UNL A   1      38.645  33.912  38.747  1.00  0.00     0.200 A 
ATOM    105  F   UNL A   1      37.627  31.783  38.762  1.00  0.00    -0.200 F 
ATOM    106  F   UNL A   1      38.509  34.006  40.075  1.00  0.00    -0.200 F 
ENDBRANCH  73  96
ENDBRANCH  47  48
ENDBRANCH  40  42
ENDBRANCH  39  40
ENDBRANCH  38  39
ENDBRANCH  37  38
ENDBRANCH  36  37
ENDBRANCH  35  36
ENDBRANCH   1  35
TORSDOF 21
ENDMDL
