MODEL 1
REMARK VINA RESULT:     -11.1      0.000      0.000
REMARK SMILES CCC1CN(c2cc(F)ccc2C(=O)OCCOCCOCCOC(=O)c2ccc(-c3c4nc(c(-c5c(F)c(F)c(F)c(F)c5F)c5ccc([nH]5)c(-c5c(F)c(F)c(F)c(F)c5F)c5nc(c(-c6c(F)c(F)c(F)c(F)c6F)c6ccc3[nH]6)C=C5)C=C4)cc2)C1
REMARK SMILES IDX 19 1 18 2 17 3 16 4 15 5 13 6 14 7 12 8 6 9 7 10 8 11 11 12
REMARK SMILES IDX 9 13 10 14 5 15 3 16 4 17 90 18 2 19 1 20 20 21 21 22 22 23
REMARK SMILES IDX 23 24 24 25 25 26 26 27 27 28 28 29 89 30 29 31 88 32 30 33
REMARK SMILES IDX 31 34 32 35 82 36 33 37 87 38 81 39 83 40 34 41 86 42 80 43
REMARK SMILES IDX 79 44 35 46 67 47 47 48 66 49 48 50 51 51 65 52 84 53 49 54
REMARK SMILES IDX 50 55 64 57 85 58 52 59 36 60 37 61 45 62 38 63 39 64 43 65
REMARK SMILES IDX 46 66 40 67 41 68 44 69 42 70 68 71 69 72 77 73 70 74 71 75
REMARK SMILES IDX 75 76 78 77 72 78 73 79 76 80 74 81 53 82 54 83 62 84 55 85
REMARK SMILES IDX 56 86 60 87 63 88 57 89 58 90 61 91 59 92
REMARK H PARENT 83 45 51 56
REMARK Flexibility Score: inf
ROOT
ATOM      1  C   UNL A   1      33.990  32.235  28.030  1.00  0.00     0.188 C 
ENDROOT
BRANCH   1   2
ATOM      2  O   UNL A   1      33.475  31.126  27.312  1.00  0.00    -0.376 OA
BRANCH   2   3
ATOM      3  C   UNL A   1      34.325  30.004  27.091  1.00  0.00     0.202 C 
BRANCH   3   4
ATOM      4  C   UNL A   1      33.699  28.614  26.976  1.00  0.00     0.261 C 
BRANCH   4   5
ATOM      5  O   UNL A   1      33.522  28.234  25.603  1.00  0.00    -0.460 OA
BRANCH   5   6
ATOM      6  C   UNL A   1      32.328  27.680  25.288  1.00  0.00     0.340 C 
ATOM      7  O   UNL A   1      31.270  27.868  25.866  1.00  0.00    -0.246 OA
BRANCH   6   8
ATOM      8  C   UNL A   1      32.417  27.016  23.966  1.00  0.00     0.083 A 
ATOM      9  C   UNL A   1      31.490  27.180  22.916  1.00  0.00     0.054 A 
ATOM     10  C   UNL A   1      31.695  26.406  21.756  1.00  0.00     0.066 A 
ATOM     11  C   UNL A   1      32.763  25.519  21.646  1.00  0.00     0.125 A 
ATOM     12  C   UNL A   1      33.485  26.097  23.849  1.00  0.00     0.021 A 
ATOM     13  F   UNL A   1      32.929  24.824  20.513  1.00  0.00    -0.207 F 
ATOM     14  C   UNL A   1      33.657  25.349  22.688  1.00  0.00     0.040 A 
BRANCH   9  15
ATOM     15  N   UNL A   1      30.401  28.064  22.931  1.00  0.00    -0.370 N 
ATOM     16  C   UNL A   1      28.934  29.440  23.317  1.00  0.00     0.028 C 
ATOM     17  C   UNL A   1      29.002  27.911  23.145  1.00  0.00     0.122 C 
ATOM     18  C   UNL A   1      30.324  29.464  22.660  1.00  0.00     0.122 C 
BRANCH  16  19
ATOM     19  C   UNL A   1      27.796  30.159  22.610  1.00  0.00     0.004 C 
ATOM     20  C   UNL A   1      27.651  31.576  23.143  1.00  0.00     0.004 C 
ENDBRANCH  16  19
ENDBRANCH   9  15
ENDBRANCH   6   8
ENDBRANCH   5   6
ENDBRANCH   4   5
ENDBRANCH   3   4
ENDBRANCH   2   3
ENDBRANCH   1   2
BRANCH   1  21
ATOM     21  C   UNL A   1      33.214  33.570  28.053  1.00  0.00     0.188 C 
BRANCH  21  22
ATOM     22  O   UNL A   1      33.402  34.490  29.103  1.00  0.00    -0.376 OA
BRANCH  22  23
ATOM     23  C   UNL A   1      34.490  34.372  30.004  1.00  0.00     0.202 C 
BRANCH  23  24
ATOM     24  C   UNL A   1      34.412  33.729  31.397  1.00  0.00     0.261 C 
BRANCH  24  25
ATOM     25  O   UNL A   1      34.738  32.341  31.490  1.00  0.00    -0.460 OA
BRANCH  25  26
ATOM     26  C   UNL A   1      35.729  32.051  32.370  1.00  0.00     0.338 C 
ATOM     27  O   UNL A   1      35.752  32.268  33.567  1.00  0.00    -0.246 OA
BRANCH  26  28
ATOM     28  C   UNL A   1      36.758  31.256  31.683  1.00  0.00     0.060 A 
ATOM     29  C   UNL A   1      37.708  30.578  32.460  1.00  0.00     0.016 A 
ATOM     30  C   UNL A   1      36.818  31.229  30.290  1.00  0.00     0.016 A 
ATOM     31  C   UNL A   1      38.747  29.890  31.838  1.00  0.00     0.010 A 
ATOM     32  C   UNL A   1      37.873  30.559  29.670  1.00  0.00     0.010 A 
ATOM     33  C   UNL A   1      38.857  29.915  30.442  1.00  0.00    -0.014 A 
BRANCH  33  34
ATOM     34  C   UNL A   1      40.097  29.437  29.789  1.00  0.00     0.031 A 
ATOM     35  C   UNL A   1      41.236  30.401  29.629  1.00  0.00     0.074 A 
ATOM     36  C   UNL A   1      40.209  28.173  29.348  1.00  0.00     0.049 A 
ATOM     37  N   UNL A   1      42.377  30.245  29.009  1.00  0.00    -0.248 NA
ATOM     38  C   UNL A   1      41.064  31.726  30.251  1.00  0.00     0.031 C 
ATOM     39  C   UNL A   1      39.194  27.133  29.497  1.00  0.00     0.029 A 
ATOM     40  N   UNL A   1      41.231  27.555  28.672  1.00  0.00    -0.354 N 
ATOM     41  C   UNL A   1      43.054  31.447  29.162  1.00  0.00     0.074 A 
ATOM     42  C   UNL A   1      42.189  32.334  29.910  1.00  0.00     0.031 C 
ATOM     43  C   UNL A   1      39.640  26.005  28.916  1.00  0.00     0.029 A 
ATOM     44  C   UNL A   1      40.953  26.258  28.323  1.00  0.00     0.049 A 
ATOM     45  H   UNL A   1      42.084  28.001  28.459  1.00  0.00     0.167 HD
ATOM     46  C   UNL A   1      44.290  31.777  28.723  1.00  0.00     0.037 A 
ATOM     47  C   UNL A   1      41.670  25.385  27.586  1.00  0.00     0.037 A 
ATOM     48  C   UNL A   1      45.145  30.894  27.977  1.00  0.00     0.049 A 
ATOM     49  C   UNL A   1      43.007  25.805  27.032  1.00  0.00     0.074 A 
ATOM     50  C   UNL A   1      46.416  31.136  27.489  1.00  0.00     0.029 A 
ATOM     51  N   UNL A   1      44.813  29.598  27.610  1.00  0.00    -0.354 N 
ATOM     52  N   UNL A   1      43.643  26.943  27.177  1.00  0.00    -0.248 NA
ATOM     53  C   UNL A   1      43.725  24.822  26.206  1.00  0.00     0.031 C 
ATOM     54  C   UNL A   1      46.834  30.006  26.782  1.00  0.00     0.029 A 
ATOM     55  C   UNL A   1      45.848  29.037  26.882  1.00  0.00     0.049 A 
ATOM     56  H   UNL A   1      43.968  29.145  27.835  1.00  0.00     0.167 HD
ATOM     57  C   UNL A   1      44.843  26.803  26.491  1.00  0.00     0.074 A 
ATOM     58  C   UNL A   1      44.850  25.468  25.931  1.00  0.00     0.031 C 
ATOM     59  C   UNL A   1      45.848  27.700  26.345  1.00  0.00     0.037 A 
BRANCH  46  60
ATOM     60  C   UNL A   1      44.789  33.159  29.020  1.00  0.00     0.064 A 
ATOM     61  C   UNL A   1      45.506  33.416  30.198  1.00  0.00     0.173 A 
ATOM     62  C   UNL A   1      44.507  34.239  28.171  1.00  0.00     0.173 A 
ATOM     63  F   UNL A   1      45.800  32.417  31.043  1.00  0.00    -0.203 F 
ATOM     64  C   UNL A   1      45.908  34.709  30.522  1.00  0.00     0.198 A 
ATOM     65  C   UNL A   1      44.935  35.526  28.485  1.00  0.00     0.198 A 
ATOM     66  F   UNL A   1      43.839  34.041  27.024  1.00  0.00    -0.203 F 
ATOM     67  F   UNL A   1      46.565  34.936  31.669  1.00  0.00    -0.200 F 
ATOM     68  C   UNL A   1      45.625  35.761  29.664  1.00  0.00     0.200 A 
ATOM     69  F   UNL A   1      44.683  36.538  27.644  1.00  0.00    -0.200 F 
ATOM     70  F   UNL A   1      46.022  37.004  29.974  1.00  0.00    -0.200 F 
ENDBRANCH  46  60
BRANCH  47  71
ATOM     71  C   UNL A   1      41.132  24.024  27.329  1.00  0.00     0.064 A 
ATOM     72  C   UNL A   1      41.714  22.888  27.913  1.00  0.00     0.173 A 
ATOM     73  C   UNL A   1      40.031  23.832  26.486  1.00  0.00     0.173 A 
ATOM     74  F   UNL A   1      42.767  23.019  28.732  1.00  0.00    -0.203 F 
ATOM     75  C   UNL A   1      41.225  21.611  27.644  1.00  0.00     0.198 A 
ATOM     76  C   UNL A   1      39.527  22.557  26.238  1.00  0.00     0.198 A 
ATOM     77  F   UNL A   1      39.424  24.890  25.926  1.00  0.00    -0.203 F 
ATOM     78  F   UNL A   1      41.817  20.541  28.191  1.00  0.00    -0.200 F 
ATOM     79  C   UNL A   1      40.130  21.447  26.810  1.00  0.00     0.200 A 
ATOM     80  F   UNL A   1      38.452  22.404  25.453  1.00  0.00    -0.200 F 
ATOM     81  F   UNL A   1      39.652  20.220  26.563  1.00  0.00    -0.200 F 
ENDBRANCH  47  71
BRANCH  59  82
ATOM     82  C   UNL A   1      47.069  27.274  25.582  1.00  0.00     0.064 A 
ATOM     83  C   UNL A   1      48.125  26.627  26.244  1.00  0.00     0.173 A 
ATOM     84  C   UNL A   1      47.242  27.597  24.229  1.00  0.00     0.173 A 
ATOM     85  F   UNL A   1      48.013  26.306  27.542  1.00  0.00    -0.203 F 
ATOM     86  C   UNL A   1      49.318  26.343  25.586  1.00  0.00     0.198 A 
ATOM     87  C   UNL A   1      48.427  27.286  23.566  1.00  0.00     0.198 A 
ATOM     88  F   UNL A   1      46.259  28.207  23.549  1.00  0.00    -0.203 F 
ATOM     89  F   UNL A   1      50.328  25.766  26.251  1.00  0.00    -0.200 F 
ATOM     90  C   UNL A   1      49.467  26.672  24.247  1.00  0.00     0.200 A 
ATOM     91  F   UNL A   1      48.563  27.585  22.267  1.00  0.00    -0.200 F 
ATOM     92  F   UNL A   1      50.615  26.396  23.613  1.00  0.00    -0.200 F 
ENDBRANCH  59  82
ENDBRANCH  33  34
ENDBRANCH  26  28
ENDBRANCH  25  26
ENDBRANCH  24  25
ENDBRANCH  23  24
ENDBRANCH  22  23
ENDBRANCH  21  22
ENDBRANCH   1  21
TORSDOF 19
ENDMDL
MODEL 2
REMARK VINA RESULT:     -10.9      4.777      9.271
REMARK SMILES CCC1CN(c2cc(F)ccc2C(=O)OCCOCCOCCOC(=O)c2ccc(-c3c4nc(c(-c5c(F)c(F)c(F)c(F)c5F)c5ccc([nH]5)c(-c5c(F)c(F)c(F)c(F)c5F)c5nc(c(-c6c(F)c(F)c(F)c(F)c6F)c6ccc3[nH]6)C=C5)C=C4)cc2)C1
REMARK SMILES IDX 19 1 18 2 17 3 16 4 15 5 13 6 14 7 12 8 6 9 7 10 8 11 11 12
REMARK SMILES IDX 9 13 10 14 5 15 3 16 4 17 90 18 2 19 1 20 20 21 21 22 22 23
REMARK SMILES IDX 23 24 24 25 25 26 26 27 27 28 28 29 89 30 29 31 88 32 30 33
REMARK SMILES IDX 31 34 32 35 82 36 33 37 87 38 81 39 83 40 34 41 86 42 80 43
REMARK SMILES IDX 79 44 35 46 67 47 47 48 66 49 48 50 51 51 65 52 84 53 49 54
REMARK SMILES IDX 50 55 64 57 85 58 52 59 36 60 37 61 45 62 38 63 39 64 43 65
REMARK SMILES IDX 46 66 40 67 41 68 44 69 42 70 68 71 69 72 77 73 70 74 71 75
REMARK SMILES IDX 75 76 78 77 72 78 73 79 76 80 74 81 53 82 54 83 62 84 55 85
REMARK SMILES IDX 56 86 60 87 63 88 57 89 58 90 61 91 59 92
REMARK H PARENT 83 45 51 56
REMARK Flexibility Score: inf
ROOT
ATOM      1  C   UNL A   1      33.829  28.235  22.416  1.00  0.00     0.188 C 
ENDROOT
BRANCH   1   2
ATOM      2  O   UNL A   1      33.617  27.017  21.722  1.00  0.00    -0.376 OA
BRANCH   2   3
ATOM      3  C   UNL A   1      33.664  25.798  22.457  1.00  0.00     0.202 C 
BRANCH   3   4
ATOM      4  C   UNL A   1      32.874  24.593  21.943  1.00  0.00     0.261 C 
BRANCH   4   5
ATOM      5  O   UNL A   1      33.388  23.365  22.480  1.00  0.00    -0.460 OA
BRANCH   5   6
ATOM      6  C   UNL A   1      33.090  23.113  23.776  1.00  0.00     0.340 C 
ATOM      7  O   UNL A   1      32.474  23.847  24.531  1.00  0.00    -0.246 OA
BRANCH   6   8
ATOM      8  C   UNL A   1      33.376  21.692  24.088  1.00  0.00     0.083 A 
ATOM      9  C   UNL A   1      34.571  21.218  24.667  1.00  0.00     0.054 A 
ATOM     10  C   UNL A   1      34.697  19.822  24.820  1.00  0.00     0.066 A 
ATOM     11  C   UNL A   1      33.689  18.948  24.421  1.00  0.00     0.125 A 
ATOM     12  C   UNL A   1      32.369  20.792  23.669  1.00  0.00     0.021 A 
ATOM     13  F   UNL A   1      33.846  17.631  24.610  1.00  0.00    -0.207 F 
ATOM     14  C   UNL A   1      32.528  19.420  23.836  1.00  0.00     0.040 A 
BRANCH   9  15
ATOM     15  N   UNL A   1      35.625  22.025  25.118  1.00  0.00    -0.370 N 
ATOM     16  C   UNL A   1      37.297  22.873  25.942  1.00  0.00     0.028 C 
ATOM     17  C   UNL A   1      35.779  22.953  26.187  1.00  0.00     0.122 C 
ATOM     18  C   UNL A   1      36.934  22.242  24.588  1.00  0.00     0.122 C 
BRANCH  16  19
ATOM     19  C   UNL A   1      38.059  24.189  25.937  1.00  0.00     0.004 C 
ATOM     20  C   UNL A   1      38.846  24.352  27.228  1.00  0.00     0.004 C 
ENDBRANCH  16  19
ENDBRANCH   9  15
ENDBRANCH   6   8
ENDBRANCH   5   6
ENDBRANCH   4   5
ENDBRANCH   3   4
ENDBRANCH   2   3
ENDBRANCH   1   2
BRANCH   1  21
ATOM     21  C   UNL A   1      33.125  28.488  23.767  1.00  0.00     0.188 C 
BRANCH  21  22
ATOM     22  O   UNL A   1      31.904  29.190  23.819  1.00  0.00    -0.376 OA
BRANCH  22  23
ATOM     23  C   UNL A   1      31.299  29.527  25.056  1.00  0.00     0.202 C 
BRANCH  23  24
ATOM     24  C   UNL A   1      31.827  30.588  26.034  1.00  0.00     0.261 C 
BRANCH  24  25
ATOM     25  O   UNL A   1      33.153  30.406  26.533  1.00  0.00    -0.460 OA
BRANCH  25  26
ATOM     26  C   UNL A   1      33.629  31.445  27.263  1.00  0.00     0.338 C 
ATOM     27  O   UNL A   1      33.045  32.466  27.580  1.00  0.00    -0.246 OA
BRANCH  26  28
ATOM     28  C   UNL A   1      34.959  31.092  27.784  1.00  0.00     0.060 A 
ATOM     29  C   UNL A   1      35.219  29.752  28.100  1.00  0.00     0.016 A 
ATOM     30  C   UNL A   1      35.913  32.083  28.014  1.00  0.00     0.016 A 
ATOM     31  C   UNL A   1      36.436  29.401  28.678  1.00  0.00     0.010 A 
ATOM     32  C   UNL A   1      37.122  31.732  28.615  1.00  0.00     0.010 A 
ATOM     33  C   UNL A   1      37.374  30.396  28.977  1.00  0.00    -0.014 A 
BRANCH  33  34
ATOM     34  C   UNL A   1      38.536  30.082  29.840  1.00  0.00     0.031 A 
ATOM     35  C   UNL A   1      39.576  29.135  29.318  1.00  0.00     0.074 A 
ATOM     36  C   UNL A   1      38.664  30.629  31.060  1.00  0.00     0.049 A 
ATOM     37  N   UNL A   1      40.625  28.637  29.920  1.00  0.00    -0.248 NA
ATOM     38  C   UNL A   1      39.410  28.684  27.925  1.00  0.00     0.031 C 
ATOM     39  C   UNL A   1      37.750  31.602  31.651  1.00  0.00     0.029 A 
ATOM     40  N   UNL A   1      39.617  30.428  32.027  1.00  0.00    -0.354 N 
ATOM     41  C   UNL A   1      41.239  27.814  28.986  1.00  0.00     0.074 A 
ATOM     42  C   UNL A   1      40.434  27.857  27.784  1.00  0.00     0.031 C 
ATOM     43  C   UNL A   1      38.180  31.906  32.888  1.00  0.00     0.029 A 
ATOM     44  C   UNL A   1      39.376  31.119  33.188  1.00  0.00     0.049 A 
ATOM     45  H   UNL A   1      40.400  29.843  31.900  1.00  0.00     0.167 HD
ATOM     46  C   UNL A   1      42.375  27.094  29.119  1.00  0.00     0.037 A 
ATOM     47  C   UNL A   1      40.035  31.096  34.364  1.00  0.00     0.037 A 
ATOM     48  C   UNL A   1      43.170  27.051  30.316  1.00  0.00     0.049 A 
ATOM     49  C   UNL A   1      41.250  30.217  34.517  1.00  0.00     0.074 A 
ATOM     50  C   UNL A   1      44.340  26.351  30.548  1.00  0.00     0.029 A 
ATOM     51  N   UNL A   1      42.872  27.737  31.484  1.00  0.00    -0.354 N 
ATOM     52  N   UNL A   1      41.825  29.439  33.632  1.00  0.00    -0.248 NA
ATOM     53  C   UNL A   1      41.903  30.208  35.835  1.00  0.00     0.031 C 
ATOM     54  C   UNL A   1      44.724  26.573  31.873  1.00  0.00     0.029 A 
ATOM     55  C   UNL A   1      43.827  27.458  32.448  1.00  0.00     0.049 A 
ATOM     56  H   UNL A   1      42.099  28.333  31.610  1.00  0.00     0.167 HD
ATOM     57  C   UNL A   1      42.922  28.875  34.272  1.00  0.00     0.074 A 
ATOM     58  C   UNL A   1      42.935  29.401  35.620  1.00  0.00     0.031 C 
ATOM     59  C   UNL A   1      43.836  28.003  33.782  1.00  0.00     0.037 A 
BRANCH  46  60
ATOM     60  C   UNL A   1      42.822  26.274  27.946  1.00  0.00     0.064 A 
ATOM     61  C   UNL A   1      43.609  26.850  26.937  1.00  0.00     0.173 A 
ATOM     62  C   UNL A   1      42.423  24.939  27.789  1.00  0.00     0.173 A 
ATOM     63  F   UNL A   1      44.015  28.123  27.040  1.00  0.00    -0.203 F 
ATOM     64  C   UNL A   1      43.966  26.121  25.805  1.00  0.00     0.198 A 
ATOM     65  C   UNL A   1      42.805  24.205  26.669  1.00  0.00     0.198 A 
ATOM     66  F   UNL A   1      41.684  24.339  28.735  1.00  0.00    -0.203 F 
ATOM     67  F   UNL A   1      44.691  26.702  24.839  1.00  0.00    -0.200 F 
ATOM     68  C   UNL A   1      43.566  24.800  25.674  1.00  0.00     0.200 A 
ATOM     69  F   UNL A   1      42.439  22.922  26.555  1.00  0.00    -0.200 F 
ATOM     70  F   UNL A   1      43.919  24.097  24.588  1.00  0.00    -0.200 F 
ENDBRANCH  46  60
BRANCH  47  71
ATOM     71  C   UNL A   1      39.554  31.936  35.492  1.00  0.00     0.064 A 
ATOM     72  C   UNL A   1      40.082  33.215  35.726  1.00  0.00     0.173 A 
ATOM     73  C   UNL A   1      38.564  31.469  36.366  1.00  0.00     0.173 A 
ATOM     74  F   UNL A   1      41.029  33.709  34.915  1.00  0.00    -0.203 F 
ATOM     75  C   UNL A   1      39.651  33.986  36.804  1.00  0.00     0.198 A 
ATOM     76  C   UNL A   1      38.114  32.250  37.428  1.00  0.00     0.198 A 
ATOM     77  F   UNL A   1      38.010  30.264  36.167  1.00  0.00    -0.203 F 
ATOM     78  F   UNL A   1      40.192  35.191  37.022  1.00  0.00    -0.200 F 
ATOM     79  C   UNL A   1      38.665  33.504  37.652  1.00  0.00     0.200 A 
ATOM     80  F   UNL A   1      37.143  31.794  38.229  1.00  0.00    -0.200 F 
ATOM     81  F   UNL A   1      38.240  34.251  38.680  1.00  0.00    -0.200 F 
ENDBRANCH  47  71
BRANCH  59  82
ATOM     82  C   UNL A   1      44.961  27.579  34.682  1.00  0.00     0.064 A 
ATOM     83  C   UNL A   1      44.806  26.471  35.530  1.00  0.00     0.173 A 
ATOM     84  C   UNL A   1      46.143  28.325  34.784  1.00  0.00     0.173 A 
ATOM     85  F   UNL A   1      43.689  25.731  35.478  1.00  0.00    -0.203 F 
ATOM     86  C   UNL A   1      45.784  26.141  36.464  1.00  0.00     0.198 A 
ATOM     87  C   UNL A   1      47.132  27.975  35.700  1.00  0.00     0.198 A 
ATOM     88  F   UNL A   1      46.343  29.387  33.988  1.00  0.00    -0.203 F 
ATOM     89  F   UNL A   1      45.595  25.106  37.294  1.00  0.00    -0.200 F 
ATOM     90  C   UNL A   1      46.946  26.893  36.547  1.00  0.00     0.200 A 
ATOM     91  F   UNL A   1      48.264  28.690  35.767  1.00  0.00    -0.200 F 
ATOM     92  F   UNL A   1      47.888  26.574  37.446  1.00  0.00    -0.200 F 
ENDBRANCH  59  82
ENDBRANCH  33  34
ENDBRANCH  26  28
ENDBRANCH  25  26
ENDBRANCH  24  25
ENDBRANCH  23  24
ENDBRANCH  22  23
ENDBRANCH  21  22
ENDBRANCH   1  21
TORSDOF 19
ENDMDL
MODEL 3
REMARK VINA RESULT:     -10.8      3.220      8.217
REMARK SMILES CCC1CN(c2cc(F)ccc2C(=O)OCCOCCOCCOC(=O)c2ccc(-c3c4nc(c(-c5c(F)c(F)c(F)c(F)c5F)c5ccc([nH]5)c(-c5c(F)c(F)c(F)c(F)c5F)c5nc(c(-c6c(F)c(F)c(F)c(F)c6F)c6ccc3[nH]6)C=C5)C=C4)cc2)C1
REMARK SMILES IDX 19 1 18 2 17 3 16 4 15 5 13 6 14 7 12 8 6 9 7 10 8 11 11 12
REMARK SMILES IDX 9 13 10 14 5 15 3 16 4 17 90 18 2 19 1 20 20 21 21 22 22 23
REMARK SMILES IDX 23 24 24 25 25 26 26 27 27 28 28 29 89 30 29 31 88 32 30 33
REMARK SMILES IDX 31 34 32 35 82 36 33 37 87 38 81 39 83 40 34 41 86 42 80 43
REMARK SMILES IDX 79 44 35 46 67 47 47 48 66 49 48 50 51 51 65 52 84 53 49 54
REMARK SMILES IDX 50 55 64 57 85 58 52 59 36 60 37 61 45 62 38 63 39 64 43 65
REMARK SMILES IDX 46 66 40 67 41 68 44 69 42 70 68 71 69 72 77 73 70 74 71 75
REMARK SMILES IDX 75 76 78 77 72 78 73 79 76 80 74 81 53 82 54 83 62 84 55 85
REMARK SMILES IDX 56 86 60 87 63 88 57 89 58 90 61 91 59 92
REMARK H PARENT 83 45 51 56
REMARK Flexibility Score: inf
ROOT
ATOM      1  C   UNL A   1      34.400  23.967  25.541  1.00  0.00     0.188 C 
ENDROOT
BRANCH   1   2
ATOM      2  O   UNL A   1      33.516  24.513  26.505  1.00  0.00    -0.376 OA
BRANCH   2   3
ATOM      3  C   UNL A   1      32.598  25.522  26.093  1.00  0.00     0.202 C 
BRANCH   3   4
ATOM      4  C   UNL A   1      31.145  25.132  25.820  1.00  0.00     0.261 C 
BRANCH   4   5
ATOM      5  O   UNL A   1      30.418  26.216  25.222  1.00  0.00    -0.460 OA
BRANCH   5   6
ATOM      6  C   UNL A   1      30.935  26.717  24.076  1.00  0.00     0.340 C 
ATOM      7  O   UNL A   1      31.624  26.114  23.270  1.00  0.00    -0.246 OA
BRANCH   6   8
ATOM      8  C   UNL A   1      30.324  28.036  23.785  1.00  0.00     0.083 A 
ATOM      9  C   UNL A   1      30.714  29.255  24.379  1.00  0.00     0.054 A 
ATOM     10  C   UNL A   1      29.966  30.400  24.038  1.00  0.00     0.066 A 
ATOM     11  C   UNL A   1      28.891  30.336  23.155  1.00  0.00     0.125 A 
ATOM     12  C   UNL A   1      29.219  27.983  22.906  1.00  0.00     0.021 A 
ATOM     13  F   UNL A   1      28.227  31.457  22.843  1.00  0.00    -0.207 F 
ATOM     14  C   UNL A   1      28.502  29.134  22.592  1.00  0.00     0.040 A 
BRANCH   9  15
ATOM     15  N   UNL A   1      31.794  29.415  25.258  1.00  0.00    -0.370 N 
ATOM     16  C   UNL A   1      33.390  29.257  26.533  1.00  0.00     0.028 C 
ATOM     17  C   UNL A   1      31.908  29.657  26.657  1.00  0.00     0.122 C 
ATOM     18  C   UNL A   1      33.202  29.457  25.020  1.00  0.00     0.122 C 
BRANCH  16  19
ATOM     19  C   UNL A   1      34.399  30.138  27.251  1.00  0.00     0.004 C 
ATOM     20  C   UNL A   1      35.626  29.330  27.643  1.00  0.00     0.004 C 
ENDBRANCH  16  19
ENDBRANCH   9  15
ENDBRANCH   6   8
ENDBRANCH   5   6
ENDBRANCH   4   5
ENDBRANCH   3   4
ENDBRANCH   2   3
ENDBRANCH   1   2
BRANCH   1  21
ATOM     21  C   UNL A   1      34.040  22.650  24.820  1.00  0.00     0.188 C 
BRANCH  21  22
ATOM     22  O   UNL A   1      35.048  21.834  24.269  1.00  0.00    -0.376 OA
BRANCH  22  23
ATOM     23  C   UNL A   1      35.636  20.782  25.016  1.00  0.00     0.202 C 
BRANCH  23  24
ATOM     24  C   UNL A   1      37.128  20.417  24.998  1.00  0.00     0.261 C 
BRANCH  24  25
ATOM     25  O   UNL A   1      38.059  21.487  25.166  1.00  0.00    -0.460 OA
BRANCH  25  26
ATOM     26  C   UNL A   1      39.108  21.201  25.977  1.00  0.00     0.338 C 
ATOM     27  O   UNL A   1      39.662  20.129  26.132  1.00  0.00    -0.246 OA
BRANCH  26  28
ATOM     28  C   UNL A   1      39.618  22.454  26.556  1.00  0.00     0.060 A 
ATOM     29  C   UNL A   1      39.103  23.668  26.081  1.00  0.00     0.016 A 
ATOM     30  C   UNL A   1      40.633  22.428  27.511  1.00  0.00     0.016 A 
ATOM     31  C   UNL A   1      39.630  24.871  26.545  1.00  0.00     0.010 A 
ATOM     32  C   UNL A   1      41.174  23.634  27.957  1.00  0.00     0.010 A 
ATOM     33  C   UNL A   1      40.696  24.858  27.452  1.00  0.00    -0.014 A 
BRANCH  33  34
ATOM     34  C   UNL A   1      41.445  26.103  27.732  1.00  0.00     0.031 A 
ATOM     35  C   UNL A   1      40.750  27.199  28.486  1.00  0.00     0.074 A 
ATOM     36  C   UNL A   1      42.717  26.257  27.326  1.00  0.00     0.049 A 
ATOM     37  N   UNL A   1      41.162  28.408  28.766  1.00  0.00    -0.248 NA
ATOM     38  C   UNL A   1      39.401  26.890  28.993  1.00  0.00     0.031 C 
ATOM     39  C   UNL A   1      43.512  25.246  26.637  1.00  0.00     0.029 A 
ATOM     40  N   UNL A   1      43.557  27.338  27.429  1.00  0.00    -0.354 N 
ATOM     41  C   UNL A   1      40.128  29.003  29.474  1.00  0.00     0.074 A 
ATOM     42  C   UNL A   1      39.057  28.035  29.561  1.00  0.00     0.031 C 
ATOM     43  C   UNL A   1      44.725  25.758  26.365  1.00  0.00     0.029 A 
ATOM     44  C   UNL A   1      44.775  27.145  26.828  1.00  0.00     0.049 A 
ATOM     45  H   UNL A   1      43.309  28.173  27.890  1.00  0.00     0.167 HD
ATOM     46  C   UNL A   1      40.080  30.244  30.008  1.00  0.00     0.037 A 
ATOM     47  C   UNL A   1      45.801  28.002  26.652  1.00  0.00     0.037 A 
ATOM     48  C   UNL A   1      41.146  31.205  29.916  1.00  0.00     0.049 A 
ATOM     49  C   UNL A   1      45.690  29.410  27.180  1.00  0.00     0.074 A 
ATOM     50  C   UNL A   1      41.193  32.490  30.426  1.00  0.00     0.029 A 
ATOM     51  N   UNL A   1      42.352  30.985  29.266  1.00  0.00    -0.354 N 
ATOM     52  N   UNL A   1      44.710  29.969  27.847  1.00  0.00    -0.248 NA
ATOM     53  C   UNL A   1      46.827  30.308  26.925  1.00  0.00     0.031 C 
ATOM     54  C   UNL A   1      42.407  33.066  30.043  1.00  0.00     0.029 A 
ATOM     55  C   UNL A   1      43.141  32.120  29.345  1.00  0.00     0.049 A 
ATOM     56  H   UNL A   1      42.608  30.148  28.817  1.00  0.00     0.167 HD
ATOM     57  C   UNL A   1      45.122  31.268  28.118  1.00  0.00     0.074 A 
ATOM     58  C   UNL A   1      46.443  31.415  27.547  1.00  0.00     0.031 C 
ATOM     59  C   UNL A   1      44.463  32.247  28.786  1.00  0.00     0.037 A 
BRANCH  46  60
ATOM     60  C   UNL A   1      38.828  30.647  30.727  1.00  0.00     0.064 A 
ATOM     61  C   UNL A   1      37.781  31.272  30.033  1.00  0.00     0.173 A 
ATOM     62  C   UNL A   1      38.688  30.471  32.111  1.00  0.00     0.173 A 
ATOM     63  F   UNL A   1      37.868  31.464  28.708  1.00  0.00    -0.203 F 
ATOM     64  C   UNL A   1      36.646  31.719  30.702  1.00  0.00     0.198 A 
ATOM     65  C   UNL A   1      37.538  30.895  32.773  1.00  0.00     0.198 A 
ATOM     66  F   UNL A   1      39.654  29.863  32.816  1.00  0.00    -0.203 F 
ATOM     67  F   UNL A   1      35.672  32.342  30.023  1.00  0.00    -0.200 F 
ATOM     68  C   UNL A   1      36.524  31.528  32.070  1.00  0.00     0.200 A 
ATOM     69  F   UNL A   1      37.412  30.687  34.090  1.00  0.00    -0.200 F 
ATOM     70  F   UNL A   1      35.426  31.952  32.712  1.00  0.00    -0.200 F 
ENDBRANCH  46  60
BRANCH  47  71
ATOM     71  C   UNL A   1      47.024  27.549  25.940  1.00  0.00     0.064 A 
ATOM     72  C   UNL A   1      48.107  26.989  26.635  1.00  0.00     0.173 A 
ATOM     73  C   UNL A   1      47.137  27.678  24.550  1.00  0.00     0.173 A 
ATOM     74  F   UNL A   1      48.046  26.839  27.966  1.00  0.00    -0.203 F 
ATOM     75  C   UNL A   1      49.264  26.594  25.966  1.00  0.00     0.198 A 
ATOM     76  C   UNL A   1      48.284  27.260  23.879  1.00  0.00     0.198 A 
ATOM     77  F   UNL A   1      46.118  28.183  23.840  1.00  0.00    -0.203 F 
ATOM     78  F   UNL A   1      50.295  26.089  26.657  1.00  0.00    -0.200 F 
ATOM     79  C   UNL A   1      49.350  26.726  24.589  1.00  0.00     0.200 A 
ATOM     80  F   UNL A   1      48.354  27.364  22.545  1.00  0.00    -0.200 F 
ATOM     81  F   UNL A   1      50.458  26.334  23.944  1.00  0.00    -0.200 F 
ENDBRANCH  47  71
BRANCH  59  82
ATOM     82  C   UNL A   1      45.160  33.562  28.979  1.00  0.00     0.064 A 
ATOM     83  C   UNL A   1      45.043  34.572  28.011  1.00  0.00     0.173 A 
ATOM     84  C   UNL A   1      46.024  33.785  30.061  1.00  0.00     0.173 A 
ATOM     85  F   UNL A   1      44.238  34.403  26.952  1.00  0.00    -0.203 F 
ATOM     86  C   UNL A   1      45.785  35.746  28.106  1.00  0.00     0.198 A 
ATOM     87  C   UNL A   1      46.743  34.973  30.167  1.00  0.00     0.198 A 
ATOM     88  F   UNL A   1      46.162  32.855  31.018  1.00  0.00    -0.203 F 
ATOM     89  F   UNL A   1      45.691  36.677  27.147  1.00  0.00    -0.200 F 
ATOM     90  C   UNL A   1      46.633  35.946  29.185  1.00  0.00     0.200 A 
ATOM     91  F   UNL A   1      47.548  35.174  31.220  1.00  0.00    -0.200 F 
ATOM     92  F   UNL A   1      47.346  37.077  29.277  1.00  0.00    -0.200 F 
ENDBRANCH  59  82
ENDBRANCH  33  34
ENDBRANCH  26  28
ENDBRANCH  25  26
ENDBRANCH  24  25
ENDBRANCH  23  24
ENDBRANCH  22  23
ENDBRANCH  21  22
ENDBRANCH   1  21
TORSDOF 19
ENDMDL
