MODEL 1
REMARK VINA RESULT:     -11.1      0.000      0.000
REMARK SMILES O=C1C[N@@H+](Cc2ccc(C(=O)OCCOCCOCCOC(=O)c3ccc(-c4c5nc(c(-c6c(F)c(F)c(F)c(F)c6F)c6ccc([nH]6)c(-c6c(F)c(F)c(F)c(F)c6F)c6nc(c(-c7c(F)c(F)c(F)c(F)c7F)c7ccc4[nH]7)C=C6)C=C5)cc3)cc2)CCN1
REMARK SMILES IDX 16 1 15 2 14 3 13 4 12 5 10 6 11 7 9 8 6 9 7 10 88 11 8 12
REMARK SMILES IDX 87 13 5 14 4 15 1 16 2 17 3 18 91 19 90 20 89 22 17 24 18 25
REMARK SMILES IDX 19 26 20 27 21 28 22 29 23 30 24 31 25 32 86 33 26 34 85 35
REMARK SMILES IDX 27 36 28 37 29 38 79 39 30 40 84 41 78 42 80 43 31 44 83 45
REMARK SMILES IDX 77 46 76 47 32 49 64 50 44 51 63 52 45 53 48 54 62 55 81 56
REMARK SMILES IDX 46 57 47 58 61 60 82 61 49 62 33 63 34 64 42 65 35 66 36 67
REMARK SMILES IDX 40 68 43 69 37 70 38 71 41 72 39 73 65 74 66 75 74 76 67 77
REMARK SMILES IDX 68 78 72 79 75 80 69 81 70 82 73 83 71 84 50 85 51 86 59 87
REMARK SMILES IDX 52 88 53 89 57 90 60 91 54 92 55 93 58 94 56 95
REMARK H PARENT 91 21 4 23 80 48 48 59
REMARK Flexibility Score: inf
ROOT
ATOM      1  C   UNL A   1      34.018  35.160  28.907  1.00  0.00     0.188 C 
ENDROOT
BRANCH   1   2
ATOM      2  O   UNL A   1      33.698  33.941  28.243  1.00  0.00    -0.376 OA
BRANCH   2   3
ATOM      3  C   UNL A   1      34.712  32.967  28.012  1.00  0.00     0.202 C 
BRANCH   3   4
ATOM      4  C   UNL A   1      34.402  31.484  28.259  1.00  0.00     0.261 C 
BRANCH   4   5
ATOM      5  O   UNL A   1      34.124  30.745  27.065  1.00  0.00    -0.460 OA
BRANCH   5   6
ATOM      6  C   UNL A   1      32.806  30.472  26.847  1.00  0.00     0.338 C 
ATOM      7  O   UNL A   1      31.899  31.271  26.827  1.00  0.00    -0.246 OA
BRANCH   6   8
ATOM      8  C   UNL A   1      32.636  29.042  26.484  1.00  0.00     0.060 A 
ATOM      9  C   UNL A   1      32.511  26.385  25.631  1.00  0.00     0.006 A 
ATOM     10  C   UNL A   1      33.688  26.884  26.206  1.00  0.00     0.010 A 
ATOM     11  C   UNL A   1      31.352  27.169  25.649  1.00  0.00     0.010 A 
ATOM     12  C   UNL A   1      33.751  28.210  26.623  1.00  0.00     0.016 A 
ATOM     13  C   UNL A   1      31.423  28.509  26.034  1.00  0.00     0.016 A 
BRANCH   9  14
ATOM     14  C   UNL A   1      32.546  25.097  24.844  1.00  0.00     0.299 C 
BRANCH  14  15
ATOM     15  N   UNL A   1      31.467  24.143  25.143  1.00  0.00    -0.322 N 
ATOM     16  O   UNL A   1      32.562  22.582  28.243  1.00  0.00    -0.269 OA
ATOM     17  C   UNL A   1      32.203  22.669  27.069  1.00  0.00     0.275 C 
ATOM     18  C   UNL A   1      31.306  23.806  26.572  1.00  0.00     0.363 C 
ATOM     19  N   UNL A   1      32.528  21.679  26.185  1.00  0.00    -0.346 N 
ATOM     20  C   UNL A   1      32.245  21.727  24.769  1.00  0.00     0.177 C 
ATOM     21  H   UNL A   1      32.984  20.880  26.536  1.00  0.00     0.163 HD
ATOM     22  C   UNL A   1      31.407  22.937  24.311  1.00  0.00     0.284 C 
ATOM     23  H   UNL A   1      30.658  24.701  24.872  1.00  0.00     0.348 HD
ENDBRANCH  14  15
ENDBRANCH   9  14
ENDBRANCH   6   8
ENDBRANCH   5   6
ENDBRANCH   4   5
ENDBRANCH   3   4
ENDBRANCH   2   3
ENDBRANCH   1   2
BRANCH   1  24
ATOM     24  C   UNL A   1      33.012  35.789  29.890  1.00  0.00     0.188 C 
BRANCH  24  25
ATOM     25  O   UNL A   1      32.865  35.077  31.097  1.00  0.00    -0.376 OA
BRANCH  25  26
ATOM     26  C   UNL A   1      34.019  34.899  31.903  1.00  0.00     0.202 C 
BRANCH  26  27
ATOM     27  C   UNL A   1      34.146  33.681  32.839  1.00  0.00     0.261 C 
BRANCH  27  28
ATOM     28  O   UNL A   1      35.005  32.608  32.419  1.00  0.00    -0.460 OA
BRANCH  28  29
ATOM     29  C   UNL A   1      36.094  32.351  33.179  1.00  0.00     0.338 C 
ATOM     30  O   UNL A   1      36.211  32.527  34.377  1.00  0.00    -0.246 OA
BRANCH  29  31
ATOM     31  C   UNL A   1      37.081  31.625  32.345  1.00  0.00     0.060 A 
ATOM     32  C   UNL A   1      38.178  31.024  32.977  1.00  0.00     0.016 A 
ATOM     33  C   UNL A   1      36.943  31.551  30.957  1.00  0.00     0.016 A 
ATOM     34  C   UNL A   1      39.161  30.387  32.218  1.00  0.00     0.010 A 
ATOM     35  C   UNL A   1      37.939  30.924  30.195  1.00  0.00     0.010 A 
ATOM     36  C   UNL A   1      39.071  30.371  30.819  1.00  0.00    -0.014 A 
BRANCH  36  37
ATOM     37  C   UNL A   1      40.246  29.931  30.021  1.00  0.00     0.031 A 
ATOM     38  C   UNL A   1      41.365  30.909  29.779  1.00  0.00     0.074 A 
ATOM     39  C   UNL A   1      40.351  28.671  29.564  1.00  0.00     0.049 A 
ATOM     40  N   UNL A   1      42.503  30.739  29.153  1.00  0.00    -0.248 NA
ATOM     41  C   UNL A   1      41.174  32.265  30.319  1.00  0.00     0.031 C 
ATOM     42  C   UNL A   1      39.354  27.620  29.751  1.00  0.00     0.029 A 
ATOM     43  N   UNL A   1      41.354  28.062  28.849  1.00  0.00    -0.354 N 
ATOM     44  C   UNL A   1      43.162  31.960  29.228  1.00  0.00     0.074 A 
ATOM     45  C   UNL A   1      42.282  32.873  29.925  1.00  0.00     0.031 C 
ATOM     46  C   UNL A   1      39.794  26.493  29.162  1.00  0.00     0.029 A 
ATOM     47  C   UNL A   1      41.093  26.750  28.541  1.00  0.00     0.049 A 
ATOM     48  H   UNL A   1      42.182  28.524  28.582  1.00  0.00     0.167 HD
ATOM     49  C   UNL A   1      44.395  32.287  28.772  1.00  0.00     0.037 A 
ATOM     50  C   UNL A   1      41.819  25.861  27.833  1.00  0.00     0.037 A 
ATOM     51  C   UNL A   1      45.270  31.383  28.073  1.00  0.00     0.049 A 
ATOM     52  C   UNL A   1      43.164  26.268  27.283  1.00  0.00     0.074 A 
ATOM     53  C   UNL A   1      46.543  31.620  27.584  1.00  0.00     0.029 A 
ATOM     54  N   UNL A   1      44.957  30.070  27.753  1.00  0.00    -0.354 N 
ATOM     55  N   UNL A   1      43.796  27.411  27.395  1.00  0.00    -0.248 NA
ATOM     56  C   UNL A   1      43.900  25.251  26.517  1.00  0.00     0.031 C 
ATOM     57  C   UNL A   1      46.980  30.467  26.923  1.00  0.00     0.029 A 
ATOM     58  C   UNL A   1      46.005  29.491  27.053  1.00  0.00     0.049 A 
ATOM     59  H   UNL A   1      44.116  29.617  27.989  1.00  0.00     0.167 HD
ATOM     60  C   UNL A   1      45.014  27.241  26.747  1.00  0.00     0.074 A 
ATOM     61  C   UNL A   1      45.038  25.879  26.258  1.00  0.00     0.031 C 
ATOM     62  C   UNL A   1      46.023  28.131  26.577  1.00  0.00     0.037 A 
BRANCH  49  63
ATOM     63  C   UNL A   1      44.862  33.697  28.997  1.00  0.00     0.064 A 
ATOM     64  C   UNL A   1      44.587  34.721  28.079  1.00  0.00     0.173 A 
ATOM     65  C   UNL A   1      45.567  34.033  30.164  1.00  0.00     0.173 A 
ATOM     66  F   UNL A   1      43.929  34.449  26.941  1.00  0.00    -0.203 F 
ATOM     67  C   UNL A   1      45.024  36.024  28.306  1.00  0.00     0.198 A 
ATOM     68  C   UNL A   1      45.975  35.343  30.402  1.00  0.00     0.198 A 
ATOM     69  F   UNL A   1      45.853  33.093  31.076  1.00  0.00    -0.203 F 
ATOM     70  F   UNL A   1      44.791  36.976  27.392  1.00  0.00    -0.200 F 
ATOM     71  C   UNL A   1      45.710  36.335  29.471  1.00  0.00     0.200 A 
ATOM     72  F   UNL A   1      46.627  35.644  31.533  1.00  0.00    -0.200 F 
ATOM     73  F   UNL A   1      46.122  37.591  29.691  1.00  0.00    -0.200 F 
ENDBRANCH  49  63
BRANCH  50  74
ATOM     74  C   UNL A   1      41.296  24.488  27.602  1.00  0.00     0.064 A 
ATOM     75  C   UNL A   1      41.886  23.374  28.215  1.00  0.00     0.173 A 
ATOM     76  C   UNL A   1      40.214  24.260  26.739  1.00  0.00     0.173 A 
ATOM     77  F   UNL A   1      42.942  23.537  29.025  1.00  0.00    -0.203 F 
ATOM     78  C   UNL A   1      41.429  22.083  27.956  1.00  0.00     0.198 A 
ATOM     79  C   UNL A   1      39.739  22.971  26.504  1.00  0.00     0.198 A 
ATOM     80  F   UNL A   1      39.618  25.291  26.122  1.00  0.00    -0.203 F 
ATOM     81  F   UNL A   1      42.048  21.032  28.511  1.00  0.00    -0.200 F 
ATOM     82  C   UNL A   1      40.352  21.883  27.106  1.00  0.00     0.200 A 
ATOM     83  F   UNL A   1      38.694  22.784  25.686  1.00  0.00    -0.200 F 
ATOM     84  F   UNL A   1      39.915  20.642  26.855  1.00  0.00    -0.200 F 
ENDBRANCH  50  74
BRANCH  62  85
ATOM     85  C   UNL A   1      47.259  27.649  25.871  1.00  0.00     0.064 A 
ATOM     86  C   UNL A   1      48.353  27.117  26.570  1.00  0.00     0.173 A 
ATOM     87  C   UNL A   1      47.341  27.699  24.471  1.00  0.00     0.173 A 
ATOM     88  F   UNL A   1      48.332  27.055  27.910  1.00  0.00    -0.203 F 
ATOM     89  C   UNL A   1      49.496  26.688  25.897  1.00  0.00     0.198 A 
ATOM     90  C   UNL A   1      48.471  27.239  23.799  1.00  0.00     0.198 A 
ATOM     91  F   UNL A   1      46.320  28.188  23.750  1.00  0.00    -0.203 F 
ATOM     92  F   UNL A   1      50.550  26.239  26.590  1.00  0.00    -0.200 F 
ATOM     93  C   UNL A   1      49.551  26.745  24.513  1.00  0.00     0.200 A 
ATOM     94  F   UNL A   1      48.515  27.280  22.460  1.00  0.00    -0.200 F 
ATOM     95  F   UNL A   1      50.650  26.332  23.867  1.00  0.00    -0.200 F 
ENDBRANCH  62  85
ENDBRANCH  36  37
ENDBRANCH  29  31
ENDBRANCH  28  29
ENDBRANCH  27  28
ENDBRANCH  26  27
ENDBRANCH  25  26
ENDBRANCH  24  25
ENDBRANCH   1  24
TORSDOF 19
ENDMDL
MODEL 2
REMARK VINA RESULT:     -11.0      1.085      2.109
REMARK SMILES O=C1C[N@@H+](Cc2ccc(C(=O)OCCOCCOCCOC(=O)c3ccc(-c4c5nc(c(-c6c(F)c(F)c(F)c(F)c6F)c6ccc([nH]6)c(-c6c(F)c(F)c(F)c(F)c6F)c6nc(c(-c7c(F)c(F)c(F)c(F)c7F)c7ccc4[nH]7)C=C6)C=C5)cc3)cc2)CCN1
REMARK SMILES IDX 16 1 15 2 14 3 13 4 12 5 10 6 11 7 9 8 6 9 7 10 88 11 8 12
REMARK SMILES IDX 87 13 5 14 4 15 1 16 2 17 3 18 91 19 90 20 89 22 17 24 18 25
REMARK SMILES IDX 19 26 20 27 21 28 22 29 23 30 24 31 25 32 86 33 26 34 85 35
REMARK SMILES IDX 27 36 28 37 29 38 79 39 30 40 84 41 78 42 80 43 31 44 83 45
REMARK SMILES IDX 77 46 76 47 32 49 64 50 44 51 63 52 45 53 48 54 62 55 81 56
REMARK SMILES IDX 46 57 47 58 61 60 82 61 49 62 33 63 34 64 42 65 35 66 36 67
REMARK SMILES IDX 40 68 43 69 37 70 38 71 41 72 39 73 65 74 66 75 74 76 67 77
REMARK SMILES IDX 68 78 72 79 75 80 69 81 70 82 73 83 71 84 50 85 51 86 59 87
REMARK SMILES IDX 52 88 53 89 57 90 60 91 54 92 55 93 58 94 56 95
REMARK H PARENT 91 21 4 23 80 48 48 59
REMARK Flexibility Score: inf
ROOT
ATOM      1  C   UNL A   1      33.659  35.358  29.919  1.00  0.00     0.188 C 
ENDROOT
BRANCH   1   2
ATOM      2  O   UNL A   1      33.465  34.223  29.082  1.00  0.00    -0.376 OA
BRANCH   2   3
ATOM      3  C   UNL A   1      34.295  33.074  29.234  1.00  0.00     0.202 C 
BRANCH   3   4
ATOM      4  C   UNL A   1      34.747  32.301  27.988  1.00  0.00     0.261 C 
BRANCH   4   5
ATOM      5  O   UNL A   1      34.201  30.981  27.896  1.00  0.00    -0.460 OA
BRANCH   5   6
ATOM      6  C   UNL A   1      33.038  30.884  27.191  1.00  0.00     0.338 C 
ATOM      7  O   UNL A   1      32.245  31.773  26.983  1.00  0.00    -0.246 OA
BRANCH   6   8
ATOM      8  C   UNL A   1      32.932  29.541  26.567  1.00  0.00     0.060 A 
ATOM      9  C   UNL A   1      32.499  26.992  25.509  1.00  0.00     0.006 A 
ATOM     10  C   UNL A   1      31.608  28.034  25.218  1.00  0.00     0.010 A 
ATOM     11  C   UNL A   1      33.692  27.277  26.182  1.00  0.00     0.010 A 
ATOM     12  C   UNL A   1      31.820  29.302  25.752  1.00  0.00     0.016 A 
ATOM     13  C   UNL A   1      33.890  28.537  26.748  1.00  0.00     0.016 A 
BRANCH   9  14
ATOM     14  C   UNL A   1      32.088  25.560  25.261  1.00  0.00     0.299 C 
BRANCH  14  15
ATOM     15  N   UNL A   1      33.133  24.691  24.697  1.00  0.00    -0.322 N 
ATOM     16  O   UNL A   1      33.412  25.837  21.254  1.00  0.00    -0.269 OA
ATOM     17  C   UNL A   1      33.227  25.061  22.192  1.00  0.00     0.275 C 
ATOM     18  C   UNL A   1      33.882  25.265  23.561  1.00  0.00     0.363 C 
ATOM     19  N   UNL A   1      32.492  23.925  21.998  1.00  0.00    -0.346 N 
ATOM     20  C   UNL A   1      32.132  23.000  23.048  1.00  0.00     0.177 C 
ATOM     21  H   UNL A   1      32.189  23.723  21.083  1.00  0.00     0.163 HD
ATOM     22  C   UNL A   1      32.754  23.300  24.426  1.00  0.00     0.284 C 
ATOM     23  H   UNL A   1      33.773  24.648  25.490  1.00  0.00     0.348 HD
ENDBRANCH  14  15
ENDBRANCH   9  14
ENDBRANCH   6   8
ENDBRANCH   5   6
ENDBRANCH   4   5
ENDBRANCH   3   4
ENDBRANCH   2   3
ENDBRANCH   1   2
BRANCH   1  24
ATOM     24  C   UNL A   1      32.580  35.750  30.948  1.00  0.00     0.188 C 
BRANCH  24  25
ATOM     25  O   UNL A   1      32.651  35.029  32.158  1.00  0.00    -0.376 OA
BRANCH  25  26
ATOM     26  C   UNL A   1      33.936  34.763  32.693  1.00  0.00     0.202 C 
BRANCH  26  27
ATOM     27  C   UNL A   1      34.275  33.376  33.277  1.00  0.00     0.261 C 
BRANCH  27  28
ATOM     28  O   UNL A   1      35.302  32.614  32.622  1.00  0.00    -0.460 OA
BRANCH  28  29
ATOM     29  C   UNL A   1      36.365  32.234  33.367  1.00  0.00     0.338 C 
ATOM     30  O   UNL A   1      36.476  32.306  34.577  1.00  0.00    -0.246 OA
BRANCH  29  31
ATOM     31  C   UNL A   1      37.320  31.521  32.486  1.00  0.00     0.060 A 
ATOM     32  C   UNL A   1      38.428  30.893  33.069  1.00  0.00     0.016 A 
ATOM     33  C   UNL A   1      37.140  31.485  31.101  1.00  0.00     0.016 A 
ATOM     34  C   UNL A   1      39.382  30.266  32.265  1.00  0.00     0.010 A 
ATOM     35  C   UNL A   1      38.106  30.870  30.294  1.00  0.00     0.010 A 
ATOM     36  C   UNL A   1      39.251  30.288  30.869  1.00  0.00    -0.014 A 
BRANCH  36  37
ATOM     37  C   UNL A   1      40.397  29.859  30.026  1.00  0.00     0.031 A 
ATOM     38  C   UNL A   1      41.511  30.837  29.763  1.00  0.00     0.074 A 
ATOM     39  C   UNL A   1      40.482  28.606  29.544  1.00  0.00     0.049 A 
ATOM     40  N   UNL A   1      42.627  30.674  29.097  1.00  0.00    -0.248 NA
ATOM     41  C   UNL A   1      41.342  32.184  30.332  1.00  0.00     0.031 C 
ATOM     42  C   UNL A   1      39.488  27.555  29.746  1.00  0.00     0.029 A 
ATOM     43  N   UNL A   1      41.459  28.007  28.787  1.00  0.00    -0.354 N 
ATOM     44  C   UNL A   1      43.292  31.891  29.171  1.00  0.00     0.074 A 
ATOM     45  C   UNL A   1      42.440  32.795  29.912  1.00  0.00     0.031 C 
ATOM     46  C   UNL A   1      39.904  26.437  29.125  1.00  0.00     0.029 A 
ATOM     47  C   UNL A   1      41.183  26.700  28.465  1.00  0.00     0.049 A 
ATOM     48  H   UNL A   1      42.279  28.470  28.500  1.00  0.00     0.167 HD
ATOM     49  C   UNL A   1      44.511  32.222  28.680  1.00  0.00     0.037 A 
ATOM     50  C   UNL A   1      41.882  25.822  27.718  1.00  0.00     0.037 A 
ATOM     51  C   UNL A   1      45.360  31.328  27.938  1.00  0.00     0.049 A 
ATOM     52  C   UNL A   1      43.209  26.233  27.132  1.00  0.00     0.074 A 
ATOM     53  C   UNL A   1      46.616  31.568  27.411  1.00  0.00     0.029 A 
ATOM     54  N   UNL A   1      45.031  30.022  27.607  1.00  0.00    -0.354 N 
ATOM     55  N   UNL A   1      43.849  27.373  27.242  1.00  0.00    -0.248 NA
ATOM     56  C   UNL A   1      43.917  25.228  26.325  1.00  0.00     0.031 C 
ATOM     57  C   UNL A   1      47.027  30.425  26.717  1.00  0.00     0.029 A 
ATOM     58  C   UNL A   1      46.053  29.451  26.862  1.00  0.00     0.049 A 
ATOM     59  H   UNL A   1      44.197  29.567  27.862  1.00  0.00     0.167 HD
ATOM     60  C   UNL A   1      45.044  27.209  26.552  1.00  0.00     0.074 A 
ATOM     61  C   UNL A   1      45.048  25.856  26.039  1.00  0.00     0.031 C 
ATOM     62  C   UNL A   1      46.051  28.099  26.363  1.00  0.00     0.037 A 
BRANCH  49  63
ATOM     63  C   UNL A   1      44.991  33.626  28.914  1.00  0.00     0.064 A 
ATOM     64  C   UNL A   1      44.675  34.670  28.032  1.00  0.00     0.173 A 
ATOM     65  C   UNL A   1      45.750  33.937  30.053  1.00  0.00     0.173 A 
ATOM     66  F   UNL A   1      43.964  34.423  26.920  1.00  0.00    -0.203 F 
ATOM     67  C   UNL A   1      45.123  35.968  28.266  1.00  0.00     0.198 A 
ATOM     68  C   UNL A   1      46.171  35.241  30.300  1.00  0.00     0.198 A 
ATOM     69  F   UNL A   1      46.076  32.977  30.931  1.00  0.00    -0.203 F 
ATOM     70  F   UNL A   1      44.850  36.939  27.385  1.00  0.00    -0.200 F 
ATOM     71  C   UNL A   1      45.864  36.253  29.404  1.00  0.00     0.200 A 
ATOM     72  F   UNL A   1      46.875  35.517  31.406  1.00  0.00    -0.200 F 
ATOM     73  F   UNL A   1      46.288  37.504  29.632  1.00  0.00    -0.200 F 
ENDBRANCH  49  63
BRANCH  50  74
ATOM     74  C   UNL A   1      41.346  24.454  27.482  1.00  0.00     0.064 A 
ATOM     75  C   UNL A   1      40.222  24.245  26.671  1.00  0.00     0.173 A 
ATOM     76  C   UNL A   1      41.930  23.332  28.089  1.00  0.00     0.173 A 
ATOM     77  F   UNL A   1      39.610  25.290  26.093  1.00  0.00    -0.203 F 
ATOM     78  C   UNL A   1      39.688  22.970  26.494  1.00  0.00     0.198 A 
ATOM     79  C   UNL A   1      41.412  22.054  27.887  1.00  0.00     0.198 A 
ATOM     80  F   UNL A   1      43.002  23.478  28.880  1.00  0.00    -0.203 F 
ATOM     81  F   UNL A   1      38.579  22.807  25.760  1.00  0.00    -0.200 F 
ATOM     82  C   UNL A   1      40.288  21.875  27.097  1.00  0.00     0.200 A 
ATOM     83  F   UNL A   1      41.999  20.998  28.467  1.00  0.00    -0.200 F 
ATOM     84  F   UNL A   1      39.772  20.650  26.929  1.00  0.00    -0.200 F 
ENDBRANCH  50  74
BRANCH  62  85
ATOM     85  C   UNL A   1      47.261  27.625  25.609  1.00  0.00     0.064 A 
ATOM     86  C   UNL A   1      47.372  27.767  24.218  1.00  0.00     0.173 A 
ATOM     87  C   UNL A   1      48.338  27.041  26.294  1.00  0.00     0.173 A 
ATOM     88  F   UNL A   1      46.368  28.310  23.513  1.00  0.00    -0.203 F 
ATOM     89  C   UNL A   1      48.498  27.308  23.537  1.00  0.00     0.198 A 
ATOM     90  C   UNL A   1      49.476  26.614  25.615  1.00  0.00     0.198 A 
ATOM     91  F   UNL A   1      48.292  26.890  27.627  1.00  0.00    -0.203 F 
ATOM     92  F   UNL A   1      48.554  27.401  22.202  1.00  0.00    -0.200 F 
ATOM     93  C   UNL A   1      49.550  26.738  24.236  1.00  0.00     0.200 A 
ATOM     94  F   UNL A   1      50.499  26.077  26.294  1.00  0.00    -0.200 F 
ATOM     95  F   UNL A   1      50.633  26.297  23.580  1.00  0.00    -0.200 F 
ENDBRANCH  62  85
ENDBRANCH  36  37
ENDBRANCH  29  31
ENDBRANCH  28  29
ENDBRANCH  27  28
ENDBRANCH  26  27
ENDBRANCH  25  26
ENDBRANCH  24  25
ENDBRANCH   1  24
TORSDOF 19
ENDMDL
MODEL 3
REMARK VINA RESULT:     -10.9      5.585     11.282
REMARK SMILES O=C1C[N@@H+](Cc2ccc(C(=O)OCCOCCOCCOC(=O)c3ccc(-c4c5nc(c(-c6c(F)c(F)c(F)c(F)c6F)c6ccc([nH]6)c(-c6c(F)c(F)c(F)c(F)c6F)c6nc(c(-c7c(F)c(F)c(F)c(F)c7F)c7ccc4[nH]7)C=C6)C=C5)cc3)cc2)CCN1
REMARK SMILES IDX 16 1 15 2 14 3 13 4 12 5 10 6 11 7 9 8 6 9 7 10 88 11 8 12
REMARK SMILES IDX 87 13 5 14 4 15 1 16 2 17 3 18 91 19 90 20 89 22 17 24 18 25
REMARK SMILES IDX 19 26 20 27 21 28 22 29 23 30 24 31 25 32 86 33 26 34 85 35
REMARK SMILES IDX 27 36 28 37 29 38 79 39 30 40 84 41 78 42 80 43 31 44 83 45
REMARK SMILES IDX 77 46 76 47 32 49 64 50 44 51 63 52 45 53 48 54 62 55 81 56
REMARK SMILES IDX 46 57 47 58 61 60 82 61 49 62 33 63 34 64 42 65 35 66 36 67
REMARK SMILES IDX 40 68 43 69 37 70 38 71 41 72 39 73 65 74 66 75 74 76 67 77
REMARK SMILES IDX 68 78 72 79 75 80 69 81 70 82 73 83 71 84 50 85 51 86 59 87
REMARK SMILES IDX 52 88 53 89 57 90 60 91 54 92 55 93 58 94 56 95
REMARK H PARENT 91 21 4 23 80 48 48 59
REMARK Flexibility Score: inf
ROOT
ATOM      1  C   UNL A   1      43.735  18.812  25.006  1.00  0.00     0.188 C 
ENDROOT
BRANCH   1   2
ATOM      2  O   UNL A   1      43.395  18.827  26.389  1.00  0.00    -0.376 OA
BRANCH   2   3
ATOM      3  C   UNL A   1      42.144  19.366  26.810  1.00  0.00     0.202 C 
BRANCH   3   4
ATOM      4  C   UNL A   1      41.708  20.746  26.297  1.00  0.00     0.261 C 
BRANCH   4   5
ATOM      5  O   UNL A   1      40.317  20.830  25.974  1.00  0.00    -0.460 OA
BRANCH   5   6
ATOM      6  C   UNL A   1      39.681  21.943  26.437  1.00  0.00     0.338 C 
ATOM      7  O   UNL A   1      40.157  22.804  27.141  1.00  0.00    -0.246 OA
BRANCH   6   8
ATOM      8  C   UNL A   1      38.329  22.046  25.833  1.00  0.00     0.060 A 
ATOM      9  C   UNL A   1      35.696  22.295  24.934  1.00  0.00     0.006 A 
ATOM     10  C   UNL A   1      36.333  23.381  25.550  1.00  0.00     0.010 A 
ATOM     11  C   UNL A   1      36.438  21.153  24.616  1.00  0.00     0.010 A 
ATOM     12  C   UNL A   1      37.643  23.253  26.004  1.00  0.00     0.016 A 
ATOM     13  C   UNL A   1      37.739  21.009  25.101  1.00  0.00     0.016 A 
BRANCH   9  14
ATOM     14  C   UNL A   1      34.192  22.292  24.786  1.00  0.00     0.299 C 
BRANCH  14  15
ATOM     15  N   UNL A   1      33.492  23.421  25.418  1.00  0.00    -0.322 N 
ATOM     16  O   UNL A   1      30.206  22.054  26.177  1.00  0.00    -0.269 OA
ATOM     17  C   UNL A   1      31.049  22.807  25.689  1.00  0.00     0.275 C 
ATOM     18  C   UNL A   1      32.410  23.046  26.350  1.00  0.00     0.363 C 
ATOM     19  N   UNL A   1      30.744  23.535  24.573  1.00  0.00    -0.346 N 
ATOM     20  C   UNL A   1      31.686  24.370  23.864  1.00  0.00     0.177 C 
ATOM     21  H   UNL A   1      29.822  23.487  24.231  1.00  0.00     0.163 HD
ATOM     22  C   UNL A   1      33.068  24.509  24.532  1.00  0.00     0.284 C 
ATOM     23  H   UNL A   1      34.252  23.807  25.979  1.00  0.00     0.348 HD
ENDBRANCH  14  15
ENDBRANCH   9  14
ENDBRANCH   6   8
ENDBRANCH   5   6
ENDBRANCH   4   5
ENDBRANCH   3   4
ENDBRANCH   2   3
ENDBRANCH   1   2
BRANCH   1  24
ATOM     24  C   UNL A   1      44.650  19.908  24.426  1.00  0.00     0.188 C 
BRANCH  24  25
ATOM     25  O   UNL A   1      45.373  20.629  25.399  1.00  0.00    -0.376 OA
BRANCH  25  26
ATOM     26  C   UNL A   1      45.238  22.040  25.410  1.00  0.00     0.202 C 
BRANCH  26  27
ATOM     27  C   UNL A   1      44.584  22.779  24.225  1.00  0.00     0.261 C 
BRANCH  27  28
ATOM     28  O   UNL A   1      43.916  24.021  24.505  1.00  0.00    -0.460 OA
BRANCH  28  29
ATOM     29  C   UNL A   1      44.659  25.019  25.034  1.00  0.00     0.338 C 
ATOM     30  O   UNL A   1      45.761  25.387  24.672  1.00  0.00    -0.246 OA
BRANCH  29  31
ATOM     31  C   UNL A   1      43.825  25.744  26.023  1.00  0.00     0.060 A 
ATOM     32  C   UNL A   1      44.046  27.115  26.208  1.00  0.00     0.016 A 
ATOM     33  C   UNL A   1      42.852  25.081  26.775  1.00  0.00     0.016 A 
ATOM     34  C   UNL A   1      43.324  27.817  27.175  1.00  0.00     0.010 A 
ATOM     35  C   UNL A   1      42.139  25.784  27.757  1.00  0.00     0.010 A 
ATOM     36  C   UNL A   1      42.398  27.147  27.987  1.00  0.00    -0.014 A 
BRANCH  36  37
ATOM     37  C   UNL A   1      41.841  27.841  29.178  1.00  0.00     0.031 A 
ATOM     38  C   UNL A   1      42.558  27.707  30.495  1.00  0.00     0.074 A 
ATOM     39  C   UNL A   1      40.751  28.623  29.088  1.00  0.00     0.049 A 
ATOM     40  N   UNL A   1      42.285  28.254  31.654  1.00  0.00    -0.248 NA
ATOM     41  C   UNL A   1      43.746  26.839  30.506  1.00  0.00     0.031 C 
ATOM     42  C   UNL A   1      39.979  28.858  27.870  1.00  0.00     0.029 A 
ATOM     43  N   UNL A   1      40.107  29.368  30.045  1.00  0.00    -0.354 N 
ATOM     44  C   UNL A   1      43.267  27.801  32.526  1.00  0.00     0.074 A 
ATOM     45  C   UNL A   1      44.119  26.904  31.775  1.00  0.00     0.031 C 
ATOM     46  C   UNL A   1      38.962  29.691  28.154  1.00  0.00     0.029 A 
ATOM     47  C   UNL A   1      38.999  30.030  29.576  1.00  0.00     0.049 A 
ATOM     48  H   UNL A   1      40.410  29.422  30.981  1.00  0.00     0.167 HD
ATOM     49  C   UNL A   1      43.454  28.115  33.830  1.00  0.00     0.037 A 
ATOM     50  C   UNL A   1      38.114  30.815  30.224  1.00  0.00     0.037 A 
ATOM     51  C   UNL A   1      42.606  29.002  34.583  1.00  0.00     0.049 A 
ATOM     52  C   UNL A   1      38.309  31.102  31.692  1.00  0.00     0.074 A 
ATOM     53  C   UNL A   1      42.721  29.391  35.906  1.00  0.00     0.029 A 
ATOM     54  N   UNL A   1      41.476  29.629  34.079  1.00  0.00    -0.354 N 
ATOM     55  N   UNL A   1      39.263  30.702  32.498  1.00  0.00    -0.248 NA
ATOM     56  C   UNL A   1      37.305  31.961  32.337  1.00  0.00     0.031 C 
ATOM     57  C   UNL A   1      41.633  30.212  36.218  1.00  0.00     0.029 A 
ATOM     58  C   UNL A   1      40.872  30.385  35.073  1.00  0.00     0.049 A 
ATOM     59  H   UNL A   1      41.150  29.549  33.154  1.00  0.00     0.167 HD
ATOM     60  C   UNL A   1      38.996  31.287  33.729  1.00  0.00     0.074 A 
ATOM     61  C   UNL A   1      37.798  32.082  33.562  1.00  0.00     0.031 C 
ATOM     62  C   UNL A   1      39.683  31.180  34.894  1.00  0.00     0.037 A 
BRANCH  49  63
ATOM     63  C   UNL A   1      44.614  27.473  34.536  1.00  0.00     0.064 A 
ATOM     64  C   UNL A   1      45.851  28.122  34.663  1.00  0.00     0.173 A 
ATOM     65  C   UNL A   1      44.476  26.204  35.121  1.00  0.00     0.173 A 
ATOM     66  F   UNL A   1      46.039  29.330  34.109  1.00  0.00    -0.203 F 
ATOM     67  C   UNL A   1      46.915  27.515  35.326  1.00  0.00     0.198 A 
ATOM     68  C   UNL A   1      45.532  25.613  35.808  1.00  0.00     0.198 A 
ATOM     69  F   UNL A   1      43.313  25.541  35.032  1.00  0.00    -0.203 F 
ATOM     70  F   UNL A   1      48.101  28.134  35.393  1.00  0.00    -0.200 F 
ATOM     71  C   UNL A   1      46.752  26.265  35.904  1.00  0.00     0.200 A 
ATOM     72  F   UNL A   1      45.369  24.410  36.378  1.00  0.00    -0.200 F 
ATOM     73  F   UNL A   1      47.775  25.685  36.548  1.00  0.00    -0.200 F 
ENDBRANCH  49  63
BRANCH  50  74
ATOM     74  C   UNL A   1      36.958  31.396  29.490  1.00  0.00     0.064 A 
ATOM     75  C   UNL A   1      35.884  30.595  29.076  1.00  0.00     0.173 A 
ATOM     76  C   UNL A   1      36.919  32.759  29.161  1.00  0.00     0.173 A 
ATOM     77  F   UNL A   1      35.890  29.280  29.340  1.00  0.00    -0.203 F 
ATOM     78  C   UNL A   1      34.827  31.130  28.341  1.00  0.00     0.198 A 
ATOM     79  C   UNL A   1      35.848  33.298  28.453  1.00  0.00     0.198 A 
ATOM     80  F   UNL A   1      37.925  33.567  29.528  1.00  0.00    -0.203 F 
ATOM     81  F   UNL A   1      33.843  30.331  27.910  1.00  0.00    -0.200 F 
ATOM     82  C   UNL A   1      34.807  32.482  28.036  1.00  0.00     0.200 A 
ATOM     83  F   UNL A   1      35.830  34.607  28.165  1.00  0.00    -0.200 F 
ATOM     84  F   UNL A   1      33.793  32.995  27.327  1.00  0.00    -0.200 F 
ENDBRANCH  50  74
BRANCH  62  85
ATOM     85  C   UNL A   1      39.185  31.976  36.067  1.00  0.00     0.064 A 
ATOM     86  C   UNL A   1      39.635  33.279  36.325  1.00  0.00     0.173 A 
ATOM     87  C   UNL A   1      38.224  31.433  36.934  1.00  0.00     0.173 A 
ATOM     88  F   UNL A   1      40.560  33.843  35.534  1.00  0.00    -0.203 F 
ATOM     89  C   UNL A   1      39.170  33.994  37.427  1.00  0.00     0.198 A 
ATOM     90  C   UNL A   1      37.737  32.162  38.016  1.00  0.00     0.198 A 
ATOM     91  F   UNL A   1      37.750  30.194  36.730  1.00  0.00    -0.203 F 
ATOM     92  F   UNL A   1      39.659  35.214  37.686  1.00  0.00    -0.200 F 
ATOM     93  C   UNL A   1      38.218  33.437  38.268  1.00  0.00     0.200 A 
ATOM     94  F   UNL A   1      36.805  31.628  38.818  1.00  0.00    -0.200 F 
ATOM     95  F   UNL A   1      37.771  34.127  39.327  1.00  0.00    -0.200 F 
ENDBRANCH  62  85
ENDBRANCH  36  37
ENDBRANCH  29  31
ENDBRANCH  28  29
ENDBRANCH  27  28
ENDBRANCH  26  27
ENDBRANCH  25  26
ENDBRANCH  24  25
ENDBRANCH   1  24
TORSDOF 19
ENDMDL
