MODEL 1
REMARK VINA RESULT:     -10.3      0.000      0.000
REMARK SMILES C[C@H](C(=O)OCCOCCOCCOC(=O)c1ccc(-c2c3nc(c(-c4c(F)c(F)c(F)c(F)c4F)c4ccc([nH]4)c(-c4c(F)c(F)c(F)c(F)c4F)c4nc(c(-c5c(F)c(F)c(F)c(F)c5F)c5ccc2[nH]5)C=C4)C=C3)cc1)c1ccc(-c2ccccc2)c(F)c1
REMARK SMILES IDX 9 1 8 2 7 3 6 4 5 5 3 6 4 7 2 8 1 9 80 10 81 11 92 12 82 13
REMARK SMILES IDX 90 14 83 15 91 16 84 17 85 18 89 19 86 20 88 21 87 22 10 23
REMARK SMILES IDX 11 24 12 25 13 26 14 27 15 28 16 29 17 30 18 31 79 32 19 33
REMARK SMILES IDX 78 34 20 35 21 36 22 37 72 38 23 39 77 40 71 41 73 42 24 43
REMARK SMILES IDX 76 44 70 45 69 46 25 48 57 49 37 50 56 51 38 52 41 53 55 54
REMARK SMILES IDX 74 55 39 56 40 57 54 59 75 60 42 61 26 62 27 63 35 64 28 65
REMARK SMILES IDX 29 66 33 67 36 68 30 69 31 70 34 71 32 72 58 73 59 74 67 75
REMARK SMILES IDX 60 76 61 77 65 78 68 79 62 80 63 81 66 82 64 83 43 84 44 85
REMARK SMILES IDX 52 86 45 87 46 88 50 89 53 90 47 91 48 92 51 93 49 94
REMARK H PARENT 73 47 41 58
REMARK Flexibility Score: inf
ROOT
ATOM      1  C   UNL A   1      32.717  36.435  30.885  1.00  0.00     0.188 C 
ENDROOT
BRANCH   1   2
ATOM      2  O   UNL A   1      33.245  37.671  31.347  1.00  0.00    -0.376 OA
BRANCH   2   3
ATOM      3  C   UNL A   1      33.929  37.705  32.597  1.00  0.00     0.202 C 
BRANCH   3   4
ATOM      4  C   UNL A   1      34.138  36.376  33.348  1.00  0.00     0.261 C 
BRANCH   4   5
ATOM      5  O   UNL A   1      35.366  35.669  33.046  1.00  0.00    -0.463 OA
BRANCH   5   6
ATOM      6  C   UNL A   1      35.620  34.534  33.754  1.00  0.00     0.313 C 
ATOM      7  O   UNL A   1      35.315  34.390  34.936  1.00  0.00    -0.252 OA
BRANCH   6   8
ATOM      8  C   UNL A   1      36.241  33.375  32.954  1.00  0.00     0.126 C 
ATOM      9  C   UNL A   1      35.117  32.665  32.179  1.00  0.00     0.025 C 
BRANCH   8  10
ATOM     10  C   UNL A   1      37.497  33.650  32.126  1.00  0.00    -0.031 A 
ATOM     11  C   UNL A   1      37.455  33.450  30.737  1.00  0.00     0.005 A 
ATOM     12  C   UNL A   1      38.684  34.180  32.662  1.00  0.00     0.044 A 
ATOM     13  C   UNL A   1      38.555  33.762  29.923  1.00  0.00     0.012 A 
ATOM     14  C   UNL A   1      39.789  34.454  31.849  1.00  0.00     0.131 A 
ATOM     15  C   UNL A   1      39.746  34.262  30.468  1.00  0.00     0.017 A 
ATOM     16  F   UNL A   1      40.898  34.934  32.433  1.00  0.00    -0.206 F 
BRANCH  15  17
ATOM     17  C   UNL A   1      40.890  34.581  29.604  1.00  0.00    -0.015 A 
ATOM     18  C   UNL A   1      40.808  35.617  28.661  1.00  0.00     0.009 A 
ATOM     19  C   UNL A   1      42.085  33.849  29.687  1.00  0.00     0.009 A 
ATOM     20  C   UNL A   1      41.885  35.907  27.817  1.00  0.00     0.001 A 
ATOM     21  C   UNL A   1      43.160  34.135  28.840  1.00  0.00     0.001 A 
ATOM     22  C   UNL A   1      43.058  35.162  27.904  1.00  0.00     0.000 A 
ENDBRANCH  15  17
ENDBRANCH   8  10
ENDBRANCH   6   8
ENDBRANCH   5   6
ENDBRANCH   4   5
ENDBRANCH   3   4
ENDBRANCH   2   3
ENDBRANCH   1   2
BRANCH   1  23
ATOM     23  C   UNL A   1      32.922  36.052  29.415  1.00  0.00     0.188 C 
BRANCH  23  24
ATOM     24  O   UNL A   1      32.606  34.710  29.124  1.00  0.00    -0.376 OA
BRANCH  24  25
ATOM     25  C   UNL A   1      33.359  34.068  28.114  1.00  0.00     0.202 C 
BRANCH  25  26
ATOM     26  C   UNL A   1      34.629  33.382  28.636  1.00  0.00     0.261 C 
BRANCH  26  27
ATOM     27  O   UNL A   1      35.196  32.391  27.758  1.00  0.00    -0.460 OA
BRANCH  27  28
ATOM     28  C   UNL A   1      34.874  31.099  28.002  1.00  0.00     0.338 C 
ATOM     29  O   UNL A   1      33.797  30.560  27.802  1.00  0.00    -0.246 OA
BRANCH  28  30
ATOM     30  C   UNL A   1      36.123  30.375  28.333  1.00  0.00     0.060 A 
ATOM     31  C   UNL A   1      36.256  29.784  29.599  1.00  0.00     0.016 A 
ATOM     32  C   UNL A   1      37.147  30.258  27.392  1.00  0.00     0.016 A 
ATOM     33  C   UNL A   1      37.425  29.097  29.934  1.00  0.00     0.010 A 
ATOM     34  C   UNL A   1      38.325  29.589  27.737  1.00  0.00     0.010 A 
ATOM     35  C   UNL A   1      38.484  29.031  29.019  1.00  0.00    -0.014 A 
BRANCH  35  36
ATOM     36  C   UNL A   1      39.822  28.549  29.451  1.00  0.00     0.031 A 
ATOM     37  C   UNL A   1      40.608  29.396  30.414  1.00  0.00     0.074 A 
ATOM     38  C   UNL A   1      40.336  27.391  29.003  1.00  0.00     0.049 A 
ATOM     39  N   UNL A   1      41.827  29.240  30.861  1.00  0.00    -0.248 NA
ATOM     40  C   UNL A   1      39.921  30.586  30.940  1.00  0.00     0.031 C 
ATOM     41  C   UNL A   1      39.665  26.456  28.105  1.00  0.00     0.029 A 
ATOM     42  N   UNL A   1      41.562  26.814  29.236  1.00  0.00    -0.354 N 
ATOM     43  C   UNL A   1      42.056  30.314  31.712  1.00  0.00     0.074 A 
ATOM     44  C   UNL A   1      40.864  31.133  31.692  1.00  0.00     0.031 C 
ATOM     45  C   UNL A   1      40.495  25.430  27.845  1.00  0.00     0.029 A 
ATOM     46  C   UNL A   1      41.769  25.656  28.528  1.00  0.00     0.049 A 
ATOM     47  H   UNL A   1      42.229  27.195  29.853  1.00  0.00     0.167 HD
ATOM     48  C   UNL A   1      43.158  30.588  32.450  1.00  0.00     0.037 A 
ATOM     49  C   UNL A   1      42.872  24.887  28.418  1.00  0.00     0.037 A 
ATOM     50  C   UNL A   1      44.347  29.779  32.464  1.00  0.00     0.049 A 
ATOM     51  C   UNL A   1      44.120  25.262  29.180  1.00  0.00     0.074 A 
ATOM     52  C   UNL A   1      45.513  29.970  33.187  1.00  0.00     0.029 A 
ATOM     53  N   UNL A   1      44.529  28.628  31.711  1.00  0.00    -0.354 N 
ATOM     54  N   UNL A   1      44.325  26.266  29.997  1.00  0.00    -0.248 NA
ATOM     55  C   UNL A   1      45.291  24.388  29.007  1.00  0.00     0.031 C 
ATOM     56  C   UNL A   1      46.421  28.971  32.823  1.00  0.00     0.029 A 
ATOM     57  C   UNL A   1      45.798  28.115  31.930  1.00  0.00     0.049 A 
ATOM     58  H   UNL A   1      43.856  28.234  31.110  1.00  0.00     0.167 HD
ATOM     59  C   UNL A   1      45.629  26.128  30.458  1.00  0.00     0.074 A 
ATOM     60  C   UNL A   1      46.164  24.934  29.841  1.00  0.00     0.031 C 
ATOM     61  C   UNL A   1      46.320  26.918  31.317  1.00  0.00     0.037 A 
BRANCH  48  62
ATOM     62  C   UNL A   1      43.138  31.840  33.281  1.00  0.00     0.064 A 
ATOM     63  C   UNL A   1      43.780  33.016  32.862  1.00  0.00     0.173 A 
ATOM     64  C   UNL A   1      42.445  31.870  34.501  1.00  0.00     0.173 A 
ATOM     65  F   UNL A   1      44.467  33.038  31.711  1.00  0.00    -0.203 F 
ATOM     66  C   UNL A   1      43.755  34.165  33.650  1.00  0.00     0.198 A 
ATOM     67  C   UNL A   1      42.394  33.031  35.269  1.00  0.00     0.198 A 
ATOM     68  F   UNL A   1      41.812  30.775  34.947  1.00  0.00    -0.203 F 
ATOM     69  F   UNL A   1      44.422  35.259  33.257  1.00  0.00    -0.200 F 
ATOM     70  C   UNL A   1      43.057  34.174  34.848  1.00  0.00     0.200 A 
ATOM     71  F   UNL A   1      41.705  33.041  36.418  1.00  0.00    -0.200 F 
ATOM     72  F   UNL A   1      43.028  35.281  35.601  1.00  0.00    -0.200 F 
ENDBRANCH  48  62
BRANCH  49  73
ATOM     73  C   UNL A   1      42.861  23.693  27.528  1.00  0.00     0.064 A 
ATOM     74  C   UNL A   1      42.450  22.439  28.003  1.00  0.00     0.173 A 
ATOM     75  C   UNL A   1      43.291  23.775  26.196  1.00  0.00     0.173 A 
ATOM     76  F   UNL A   1      42.059  22.301  29.278  1.00  0.00    -0.203 F 
ATOM     77  C   UNL A   1      42.491  21.310  27.185  1.00  0.00     0.198 A 
ATOM     78  C   UNL A   1      43.299  22.653  25.369  1.00  0.00     0.198 A 
ATOM     79  F   UNL A   1      43.703  24.948  25.694  1.00  0.00    -0.203 F 
ATOM     80  F   UNL A   1      42.147  20.114  27.681  1.00  0.00    -0.200 F 
ATOM     81  C   UNL A   1      42.908  21.420  25.867  1.00  0.00     0.200 A 
ATOM     82  F   UNL A   1      43.695  22.766  24.094  1.00  0.00    -0.200 F 
ATOM     83  F   UNL A   1      42.946  20.335  25.081  1.00  0.00    -0.200 F 
ENDBRANCH  49  73
BRANCH  61  84
ATOM     84  C   UNL A   1      47.716  26.497  31.686  1.00  0.00     0.064 A 
ATOM     85  C   UNL A   1      47.968  25.602  32.737  1.00  0.00     0.173 A 
ATOM     86  C   UNL A   1      48.816  26.961  30.946  1.00  0.00     0.173 A 
ATOM     87  F   UNL A   1      46.957  25.135  33.485  1.00  0.00    -0.203 F 
ATOM     88  C   UNL A   1      49.269  25.211  33.050  1.00  0.00     0.198 A 
ATOM     89  C   UNL A   1      50.110  26.541  31.239  1.00  0.00     0.198 A 
ATOM     90  F   UNL A   1      48.632  27.811  29.925  1.00  0.00    -0.203 F 
ATOM     91  F   UNL A   1      49.489  24.396  34.091  1.00  0.00    -0.200 F 
ATOM     92  C   UNL A   1      50.337  25.674  32.297  1.00  0.00     0.200 A 
ATOM     93  F   UNL A   1      51.138  26.975  30.496  1.00  0.00    -0.200 F 
ATOM     94  F   UNL A   1      51.585  25.288  32.592  1.00  0.00    -0.200 F 
ENDBRANCH  61  84
ENDBRANCH  35  36
ENDBRANCH  28  30
ENDBRANCH  27  28
ENDBRANCH  26  27
ENDBRANCH  25  26
ENDBRANCH  24  25
ENDBRANCH  23  24
ENDBRANCH   1  23
TORSDOF 19
ENDMDL
MODEL 2
REMARK VINA RESULT:      -9.9      1.405      3.253
REMARK SMILES C[C@H](C(=O)OCCOCCOCCOC(=O)c1ccc(-c2c3nc(c(-c4c(F)c(F)c(F)c(F)c4F)c4ccc([nH]4)c(-c4c(F)c(F)c(F)c(F)c4F)c4nc(c(-c5c(F)c(F)c(F)c(F)c5F)c5ccc2[nH]5)C=C4)C=C3)cc1)c1ccc(-c2ccccc2)c(F)c1
REMARK SMILES IDX 9 1 8 2 7 3 6 4 5 5 3 6 4 7 2 8 1 9 80 10 81 11 92 12 82 13
REMARK SMILES IDX 90 14 83 15 91 16 84 17 85 18 89 19 86 20 88 21 87 22 10 23
REMARK SMILES IDX 11 24 12 25 13 26 14 27 15 28 16 29 17 30 18 31 79 32 19 33
REMARK SMILES IDX 78 34 20 35 21 36 22 37 72 38 23 39 77 40 71 41 73 42 24 43
REMARK SMILES IDX 76 44 70 45 69 46 25 48 57 49 37 50 56 51 38 52 41 53 55 54
REMARK SMILES IDX 74 55 39 56 40 57 54 59 75 60 42 61 26 62 27 63 35 64 28 65
REMARK SMILES IDX 29 66 33 67 36 68 30 69 31 70 34 71 32 72 58 73 59 74 67 75
REMARK SMILES IDX 60 76 61 77 65 78 68 79 62 80 63 81 66 82 64 83 43 84 44 85
REMARK SMILES IDX 52 86 45 87 46 88 50 89 53 90 47 91 48 92 51 93 49 94
REMARK H PARENT 73 47 41 58
REMARK Flexibility Score: inf
ROOT
ATOM      1  C   UNL A   1      32.360  36.410  30.976  1.00  0.00     0.188 C 
ENDROOT
BRANCH   1   2
ATOM      2  O   UNL A   1      32.908  37.543  31.637  1.00  0.00    -0.376 OA
BRANCH   2   3
ATOM      3  C   UNL A   1      34.028  37.364  32.499  1.00  0.00     0.202 C 
BRANCH   3   4
ATOM      4  C   UNL A   1      34.151  36.033  33.265  1.00  0.00     0.261 C 
BRANCH   4   5
ATOM      5  O   UNL A   1      35.500  35.536  33.451  1.00  0.00    -0.463 OA
BRANCH   5   6
ATOM      6  C   UNL A   1      35.638  34.229  33.807  1.00  0.00     0.313 C 
ATOM      7  O   UNL A   1      35.174  33.757  34.842  1.00  0.00    -0.252 OA
BRANCH   6   8
ATOM      8  C   UNL A   1      36.342  33.329  32.777  1.00  0.00     0.126 C 
ATOM      9  C   UNL A   1      36.767  34.200  31.583  1.00  0.00     0.025 C 
BRANCH   8  10
ATOM     10  C   UNL A   1      37.426  32.367  33.268  1.00  0.00    -0.031 A 
ATOM     11  C   UNL A   1      37.302  30.998  32.985  1.00  0.00     0.005 A 
ATOM     12  C   UNL A   1      38.599  32.783  33.921  1.00  0.00     0.044 A 
ATOM     13  C   UNL A   1      38.306  30.086  33.345  1.00  0.00     0.012 A 
ATOM     14  C   UNL A   1      39.579  31.864  34.310  1.00  0.00     0.131 A 
ATOM     15  C   UNL A   1      39.460  30.503  34.023  1.00  0.00     0.017 A 
ATOM     16  F   UNL A   1      40.662  32.328  34.953  1.00  0.00    -0.206 F 
BRANCH  15  17
ATOM     17  C   UNL A   1      40.501  29.537  34.397  1.00  0.00    -0.015 A 
ATOM     18  C   UNL A   1      41.040  28.660  33.442  1.00  0.00     0.009 A 
ATOM     19  C   UNL A   1      40.970  29.453  35.717  1.00  0.00     0.009 A 
ATOM     20  C   UNL A   1      42.011  27.720  33.798  1.00  0.00     0.001 A 
ATOM     21  C   UNL A   1      41.937  28.510  36.075  1.00  0.00     0.001 A 
ATOM     22  C   UNL A   1      42.455  27.642  35.116  1.00  0.00     0.000 A 
ENDBRANCH  15  17
ENDBRANCH   8  10
ENDBRANCH   6   8
ENDBRANCH   5   6
ENDBRANCH   4   5
ENDBRANCH   3   4
ENDBRANCH   2   3
ENDBRANCH   1   2
BRANCH   1  23
ATOM     23  C   UNL A   1      32.927  36.011  29.610  1.00  0.00     0.188 C 
BRANCH  23  24
ATOM     24  O   UNL A   1      32.656  34.677  29.245  1.00  0.00    -0.376 OA
BRANCH  24  25
ATOM     25  C   UNL A   1      33.418  34.122  28.192  1.00  0.00     0.202 C 
BRANCH  25  26
ATOM     26  C   UNL A   1      34.567  33.225  28.670  1.00  0.00     0.261 C 
BRANCH  26  27
ATOM     27  O   UNL A   1      35.008  32.234  27.722  1.00  0.00    -0.460 OA
BRANCH  27  28
ATOM     28  C   UNL A   1      34.764  30.939  28.029  1.00  0.00     0.338 C 
ATOM     29  O   UNL A   1      33.698  30.352  27.942  1.00  0.00    -0.246 OA
BRANCH  28  30
ATOM     30  C   UNL A   1      36.067  30.276  28.264  1.00  0.00     0.060 A 
ATOM     31  C   UNL A   1      36.322  29.693  29.515  1.00  0.00     0.016 A 
ATOM     32  C   UNL A   1      37.023  30.206  27.250  1.00  0.00     0.016 A 
ATOM     33  C   UNL A   1      37.544  29.063  29.762  1.00  0.00     0.010 A 
ATOM     34  C   UNL A   1      38.254  29.594  27.505  1.00  0.00     0.010 A 
ATOM     35  C   UNL A   1      38.533  29.045  28.770  1.00  0.00    -0.014 A 
BRANCH  35  36
ATOM     36  C   UNL A   1      39.921  28.628  29.101  1.00  0.00     0.031 A 
ATOM     37  C   UNL A   1      40.795  29.593  29.856  1.00  0.00     0.074 A 
ATOM     38  C   UNL A   1      40.404  27.427  28.741  1.00  0.00     0.049 A 
ATOM     39  N   UNL A   1      42.060  29.499  30.175  1.00  0.00    -0.248 NA
ATOM     40  C   UNL A   1      40.149  30.834  30.308  1.00  0.00     0.031 C 
ATOM     41  C   UNL A   1      39.654  26.384  28.048  1.00  0.00     0.029 A 
ATOM     42  N   UNL A   1      41.660  26.890  28.901  1.00  0.00    -0.354 N 
ATOM     43  C   UNL A   1      42.363  30.672  30.856  1.00  0.00     0.074 A 
ATOM     44  C   UNL A   1      41.161  31.475  30.874  1.00  0.00     0.031 C 
ATOM     45  C   UNL A   1      40.469  25.338  27.822  1.00  0.00     0.029 A 
ATOM     46  C   UNL A   1      41.808  25.655  28.320  1.00  0.00     0.049 A 
ATOM     47  H   UNL A   1      42.385  27.348  29.385  1.00  0.00     0.167 HD
ATOM     48  C   UNL A   1      43.536  31.042  31.423  1.00  0.00     0.037 A 
ATOM     49  C   UNL A   1      42.906  24.884  28.178  1.00  0.00     0.037 A 
ATOM     50  C   UNL A   1      44.735  30.247  31.399  1.00  0.00     0.049 A 
ATOM     51  C   UNL A   1      44.225  25.357  28.740  1.00  0.00     0.074 A 
ATOM     52  C   UNL A   1      45.971  30.533  31.953  1.00  0.00     0.029 A 
ATOM     53  N   UNL A   1      44.853  29.013  30.777  1.00  0.00    -0.354 N 
ATOM     54  N   UNL A   1      44.501  26.456  29.399  1.00  0.00    -0.248 NA
ATOM     55  C   UNL A   1      45.386  24.475  28.542  1.00  0.00     0.031 C 
ATOM     56  C   UNL A   1      46.852  29.501  31.612  1.00  0.00     0.029 A 
ATOM     57  C   UNL A   1      46.149  28.538  30.909  1.00  0.00     0.049 A 
ATOM     58  H   UNL A   1      44.124  28.543  30.310  1.00  0.00     0.167 HD
ATOM     59  C   UNL A   1      45.852  26.383  29.720  1.00  0.00     0.074 A 
ATOM     60  C   UNL A   1      46.337  25.125  29.196  1.00  0.00     0.031 C 
ATOM     61  C   UNL A   1      46.620  27.278  30.391  1.00  0.00     0.037 A 
BRANCH  48  62
ATOM     62  C   UNL A   1      43.586  32.387  32.092  1.00  0.00     0.064 A 
ATOM     63  C   UNL A   1      43.472  32.525  33.484  1.00  0.00     0.173 A 
ATOM     64  C   UNL A   1      43.776  33.550  31.331  1.00  0.00     0.173 A 
ATOM     65  F   UNL A   1      43.275  31.446  34.257  1.00  0.00    -0.203 F 
ATOM     66  C   UNL A   1      43.514  33.781  34.085  1.00  0.00     0.198 A 
ATOM     67  C   UNL A   1      43.853  34.801  31.939  1.00  0.00     0.198 A 
ATOM     68  F   UNL A   1      43.895  33.475  29.997  1.00  0.00    -0.203 F 
ATOM     69  F   UNL A   1      43.346  33.894  35.410  1.00  0.00    -0.200 F 
ATOM     70  C   UNL A   1      43.712  34.916  33.314  1.00  0.00     0.200 A 
ATOM     71  F   UNL A   1      44.060  35.894  31.193  1.00  0.00    -0.200 F 
ATOM     72  F   UNL A   1      43.760  36.123  33.894  1.00  0.00    -0.200 F 
ENDBRANCH  48  62
BRANCH  49  73
ATOM     73  C   UNL A   1      42.818  23.589  27.449  1.00  0.00     0.064 A 
ATOM     74  C   UNL A   1      43.215  23.484  26.108  1.00  0.00     0.173 A 
ATOM     75  C   UNL A   1      42.307  22.439  28.067  1.00  0.00     0.173 A 
ATOM     76  F   UNL A   1      43.682  24.562  25.461  1.00  0.00    -0.203 F 
ATOM     77  C   UNL A   1      43.083  22.284  25.409  1.00  0.00     0.198 A 
ATOM     78  C   UNL A   1      42.207  21.232  27.379  1.00  0.00     0.198 A 
ATOM     79  F   UNL A   1      41.905  22.486  29.346  1.00  0.00    -0.203 F 
ATOM     80  F   UNL A   1      43.417  22.227  24.113  1.00  0.00    -0.200 F 
ATOM     81  C   UNL A   1      42.587  21.158  26.047  1.00  0.00     0.200 A 
ATOM     82  F   UNL A   1      41.736  20.144  28.002  1.00  0.00    -0.200 F 
ATOM     83  F   UNL A   1      42.462  20.005  25.376  1.00  0.00    -0.200 F 
ENDBRANCH  49  73
BRANCH  61  84
ATOM     84  C   UNL A   1      48.058  26.913  30.645  1.00  0.00     0.064 A 
ATOM     85  C   UNL A   1      49.096  27.360  29.815  1.00  0.00     0.173 A 
ATOM     86  C   UNL A   1      48.405  26.140  31.765  1.00  0.00     0.173 A 
ATOM     87  F   UNL A   1      48.821  28.092  28.724  1.00  0.00    -0.203 F 
ATOM     88  C   UNL A   1      50.422  27.024  30.080  1.00  0.00     0.198 A 
ATOM     89  C   UNL A   1      49.733  25.836  32.047  1.00  0.00     0.198 A 
ATOM     90  F   UNL A   1      47.454  25.693  32.599  1.00  0.00    -0.203 F 
ATOM     91  F   UNL A   1      51.392  27.420  29.243  1.00  0.00    -0.200 F 
ATOM     92  C   UNL A   1      50.740  26.270  31.198  1.00  0.00     0.200 A 
ATOM     93  F   UNL A   1      50.040  25.124  33.140  1.00  0.00    -0.200 F 
ATOM     94  F   UNL A   1      52.017  25.957  31.457  1.00  0.00    -0.200 F 
ENDBRANCH  61  84
ENDBRANCH  35  36
ENDBRANCH  28  30
ENDBRANCH  27  28
ENDBRANCH  26  27
ENDBRANCH  25  26
ENDBRANCH  24  25
ENDBRANCH  23  24
ENDBRANCH   1  23
TORSDOF 19
ENDMDL
MODEL 3
REMARK VINA RESULT:      -9.8      5.531     11.334
REMARK SMILES C[C@H](C(=O)OCCOCCOCCOC(=O)c1ccc(-c2c3nc(c(-c4c(F)c(F)c(F)c(F)c4F)c4ccc([nH]4)c(-c4c(F)c(F)c(F)c(F)c4F)c4nc(c(-c5c(F)c(F)c(F)c(F)c5F)c5ccc2[nH]5)C=C4)C=C3)cc1)c1ccc(-c2ccccc2)c(F)c1
REMARK SMILES IDX 9 1 8 2 7 3 6 4 5 5 3 6 4 7 2 8 1 9 80 10 81 11 92 12 82 13
REMARK SMILES IDX 90 14 83 15 91 16 84 17 85 18 89 19 86 20 88 21 87 22 10 23
REMARK SMILES IDX 11 24 12 25 13 26 14 27 15 28 16 29 17 30 18 31 79 32 19 33
REMARK SMILES IDX 78 34 20 35 21 36 22 37 72 38 23 39 77 40 71 41 73 42 24 43
REMARK SMILES IDX 76 44 70 45 69 46 25 48 57 49 37 50 56 51 38 52 41 53 55 54
REMARK SMILES IDX 74 55 39 56 40 57 54 59 75 60 42 61 26 62 27 63 35 64 28 65
REMARK SMILES IDX 29 66 33 67 36 68 30 69 31 70 34 71 32 72 58 73 59 74 67 75
REMARK SMILES IDX 60 76 61 77 65 78 68 79 62 80 63 81 66 82 64 83 43 84 44 85
REMARK SMILES IDX 52 86 45 87 46 88 50 89 53 90 47 91 48 92 51 93 49 94
REMARK H PARENT 73 47 41 58
REMARK Flexibility Score: inf
ROOT
ATOM      1  C   UNL A   1      36.741  23.449  24.952  1.00  0.00     0.188 C 
ENDROOT
BRANCH   1   2
ATOM      2  O   UNL A   1      35.630  23.794  25.768  1.00  0.00    -0.376 OA
BRANCH   2   3
ATOM      3  C   UNL A   1      34.745  22.765  26.201  1.00  0.00     0.202 C 
BRANCH   3   4
ATOM      4  C   UNL A   1      33.344  23.171  26.697  1.00  0.00     0.261 C 
BRANCH   4   5
ATOM      5  O   UNL A   1      32.882  24.478  26.274  1.00  0.00    -0.463 OA
BRANCH   5   6
ATOM      6  C   UNL A   1      31.603  24.567  25.813  1.00  0.00     0.313 C 
ATOM      7  O   UNL A   1      30.615  24.451  26.534  1.00  0.00    -0.252 OA
BRANCH   6   8
ATOM      8  C   UNL A   1      31.455  24.922  24.323  1.00  0.00     0.126 C 
ATOM      9  C   UNL A   1      30.847  23.711  23.595  1.00  0.00     0.025 C 
BRANCH   8  10
ATOM     10  C   UNL A   1      30.818  26.262  23.952  1.00  0.00    -0.031 A 
ATOM     11  C   UNL A   1      31.646  27.329  23.571  1.00  0.00     0.005 A 
ATOM     12  C   UNL A   1      29.429  26.473  23.885  1.00  0.00     0.044 A 
ATOM     13  C   UNL A   1      31.107  28.553  23.147  1.00  0.00     0.012 A 
ATOM     14  C   UNL A   1      28.899  27.707  23.496  1.00  0.00     0.131 A 
ATOM     15  C   UNL A   1      29.722  28.767  23.111  1.00  0.00     0.017 A 
ATOM     16  F   UNL A   1      27.565  27.845  23.480  1.00  0.00    -0.206 F 
BRANCH  15  17
ATOM     17  C   UNL A   1      29.173  30.054  22.668  1.00  0.00    -0.015 A 
ATOM     18  C   UNL A   1      28.998  31.110  23.577  1.00  0.00     0.009 A 
ATOM     19  C   UNL A   1      28.791  30.257  21.332  1.00  0.00     0.009 A 
ATOM     20  C   UNL A   1      28.450  32.329  23.166  1.00  0.00     0.001 A 
ATOM     21  C   UNL A   1      28.238  31.473  20.922  1.00  0.00     0.001 A 
ATOM     22  C   UNL A   1      28.065  32.507  21.840  1.00  0.00     0.000 A 
ENDBRANCH  15  17
ENDBRANCH   8  10
ENDBRANCH   6   8
ENDBRANCH   5   6
ENDBRANCH   4   5
ENDBRANCH   3   4
ENDBRANCH   2   3
ENDBRANCH   1   2
BRANCH   1  23
ATOM     23  C   UNL A   1      36.883  21.998  24.480  1.00  0.00     0.188 C 
BRANCH  23  24
ATOM     24  O   UNL A   1      37.602  21.174  25.369  1.00  0.00    -0.376 OA
BRANCH  24  25
ATOM     25  C   UNL A   1      38.044  19.922  24.885  1.00  0.00     0.202 C 
BRANCH  25  26
ATOM     26  C   UNL A   1      39.279  19.381  25.617  1.00  0.00     0.261 C 
BRANCH  26  27
ATOM     27  O   UNL A   1      40.315  20.349  25.872  1.00  0.00    -0.460 OA
BRANCH  27  28
ATOM     28  C   UNL A   1      40.776  20.435  27.141  1.00  0.00     0.338 C 
ATOM     29  O   UNL A   1      41.128  19.512  27.859  1.00  0.00    -0.246 OA
BRANCH  28  30
ATOM     30  C   UNL A   1      41.014  21.866  27.442  1.00  0.00     0.060 A 
ATOM     31  C   UNL A   1      40.318  22.842  26.712  1.00  0.00     0.016 A 
ATOM     32  C   UNL A   1      41.898  22.242  28.453  1.00  0.00     0.016 A 
ATOM     33  C   UNL A   1      40.526  24.198  26.976  1.00  0.00     0.010 A 
ATOM     34  C   UNL A   1      42.122  23.601  28.701  1.00  0.00     0.010 A 
ATOM     35  C   UNL A   1      41.461  24.586  27.945  1.00  0.00    -0.014 A 
BRANCH  35  36
ATOM     36  C   UNL A   1      41.893  26.004  28.047  1.00  0.00     0.031 A 
ATOM     37  C   UNL A   1      43.235  26.383  27.482  1.00  0.00     0.074 A 
ATOM     38  C   UNL A   1      41.122  26.939  28.628  1.00  0.00     0.049 A 
ATOM     39  N   UNL A   1      43.870  27.526  27.534  1.00  0.00    -0.248 NA
ATOM     40  C   UNL A   1      43.958  25.322  26.765  1.00  0.00     0.031 C 
ATOM     41  C   UNL A   1      39.787  26.717  29.174  1.00  0.00     0.029 A 
ATOM     42  N   UNL A   1      41.368  28.270  28.868  1.00  0.00    -0.354 N 
ATOM     43  C   UNL A   1      45.070  27.319  26.865  1.00  0.00     0.074 A 
ATOM     44  C   UNL A   1      45.090  25.934  26.448  1.00  0.00     0.031 C 
ATOM     45  C   UNL A   1      39.336  27.869  29.705  1.00  0.00     0.029 A 
ATOM     46  C   UNL A   1      40.369  28.897  29.571  1.00  0.00     0.049 A 
ATOM     47  H   UNL A   1      42.184  28.731  28.565  1.00  0.00     0.167 HD
ATOM     48  C   UNL A   1      46.062  28.206  26.614  1.00  0.00     0.037 A 
ATOM     49  C   UNL A   1      40.309  30.146  30.075  1.00  0.00     0.037 A 
ATOM     50  C   UNL A   1      46.047  29.581  27.036  1.00  0.00     0.049 A 
ATOM     51  C   UNL A   1      41.467  31.091  29.861  1.00  0.00     0.074 A 
ATOM     52  C   UNL A   1      47.003  30.560  26.822  1.00  0.00     0.029 A 
ATOM     53  N   UNL A   1      45.029  30.171  27.771  1.00  0.00    -0.354 N 
ATOM     54  N   UNL A   1      42.589  30.897  29.212  1.00  0.00    -0.248 NA
ATOM     55  C   UNL A   1      41.344  32.435  30.447  1.00  0.00     0.031 C 
ATOM     56  C   UNL A   1      46.591  31.723  27.480  1.00  0.00     0.029 A 
ATOM     57  C   UNL A   1      45.347  31.493  28.042  1.00  0.00     0.049 A 
ATOM     58  H   UNL A   1      44.203  29.718  28.057  1.00  0.00     0.167 HD
ATOM     59  C   UNL A   1      43.288  32.097  29.284  1.00  0.00     0.074 A 
ATOM     60  C   UNL A   1      42.458  33.019  30.027  1.00  0.00     0.031 C 
ATOM     61  C   UNL A   1      44.508  32.407  28.777  1.00  0.00     0.037 A 
BRANCH  48  62
ATOM     62  C   UNL A   1      47.268  27.701  25.872  1.00  0.00     0.064 A 
ATOM     63  C   UNL A   1      47.334  27.719  24.470  1.00  0.00     0.173 A 
ATOM     64  C   UNL A   1      48.382  27.217  26.575  1.00  0.00     0.173 A 
ATOM     65  F   UNL A   1      46.292  28.159  23.749  1.00  0.00    -0.203 F 
ATOM     66  C   UNL A   1      48.458  27.241  23.800  1.00  0.00     0.198 A 
ATOM     67  C   UNL A   1      49.517  26.773  25.902  1.00  0.00     0.198 A 
ATOM     68  F   UNL A   1      48.373  27.181  27.916  1.00  0.00    -0.203 F 
ATOM     69  F   UNL A   1      48.477  27.215  22.460  1.00  0.00    -0.200 F 
ATOM     70  C   UNL A   1      49.550  26.776  24.516  1.00  0.00     0.200 A 
ATOM     71  F   UNL A   1      50.577  26.339  26.597  1.00  0.00    -0.200 F 
ATOM     72  F   UNL A   1      50.634  26.323  23.870  1.00  0.00    -0.200 F 
ENDBRANCH  48  62
BRANCH  49  73
ATOM     73  C   UNL A   1      39.120  30.577  30.861  1.00  0.00     0.064 A 
ATOM     74  C   UNL A   1      39.048  30.362  32.245  1.00  0.00     0.173 A 
ATOM     75  C   UNL A   1      38.019  31.183  30.240  1.00  0.00     0.173 A 
ATOM     76  F   UNL A   1      40.062  29.758  32.882  1.00  0.00    -0.203 F 
ATOM     77  C   UNL A   1      37.913  30.717  32.971  1.00  0.00     0.198 A 
ATOM     78  C   UNL A   1      36.898  31.568  30.972  1.00  0.00     0.198 A 
ATOM     79  F   UNL A   1      38.031  31.404  28.917  1.00  0.00    -0.203 F 
ATOM     80  F   UNL A   1      37.848  30.449  34.283  1.00  0.00    -0.200 F 
ATOM     81  C   UNL A   1      36.842  31.327  32.336  1.00  0.00     0.200 A 
ATOM     82  F   UNL A   1      35.869  32.166  30.355  1.00  0.00    -0.200 F 
ATOM     83  F   UNL A   1      35.751  31.669  33.035  1.00  0.00    -0.200 F 
ENDBRANCH  49  73
BRANCH  61  84
ATOM     84  C   UNL A   1      45.004  33.815  28.961  1.00  0.00     0.064 A 
ATOM     85  C   UNL A   1      44.716  34.831  28.037  1.00  0.00     0.173 A 
ATOM     86  C   UNL A   1      45.741  34.163  30.105  1.00  0.00     0.173 A 
ATOM     87  F   UNL A   1      44.025  34.554  26.921  1.00  0.00    -0.203 F 
ATOM     88  C   UNL A   1      45.172  36.133  28.238  1.00  0.00     0.198 A 
ATOM     89  C   UNL A   1      46.164  35.471  30.320  1.00  0.00     0.198 A 
ATOM     90  F   UNL A   1      46.037  33.234  31.026  1.00  0.00    -0.203 F 
ATOM     91  F   UNL A   1      44.928  37.075  27.315  1.00  0.00    -0.200 F 
ATOM     92  C   UNL A   1      45.887  36.454  29.381  1.00  0.00     0.200 A 
ATOM     93  F   UNL A   1      46.838  35.782  31.435  1.00  0.00    -0.200 F 
ATOM     94  F   UNL A   1      46.314  37.708  29.577  1.00  0.00    -0.200 F 
ENDBRANCH  61  84
ENDBRANCH  35  36
ENDBRANCH  28  30
ENDBRANCH  27  28
ENDBRANCH  26  27
ENDBRANCH  25  26
ENDBRANCH  24  25
ENDBRANCH  23  24
ENDBRANCH   1  23
TORSDOF 19
ENDMDL
