MODEL 1
REMARK VINA RESULT:     -11.4      0.000      0.000
REMARK SMILES Cc1cccc([C@@H](CC(=O)OCCOCCOCCOC(=O)c2ccc(-c3c4nc(c(-c5c(F)c(F)c(F)c(F)c5F)c5ccc([nH]5)c(-c5c(F)c(F)c(F)c(F)c5F)c5nc(c(-c6c(F)c(F)c(F)c(F)c6F)c6ccc3[nH]6)C=C5)C=C4)cc2)NC(=O)OC(C)(C)C)c1
REMARK SMILES IDX 15 1 14 2 13 3 12 4 11 5 9 6 10 7 8 8 7 9 6 10 1 11 2 12
REMARK SMILES IDX 3 13 94 14 4 15 5 16 86 17 87 18 88 20 89 21 90 22 91 23
REMARK SMILES IDX 92 24 93 25 16 26 17 27 18 28 19 29 20 30 21 31 22 32 23 33
REMARK SMILES IDX 24 34 85 35 25 36 84 37 26 38 27 39 28 40 78 41 29 42 83 43
REMARK SMILES IDX 77 44 79 45 30 46 82 47 76 48 75 49 31 51 63 52 43 53 62 54
REMARK SMILES IDX 44 55 47 56 61 57 80 58 45 59 46 60 60 62 81 63 48 64 32 65
REMARK SMILES IDX 33 66 41 67 34 68 35 69 39 70 42 71 36 72 37 73 40 74 38 75
REMARK SMILES IDX 64 76 65 77 73 78 66 79 67 80 71 81 74 82 68 83 69 84 72 85
REMARK SMILES IDX 70 86 49 87 50 88 58 89 51 90 52 91 56 92 59 93 53 94 54 95
REMARK SMILES IDX 57 96 55 97
REMARK H PARENT 86 19 79 50 47 61
REMARK Flexibility Score: inf
ROOT
ATOM      1  C   UNL A   1      42.142  22.054  26.144  1.00  0.00     0.188 C 
ENDROOT
BRANCH   1   2
ATOM      2  O   UNL A   1      40.751  22.191  25.907  1.00  0.00    -0.376 OA
BRANCH   2   3
ATOM      3  C   UNL A   1      40.007  22.679  26.999  1.00  0.00     0.202 C 
BRANCH   3   4
ATOM      4  C   UNL A   1      38.938  23.758  26.649  1.00  0.00     0.261 C 
BRANCH   4   5
ATOM      5  O   UNL A   1      37.378  23.541  26.057  1.00  0.00    -0.463 OA
BRANCH   5   6
ATOM      6  C   UNL A   1      36.242  22.700  25.766  1.00  0.00     0.308 C 
ATOM      7  O   UNL A   1      36.021  22.599  24.550  1.00  0.00    -0.252 OA
BRANCH   6   8
ATOM      8  C   UNL A   1      35.034  21.861  26.748  1.00  0.00     0.152 C 
BRANCH   8   9
ATOM      9  C   UNL A   1      33.482  21.088  26.649  1.00  0.00     0.127 C 
BRANCH   9  10
ATOM     10  C   UNL A   1      32.953  20.338  25.319  1.00  0.00    -0.025 A 
ATOM     11  C   UNL A   1      31.860  20.908  21.651  1.00  0.00     0.044 C 
ATOM     12  C   UNL A   1      32.148  20.246  22.972  1.00  0.00    -0.051 A 
ATOM     13  C   UNL A   1      32.337  18.863  22.888  1.00  0.00     0.003 A 
ATOM     14  C   UNL A   1      32.377  20.966  24.198  1.00  0.00     0.009 A 
ATOM     15  C   UNL A   1      33.014  18.256  23.901  1.00  0.00     0.001 A 
ATOM     16  C   UNL A   1      33.371  19.024  25.012  1.00  0.00     0.006 A 
ENDBRANCH   9  10
BRANCH   9  17
ATOM     17  N   UNL A   1      32.343  21.937  27.018  1.00  0.00    -0.314 N 
ATOM     18  C   UNL A   1      31.876  23.181  27.061  1.00  0.00     0.408 C 
ATOM     19  H   UNL A   1      31.642  21.347  27.378  1.00  0.00     0.167 HD
ATOM     20  O   UNL A   1      30.710  23.271  27.464  1.00  0.00    -0.225 OA
BRANCH  18  21
ATOM     21  O   UNL A   1      32.678  24.188  26.719  1.00  0.00    -0.444 OA
BRANCH  21  22
ATOM     22  C   UNL A   1      32.306  24.985  25.550  1.00  0.00     0.106 C 
ATOM     23  C   UNL A   1      33.601  25.405  24.850  1.00  0.00     0.056 C 
ATOM     24  C   UNL A   1      31.357  24.330  24.516  1.00  0.00     0.056 C 
ATOM     25  C   UNL A   1      31.573  26.200  26.119  1.00  0.00     0.056 C 
ENDBRANCH  21  22
ENDBRANCH  18  21
ENDBRANCH   9  17
ENDBRANCH   8   9
ENDBRANCH   6   8
ENDBRANCH   5   6
ENDBRANCH   4   5
ENDBRANCH   3   4
ENDBRANCH   2   3
ENDBRANCH   1   2
BRANCH   1  26
ATOM     26  C   UNL A   1      43.030  23.022  25.351  1.00  0.00     0.188 C 
BRANCH  26  27
ATOM     27  O   UNL A   1      42.430  24.286  25.038  1.00  0.00    -0.376 OA
BRANCH  27  28
ATOM     28  C   UNL A   1      42.982  25.373  25.811  1.00  0.00     0.202 C 
BRANCH  28  29
ATOM     29  C   UNL A   1      44.244  25.990  25.185  1.00  0.00     0.261 C 
BRANCH  29  30
ATOM     30  O   UNL A   1      45.146  26.349  26.239  1.00  0.00    -0.460 OA
BRANCH  30  31
ATOM     31  C   UNL A   1      45.997  25.343  26.510  1.00  0.00     0.338 C 
ATOM     32  O   UNL A   1      46.476  24.576  25.688  1.00  0.00    -0.246 OA
BRANCH  31  33
ATOM     33  C   UNL A   1      45.997  25.122  27.976  1.00  0.00     0.060 A 
ATOM     34  C   UNL A   1      45.080  24.223  28.391  1.00  0.00     0.016 A 
ATOM     35  C   UNL A   1      46.640  25.883  28.976  1.00  0.00     0.016 A 
ATOM     36  C   UNL A   1      44.797  24.157  29.765  1.00  0.00     0.010 A 
ATOM     37  C   UNL A   1      46.255  25.842  30.367  1.00  0.00     0.010 A 
ATOM     38  C   UNL A   1      45.261  24.978  30.841  1.00  0.00    -0.014 A 
BRANCH  38  39
ATOM     39  C   UNL A   1      44.628  25.224  32.300  1.00  0.00     0.031 A 
ATOM     40  C   UNL A   1      44.051  26.563  32.614  1.00  0.00     0.074 A 
ATOM     41  C   UNL A   1      44.523  24.418  33.435  1.00  0.00     0.049 A 
ATOM     42  N   UNL A   1      44.142  27.140  33.778  1.00  0.00    -0.248 NA
ATOM     43  C   UNL A   1      43.401  27.390  31.612  1.00  0.00     0.031 C 
ATOM     44  C   UNL A   1      43.462  24.427  34.462  1.00  0.00     0.029 A 
ATOM     45  N   UNL A   1      45.316  23.391  33.946  1.00  0.00    -0.354 N 
ATOM     46  C   UNL A   1      43.302  28.224  33.730  1.00  0.00     0.074 A 
ATOM     47  C   UNL A   1      43.079  28.472  32.324  1.00  0.00     0.031 C 
ATOM     48  C   UNL A   1      43.716  23.515  35.431  1.00  0.00     0.029 A 
ATOM     49  C   UNL A   1      45.007  22.892  35.191  1.00  0.00     0.049 A 
ATOM     50  H   UNL A   1      46.075  23.033  33.430  1.00  0.00     0.167 HD
ATOM     51  C   UNL A   1      42.592  28.644  34.817  1.00  0.00     0.037 A 
ATOM     52  C   UNL A   1      45.941  22.389  36.059  1.00  0.00     0.037 A 
ATOM     53  C   UNL A   1      42.742  27.757  35.965  1.00  0.00     0.049 A 
ATOM     54  C   UNL A   1      45.995  23.323  37.226  1.00  0.00     0.074 A 
ATOM     55  C   UNL A   1      41.915  26.759  36.461  1.00  0.00     0.029 A 
ATOM     56  N   UNL A   1      43.965  27.595  36.615  1.00  0.00    -0.354 N 
ATOM     57  N   UNL A   1      45.452  24.502  37.159  1.00  0.00    -0.248 NA
ATOM     58  C   UNL A   1      46.634  23.067  38.508  1.00  0.00     0.031 C 
ATOM     59  C   UNL A   1      42.612  26.044  37.457  1.00  0.00     0.029 A 
ATOM     60  C   UNL A   1      43.873  26.598  37.572  1.00  0.00     0.049 A 
ATOM     61  H   UNL A   1      44.779  28.116  36.420  1.00  0.00     0.167 HD
ATOM     62  C   UNL A   1      45.552  25.120  38.360  1.00  0.00     0.074 A 
ATOM     63  C   UNL A   1      46.329  24.200  39.171  1.00  0.00     0.031 C 
ATOM     64  C   UNL A   1      44.935  26.322  38.536  1.00  0.00     0.037 A 
BRANCH  51  65
ATOM     65  C   UNL A   1      41.443  29.615  34.620  1.00  0.00     0.064 A 
ATOM     66  C   UNL A   1      40.280  29.288  33.895  1.00  0.00     0.173 A 
ATOM     67  C   UNL A   1      41.502  30.945  35.086  1.00  0.00     0.173 A 
ATOM     68  F   UNL A   1      40.039  28.045  33.467  1.00  0.00    -0.203 F 
ATOM     69  C   UNL A   1      39.318  30.242  33.554  1.00  0.00     0.198 A 
ATOM     70  C   UNL A   1      40.560  31.909  34.711  1.00  0.00     0.198 A 
ATOM     71  F   UNL A   1      42.505  31.341  35.887  1.00  0.00    -0.203 F 
ATOM     72  F   UNL A   1      38.251  29.876  32.829  1.00  0.00    -0.200 F 
ATOM     73  C   UNL A   1      39.475  31.558  33.932  1.00  0.00     0.200 A 
ATOM     74  F   UNL A   1      40.727  33.186  35.082  1.00  0.00    -0.200 F 
ATOM     75  F   UNL A   1      38.582  32.482  33.551  1.00  0.00    -0.200 F 
ENDBRANCH  51  65
BRANCH  52  76
ATOM     76  C   UNL A   1      47.128  21.609  35.554  1.00  0.00     0.064 A 
ATOM     77  C   UNL A   1      46.930  20.379  34.896  1.00  0.00     0.173 A 
ATOM     78  C   UNL A   1      48.441  22.099  35.535  1.00  0.00     0.173 A 
ATOM     79  F   UNL A   1      45.723  19.792  34.932  1.00  0.00    -0.203 F 
ATOM     80  C   UNL A   1      47.941  19.765  34.139  1.00  0.00     0.198 A 
ATOM     81  C   UNL A   1      49.427  21.540  34.703  1.00  0.00     0.198 A 
ATOM     82  F   UNL A   1      48.777  23.127  36.321  1.00  0.00    -0.203 F 
ATOM     83  F   UNL A   1      47.694  18.621  33.481  1.00  0.00    -0.200 F 
ATOM     84  C   UNL A   1      49.163  20.392  33.977  1.00  0.00     0.200 A 
ATOM     85  F   UNL A   1      50.627  22.127  34.584  1.00  0.00    -0.200 F 
ATOM     86  F   UNL A   1      50.070  19.903  33.117  1.00  0.00    -0.200 F 
ENDBRANCH  52  76
BRANCH  64  87
ATOM     87  C   UNL A   1      45.101  27.252  39.698  1.00  0.00     0.064 A 
ATOM     88  C   UNL A   1      44.661  26.970  40.999  1.00  0.00     0.173 A 
ATOM     89  C   UNL A   1      45.855  28.442  39.550  1.00  0.00     0.173 A 
ATOM     90  F   UNL A   1      44.045  25.822  41.301  1.00  0.00    -0.203 F 
ATOM     91  C   UNL A   1      44.901  27.844  42.059  1.00  0.00     0.198 A 
ATOM     92  C   UNL A   1      46.153  29.274  40.621  1.00  0.00     0.198 A 
ATOM     93  F   UNL A   1      46.357  28.829  38.369  1.00  0.00    -0.203 F 
ATOM     94  F   UNL A   1      44.417  27.555  43.273  1.00  0.00    -0.200 F 
ATOM     95  C   UNL A   1      45.661  28.984  41.874  1.00  0.00     0.200 A 
ATOM     96  F   UNL A   1      46.939  30.341  40.431  1.00  0.00    -0.200 F 
ATOM     97  F   UNL A   1      45.938  29.789  42.906  1.00  0.00    -0.200 F 
ENDBRANCH  64  87
ENDBRANCH  38  39
ENDBRANCH  31  33
ENDBRANCH  30  31
ENDBRANCH  29  30
ENDBRANCH  28  29
ENDBRANCH  27  28
ENDBRANCH  26  27
ENDBRANCH   1  26
TORSDOF 22
ENDMDL
MODEL 2
REMARK VINA RESULT:     -11.3      7.870     13.561
REMARK SMILES Cc1cccc([C@@H](CC(=O)OCCOCCOCCOC(=O)c2ccc(-c3c4nc(c(-c5c(F)c(F)c(F)c(F)c5F)c5ccc([nH]5)c(-c5c(F)c(F)c(F)c(F)c5F)c5nc(c(-c6c(F)c(F)c(F)c(F)c6F)c6ccc3[nH]6)C=C5)C=C4)cc2)NC(=O)OC(C)(C)C)c1
REMARK SMILES IDX 15 1 14 2 13 3 12 4 11 5 9 6 10 7 8 8 7 9 6 10 1 11 2 12
REMARK SMILES IDX 3 13 94 14 4 15 5 16 86 17 87 18 88 20 89 21 90 22 91 23
REMARK SMILES IDX 92 24 93 25 16 26 17 27 18 28 19 29 20 30 21 31 22 32 23 33
REMARK SMILES IDX 24 34 85 35 25 36 84 37 26 38 27 39 28 40 78 41 29 42 83 43
REMARK SMILES IDX 77 44 79 45 30 46 82 47 76 48 75 49 31 51 63 52 43 53 62 54
REMARK SMILES IDX 44 55 47 56 61 57 80 58 45 59 46 60 60 62 81 63 48 64 32 65
REMARK SMILES IDX 33 66 41 67 34 68 35 69 39 70 42 71 36 72 37 73 40 74 38 75
REMARK SMILES IDX 64 76 65 77 73 78 66 79 67 80 71 81 74 82 68 83 69 84 72 85
REMARK SMILES IDX 70 86 49 87 50 88 58 89 51 90 52 91 56 92 59 93 53 94 54 95
REMARK SMILES IDX 57 96 55 97
REMARK H PARENT 86 19 79 50 47 61
REMARK Flexibility Score: inf
ROOT
ATOM      1  C   UNL A   1      35.542  31.906  30.224  1.00  0.00     0.188 C 
ENDROOT
BRANCH   1   2
ATOM      2  O   UNL A   1      35.917  32.103  28.871  1.00  0.00    -0.376 OA
BRANCH   2   3
ATOM      3  C   UNL A   1      35.245  31.284  27.943  1.00  0.00     0.202 C 
BRANCH   3   4
ATOM      4  C   UNL A   1      33.711  31.526  27.827  1.00  0.00     0.261 C 
BRANCH   4   5
ATOM      5  O   UNL A   1      32.584  30.704  26.885  1.00  0.00    -0.463 OA
BRANCH   5   6
ATOM      6  C   UNL A   1      32.099  29.497  26.261  1.00  0.00     0.308 C 
ATOM      7  O   UNL A   1      31.836  28.606  27.082  1.00  0.00    -0.252 OA
BRANCH   6   8
ATOM      8  C   UNL A   1      31.887  28.963  24.588  1.00  0.00     0.152 C 
BRANCH   8   9
ATOM      9  C   UNL A   1      30.708  28.870  23.315  1.00  0.00     0.127 C 
BRANCH   9  10
ATOM     10  C   UNL A   1      29.824  30.136  22.838  1.00  0.00    -0.025 A 
ATOM     11  C   UNL A   1      27.821  31.587  19.862  1.00  0.00     0.044 C 
ATOM     12  C   UNL A   1      28.492  31.446  21.202  1.00  0.00    -0.051 A 
ATOM     13  C   UNL A   1      27.971  32.284  22.193  1.00  0.00     0.003 A 
ATOM     14  C   UNL A   1      29.469  30.433  21.508  1.00  0.00     0.009 A 
ATOM     15  C   UNL A   1      28.189  31.938  23.491  1.00  0.00     0.001 A 
ATOM     16  C   UNL A   1      29.013  30.841  23.754  1.00  0.00     0.006 A 
ENDBRANCH   9  10
BRANCH   9  17
ATOM     17  N   UNL A   1      29.702  27.814  23.479  1.00  0.00    -0.314 N 
ATOM     18  C   UNL A   1      29.362  26.725  24.162  1.00  0.00     0.408 C 
ATOM     19  H   UNL A   1      28.993  27.979  22.817  1.00  0.00     0.167 HD
ATOM     20  O   UNL A   1      28.262  26.254  23.851  1.00  0.00    -0.225 OA
BRANCH  18  21
ATOM     21  O   UNL A   1      30.213  26.229  25.060  1.00  0.00    -0.444 OA
BRANCH  21  22
ATOM     22  C   UNL A   1      30.952  25.019  24.699  1.00  0.00     0.106 C 
ATOM     23  C   UNL A   1      30.741  24.000  25.821  1.00  0.00     0.056 C 
ATOM     24  C   UNL A   1      30.612  24.358  23.340  1.00  0.00     0.056 C 
ATOM     25  C   UNL A   1      32.414  25.458  24.625  1.00  0.00     0.056 C 
ENDBRANCH  21  22
ENDBRANCH  18  21
ENDBRANCH   9  17
ENDBRANCH   8   9
ENDBRANCH   6   8
ENDBRANCH   5   6
ENDBRANCH   4   5
ENDBRANCH   3   4
ENDBRANCH   2   3
ENDBRANCH   1   2
BRANCH   1  26
ATOM     26  C   UNL A   1      34.907  33.127  30.903  1.00  0.00     0.188 C 
BRANCH  26  27
ATOM     27  O   UNL A   1      34.034  32.831  32.000  1.00  0.00    -0.376 OA
BRANCH  27  28
ATOM     28  C   UNL A   1      34.070  33.840  33.031  1.00  0.00     0.202 C 
BRANCH  28  29
ATOM     29  C   UNL A   1      35.069  33.529  34.159  1.00  0.00     0.261 C 
BRANCH  29  30
ATOM     30  O   UNL A   1      36.242  34.327  33.963  1.00  0.00    -0.460 OA
BRANCH  30  31
ATOM     31  C   UNL A   1      37.357  33.604  34.165  1.00  0.00     0.338 C 
ATOM     32  O   UNL A   1      37.547  32.833  35.093  1.00  0.00    -0.246 OA
BRANCH  31  33
ATOM     33  C   UNL A   1      38.417  34.134  33.274  1.00  0.00     0.060 A 
ATOM     34  C   UNL A   1      37.984  34.438  32.033  1.00  0.00     0.016 A 
ATOM     35  C   UNL A   1      39.814  34.131  33.477  1.00  0.00     0.016 A 
ATOM     36  C   UNL A   1      38.946  34.666  31.036  1.00  0.00     0.010 A 
ATOM     37  C   UNL A   1      40.767  34.285  32.403  1.00  0.00     0.010 A 
ATOM     38  C   UNL A   1      40.370  34.532  31.084  1.00  0.00    -0.014 A 
BRANCH  38  39
ATOM     39  C   UNL A   1      41.431  34.337  29.889  1.00  0.00     0.031 A 
ATOM     40  C   UNL A   1      42.142  33.032  29.769  1.00  0.00     0.074 A 
ATOM     41  C   UNL A   1      41.897  35.191  28.887  1.00  0.00     0.049 A 
ATOM     42  N   UNL A   1      43.385  32.912  29.398  1.00  0.00    -0.248 NA
ATOM     43  C   UNL A   1      41.528  31.769  30.139  1.00  0.00     0.031 C 
ATOM     44  C   UNL A   1      42.346  34.837  27.526  1.00  0.00     0.029 A 
ATOM     45  N   UNL A   1      42.071  36.574  28.824  1.00  0.00    -0.354 N 
ATOM     46  C   UNL A   1      43.590  31.571  29.190  1.00  0.00     0.074 A 
ATOM     47  C   UNL A   1      42.517  30.907  29.895  1.00  0.00     0.031 C 
ATOM     48  C   UNL A   1      42.752  35.936  26.847  1.00  0.00     0.029 A 
ATOM     49  C   UNL A   1      42.705  37.096  27.720  1.00  0.00     0.049 A 
ATOM     50  H   UNL A   1      41.749  37.158  29.549  1.00  0.00     0.167 HD
ATOM     51  C   UNL A   1      44.414  31.105  28.208  1.00  0.00     0.037 A 
ATOM     52  C   UNL A   1      43.473  38.231  27.754  1.00  0.00     0.037 A 
ATOM     53  C   UNL A   1      44.939  32.169  27.359  1.00  0.00     0.049 A 
ATOM     54  C   UNL A   1      44.882  37.810  27.486  1.00  0.00     0.074 A 
ATOM     55  C   UNL A   1      44.550  32.612  26.104  1.00  0.00     0.029 A 
ATOM     56  N   UNL A   1      45.803  33.145  27.855  1.00  0.00    -0.354 N 
ATOM     57  N   UNL A   1      45.224  36.557  27.544  1.00  0.00    -0.248 NA
ATOM     58  C   UNL A   1      45.998  38.685  27.157  1.00  0.00     0.031 C 
ATOM     59  C   UNL A   1      45.230  33.812  25.813  1.00  0.00     0.029 A 
ATOM     60  C   UNL A   1      46.038  34.114  26.893  1.00  0.00     0.049 A 
ATOM     61  H   UNL A   1      46.192  33.145  28.761  1.00  0.00     0.167 HD
ATOM     62  C   UNL A   1      46.519  36.418  27.175  1.00  0.00     0.074 A 
ATOM     63  C   UNL A   1      46.980  37.780  26.972  1.00  0.00     0.031 C 
ATOM     64  C   UNL A   1      47.039  35.166  27.052  1.00  0.00     0.037 A 
BRANCH  51  65
ATOM     65  C   UNL A   1      44.336  29.643  27.810  1.00  0.00     0.064 A 
ATOM     66  C   UNL A   1      43.367  29.143  26.918  1.00  0.00     0.173 A 
ATOM     67  C   UNL A   1      45.187  28.670  28.374  1.00  0.00     0.173 A 
ATOM     68  F   UNL A   1      42.549  29.950  26.236  1.00  0.00    -0.203 F 
ATOM     69  C   UNL A   1      43.180  27.774  26.706  1.00  0.00     0.198 A 
ATOM     70  C   UNL A   1      44.974  27.299  28.195  1.00  0.00     0.198 A 
ATOM     71  F   UNL A   1      46.223  29.038  29.147  1.00  0.00    -0.203 F 
ATOM     72  F   UNL A   1      42.214  27.359  25.874  1.00  0.00    -0.200 F 
ATOM     73  C   UNL A   1      43.960  26.852  27.371  1.00  0.00     0.200 A 
ATOM     74  F   UNL A   1      45.737  26.413  28.851  1.00  0.00    -0.200 F 
ATOM     75  F   UNL A   1      43.737  25.540  27.214  1.00  0.00    -0.200 F 
ENDBRANCH  51  65
BRANCH  52  76
ATOM     76  C   UNL A   1      43.099  39.393  28.640  1.00  0.00     0.064 A 
ATOM     77  C   UNL A   1      41.893  40.084  28.419  1.00  0.00     0.173 A 
ATOM     78  C   UNL A   1      43.794  39.748  29.805  1.00  0.00     0.173 A 
ATOM     79  F   UNL A   1      41.201  39.870  27.288  1.00  0.00    -0.203 F 
ATOM     80  C   UNL A   1      41.343  40.953  29.375  1.00  0.00     0.198 A 
ATOM     81  C   UNL A   1      43.204  40.542  30.804  1.00  0.00     0.198 A 
ATOM     82  F   UNL A   1      45.050  39.326  29.984  1.00  0.00    -0.203 F 
ATOM     83  F   UNL A   1      40.161  41.549  29.148  1.00  0.00    -0.200 F 
ATOM     84  C   UNL A   1      41.960  41.114  30.602  1.00  0.00     0.200 A 
ATOM     85  F   UNL A   1      43.827  40.732  31.977  1.00  0.00    -0.200 F 
ATOM     86  F   UNL A   1      41.355  41.800  31.584  1.00  0.00    -0.200 F 
ENDBRANCH  52  76
BRANCH  64  87
ATOM     87  C   UNL A   1      48.482  34.808  26.867  1.00  0.00     0.064 A 
ATOM     88  C   UNL A   1      49.136  34.798  25.628  1.00  0.00     0.173 A 
ATOM     89  C   UNL A   1      49.306  34.586  27.998  1.00  0.00     0.173 A 
ATOM     90  F   UNL A   1      48.501  35.113  24.493  1.00  0.00    -0.203 F 
ATOM     91  C   UNL A   1      50.499  34.523  25.522  1.00  0.00     0.198 A 
ATOM     92  C   UNL A   1      50.675  34.384  27.894  1.00  0.00     0.198 A 
ATOM     93  F   UNL A   1      48.822  34.588  29.248  1.00  0.00    -0.203 F 
ATOM     94  F   UNL A   1      51.069  34.475  24.311  1.00  0.00    -0.200 F 
ATOM     95  C   UNL A   1      51.270  34.334  26.653  1.00  0.00     0.200 A 
ATOM     96  F   UNL A   1      51.412  34.261  29.005  1.00  0.00    -0.200 F 
ATOM     97  F   UNL A   1      52.588  34.129  26.549  1.00  0.00    -0.200 F 
ENDBRANCH  64  87
ENDBRANCH  38  39
ENDBRANCH  31  33
ENDBRANCH  30  31
ENDBRANCH  29  30
ENDBRANCH  28  29
ENDBRANCH  27  28
ENDBRANCH  26  27
ENDBRANCH   1  26
TORSDOF 22
ENDMDL
MODEL 3
REMARK VINA RESULT:     -10.9      6.220      8.120
REMARK SMILES Cc1cccc([C@@H](CC(=O)OCCOCCOCCOC(=O)c2ccc(-c3c4nc(c(-c5c(F)c(F)c(F)c(F)c5F)c5ccc([nH]5)c(-c5c(F)c(F)c(F)c(F)c5F)c5nc(c(-c6c(F)c(F)c(F)c(F)c6F)c6ccc3[nH]6)C=C5)C=C4)cc2)NC(=O)OC(C)(C)C)c1
REMARK SMILES IDX 15 1 14 2 13 3 12 4 11 5 9 6 10 7 8 8 7 9 6 10 1 11 2 12
REMARK SMILES IDX 3 13 94 14 4 15 5 16 86 17 87 18 88 20 89 21 90 22 91 23
REMARK SMILES IDX 92 24 93 25 16 26 17 27 18 28 19 29 20 30 21 31 22 32 23 33
REMARK SMILES IDX 24 34 85 35 25 36 84 37 26 38 27 39 28 40 78 41 29 42 83 43
REMARK SMILES IDX 77 44 79 45 30 46 82 47 76 48 75 49 31 51 63 52 43 53 62 54
REMARK SMILES IDX 44 55 47 56 61 57 80 58 45 59 46 60 60 62 81 63 48 64 32 65
REMARK SMILES IDX 33 66 41 67 34 68 35 69 39 70 42 71 36 72 37 73 40 74 38 75
REMARK SMILES IDX 64 76 65 77 73 78 66 79 67 80 71 81 74 82 68 83 69 84 72 85
REMARK SMILES IDX 70 86 49 87 50 88 58 89 51 90 52 91 56 92 59 93 53 94 54 95
REMARK SMILES IDX 57 96 55 97
REMARK H PARENT 86 19 79 50 47 61
REMARK Flexibility Score: inf
ROOT
ATOM      1  C   UNL A   1      42.278  19.127  26.766  1.00  0.00     0.188 C 
ENDROOT
BRANCH   1   2
ATOM      2  O   UNL A   1      41.436  19.870  25.901  1.00  0.00    -0.376 OA
BRANCH   2   3
ATOM      3  C   UNL A   1      41.531  21.269  26.035  1.00  0.00     0.202 C 
BRANCH   3   4
ATOM      4  C   UNL A   1      40.440  21.929  26.929  1.00  0.00     0.261 C 
BRANCH   4   5
ATOM      5  O   UNL A   1      38.826  22.240  26.566  1.00  0.00    -0.463 OA
BRANCH   5   6
ATOM      6  C   UNL A   1      37.792  22.629  25.638  1.00  0.00     0.308 C 
ATOM      7  O   UNL A   1      37.747  21.896  24.639  1.00  0.00    -0.252 OA
BRANCH   6   8
ATOM      8  C   UNL A   1      36.641  23.969  25.551  1.00  0.00     0.152 C 
BRANCH   8   9
ATOM      9  C   UNL A   1      34.981  24.375  25.861  1.00  0.00     0.127 C 
BRANCH   9  10
ATOM     10  C   UNL A   1      33.790  23.282  25.857  1.00  0.00    -0.025 A 
ATOM     11  C   UNL A   1      30.031  22.774  26.621  1.00  0.00     0.044 C 
ATOM     12  C   UNL A   1      31.465  22.505  26.249  1.00  0.00    -0.051 A 
ATOM     13  C   UNL A   1      31.650  21.347  25.489  1.00  0.00     0.003 A 
ATOM     14  C   UNL A   1      32.545  23.425  26.498  1.00  0.00     0.009 A 
ATOM     15  C   UNL A   1      32.791  21.251  24.752  1.00  0.00     0.001 A 
ATOM     16  C   UNL A   1      33.754  22.253  24.891  1.00  0.00     0.006 A 
ENDBRANCH   9  10
BRANCH   9  17
ATOM     17  N   UNL A   1      34.439  25.449  25.021  1.00  0.00    -0.314 N 
ATOM     18  C   UNL A   1      34.027  25.781  23.801  1.00  0.00     0.408 C 
ATOM     19  H   UNL A   1      34.341  26.246  25.591  1.00  0.00     0.167 HD
ATOM     20  O   UNL A   1      33.586  26.932  23.710  1.00  0.00    -0.225 OA
BRANCH  18  21
ATOM     21  O   UNL A   1      34.154  24.898  22.811  1.00  0.00    -0.444 OA
BRANCH  21  22
ATOM     22  C   UNL A   1      32.952  24.550  22.053  1.00  0.00     0.106 C 
ATOM     23  C   UNL A   1      32.792  25.591  20.942  1.00  0.00     0.056 C 
ATOM     24  C   UNL A   1      32.886  23.132  21.435  1.00  0.00     0.056 C 
ATOM     25  C   UNL A   1      31.808  24.648  23.064  1.00  0.00     0.056 C 
ENDBRANCH  21  22
ENDBRANCH  18  21
ENDBRANCH   9  17
ENDBRANCH   8   9
ENDBRANCH   6   8
ENDBRANCH   5   6
ENDBRANCH   4   5
ENDBRANCH   3   4
ENDBRANCH   2   3
ENDBRANCH   1   2
BRANCH   1  26
ATOM     26  C   UNL A   1      43.586  18.637  26.131  1.00  0.00     0.188 C 
BRANCH  26  27
ATOM     27  O   UNL A   1      43.575  18.547  24.701  1.00  0.00    -0.376 OA
BRANCH  27  28
ATOM     28  C   UNL A   1      44.871  18.790  24.116  1.00  0.00     0.202 C 
BRANCH  28  29
ATOM     29  C   UNL A   1      44.954  20.114  23.337  1.00  0.00     0.261 C 
BRANCH  29  30
ATOM     30  O   UNL A   1      44.384  21.153  24.142  1.00  0.00    -0.460 OA
BRANCH  30  31
ATOM     31  C   UNL A   1      45.313  21.709  24.939  1.00  0.00     0.338 C 
ATOM     32  O   UNL A   1      46.467  21.327  25.061  1.00  0.00    -0.246 OA
BRANCH  31  33
ATOM     33  C   UNL A   1      44.626  22.639  25.867  1.00  0.00     0.060 A 
ATOM     34  C   UNL A   1      44.017  23.673  25.250  1.00  0.00     0.016 A 
ATOM     35  C   UNL A   1      44.733  22.711  27.273  1.00  0.00     0.016 A 
ATOM     36  C   UNL A   1      43.595  24.756  26.039  1.00  0.00     0.010 A 
ATOM     37  C   UNL A   1      44.363  23.881  28.033  1.00  0.00     0.010 A 
ATOM     38  C   UNL A   1      43.791  25.010  27.433  1.00  0.00    -0.014 A 
BRANCH  38  39
ATOM     39  C   UNL A   1      43.735  26.396  28.248  1.00  0.00     0.031 A 
ATOM     40  C   UNL A   1      42.426  27.100  28.375  1.00  0.00     0.074 A 
ATOM     41  C   UNL A   1      44.715  27.165  28.880  1.00  0.00     0.049 A 
ATOM     42  N   UNL A   1      42.291  28.395  28.351  1.00  0.00    -0.248 NA
ATOM     43  C   UNL A   1      41.161  26.391  28.454  1.00  0.00     0.031 C 
ATOM     44  C   UNL A   1      44.570  28.025  30.071  1.00  0.00     0.029 A 
ATOM     45  N   UNL A   1      46.074  27.359  28.631  1.00  0.00    -0.354 N 
ATOM     46  C   UNL A   1      40.995  28.647  28.726  1.00  0.00     0.074 A 
ATOM     47  C   UNL A   1      40.291  27.400  28.527  1.00  0.00     0.031 C 
ATOM     48  C   UNL A   1      45.740  28.635  30.376  1.00  0.00     0.029 A 
ATOM     49  C   UNL A   1      46.735  28.318  29.365  1.00  0.00     0.049 A 
ATOM     50  H   UNL A   1      46.546  26.826  27.951  1.00  0.00     0.167 HD
ATOM     51  C   UNL A   1      40.650  29.739  29.467  1.00  0.00     0.037 A 
ATOM     52  C   UNL A   1      47.796  29.042  28.885  1.00  0.00     0.037 A 
ATOM     53  C   UNL A   1      41.808  30.516  29.898  1.00  0.00     0.049 A 
ATOM     54  C   UNL A   1      47.335  30.460  28.770  1.00  0.00     0.074 A 
ATOM     55  C   UNL A   1      42.482  30.553  31.109  1.00  0.00     0.029 A 
ATOM     56  N   UNL A   1      42.626  31.182  28.987  1.00  0.00    -0.354 N 
ATOM     57  N   UNL A   1      46.071  30.756  28.837  1.00  0.00    -0.248 NA
ATOM     58  C   UNL A   1      48.179  31.628  28.565  1.00  0.00     0.031 C 
ATOM     59  C   UNL A   1      43.667  31.300  30.948  1.00  0.00     0.029 A 
ATOM     60  C   UNL A   1      43.728  31.720  29.632  1.00  0.00     0.049 A 
ATOM     61  H   UNL A   1      42.447  31.259  28.021  1.00  0.00     0.167 HD
ATOM     62  C   UNL A   1      45.914  32.101  28.798  1.00  0.00     0.074 A 
ATOM     63  C   UNL A   1      47.258  32.612  28.594  1.00  0.00     0.031 C 
ATOM     64  C   UNL A   1      44.670  32.624  28.978  1.00  0.00     0.037 A 
BRANCH  51  65
ATOM     65  C   UNL A   1      39.286  29.784  30.128  1.00  0.00     0.064 A 
ATOM     66  C   UNL A   1      38.213  30.544  29.622  1.00  0.00     0.173 A 
ATOM     67  C   UNL A   1      39.027  29.124  31.348  1.00  0.00     0.173 A 
ATOM     68  F   UNL A   1      38.276  31.151  28.433  1.00  0.00    -0.203 F 
ATOM     69  C   UNL A   1      37.027  30.734  30.336  1.00  0.00     0.198 A 
ATOM     70  C   UNL A   1      37.856  29.347  32.082  1.00  0.00     0.198 A 
ATOM     71  F   UNL A   1      39.930  28.278  31.869  1.00  0.00    -0.203 F 
ATOM     72  F   UNL A   1      36.058  31.501  29.817  1.00  0.00    -0.200 F 
ATOM     73  C   UNL A   1      36.863  30.164  31.580  1.00  0.00     0.200 A 
ATOM     74  F   UNL A   1      37.712  28.790  33.292  1.00  0.00    -0.200 F 
ATOM     75  F   UNL A   1      35.751  30.399  32.289  1.00  0.00    -0.200 F 
ENDBRANCH  51  65
BRANCH  52  76
ATOM     76  C   UNL A   1      48.811  28.412  27.966  1.00  0.00     0.064 A 
ATOM     77  C   UNL A   1      49.968  27.815  28.502  1.00  0.00     0.173 A 
ATOM     78  C   UNL A   1      48.613  28.218  26.591  1.00  0.00     0.173 A 
ATOM     79  F   UNL A   1      50.283  28.015  29.791  1.00  0.00    -0.203 F 
ATOM     80  C   UNL A   1      50.782  26.953  27.749  1.00  0.00     0.198 A 
ATOM     81  C   UNL A   1      49.368  27.284  25.860  1.00  0.00     0.198 A 
ATOM     82  F   UNL A   1      47.683  28.931  25.947  1.00  0.00    -0.203 F 
ATOM     83  F   UNL A   1      51.845  26.359  28.315  1.00  0.00    -0.200 F 
ATOM     84  C   UNL A   1      50.430  26.625  26.452  1.00  0.00     0.200 A 
ATOM     85  F   UNL A   1      49.051  27.002  24.588  1.00  0.00    -0.200 F 
ATOM     86  F   UNL A   1      51.100  25.671  25.787  1.00  0.00    -0.200 F 
ENDBRANCH  52  76
BRANCH  64  87
ATOM     87  C   UNL A   1      44.257  34.047  28.762  1.00  0.00     0.064 A 
ATOM     88  C   UNL A   1      44.442  35.071  29.701  1.00  0.00     0.173 A 
ATOM     89  C   UNL A   1      43.762  34.456  27.499  1.00  0.00     0.173 A 
ATOM     90  F   UNL A   1      45.015  34.842  30.888  1.00  0.00    -0.203 F 
ATOM     91  C   UNL A   1      44.099  36.393  29.421  1.00  0.00     0.198 A 
ATOM     92  C   UNL A   1      43.490  35.784  27.199  1.00  0.00     0.198 A 
ATOM     93  F   UNL A   1      43.554  33.590  26.496  1.00  0.00    -0.203 F 
ATOM     94  F   UNL A   1      44.249  37.327  30.368  1.00  0.00    -0.200 F 
ATOM     95  C   UNL A   1      43.641  36.752  28.167  1.00  0.00     0.200 A 
ATOM     96  F   UNL A   1      43.102  36.117  25.961  1.00  0.00    -0.200 F 
ATOM     97  F   UNL A   1      43.370  38.031  27.885  1.00  0.00    -0.200 F 
ENDBRANCH  64  87
ENDBRANCH  38  39
ENDBRANCH  31  33
ENDBRANCH  30  31
ENDBRANCH  29  30
ENDBRANCH  28  29
ENDBRANCH  27  28
ENDBRANCH  26  27
ENDBRANCH   1  26
TORSDOF 22
ENDMDL
