MODEL 1
REMARK VINA RESULT:      -9.8      0.000      0.000
REMARK SMILES CCN1C[C@@H](C(=O)OCCOCCOCCOC(=O)c2ccc(-c3c4nc(c(-c5c(F)c(F)c(F)c(F)c5F)c5ccc([nH]5)c(-c5c(F)c(F)c(F)c(F)c5F)c5nc(c(-c6c(F)c(F)c(F)c(F)c6F)c6ccc3[nH]6)C=C5)C=C4)cc2)CC1=O
REMARK SMILES IDX 13 1 12 2 11 3 10 4 9 5 8 6 6 7 7 8 5 9 3 10 4 11 84 12
REMARK SMILES IDX 83 13 85 14 2 15 1 16 14 17 15 18 16 19 17 20 18 21 19 22
REMARK SMILES IDX 20 23 21 24 82 25 22 26 81 27 23 28 24 29 25 30 75 31 26 32
REMARK SMILES IDX 80 33 74 34 76 35 27 36 79 37 73 38 72 39 28 41 60 42 40 43
REMARK SMILES IDX 59 44 41 45 44 46 58 47 77 48 42 49 43 50 57 52 78 53 45 54
REMARK SMILES IDX 29 55 30 56 38 57 31 58 32 59 36 60 39 61 33 62 34 63 37 64
REMARK SMILES IDX 35 65 61 66 62 67 70 68 63 69 64 70 68 71 71 72 65 73 66 74
REMARK SMILES IDX 69 75 67 76 46 77 47 78 55 79 48 80 49 81 53 82 56 83 50 84
REMARK SMILES IDX 51 85 54 86 52 87
REMARK H PARENT 76 40 44 51
REMARK Flexibility Score: inf
ROOT
ATOM      1  C   UNL A   1      40.141  20.449  26.259  1.00  0.00     0.188 C 
ENDROOT
BRANCH   1   2
ATOM      2  C   UNL A   1      39.312  21.736  26.111  1.00  0.00     0.188 C 
BRANCH   2   3
ATOM      3  O   UNL A   1      38.194  21.749  25.231  1.00  0.00    -0.376 OA
BRANCH   3   4
ATOM      4  C   UNL A   1      36.902  22.048  25.753  1.00  0.00     0.202 C 
BRANCH   4   5
ATOM      5  C   UNL A   1      35.665  21.773  24.879  1.00  0.00     0.261 C 
BRANCH   5   6
ATOM      6  O   UNL A   1      34.579  21.087  25.545  1.00  0.00    -0.463 OA
BRANCH   6   7
ATOM      7  C   UNL A   1      33.351  21.223  24.994  1.00  0.00     0.311 C 
ATOM      8  O   UNL A   1      32.777  22.298  24.843  1.00  0.00    -0.252 OA
BRANCH   7   9
ATOM      9  C   UNL A   1      32.717  19.935  24.509  1.00  0.00     0.128 C 
ATOM     10  N   UNL A   1      33.370  17.834  23.728  1.00  0.00    -0.342 N 
ATOM     11  C   UNL A   1      33.766  18.849  24.665  1.00  0.00     0.135 C 
ATOM     12  C   UNL A   1      32.528  18.319  22.749  1.00  0.00     0.223 C 
ATOM     13  C   UNL A   1      32.242  19.760  23.065  1.00  0.00     0.117 C 
ATOM     14  O   UNL A   1      32.109  17.718  21.775  1.00  0.00    -0.275 OA
BRANCH  10  15
ATOM     15  C   UNL A   1      34.053  16.564  23.630  1.00  0.00     0.116 C 
ATOM     16  C   UNL A   1      34.704  16.200  24.953  1.00  0.00     0.027 C 
ENDBRANCH  10  15
ENDBRANCH   7   9
ENDBRANCH   6   7
ENDBRANCH   5   6
ENDBRANCH   4   5
ENDBRANCH   3   4
ENDBRANCH   2   3
ENDBRANCH   1   2
BRANCH   1  17
ATOM     17  O   UNL A   1      41.382  20.617  26.897  1.00  0.00    -0.376 OA
BRANCH  17  18
ATOM     18  C   UNL A   1      42.157  19.470  27.177  1.00  0.00     0.202 C 
BRANCH  18  19
ATOM     19  C   UNL A   1      42.803  18.676  26.027  1.00  0.00     0.261 C 
BRANCH  19  20
ATOM     20  O   UNL A   1      43.097  19.391  24.814  1.00  0.00    -0.460 OA
BRANCH  20  21
ATOM     21  C   UNL A   1      44.405  19.564  24.498  1.00  0.00     0.338 C 
ATOM     22  O   UNL A   1      45.121  18.792  23.898  1.00  0.00    -0.246 OA
BRANCH  21  23
ATOM     23  C   UNL A   1      44.762  20.971  24.813  1.00  0.00     0.060 A 
ATOM     24  C   UNL A   1      45.283  21.278  26.079  1.00  0.00     0.016 A 
ATOM     25  C   UNL A   1      44.585  21.976  23.863  1.00  0.00     0.016 A 
ATOM     26  C   UNL A   1      45.608  22.599  26.405  1.00  0.00     0.010 A 
ATOM     27  C   UNL A   1      44.886  23.300  24.200  1.00  0.00     0.010 A 
ATOM     28  C   UNL A   1      45.373  23.624  25.480  1.00  0.00    -0.014 A 
BRANCH  28  29
ATOM     29  C   UNL A   1      45.451  25.047  25.900  1.00  0.00     0.031 A 
ATOM     30  C   UNL A   1      46.787  25.736  25.848  1.00  0.00     0.074 A 
ATOM     31  C   UNL A   1      44.369  25.716  26.337  1.00  0.00     0.049 A 
ATOM     32  N   UNL A   1      47.131  26.926  26.267  1.00  0.00    -0.248 NA
ATOM     33  C   UNL A   1      47.888  24.967  25.247  1.00  0.00     0.031 C 
ATOM     34  C   UNL A   1      43.011  25.183  26.397  1.00  0.00     0.029 A 
ATOM     35  N   UNL A   1      44.254  26.992  26.836  1.00  0.00    -0.354 N 
ATOM     36  C   UNL A   1      48.489  27.043  25.998  1.00  0.00     0.074 A 
ATOM     37  C   UNL A   1      48.911  25.793  25.403  1.00  0.00     0.031 C 
ATOM     38  C   UNL A   1      42.201  26.116  26.928  1.00  0.00     0.029 A 
ATOM     39  C   UNL A   1      42.991  27.296  27.282  1.00  0.00     0.049 A 
ATOM     40  H   UNL A   1      45.006  27.628  26.869  1.00  0.00     0.167 HD
ATOM     41  C   UNL A   1      49.308  28.096  26.223  1.00  0.00     0.037 A 
ATOM     42  C   UNL A   1      42.536  28.386  27.933  1.00  0.00     0.037 A 
ATOM     43  C   UNL A   1      48.885  29.339  26.814  1.00  0.00     0.049 A 
ATOM     44  C   UNL A   1      43.484  29.519  28.242  1.00  0.00     0.074 A 
ATOM     45  C   UNL A   1      49.634  30.478  27.056  1.00  0.00     0.029 A 
ATOM     46  N   UNL A   1      47.602  29.601  27.271  1.00  0.00    -0.354 N 
ATOM     47  N   UNL A   1      44.759  29.636  27.961  1.00  0.00    -0.248 NA
ATOM     48  C   UNL A   1      42.926  30.675  28.961  1.00  0.00     0.031 C 
ATOM     49  C   UNL A   1      48.824  31.402  27.721  1.00  0.00     0.029 A 
ATOM     50  C   UNL A   1      47.548  30.871  27.825  1.00  0.00     0.049 A 
ATOM     51  H   UNL A   1      46.842  28.979  27.210  1.00  0.00     0.167 HD
ATOM     52  C   UNL A   1      45.146  30.884  28.435  1.00  0.00     0.074 A 
ATOM     53  C   UNL A   1      43.967  31.494  29.013  1.00  0.00     0.031 C 
ATOM     54  C   UNL A   1      46.367  31.473  28.392  1.00  0.00     0.037 A 
BRANCH  41  55
ATOM     55  C   UNL A   1      50.759  27.937  25.869  1.00  0.00     0.064 A 
ATOM     56  C   UNL A   1      51.731  27.632  26.834  1.00  0.00     0.173 A 
ATOM     57  C   UNL A   1      51.177  28.063  24.535  1.00  0.00     0.173 A 
ATOM     58  F   UNL A   1      51.388  27.513  28.125  1.00  0.00    -0.203 F 
ATOM     59  C   UNL A   1      53.071  27.491  26.480  1.00  0.00     0.198 A 
ATOM     60  C   UNL A   1      52.512  27.887  24.181  1.00  0.00     0.198 A 
ATOM     61  F   UNL A   1      50.289  28.350  23.571  1.00  0.00    -0.203 F 
ATOM     62  F   UNL A   1      53.991  27.256  27.427  1.00  0.00    -0.200 F 
ATOM     63  C   UNL A   1      53.459  27.611  25.155  1.00  0.00     0.200 A 
ATOM     64  F   UNL A   1      52.881  27.987  22.896  1.00  0.00    -0.200 F 
ATOM     65  F   UNL A   1      54.748  27.468  24.815  1.00  0.00    -0.200 F 
ENDBRANCH  41  55
BRANCH  42  66
ATOM     66  C   UNL A   1      41.113  28.452  28.364  1.00  0.00     0.064 A 
ATOM     67  C   UNL A   1      40.123  28.975  27.520  1.00  0.00     0.173 A 
ATOM     68  C   UNL A   1      40.718  28.017  29.639  1.00  0.00     0.173 A 
ATOM     69  F   UNL A   1      40.453  29.433  26.304  1.00  0.00    -0.203 F 
ATOM     70  C   UNL A   1      38.798  29.077  27.941  1.00  0.00     0.198 A 
ATOM     71  C   UNL A   1      39.387  28.089  30.046  1.00  0.00     0.198 A 
ATOM     72  F   UNL A   1      41.626  27.515  30.488  1.00  0.00    -0.203 F 
ATOM     73  F   UNL A   1      37.882  29.630  27.134  1.00  0.00    -0.200 F 
ATOM     74  C   UNL A   1      38.430  28.627  29.200  1.00  0.00     0.200 A 
ATOM     75  F   UNL A   1      39.035  27.642  31.259  1.00  0.00    -0.200 F 
ATOM     76  F   UNL A   1      37.155  28.723  29.601  1.00  0.00    -0.200 F 
ENDBRANCH  42  66
BRANCH  54  77
ATOM     77  C   UNL A   1      46.490  32.869  28.941  1.00  0.00     0.064 A 
ATOM     78  C   UNL A   1      46.251  34.002  28.150  1.00  0.00     0.173 A 
ATOM     79  C   UNL A   1      46.803  33.071  30.295  1.00  0.00     0.173 A 
ATOM     80  F   UNL A   1      45.961  33.868  26.847  1.00  0.00    -0.203 F 
ATOM     81  C   UNL A   1      46.347  35.284  28.688  1.00  0.00     0.198 A 
ATOM     82  C   UNL A   1      46.862  34.352  30.837  1.00  0.00     0.198 A 
ATOM     83  F   UNL A   1      47.032  32.022  31.100  1.00  0.00    -0.203 F 
ATOM     84  F   UNL A   1      46.163  36.353  27.900  1.00  0.00    -0.200 F 
ATOM     85  C   UNL A   1      46.643  35.457  30.031  1.00  0.00     0.200 A 
ATOM     86  F   UNL A   1      47.130  34.515  32.140  1.00  0.00    -0.200 F 
ATOM     87  F   UNL A   1      46.723  36.691  30.549  1.00  0.00    -0.200 F 
ENDBRANCH  54  77
ENDBRANCH  28  29
ENDBRANCH  21  23
ENDBRANCH  20  21
ENDBRANCH  19  20
ENDBRANCH  18  19
ENDBRANCH  17  18
ENDBRANCH   1  17
TORSDOF 18
ENDMDL
MODEL 2
REMARK VINA RESULT:      -9.7      1.807      2.899
REMARK SMILES CCN1C[C@@H](C(=O)OCCOCCOCCOC(=O)c2ccc(-c3c4nc(c(-c5c(F)c(F)c(F)c(F)c5F)c5ccc([nH]5)c(-c5c(F)c(F)c(F)c(F)c5F)c5nc(c(-c6c(F)c(F)c(F)c(F)c6F)c6ccc3[nH]6)C=C5)C=C4)cc2)CC1=O
REMARK SMILES IDX 13 1 12 2 11 3 10 4 9 5 8 6 6 7 7 8 5 9 3 10 4 11 84 12
REMARK SMILES IDX 83 13 85 14 2 15 1 16 14 17 15 18 16 19 17 20 18 21 19 22
REMARK SMILES IDX 20 23 21 24 82 25 22 26 81 27 23 28 24 29 25 30 75 31 26 32
REMARK SMILES IDX 80 33 74 34 76 35 27 36 79 37 73 38 72 39 28 41 60 42 40 43
REMARK SMILES IDX 59 44 41 45 44 46 58 47 77 48 42 49 43 50 57 52 78 53 45 54
REMARK SMILES IDX 29 55 30 56 38 57 31 58 32 59 36 60 39 61 33 62 34 63 37 64
REMARK SMILES IDX 35 65 61 66 62 67 70 68 63 69 64 70 68 71 71 72 65 73 66 74
REMARK SMILES IDX 69 75 67 76 46 77 47 78 55 79 48 80 49 81 53 82 56 83 50 84
REMARK SMILES IDX 51 85 54 86 52 87
REMARK H PARENT 76 40 44 51
REMARK Flexibility Score: inf
ROOT
ATOM      1  C   UNL A   1      38.165  22.713  25.569  1.00  0.00     0.188 C 
ENDROOT
BRANCH   1   2
ATOM      2  C   UNL A   1      36.644  22.798  25.781  1.00  0.00     0.188 C 
BRANCH   2   3
ATOM      3  O   UNL A   1      35.970  24.025  25.524  1.00  0.00    -0.376 OA
BRANCH   3   4
ATOM      4  C   UNL A   1      35.084  24.112  24.412  1.00  0.00     0.202 C 
BRANCH   4   5
ATOM      5  C   UNL A   1      33.665  23.531  24.545  1.00  0.00     0.261 C 
BRANCH   5   6
ATOM      6  O   UNL A   1      33.545  22.120  24.247  1.00  0.00    -0.463 OA
BRANCH   6   7
ATOM      7  C   UNL A   1      32.932  21.355  25.180  1.00  0.00     0.311 C 
ATOM      8  O   UNL A   1      32.822  21.664  26.363  1.00  0.00    -0.252 OA
BRANCH   7   9
ATOM      9  C   UNL A   1      32.321  20.070  24.658  1.00  0.00     0.128 C 
ATOM     10  N   UNL A   1      32.774  17.781  24.644  1.00  0.00    -0.342 N 
ATOM     11  C   UNL A   1      32.914  18.941  25.480  1.00  0.00     0.135 C 
ATOM     12  C   UNL A   1      32.600  18.105  23.315  1.00  0.00     0.223 C 
ATOM     13  C   UNL A   1      32.530  19.603  23.216  1.00  0.00     0.117 C 
ATOM     14  O   UNL A   1      32.548  17.336  22.371  1.00  0.00    -0.275 OA
BRANCH  10  15
ATOM     15  C   UNL A   1      33.127  16.454  25.098  1.00  0.00     0.116 C 
ATOM     16  C   UNL A   1      34.617  16.209  24.936  1.00  0.00     0.027 C 
ENDBRANCH  10  15
ENDBRANCH   7   9
ENDBRANCH   6   7
ENDBRANCH   5   6
ENDBRANCH   4   5
ENDBRANCH   3   4
ENDBRANCH   2   3
ENDBRANCH   1   2
BRANCH   1  17
ATOM     17  O   UNL A   1      38.777  21.581  26.135  1.00  0.00    -0.376 OA
BRANCH  17  18
ATOM     18  C   UNL A   1      38.726  20.362  25.424  1.00  0.00     0.202 C 
BRANCH  18  19
ATOM     19  C   UNL A   1      39.628  19.186  25.844  1.00  0.00     0.261 C 
BRANCH  19  20
ATOM     20  O   UNL A   1      41.024  19.274  25.511  1.00  0.00    -0.460 OA
BRANCH  20  21
ATOM     21  C   UNL A   1      41.891  19.510  26.528  1.00  0.00     0.338 C 
ATOM     22  O   UNL A   1      42.638  18.713  27.053  1.00  0.00    -0.246 OA
BRANCH  21  23
ATOM     23  C   UNL A   1      41.940  20.978  26.746  1.00  0.00     0.060 A 
ATOM     24  C   UNL A   1      42.012  21.833  25.635  1.00  0.00     0.016 A 
ATOM     25  C   UNL A   1      41.915  21.505  28.036  1.00  0.00     0.016 A 
ATOM     26  C   UNL A   1      42.079  23.217  25.815  1.00  0.00     0.010 A 
ATOM     27  C   UNL A   1      42.009  22.889  28.216  1.00  0.00     0.010 A 
ATOM     28  C   UNL A   1      42.120  23.751  27.109  1.00  0.00    -0.014 A 
BRANCH  28  29
ATOM     29  C   UNL A   1      42.466  25.180  27.322  1.00  0.00     0.031 A 
ATOM     30  C   UNL A   1      43.852  25.642  26.963  1.00  0.00     0.074 A 
ATOM     31  C   UNL A   1      41.583  26.053  27.839  1.00  0.00     0.049 A 
ATOM     32  N   UNL A   1      44.425  26.801  27.162  1.00  0.00    -0.248 NA
ATOM     33  C   UNL A   1      44.711  24.651  26.295  1.00  0.00     0.031 C 
ATOM     34  C   UNL A   1      40.198  25.749  28.189  1.00  0.00     0.029 A 
ATOM     35  N   UNL A   1      41.735  27.377  28.180  1.00  0.00    -0.354 N 
ATOM     36  C   UNL A   1      45.714  26.674  26.662  1.00  0.00     0.074 A 
ATOM     37  C   UNL A   1      45.848  25.319  26.173  1.00  0.00     0.031 C 
ATOM     38  C   UNL A   1      39.633  26.847  28.720  1.00  0.00     0.029 A 
ATOM     39  C   UNL A   1      40.627  27.919  28.784  1.00  0.00     0.049 A 
ATOM     40  H   UNL A   1      42.560  27.887  28.007  1.00  0.00     0.167 HD
ATOM     41  C   UNL A   1      46.697  27.604  26.611  1.00  0.00     0.037 A 
ATOM     42  C   UNL A   1      40.450  29.129  29.353  1.00  0.00     0.037 A 
ATOM     43  C   UNL A   1      46.562  28.953  27.097  1.00  0.00     0.049 A 
ATOM     44  C   UNL A   1      41.584  30.125  29.354  1.00  0.00     0.074 A 
ATOM     45  C   UNL A   1      47.490  29.979  27.063  1.00  0.00     0.029 A 
ATOM     46  N   UNL A   1      45.430  29.459  27.719  1.00  0.00    -0.354 N 
ATOM     47  N   UNL A   1      42.791  30.011  28.854  1.00  0.00    -0.248 NA
ATOM     48  C   UNL A   1      41.328  31.423  29.997  1.00  0.00     0.031 C 
ATOM     49  C   UNL A   1      46.948  31.083  27.726  1.00  0.00     0.029 A 
ATOM     50  C   UNL A   1      45.651  30.772  28.105  1.00  0.00     0.049 A 
ATOM     51  H   UNL A   1      44.594  28.960  27.865  1.00  0.00     0.167 HD
ATOM     52  C   UNL A   1      43.423  31.226  29.092  1.00  0.00     0.074 A 
ATOM     53  C   UNL A   1      42.463  32.069  29.771  1.00  0.00     0.031 C 
ATOM     54  C   UNL A   1      44.686  31.608  28.774  1.00  0.00     0.037 A 
BRANCH  41  55
ATOM     55  C   UNL A   1      48.024  27.183  26.048  1.00  0.00     0.064 A 
ATOM     56  C   UNL A   1      48.304  27.249  24.674  1.00  0.00     0.173 A 
ATOM     57  C   UNL A   1      49.042  26.732  26.902  1.00  0.00     0.173 A 
ATOM     58  F   UNL A   1      47.362  27.660  23.812  1.00  0.00    -0.203 F 
ATOM     59  C   UNL A   1      49.542  26.850  24.176  1.00  0.00     0.198 A 
ATOM     60  C   UNL A   1      50.290  26.367  26.405  1.00  0.00     0.198 A 
ATOM     61  F   UNL A   1      48.831  26.653  28.225  1.00  0.00    -0.203 F 
ATOM     62  F   UNL A   1      49.768  26.869  22.855  1.00  0.00    -0.200 F 
ATOM     63  C   UNL A   1      50.536  26.417  25.041  1.00  0.00     0.200 A 
ATOM     64  F   UNL A   1      51.254  25.965  27.245  1.00  0.00    -0.200 F 
ATOM     65  F   UNL A   1      51.729  26.041  24.560  1.00  0.00    -0.200 F 
ENDBRANCH  41  55
BRANCH  42  66
ATOM     66  C   UNL A   1      39.152  29.462  29.999  1.00  0.00     0.064 A 
ATOM     67  C   UNL A   1      38.103  30.038  29.266  1.00  0.00     0.173 A 
ATOM     68  C   UNL A   1      38.940  29.235  31.368  1.00  0.00     0.173 A 
ATOM     69  F   UNL A   1      38.265  30.304  27.962  1.00  0.00    -0.203 F 
ATOM     70  C   UNL A   1      36.903  30.390  29.881  1.00  0.00     0.198 A 
ATOM     71  C   UNL A   1      37.727  29.557  31.974  1.00  0.00     0.198 A 
ATOM     72  F   UNL A   1      39.912  28.693  32.116  1.00  0.00    -0.203 F 
ATOM     73  F   UNL A   1      35.938  30.988  29.168  1.00  0.00    -0.200 F 
ATOM     74  C   UNL A   1      36.713  30.142  31.232  1.00  0.00     0.200 A 
ATOM     75  F   UNL A   1      37.544  29.305  33.277  1.00  0.00    -0.200 F 
ATOM     76  F   UNL A   1      35.556  30.478  31.820  1.00  0.00    -0.200 F 
ENDBRANCH  42  66
BRANCH  54  77
ATOM     77  C   UNL A   1      45.095  33.016  29.111  1.00  0.00     0.064 A 
ATOM     78  C   UNL A   1      44.882  34.083  28.225  1.00  0.00     0.173 A 
ATOM     79  C   UNL A   1      45.664  33.308  30.360  1.00  0.00     0.173 A 
ATOM     80  F   UNL A   1      44.353  33.859  27.012  1.00  0.00    -0.203 F 
ATOM     81  C   UNL A   1      45.247  35.383  28.568  1.00  0.00     0.198 A 
ATOM     82  C   UNL A   1      45.994  34.614  30.714  1.00  0.00     0.198 A 
ATOM     83  F   UNL A   1      45.881  32.328  31.250  1.00  0.00    -0.203 F 
ATOM     84  F   UNL A   1      45.080  36.378  27.686  1.00  0.00    -0.200 F 
ATOM     85  C   UNL A   1      45.794  35.648  29.815  1.00  0.00     0.200 A 
ATOM     86  F   UNL A   1      46.504  34.869  31.926  1.00  0.00    -0.200 F 
ATOM     87  F   UNL A   1      46.133  36.902  30.147  1.00  0.00    -0.200 F 
ENDBRANCH  54  77
ENDBRANCH  28  29
ENDBRANCH  21  23
ENDBRANCH  20  21
ENDBRANCH  19  20
ENDBRANCH  18  19
ENDBRANCH  17  18
ENDBRANCH   1  17
TORSDOF 18
ENDMDL
MODEL 3
REMARK VINA RESULT:      -9.6      5.498      9.699
REMARK SMILES CCN1C[C@@H](C(=O)OCCOCCOCCOC(=O)c2ccc(-c3c4nc(c(-c5c(F)c(F)c(F)c(F)c5F)c5ccc([nH]5)c(-c5c(F)c(F)c(F)c(F)c5F)c5nc(c(-c6c(F)c(F)c(F)c(F)c6F)c6ccc3[nH]6)C=C5)C=C4)cc2)CC1=O
REMARK SMILES IDX 13 1 12 2 11 3 10 4 9 5 8 6 6 7 7 8 5 9 3 10 4 11 84 12
REMARK SMILES IDX 83 13 85 14 2 15 1 16 14 17 15 18 16 19 17 20 18 21 19 22
REMARK SMILES IDX 20 23 21 24 82 25 22 26 81 27 23 28 24 29 25 30 75 31 26 32
REMARK SMILES IDX 80 33 74 34 76 35 27 36 79 37 73 38 72 39 28 41 60 42 40 43
REMARK SMILES IDX 59 44 41 45 44 46 58 47 77 48 42 49 43 50 57 52 78 53 45 54
REMARK SMILES IDX 29 55 30 56 38 57 31 58 32 59 36 60 39 61 33 62 34 63 37 64
REMARK SMILES IDX 35 65 61 66 62 67 70 68 63 69 64 70 68 71 71 72 65 73 66 74
REMARK SMILES IDX 69 75 67 76 46 77 47 78 55 79 48 80 49 81 53 82 56 83 50 84
REMARK SMILES IDX 51 85 54 86 52 87
REMARK H PARENT 76 40 44 51
REMARK Flexibility Score: inf
ROOT
ATOM      1  C   UNL A   1      30.447  28.948  22.964  1.00  0.00     0.188 C 
ENDROOT
BRANCH   1   2
ATOM      2  C   UNL A   1      30.483  27.490  22.479  1.00  0.00     0.188 C 
BRANCH   2   3
ATOM      3  O   UNL A   1      30.914  26.467  23.370  1.00  0.00    -0.376 OA
BRANCH   3   4
ATOM      4  C   UNL A   1      30.075  25.337  23.590  1.00  0.00     0.202 C 
BRANCH   4   5
ATOM      5  C   UNL A   1      30.679  23.926  23.461  1.00  0.00     0.261 C 
BRANCH   5   6
ATOM      6  O   UNL A   1      32.105  23.842  23.692  1.00  0.00    -0.463 OA
BRANCH   6   7
ATOM      7  C   UNL A   1      32.512  22.972  24.645  1.00  0.00     0.311 C 
ATOM      8  O   UNL A   1      32.260  23.088  25.840  1.00  0.00    -0.252 OA
BRANCH   7   9
ATOM      9  C   UNL A   1      33.282  21.772  24.132  1.00  0.00     0.128 C 
ATOM     10  N   UNL A   1      33.271  19.447  24.343  1.00  0.00    -0.342 N 
ATOM     11  C   UNL A   1      32.373  20.568  24.297  1.00  0.00     0.135 C 
ATOM     12  C   UNL A   1      34.560  19.816  24.667  1.00  0.00     0.223 C 
ATOM     13  C   UNL A   1      34.592  21.315  24.777  1.00  0.00     0.117 C 
ATOM     14  O   UNL A   1      35.508  19.077  24.870  1.00  0.00    -0.275 OA
BRANCH  10  15
ATOM     15  C   UNL A   1      32.801  18.081  24.391  1.00  0.00     0.116 C 
ATOM     16  C   UNL A   1      33.257  17.313  23.164  1.00  0.00     0.027 C 
ENDBRANCH  10  15
ENDBRANCH   7   9
ENDBRANCH   6   7
ENDBRANCH   5   6
ENDBRANCH   4   5
ENDBRANCH   3   4
ENDBRANCH   2   3
ENDBRANCH   1   2
BRANCH   1  17
ATOM     17  O   UNL A   1      30.325  29.105  24.355  1.00  0.00    -0.376 OA
BRANCH  17  18
ATOM     18  C   UNL A   1      31.500  29.268  25.121  1.00  0.00     0.202 C 
BRANCH  18  19
ATOM     19  C   UNL A   1      31.863  30.651  25.692  1.00  0.00     0.261 C 
BRANCH  19  20
ATOM     20  O   UNL A   1      32.536  30.686  26.963  1.00  0.00    -0.460 OA
BRANCH  20  21
ATOM     21  C   UNL A   1      33.193  31.828  27.286  1.00  0.00     0.338 C 
ATOM     22  O   UNL A   1      32.742  32.952  27.299  1.00  0.00    -0.246 OA
BRANCH  21  23
ATOM     23  C   UNL A   1      34.512  31.444  27.849  1.00  0.00     0.060 A 
ATOM     24  C   UNL A   1      34.729  30.114  28.239  1.00  0.00     0.016 A 
ATOM     25  C   UNL A   1      35.526  32.391  27.988  1.00  0.00     0.016 A 
ATOM     26  C   UNL A   1      35.957  29.733  28.789  1.00  0.00     0.010 A 
ATOM     27  C   UNL A   1      36.744  32.014  28.564  1.00  0.00     0.010 A 
ATOM     28  C   UNL A   1      36.957  30.691  28.993  1.00  0.00    -0.014 A 
BRANCH  28  29
ATOM     29  C   UNL A   1      38.149  30.369  29.819  1.00  0.00     0.031 A 
ATOM     30  C   UNL A   1      39.158  29.397  29.271  1.00  0.00     0.074 A 
ATOM     31  C   UNL A   1      38.333  30.906  31.038  1.00  0.00     0.049 A 
ATOM     32  N   UNL A   1      40.211  28.872  29.844  1.00  0.00    -0.248 NA
ATOM     33  C   UNL A   1      38.940  28.950  27.886  1.00  0.00     0.031 C 
ATOM     34  C   UNL A   1      37.458  31.891  31.669  1.00  0.00     0.029 A 
ATOM     35  N   UNL A   1      39.314  30.678  31.974  1.00  0.00    -0.354 N 
ATOM     36  C   UNL A   1      40.769  28.021  28.898  1.00  0.00     0.074 A 
ATOM     37  C   UNL A   1      39.925  28.080  27.724  1.00  0.00     0.031 C 
ATOM     38  C   UNL A   1      37.926  32.164  32.899  1.00  0.00     0.029 A 
ATOM     39  C   UNL A   1      39.110  31.344  33.157  1.00  0.00     0.049 A 
ATOM     40  H   UNL A   1      40.089  30.092  31.810  1.00  0.00     0.167 HD
ATOM     41  C   UNL A   1      41.885  27.262  28.999  1.00  0.00     0.037 A 
ATOM     42  C   UNL A   1      39.783  31.271  34.324  1.00  0.00     0.037 A 
ATOM     43  C   UNL A   1      42.724  27.205  30.167  1.00  0.00     0.049 A 
ATOM     44  C   UNL A   1      40.981  30.361  34.439  1.00  0.00     0.074 A 
ATOM     45  C   UNL A   1      43.894  26.489  30.355  1.00  0.00     0.029 A 
ATOM     46  N   UNL A   1      42.474  27.880  31.353  1.00  0.00    -0.354 N 
ATOM     47  N   UNL A   1      41.521  29.581  33.534  1.00  0.00    -0.248 NA
ATOM     48  C   UNL A   1      41.665  30.323  35.740  1.00  0.00     0.031 C 
ATOM     49  C   UNL A   1      44.314  26.675  31.675  1.00  0.00     0.029 A 
ATOM     50  C   UNL A   1      43.450  27.568  32.288  1.00  0.00     0.049 A 
ATOM     51  H   UNL A   1      41.718  28.490  31.508  1.00  0.00     0.167 HD
ATOM     52  C   UNL A   1      42.621  28.988  34.143  1.00  0.00     0.074 A 
ATOM     53  C   UNL A   1      42.680  29.507  35.492  1.00  0.00     0.031 C 
ATOM     54  C   UNL A   1      43.504  28.096  33.628  1.00  0.00     0.037 A 
BRANCH  41  55
ATOM     55  C   UNL A   1      42.243  26.394  27.826  1.00  0.00     0.064 A 
ATOM     56  C   UNL A   1      41.648  25.140  27.619  1.00  0.00     0.173 A 
ATOM     57  C   UNL A   1      43.178  26.839  26.878  1.00  0.00     0.173 A 
ATOM     58  F   UNL A   1      40.758  24.661  28.501  1.00  0.00    -0.203 F 
ATOM     59  C   UNL A   1      41.998  24.353  26.525  1.00  0.00     0.198 A 
ATOM     60  C   UNL A   1      43.499  26.065  25.767  1.00  0.00     0.198 A 
ATOM     61  F   UNL A   1      43.775  28.032  27.023  1.00  0.00    -0.203 F 
ATOM     62  F   UNL A   1      41.458  23.135  26.378  1.00  0.00    -0.200 F 
ATOM     63  C   UNL A   1      42.917  24.818  25.596  1.00  0.00     0.200 A 
ATOM     64  F   UNL A   1      44.375  26.524  24.862  1.00  0.00    -0.200 F 
ATOM     65  F   UNL A   1      43.247  24.062  24.540  1.00  0.00    -0.200 F 
ENDBRANCH  41  55
BRANCH  42  66
ATOM     66  C   UNL A   1      39.324  32.067  35.495  1.00  0.00     0.064 A 
ATOM     67  C   UNL A   1      39.755  33.387  35.690  1.00  0.00     0.173 A 
ATOM     68  C   UNL A   1      38.465  31.515  36.459  1.00  0.00     0.173 A 
ATOM     69  F   UNL A   1      40.601  33.951  34.815  1.00  0.00    -0.203 F 
ATOM     70  C   UNL A   1      39.360  34.117  36.809  1.00  0.00     0.198 A 
ATOM     71  C   UNL A   1      38.044  32.258  37.560  1.00  0.00     0.198 A 
ATOM     72  F   UNL A   1      38.028  30.254  36.325  1.00  0.00    -0.203 F 
ATOM     73  F   UNL A   1      39.829  35.358  36.997  1.00  0.00    -0.200 F 
ATOM     74  C   UNL A   1      38.499  33.555  37.739  1.00  0.00     0.200 A 
ATOM     75  F   UNL A   1      37.203  31.713  38.450  1.00  0.00    -0.200 F 
ATOM     76  F   UNL A   1      38.117  34.259  38.814  1.00  0.00    -0.200 F 
ENDBRANCH  42  66
BRANCH  54  77
ATOM     77  C   UNL A   1      44.644  27.655  34.506  1.00  0.00     0.064 A 
ATOM     78  C   UNL A   1      44.563  26.506  35.306  1.00  0.00     0.173 A 
ATOM     79  C   UNL A   1      45.854  28.366  34.506  1.00  0.00     0.173 A 
ATOM     80  F   UNL A   1      43.426  25.795  35.355  1.00  0.00    -0.203 F 
ATOM     81  C   UNL A   1      45.641  26.102  36.092  1.00  0.00     0.198 A 
ATOM     82  C   UNL A   1      46.941  27.940  35.264  1.00  0.00     0.198 A 
ATOM     83  F   UNL A   1      45.991  29.467  33.752  1.00  0.00    -0.203 F 
ATOM     84  F   UNL A   1      45.522  25.029  36.888  1.00  0.00    -0.200 F 
ATOM     85  C   UNL A   1      46.830  26.814  36.064  1.00  0.00     0.200 A 
ATOM     86  F   UNL A   1      48.095  28.619  35.219  1.00  0.00    -0.200 F 
ATOM     87  F   UNL A   1      47.870  26.417  36.811  1.00  0.00    -0.200 F 
ENDBRANCH  54  77
ENDBRANCH  28  29
ENDBRANCH  21  23
ENDBRANCH  20  21
ENDBRANCH  19  20
ENDBRANCH  18  19
ENDBRANCH  17  18
ENDBRANCH   1  17
TORSDOF 18
ENDMDL
