MODEL 1
REMARK VINA RESULT:     -11.3      0.000      0.000
REMARK SMILES Cc1cccc2nc(C(=O)NCC(=O)OCCOCCOCCOC(=O)c3ccc(-c4c5nc(c(-c6c(F)c(F)c(F)c(F)c6F)c6ccc([nH]6)c(-c6c(F)c(F)c(F)c(F)c6F)c6nc(c(-c7c(F)c(F)c(F)c(F)c7F)c7ccc4[nH]7)C=C6)C=C5)cc3)cn12
REMARK SMILES IDX 19 1 18 2 17 3 16 4 15 5 13 6 14 7 12 8 11 9 9 10 10 11 8 13
REMARK SMILES IDX 1 14 2 15 3 16 91 17 4 18 6 19 90 20 5 21 7 22 20 23 21 24
REMARK SMILES IDX 22 25 23 26 24 27 25 28 26 29 27 30 28 31 89 32 29 33 88 34
REMARK SMILES IDX 30 35 31 36 32 37 82 38 33 39 87 40 81 41 83 42 34 43 86 44
REMARK SMILES IDX 80 45 79 46 35 48 67 49 47 50 66 51 48 52 51 53 65 54 84 55
REMARK SMILES IDX 49 56 50 57 64 59 85 60 52 61 36 62 37 63 45 64 38 65 39 66
REMARK SMILES IDX 43 67 46 68 40 69 41 70 44 71 42 72 68 73 69 74 77 75 70 76
REMARK SMILES IDX 71 77 75 78 78 79 72 80 73 81 76 82 74 83 53 84 54 85 62 86
REMARK SMILES IDX 55 87 56 88 60 89 63 90 57 91 58 92 61 93 59 94
REMARK H PARENT 11 12 83 47 51 58
REMARK Flexibility Score: inf
ROOT
ATOM      1  C   UNL A   1      38.494  22.355  26.073  1.00  0.00     0.188 C 
ENDROOT
BRANCH   1   2
ATOM      2  O   UNL A   1      37.523  21.470  25.575  1.00  0.00    -0.376 OA
BRANCH   2   3
ATOM      3  C   UNL A   1      36.156  21.732  25.857  1.00  0.00     0.202 C 
BRANCH   3   4
ATOM      4  C   UNL A   1      35.020  21.404  24.859  1.00  0.00     0.261 C 
BRANCH   4   5
ATOM      5  O   UNL A   1      34.247  20.224  25.152  1.00  0.00    -0.462 OA
BRANCH   5   6
ATOM      6  C   UNL A   1      32.892  20.319  24.992  1.00  0.00     0.325 C 
ATOM      7  O   UNL A   1      32.145  19.347  24.911  1.00  0.00    -0.250 OA
BRANCH   6   8
ATOM      8  C   UNL A   1      32.359  21.741  25.244  1.00  0.00     0.239 C 
BRANCH   8   9
ATOM      9  N   UNL A   1      31.421  21.979  26.336  1.00  0.00    -0.340 N 
ATOM     10  C   UNL A   1      30.756  23.128  26.663  1.00  0.00     0.272 C 
ATOM     11  O   UNL A   1      29.904  23.092  27.550  1.00  0.00    -0.267 OA
ATOM     12  H   UNL A   1      31.241  21.206  26.918  1.00  0.00     0.164 HD
BRANCH  10  13
ATOM     13  C   UNL A   1      31.064  24.345  25.926  1.00  0.00     0.147 A 
ATOM     14  C   UNL A   1      33.727  27.782  26.252  1.00  0.00     0.065 C 
ATOM     15  C   UNL A   1      32.649  27.486  25.257  1.00  0.00     0.021 A 
ATOM     16  C   UNL A   1      32.339  28.320  24.242  1.00  0.00     0.022 A 
ATOM     17  N   UNL A   1      31.929  26.286  25.360  1.00  0.00    -0.304 N 
ATOM     18  C   UNL A   1      31.276  27.968  23.311  1.00  0.00     0.006 A 
ATOM     19  C   UNL A   1      30.938  25.906  24.461  1.00  0.00     0.137 A 
ATOM     20  C   UNL A   1      32.004  25.286  26.295  1.00  0.00     0.127 A 
ATOM     21  C   UNL A   1      30.611  26.804  23.415  1.00  0.00     0.048 A 
ATOM     22  N   UNL A   1      30.444  24.729  24.756  1.00  0.00    -0.223 NA
ENDBRANCH  10  13
ENDBRANCH   8   9
ENDBRANCH   6   8
ENDBRANCH   5   6
ENDBRANCH   4   5
ENDBRANCH   3   4
ENDBRANCH   2   3
ENDBRANCH   1   2
BRANCH   1  23
ATOM     23  C   UNL A   1      39.941  21.879  26.223  1.00  0.00     0.188 C 
BRANCH  23  24
ATOM     24  O   UNL A   1      40.316  20.758  26.993  1.00  0.00    -0.376 OA
BRANCH  24  25
ATOM     25  C   UNL A   1      41.048  19.630  26.527  1.00  0.00     0.202 C 
BRANCH  25  26
ATOM     26  C   UNL A   1      42.554  19.603  26.252  1.00  0.00     0.261 C 
BRANCH  26  27
ATOM     27  O   UNL A   1      42.980  20.431  25.200  1.00  0.00    -0.460 OA
BRANCH  27  28
ATOM     28  C   UNL A   1      44.319  20.499  25.110  1.00  0.00     0.338 C 
ATOM     29  O   UNL A   1      45.122  19.570  25.068  1.00  0.00    -0.246 OA
BRANCH  28  30
ATOM     30  C   UNL A   1      44.692  21.905  25.035  1.00  0.00     0.060 A 
ATOM     31  C   UNL A   1      45.678  22.331  25.924  1.00  0.00     0.016 A 
ATOM     32  C   UNL A   1      43.807  22.778  24.392  1.00  0.00     0.016 A 
ATOM     33  C   UNL A   1      45.531  23.582  26.454  1.00  0.00     0.010 A 
ATOM     34  C   UNL A   1      43.642  24.016  24.943  1.00  0.00     0.010 A 
ATOM     35  C   UNL A   1      44.424  24.335  26.047  1.00  0.00    -0.014 A 
BRANCH  35  36
ATOM     36  C   UNL A   1      44.115  25.520  26.800  1.00  0.00     0.031 A 
ATOM     37  C   UNL A   1      45.116  26.573  26.580  1.00  0.00     0.074 A 
ATOM     38  C   UNL A   1      43.019  25.604  27.576  1.00  0.00     0.049 A 
ATOM     39  N   UNL A   1      46.026  26.954  27.408  1.00  0.00    -0.248 NA
ATOM     40  C   UNL A   1      45.275  27.096  25.214  1.00  0.00     0.031 C 
ATOM     41  C   UNL A   1      41.880  24.686  27.665  1.00  0.00     0.029 A 
ATOM     42  N   UNL A   1      42.668  26.607  28.422  1.00  0.00    -0.354 N 
ATOM     43  C   UNL A   1      46.743  27.932  26.735  1.00  0.00     0.074 A 
ATOM     44  C   UNL A   1      46.386  27.820  25.347  1.00  0.00     0.031 C 
ATOM     45  C   UNL A   1      40.873  25.288  28.343  1.00  0.00     0.029 A 
ATOM     46  C   UNL A   1      41.347  26.564  28.851  1.00  0.00     0.049 A 
ATOM     47  H   UNL A   1      43.298  27.307  28.708  1.00  0.00     0.167 HD
ATOM     48  C   UNL A   1      47.326  28.940  27.432  1.00  0.00     0.037 A 
ATOM     49  C   UNL A   1      40.705  27.562  29.511  1.00  0.00     0.037 A 
ATOM     50  C   UNL A   1      47.485  28.577  28.820  1.00  0.00     0.049 A 
ATOM     51  C   UNL A   1      41.758  28.412  30.130  1.00  0.00     0.074 A 
ATOM     52  C   UNL A   1      48.194  27.605  29.497  1.00  0.00     0.029 A 
ATOM     53  N   UNL A   1      46.536  29.036  29.698  1.00  0.00    -0.354 N 
ATOM     54  N   UNL A   1      42.533  28.009  31.098  1.00  0.00    -0.248 NA
ATOM     55  C   UNL A   1      42.258  29.538  29.354  1.00  0.00     0.031 C 
ATOM     56  C   UNL A   1      47.364  27.230  30.595  1.00  0.00     0.029 A 
ATOM     57  C   UNL A   1      46.219  28.029  30.568  1.00  0.00     0.049 A 
ATOM     58  H   UNL A   1      46.147  29.942  29.702  1.00  0.00     0.167 HD
ATOM     59  C   UNL A   1      43.783  28.526  30.786  1.00  0.00     0.074 A 
ATOM     60  C   UNL A   1      43.533  29.526  29.750  1.00  0.00     0.031 C 
ATOM     61  C   UNL A   1      44.920  27.885  31.185  1.00  0.00     0.037 A 
BRANCH  48  62
ATOM     62  C   UNL A   1      47.320  30.376  26.968  1.00  0.00     0.064 A 
ATOM     63  C   UNL A   1      48.509  31.122  27.086  1.00  0.00     0.173 A 
ATOM     64  C   UNL A   1      46.152  31.133  26.717  1.00  0.00     0.173 A 
ATOM     65  F   UNL A   1      49.676  30.510  27.340  1.00  0.00    -0.203 F 
ATOM     66  C   UNL A   1      48.510  32.517  27.050  1.00  0.00     0.198 A 
ATOM     67  C   UNL A   1      46.167  32.522  26.627  1.00  0.00     0.198 A 
ATOM     68  F   UNL A   1      44.934  30.588  26.661  1.00  0.00    -0.203 F 
ATOM     69  F   UNL A   1      49.642  33.185  27.306  1.00  0.00    -0.200 F 
ATOM     70  C   UNL A   1      47.339  33.216  26.829  1.00  0.00     0.200 A 
ATOM     71  F   UNL A   1      45.015  33.179  26.431  1.00  0.00    -0.200 F 
ATOM     72  F   UNL A   1      47.325  34.554  26.860  1.00  0.00    -0.200 F 
ENDBRANCH  48  62
BRANCH  49  73
ATOM     73  C   UNL A   1      39.320  28.056  29.298  1.00  0.00     0.064 A 
ATOM     74  C   UNL A   1      38.441  28.213  30.384  1.00  0.00     0.173 A 
ATOM     75  C   UNL A   1      38.934  28.669  28.091  1.00  0.00     0.173 A 
ATOM     76  F   UNL A   1      38.754  27.701  31.584  1.00  0.00    -0.203 F 
ATOM     77  C   UNL A   1      37.268  28.969  30.279  1.00  0.00     0.198 A 
ATOM     78  C   UNL A   1      37.760  29.419  27.985  1.00  0.00     0.198 A 
ATOM     79  F   UNL A   1      39.732  28.641  27.016  1.00  0.00    -0.203 F 
ATOM     80  F   UNL A   1      36.493  29.156  31.357  1.00  0.00    -0.200 F 
ATOM     81  C   UNL A   1      36.935  29.582  29.083  1.00  0.00     0.200 A 
ATOM     82  F   UNL A   1      37.469  30.040  26.832  1.00  0.00    -0.200 F 
ATOM     83  F   UNL A   1      35.850  30.364  28.998  1.00  0.00    -0.200 F 
ENDBRANCH  49  73
BRANCH  61  84
ATOM     84  C   UNL A   1      44.783  26.786  32.203  1.00  0.00     0.064 A 
ATOM     85  C   UNL A   1      44.535  25.439  31.884  1.00  0.00     0.173 A 
ATOM     86  C   UNL A   1      45.084  27.088  33.537  1.00  0.00     0.173 A 
ATOM     87  F   UNL A   1      44.324  25.058  30.617  1.00  0.00    -0.203 F 
ATOM     88  C   UNL A   1      44.568  24.448  32.866  1.00  0.00     0.198 A 
ATOM     89  C   UNL A   1      45.151  26.093  34.507  1.00  0.00     0.198 A 
ATOM     90  F   UNL A   1      45.373  28.351  33.889  1.00  0.00    -0.203 F 
ATOM     91  F   UNL A   1      44.330  23.168  32.539  1.00  0.00    -0.200 F 
ATOM     92  C   UNL A   1      44.889  24.775  34.173  1.00  0.00     0.200 A 
ATOM     93  F   UNL A   1      45.509  26.409  35.760  1.00  0.00    -0.200 F 
ATOM     94  F   UNL A   1      44.973  23.817  35.106  1.00  0.00    -0.200 F 
ENDBRANCH  61  84
ENDBRANCH  35  36
ENDBRANCH  28  30
ENDBRANCH  27  28
ENDBRANCH  26  27
ENDBRANCH  25  26
ENDBRANCH  24  25
ENDBRANCH  23  24
ENDBRANCH   1  23
TORSDOF 19
ENDMDL
MODEL 2
REMARK VINA RESULT:     -11.3      3.279      8.564
REMARK SMILES Cc1cccc2nc(C(=O)NCC(=O)OCCOCCOCCOC(=O)c3ccc(-c4c5nc(c(-c6c(F)c(F)c(F)c(F)c6F)c6ccc([nH]6)c(-c6c(F)c(F)c(F)c(F)c6F)c6nc(c(-c7c(F)c(F)c(F)c(F)c7F)c7ccc4[nH]7)C=C6)C=C5)cc3)cn12
REMARK SMILES IDX 19 1 18 2 17 3 16 4 15 5 13 6 14 7 12 8 11 9 9 10 10 11 8 13
REMARK SMILES IDX 1 14 2 15 3 16 91 17 4 18 6 19 90 20 5 21 7 22 20 23 21 24
REMARK SMILES IDX 22 25 23 26 24 27 25 28 26 29 27 30 28 31 89 32 29 33 88 34
REMARK SMILES IDX 30 35 31 36 32 37 82 38 33 39 87 40 81 41 83 42 34 43 86 44
REMARK SMILES IDX 80 45 79 46 35 48 67 49 47 50 66 51 48 52 51 53 65 54 84 55
REMARK SMILES IDX 49 56 50 57 64 59 85 60 52 61 36 62 37 63 45 64 38 65 39 66
REMARK SMILES IDX 43 67 46 68 40 69 41 70 44 71 42 72 68 73 69 74 77 75 70 76
REMARK SMILES IDX 71 77 75 78 78 79 72 80 73 81 76 82 74 83 53 84 54 85 62 86
REMARK SMILES IDX 55 87 56 88 60 89 63 90 57 91 58 92 61 93 59 94
REMARK H PARENT 11 12 83 47 51 58
REMARK Flexibility Score: inf
ROOT
ATOM      1  C   UNL A   1      33.536  27.143  26.147  1.00  0.00     0.188 C 
ENDROOT
BRANCH   1   2
ATOM      2  O   UNL A   1      33.719  26.849  24.785  1.00  0.00    -0.376 OA
BRANCH   2   3
ATOM      3  C   UNL A   1      33.301  27.804  23.821  1.00  0.00     0.202 C 
BRANCH   3   4
ATOM      4  C   UNL A   1      33.648  27.679  22.318  1.00  0.00     0.261 C 
BRANCH   4   5
ATOM      5  O   UNL A   1      34.016  26.361  21.866  1.00  0.00    -0.462 OA
BRANCH   5   6
ATOM      6  C   UNL A   1      32.994  25.498  21.585  1.00  0.00     0.325 C 
ATOM      7  O   UNL A   1      32.288  25.579  20.583  1.00  0.00    -0.250 OA
BRANCH   6   8
ATOM      8  C   UNL A   1      33.016  24.238  22.470  1.00  0.00     0.239 C 
BRANCH   8   9
ATOM      9  N   UNL A   1      32.250  24.212  23.711  1.00  0.00    -0.340 N 
ATOM     10  C   UNL A   1      32.620  23.745  24.941  1.00  0.00     0.272 C 
ATOM     11  O   UNL A   1      31.872  23.929  25.900  1.00  0.00    -0.267 OA
ATOM     12  H   UNL A   1      31.338  24.581  23.655  1.00  0.00     0.164 HD
BRANCH  10  13
ATOM     13  C   UNL A   1      33.904  23.072  25.072  1.00  0.00     0.147 A 
ATOM     14  C   UNL A   1      38.016  24.050  26.143  1.00  0.00     0.065 C 
ATOM     15  C   UNL A   1      37.424  22.763  25.657  1.00  0.00     0.021 A 
ATOM     16  C   UNL A   1      38.154  21.643  25.476  1.00  0.00     0.022 A 
ATOM     17  N   UNL A   1      36.048  22.698  25.389  1.00  0.00    -0.304 N 
ATOM     18  C   UNL A   1      37.510  20.427  25.000  1.00  0.00     0.006 A 
ATOM     19  C   UNL A   1      35.402  21.540  24.973  1.00  0.00     0.137 A 
ATOM     20  C   UNL A   1      35.087  23.675  25.448  1.00  0.00     0.127 A 
ATOM     21  C   UNL A   1      36.187  20.378  24.766  1.00  0.00     0.048 A 
ATOM     22  N   UNL A   1      34.114  21.732  24.825  1.00  0.00    -0.223 NA
ENDBRANCH  10  13
ENDBRANCH   8   9
ENDBRANCH   6   8
ENDBRANCH   5   6
ENDBRANCH   4   5
ENDBRANCH   3   4
ENDBRANCH   2   3
ENDBRANCH   1   2
BRANCH   1  23
ATOM     23  C   UNL A   1      32.204  27.727  26.620  1.00  0.00     0.188 C 
BRANCH  23  24
ATOM     24  O   UNL A   1      32.027  29.083  26.968  1.00  0.00    -0.376 OA
BRANCH  24  25
ATOM     25  C   UNL A   1      32.856  30.166  26.562  1.00  0.00     0.202 C 
BRANCH  25  26
ATOM     26  C   UNL A   1      33.669  31.060  27.501  1.00  0.00     0.261 C 
BRANCH  26  27
ATOM     27  O   UNL A   1      35.037  30.749  27.581  1.00  0.00    -0.460 OA
BRANCH  27  28
ATOM     28  C   UNL A   1      35.772  31.778  28.034  1.00  0.00     0.338 C 
ATOM     29  O   UNL A   1      35.736  32.950  27.671  1.00  0.00    -0.246 OA
BRANCH  28  30
ATOM     30  C   UNL A   1      36.639  31.276  29.093  1.00  0.00     0.060 A 
ATOM     31  C   UNL A   1      37.851  31.944  29.266  1.00  0.00     0.016 A 
ATOM     32  C   UNL A   1      36.397  29.984  29.573  1.00  0.00     0.016 A 
ATOM     33  C   UNL A   1      38.936  31.178  29.588  1.00  0.00     0.010 A 
ATOM     34  C   UNL A   1      37.485  29.214  29.864  1.00  0.00     0.010 A 
ATOM     35  C   UNL A   1      38.739  29.801  29.737  1.00  0.00    -0.014 A 
BRANCH  35  36
ATOM     36  C   UNL A   1      39.908  28.966  29.797  1.00  0.00     0.031 A 
ATOM     37  C   UNL A   1      40.416  28.850  31.171  1.00  0.00     0.074 A 
ATOM     38  C   UNL A   1      40.415  28.373  28.701  1.00  0.00     0.049 A 
ATOM     39  N   UNL A   1      41.471  29.412  31.650  1.00  0.00    -0.248 NA
ATOM     40  C   UNL A   1      39.536  28.240  32.180  1.00  0.00     0.031 C 
ATOM     41  C   UNL A   1      39.837  28.269  27.358  1.00  0.00     0.029 A 
ATOM     42  N   UNL A   1      41.567  27.662  28.592  1.00  0.00    -0.354 N 
ATOM     43  C   UNL A   1      41.506  29.040  32.986  1.00  0.00     0.074 A 
ATOM     44  C   UNL A   1      40.203  28.518  33.299  1.00  0.00     0.031 C 
ATOM     45  C   UNL A   1      40.531  27.351  26.643  1.00  0.00     0.029 A 
ATOM     46  C   UNL A   1      41.676  26.916  27.425  1.00  0.00     0.049 A 
ATOM     47  H   UNL A   1      42.267  27.673  29.285  1.00  0.00     0.167 HD
ATOM     48  C   UNL A   1      42.699  28.913  33.620  1.00  0.00     0.037 A 
ATOM     49  C   UNL A   1      42.614  25.963  27.190  1.00  0.00     0.037 A 
ATOM     50  C   UNL A   1      43.732  29.631  32.914  1.00  0.00     0.049 A 
ATOM     51  C   UNL A   1      43.747  26.240  28.113  1.00  0.00     0.074 A 
ATOM     52  C   UNL A   1      43.959  30.958  32.605  1.00  0.00     0.029 A 
ATOM     53  N   UNL A   1      44.537  28.904  32.074  1.00  0.00    -0.354 N 
ATOM     54  N   UNL A   1      44.513  27.292  28.020  1.00  0.00    -0.248 NA
ATOM     55  C   UNL A   1      43.728  25.593  29.417  1.00  0.00     0.031 C 
ATOM     56  C   UNL A   1      44.562  30.946  31.312  1.00  0.00     0.029 A 
ATOM     57  C   UNL A   1      44.728  29.616  30.922  1.00  0.00     0.049 A 
ATOM     58  H   UNL A   1      44.916  28.015  32.269  1.00  0.00     0.167 HD
ATOM     59  C   UNL A   1      44.723  27.691  29.332  1.00  0.00     0.074 A 
ATOM     60  C   UNL A   1      44.287  26.560  30.149  1.00  0.00     0.031 C 
ATOM     61  C   UNL A   1      44.952  29.003  29.632  1.00  0.00     0.037 A 
BRANCH  48  62
ATOM     62  C   UNL A   1      43.008  27.791  34.581  1.00  0.00     0.064 A 
ATOM     63  C   UNL A   1      43.370  28.124  35.901  1.00  0.00     0.173 A 
ATOM     64  C   UNL A   1      43.269  26.456  34.198  1.00  0.00     0.173 A 
ATOM     65  F   UNL A   1      43.183  29.368  36.368  1.00  0.00    -0.203 F 
ATOM     66  C   UNL A   1      44.028  27.217  36.734  1.00  0.00     0.198 A 
ATOM     67  C   UNL A   1      43.876  25.539  35.053  1.00  0.00     0.198 A 
ATOM     68  F   UNL A   1      43.061  26.003  32.958  1.00  0.00    -0.203 F 
ATOM     69  F   UNL A   1      44.478  27.622  37.929  1.00  0.00    -0.200 F 
ATOM     70  C   UNL A   1      44.288  25.930  36.307  1.00  0.00     0.200 A 
ATOM     71  F   UNL A   1      44.135  24.301  34.609  1.00  0.00    -0.200 F 
ATOM     72  F   UNL A   1      44.977  25.079  37.078  1.00  0.00    -0.200 F 
ENDBRANCH  48  62
BRANCH  49  73
ATOM     73  C   UNL A   1      42.428  24.635  26.550  1.00  0.00     0.064 A 
ATOM     74  C   UNL A   1      43.298  24.202  25.533  1.00  0.00     0.173 A 
ATOM     75  C   UNL A   1      41.602  23.649  27.123  1.00  0.00     0.173 A 
ATOM     76  F   UNL A   1      44.152  25.065  24.964  1.00  0.00    -0.203 F 
ATOM     77  C   UNL A   1      43.363  22.860  25.142  1.00  0.00     0.198 A 
ATOM     78  C   UNL A   1      41.665  22.311  26.728  1.00  0.00     0.198 A 
ATOM     79  F   UNL A   1      40.790  23.941  28.148  1.00  0.00    -0.203 F 
ATOM     80  F   UNL A   1      44.257  22.474  24.219  1.00  0.00    -0.200 F 
ATOM     81  C   UNL A   1      42.556  21.913  25.749  1.00  0.00     0.200 A 
ATOM     82  F   UNL A   1      40.906  21.398  27.353  1.00  0.00    -0.200 F 
ATOM     83  F   UNL A   1      42.666  20.617  25.426  1.00  0.00    -0.200 F 
ENDBRANCH  49  73
BRANCH  61  84
ATOM     84  C   UNL A   1      45.255  29.938  28.493  1.00  0.00     0.064 A 
ATOM     85  C   UNL A   1      44.279  30.641  27.764  1.00  0.00     0.173 A 
ATOM     86  C   UNL A   1      46.597  30.258  28.249  1.00  0.00     0.173 A 
ATOM     87  F   UNL A   1      42.974  30.453  28.001  1.00  0.00    -0.203 F 
ATOM     88  C   UNL A   1      44.638  31.604  26.821  1.00  0.00     0.198 A 
ATOM     89  C   UNL A   1      46.950  31.244  27.333  1.00  0.00     0.198 A 
ATOM     90  F   UNL A   1      47.568  29.651  28.949  1.00  0.00    -0.203 F 
ATOM     91  F   UNL A   1      43.689  32.263  26.138  1.00  0.00    -0.200 F 
ATOM     92  C   UNL A   1      45.972  31.913  26.616  1.00  0.00     0.200 A 
ATOM     93  F   UNL A   1      48.241  31.573  27.175  1.00  0.00    -0.200 F 
ATOM     94  F   UNL A   1      46.316  32.876  25.749  1.00  0.00    -0.200 F 
ENDBRANCH  61  84
ENDBRANCH  35  36
ENDBRANCH  28  30
ENDBRANCH  27  28
ENDBRANCH  26  27
ENDBRANCH  25  26
ENDBRANCH  24  25
ENDBRANCH  23  24
ENDBRANCH   1  23
TORSDOF 19
ENDMDL
MODEL 3
REMARK VINA RESULT:     -11.2      2.991      4.405
REMARK SMILES Cc1cccc2nc(C(=O)NCC(=O)OCCOCCOCCOC(=O)c3ccc(-c4c5nc(c(-c6c(F)c(F)c(F)c(F)c6F)c6ccc([nH]6)c(-c6c(F)c(F)c(F)c(F)c6F)c6nc(c(-c7c(F)c(F)c(F)c(F)c7F)c7ccc4[nH]7)C=C6)C=C5)cc3)cn12
REMARK SMILES IDX 19 1 18 2 17 3 16 4 15 5 13 6 14 7 12 8 11 9 9 10 10 11 8 13
REMARK SMILES IDX 1 14 2 15 3 16 91 17 4 18 6 19 90 20 5 21 7 22 20 23 21 24
REMARK SMILES IDX 22 25 23 26 24 27 25 28 26 29 27 30 28 31 89 32 29 33 88 34
REMARK SMILES IDX 30 35 31 36 32 37 82 38 33 39 87 40 81 41 83 42 34 43 86 44
REMARK SMILES IDX 80 45 79 46 35 48 67 49 47 50 66 51 48 52 51 53 65 54 84 55
REMARK SMILES IDX 49 56 50 57 64 59 85 60 52 61 36 62 37 63 45 64 38 65 39 66
REMARK SMILES IDX 43 67 46 68 40 69 41 70 44 71 42 72 68 73 69 74 77 75 70 76
REMARK SMILES IDX 71 77 75 78 78 79 72 80 73 81 76 82 74 83 53 84 54 85 62 86
REMARK SMILES IDX 55 87 56 88 60 89 63 90 57 91 58 92 61 93 59 94
REMARK H PARENT 11 12 83 47 51 58
REMARK Flexibility Score: inf
ROOT
ATOM      1  C   UNL A   1      33.926  20.142  24.993  1.00  0.00     0.188 C 
ENDROOT
BRANCH   1   2
ATOM      2  O   UNL A   1      33.175  20.597  23.895  1.00  0.00    -0.376 OA
BRANCH   2   3
ATOM      3  C   UNL A   1      32.913  21.988  23.779  1.00  0.00     0.202 C 
BRANCH   3   4
ATOM      4  C   UNL A   1      33.952  22.988  23.218  1.00  0.00     0.261 C 
BRANCH   4   5
ATOM      5  O   UNL A   1      33.865  24.334  23.724  1.00  0.00    -0.462 OA
BRANCH   5   6
ATOM      6  C   UNL A   1      33.476  25.301  22.840  1.00  0.00     0.325 C 
ATOM      7  O   UNL A   1      33.775  25.295  21.647  1.00  0.00    -0.250 OA
BRANCH   6   8
ATOM      8  C   UNL A   1      32.374  26.218  23.402  1.00  0.00     0.239 C 
BRANCH   8   9
ATOM      9  N   UNL A   1      31.447  25.703  24.404  1.00  0.00    -0.340 N 
ATOM     10  C   UNL A   1      31.175  26.187  25.652  1.00  0.00     0.272 C 
ATOM     11  O   UNL A   1      30.260  25.682  26.302  1.00  0.00    -0.267 OA
ATOM     12  H   UNL A   1      30.948  24.895  24.145  1.00  0.00     0.164 HD
BRANCH  10  13
ATOM     13  C   UNL A   1      31.963  27.304  26.153  1.00  0.00     0.147 A 
ATOM     14  C   UNL A   1      31.560  31.613  26.684  1.00  0.00     0.065 C 
ATOM     15  C   UNL A   1      32.735  30.716  26.919  1.00  0.00     0.021 A 
ATOM     16  C   UNL A   1      33.924  31.170  27.369  1.00  0.00     0.022 A 
ATOM     17  N   UNL A   1      32.607  29.339  26.682  1.00  0.00    -0.304 N 
ATOM     18  C   UNL A   1      35.025  30.239  27.574  1.00  0.00     0.006 A 
ATOM     19  C   UNL A   1      33.629  28.423  26.910  1.00  0.00     0.137 A 
ATOM     20  C   UNL A   1      31.546  28.619  26.197  1.00  0.00     0.127 A 
ATOM     21  C   UNL A   1      34.877  28.920  27.360  1.00  0.00     0.048 A 
ATOM     22  N   UNL A   1      33.247  27.199  26.644  1.00  0.00    -0.223 NA
ENDBRANCH  10  13
ENDBRANCH   8   9
ENDBRANCH   6   8
ENDBRANCH   5   6
ENDBRANCH   4   5
ENDBRANCH   3   4
ENDBRANCH   2   3
ENDBRANCH   1   2
BRANCH   1  23
ATOM     23  C   UNL A   1      35.434  20.395  25.030  1.00  0.00     0.188 C 
BRANCH  23  24
ATOM     24  O   UNL A   1      36.034  21.416  25.798  1.00  0.00    -0.376 OA
BRANCH  24  25
ATOM     25  C   UNL A   1      37.095  22.266  25.377  1.00  0.00     0.202 C 
BRANCH  25  26
ATOM     26  C   UNL A   1      38.531  22.218  25.904  1.00  0.00     0.261 C 
BRANCH  26  27
ATOM     27  O   UNL A   1      38.984  23.406  26.502  1.00  0.00    -0.460 OA
BRANCH  27  28
ATOM     28  C   UNL A   1      40.128  23.233  27.186  1.00  0.00     0.338 C 
ATOM     29  O   UNL A   1      40.514  22.223  27.769  1.00  0.00    -0.246 OA
BRANCH  28  30
ATOM     30  C   UNL A   1      40.891  24.471  27.103  1.00  0.00     0.060 A 
ATOM     31  C   UNL A   1      41.803  24.704  28.131  1.00  0.00     0.016 A 
ATOM     32  C   UNL A   1      40.403  25.480  26.264  1.00  0.00     0.016 A 
ATOM     33  C   UNL A   1      41.935  25.996  28.557  1.00  0.00     0.010 A 
ATOM     34  C   UNL A   1      40.510  26.765  26.709  1.00  0.00     0.010 A 
ATOM     35  C   UNL A   1      41.166  26.974  27.917  1.00  0.00    -0.014 A 
BRANCH  35  36
ATOM     36  C   UNL A   1      41.090  28.269  28.536  1.00  0.00     0.031 A 
ATOM     37  C   UNL A   1      42.248  29.102  28.183  1.00  0.00     0.074 A 
ATOM     38  C   UNL A   1      40.053  28.626  29.314  1.00  0.00     0.049 A 
ATOM     39  N   UNL A   1      43.238  29.406  28.949  1.00  0.00    -0.248 NA
ATOM     40  C   UNL A   1      42.448  29.437  26.764  1.00  0.00     0.031 C 
ATOM     41  C   UNL A   1      38.777  27.935  29.523  1.00  0.00     0.029 A 
ATOM     42  N   UNL A   1      39.908  29.760  30.047  1.00  0.00    -0.354 N 
ATOM     43  C   UNL A   1      44.088  30.166  28.159  1.00  0.00     0.074 A 
ATOM     44  C   UNL A   1      43.669  29.967  26.798  1.00  0.00     0.031 C 
ATOM     45  C   UNL A   1      37.912  28.773  30.144  1.00  0.00     0.029 A 
ATOM     46  C   UNL A   1      38.614  29.994  30.498  1.00  0.00     0.049 A 
ATOM     47  H   UNL A   1      40.658  30.367  30.242  1.00  0.00     0.167 HD
ATOM     48  C   UNL A   1      44.859  31.126  28.728  1.00  0.00     0.037 A 
ATOM     49  C   UNL A   1      38.176  31.154  31.050  1.00  0.00     0.037 A 
ATOM     50  C   UNL A   1      45.001  30.894  30.146  1.00  0.00     0.049 A 
ATOM     51  C   UNL A   1      39.379  31.870  31.554  1.00  0.00     0.074 A 
ATOM     52  C   UNL A   1      45.557  29.893  30.918  1.00  0.00     0.029 A 
ATOM     53  N   UNL A   1      44.176  31.604  30.982  1.00  0.00    -0.354 N 
ATOM     54  N   UNL A   1      40.107  31.446  32.549  1.00  0.00    -0.248 NA
ATOM     55  C   UNL A   1      40.037  32.801  30.649  1.00  0.00     0.031 C 
ATOM     56  C   UNL A   1      44.713  29.789  32.063  1.00  0.00     0.029 A 
ATOM     57  C   UNL A   1      43.722  30.767  31.964  1.00  0.00     0.049 A 
ATOM     58  H   UNL A   1      43.948  32.558  30.889  1.00  0.00     0.167 HD
ATOM     59  C   UNL A   1      41.415  31.701  32.162  1.00  0.00     0.074 A 
ATOM     60  C   UNL A   1      41.305  32.611  31.024  1.00  0.00     0.031 C 
ATOM     61  C   UNL A   1      42.439  30.919  32.613  1.00  0.00     0.037 A 
BRANCH  48  62
ATOM     62  C   UNL A   1      45.083  32.483  28.106  1.00  0.00     0.064 A 
ATOM     63  C   UNL A   1      46.403  32.871  27.805  1.00  0.00     0.173 A 
ATOM     64  C   UNL A   1      44.125  33.523  28.084  1.00  0.00     0.173 A 
ATOM     65  F   UNL A   1      47.398  31.970  27.812  1.00  0.00    -0.203 F 
ATOM     66  C   UNL A   1      46.748  34.207  27.594  1.00  0.00     0.198 A 
ATOM     67  C   UNL A   1      44.466  34.846  27.818  1.00  0.00     0.198 A 
ATOM     68  F   UNL A   1      42.847  33.338  28.426  1.00  0.00    -0.203 F 
ATOM     69  F   UNL A   1      48.036  34.543  27.450  1.00  0.00    -0.200 F 
ATOM     70  C   UNL A   1      45.781  35.194  27.609  1.00  0.00     0.200 A 
ATOM     71  F   UNL A   1      43.514  35.789  27.858  1.00  0.00    -0.200 F 
ATOM     72  F   UNL A   1      46.118  36.482  27.473  1.00  0.00    -0.200 F 
ENDBRANCH  48  62
BRANCH  49  73
ATOM     73  C   UNL A   1      36.889  31.855  30.804  1.00  0.00     0.064 A 
ATOM     74  C   UNL A   1      35.960  32.032  31.845  1.00  0.00     0.173 A 
ATOM     75  C   UNL A   1      36.680  32.627  29.646  1.00  0.00     0.173 A 
ATOM     76  F   UNL A   1      36.109  31.370  33.002  1.00  0.00    -0.203 F 
ATOM     77  C   UNL A   1      34.909  32.951  31.746  1.00  0.00     0.198 A 
ATOM     78  C   UNL A   1      35.628  33.541  29.546  1.00  0.00     0.198 A 
ATOM     79  F   UNL A   1      37.547  32.589  28.625  1.00  0.00    -0.203 F 
ATOM     80  F   UNL A   1      34.086  33.143  32.787  1.00  0.00    -0.200 F 
ATOM     81  C   UNL A   1      34.753  33.715  30.601  1.00  0.00     0.200 A 
ATOM     82  F   UNL A   1      35.512  34.302  28.448  1.00  0.00    -0.200 F 
ATOM     83  F   UNL A   1      33.791  34.645  30.531  1.00  0.00    -0.200 F 
ENDBRANCH  49  73
BRANCH  61  84
ATOM     84  C   UNL A   1      42.151  29.978  33.751  1.00  0.00     0.064 A 
ATOM     85  C   UNL A   1      41.658  28.670  33.590  1.00  0.00     0.173 A 
ATOM     86  C   UNL A   1      42.553  30.362  35.036  1.00  0.00     0.173 A 
ATOM     87  F   UNL A   1      41.334  28.200  32.378  1.00  0.00    -0.203 F 
ATOM     88  C   UNL A   1      41.555  27.801  34.676  1.00  0.00     0.198 A 
ATOM     89  C   UNL A   1      42.483  29.480  36.110  1.00  0.00     0.198 A 
ATOM     90  F   UNL A   1      43.074  31.583  35.238  1.00  0.00    -0.203 F 
ATOM     91  F   UNL A   1      41.083  26.557  34.500  1.00  0.00    -0.200 F 
ATOM     92  C   UNL A   1      41.980  28.202  35.931  1.00  0.00     0.200 A 
ATOM     93  F   UNL A   1      42.940  29.859  37.312  1.00  0.00    -0.200 F 
ATOM     94  F   UNL A   1      41.931  27.350  36.964  1.00  0.00    -0.200 F 
ENDBRANCH  61  84
ENDBRANCH  35  36
ENDBRANCH  28  30
ENDBRANCH  27  28
ENDBRANCH  26  27
ENDBRANCH  25  26
ENDBRANCH  24  25
ENDBRANCH  23  24
ENDBRANCH   1  23
TORSDOF 19
ENDMDL
