MODEL 1
REMARK VINA RESULT:     -11.4      0.000      0.000
REMARK SMILES O=C(OCCOCCOCCOC(=O)C1CCN(S(=O)(=O)c2ccc3nc(O)sc3c2)CC1)c1ccc(-c2c3nc(c(-c4c(F)c(F)c(F)c(F)c4F)c4ccc([nH]4)c(-c4c(F)c(F)c(F)c(F)c4F)c4nc(c(-c5c(F)c(F)c(F)c(F)c5F)c5ccc2[nH]5)C=C4)C=C3)cc1
REMARK SMILES IDX 8 1 7 2 6 3 5 4 4 5 3 6 2 7 1 8 34 9 35 10 96 11 36 12 95 13
REMARK SMILES IDX 37 14 38 15 39 16 89 17 40 18 94 19 88 20 90 21 41 22 93 23
REMARK SMILES IDX 87 24 86 25 42 27 74 28 54 29 73 30 55 31 58 32 72 33 91 34
REMARK SMILES IDX 56 35 57 36 71 38 92 39 59 40 43 41 44 42 52 43 45 44 46 45
REMARK SMILES IDX 50 46 53 47 47 48 48 49 51 50 49 51 75 52 76 53 84 54 77 55
REMARK SMILES IDX 78 56 82 57 85 58 79 59 80 60 83 61 81 62 60 63 61 64 69 65
REMARK SMILES IDX 62 66 63 67 67 68 70 69 64 70 65 71 68 72 66 73 9 74 10 75
REMARK SMILES IDX 11 76 12 77 13 78 14 79 15 80 16 81 33 82 17 83 32 84 18 85
REMARK SMILES IDX 19 86 20 87 21 88 22 89 23 90 31 91 24 92 30 93 25 94 29 95
REMARK SMILES IDX 26 96 27 97 28 98
REMARK H PARENT 90 26 58 37 28 99
REMARK Flexibility Score: inf
ROOT
ATOM      1  C   UNL A   1      39.391  21.731  25.976  1.00  0.00     0.188 C 
ENDROOT
BRANCH   1   2
ATOM      2  C   UNL A   1      39.864  22.847  26.915  1.00  0.00     0.188 C 
BRANCH   2   3
ATOM      3  O   UNL A   1      41.140  23.389  26.614  1.00  0.00    -0.376 OA
BRANCH   3   4
ATOM      4  C   UNL A   1      41.264  24.790  26.886  1.00  0.00     0.202 C 
BRANCH   4   5
ATOM      5  C   UNL A   1      41.983  25.583  25.785  1.00  0.00     0.261 C 
BRANCH   5   6
ATOM      6  O   UNL A   1      41.156  26.683  25.380  1.00  0.00    -0.460 OA
BRANCH   6   7
ATOM      7  C   UNL A   1      41.763  27.899  25.396  1.00  0.00     0.338 C 
ATOM      8  O   UNL A   1      42.623  28.294  24.626  1.00  0.00    -0.246 OA
BRANCH   7   9
ATOM      9  C   UNL A   1      41.373  28.624  26.629  1.00  0.00     0.060 A 
ATOM     10  C   UNL A   1      42.323  28.964  27.599  1.00  0.00     0.016 A 
ATOM     11  C   UNL A   1      40.020  28.804  26.901  1.00  0.00     0.016 A 
ATOM     12  C   UNL A   1      41.908  29.480  28.838  1.00  0.00     0.010 A 
ATOM     13  C   UNL A   1      39.615  29.258  28.141  1.00  0.00     0.010 A 
ATOM     14  C   UNL A   1      40.542  29.619  29.125  1.00  0.00    -0.014 A 
BRANCH  14  15
ATOM     15  C   UNL A   1      40.063  30.363  30.316  1.00  0.00     0.031 A 
ATOM     16  C   UNL A   1      40.509  29.732  31.627  1.00  0.00     0.074 A 
ATOM     17  C   UNL A   1      39.556  31.616  30.287  1.00  0.00     0.049 A 
ATOM     18  N   UNL A   1      41.661  29.962  32.209  1.00  0.00    -0.248 NA
ATOM     19  C   UNL A   1      39.851  28.516  32.115  1.00  0.00     0.031 C 
ATOM     20  C   UNL A   1      40.131  32.740  29.538  1.00  0.00     0.029 A 
ATOM     21  N   UNL A   1      38.701  32.226  31.183  1.00  0.00    -0.354 N 
ATOM     22  C   UNL A   1      41.886  28.925  33.115  1.00  0.00     0.074 A 
ATOM     23  C   UNL A   1      40.746  28.044  32.995  1.00  0.00     0.031 C 
ATOM     24  C   UNL A   1      39.903  33.885  30.211  1.00  0.00     0.029 A 
ATOM     25  C   UNL A   1      38.937  33.607  31.242  1.00  0.00     0.049 A 
ATOM     26  H   UNL A   1      38.017  31.753  31.710  1.00  0.00     0.167 HD
ATOM     27  C   UNL A   1      42.974  28.836  33.933  1.00  0.00     0.037 A 
ATOM     28  C   UNL A   1      38.714  34.346  32.356  1.00  0.00     0.037 A 
ATOM     29  C   UNL A   1      43.891  29.933  33.896  1.00  0.00     0.049 A 
ATOM     30  C   UNL A   1      39.874  33.877  33.208  1.00  0.00     0.074 A 
ATOM     31  C   UNL A   1      45.214  30.180  33.625  1.00  0.00     0.029 A 
ATOM     32  N   UNL A   1      43.501  31.080  34.540  1.00  0.00    -0.354 N 
ATOM     33  N   UNL A   1      41.115  34.276  33.099  1.00  0.00    -0.248 NA
ATOM     34  C   UNL A   1      39.729  32.649  33.972  1.00  0.00     0.031 C 
ATOM     35  C   UNL A   1      45.364  31.602  33.753  1.00  0.00     0.029 A 
ATOM     36  C   UNL A   1      44.097  32.157  33.942  1.00  0.00     0.049 A 
ATOM     37  H   UNL A   1      42.889  31.121  35.311  1.00  0.00     0.167 HD
ATOM     38  C   UNL A   1      41.953  33.343  33.709  1.00  0.00     0.074 A 
ATOM     39  C   UNL A   1      41.007  32.315  34.133  1.00  0.00     0.031 C 
ATOM     40  C   UNL A   1      43.348  33.398  33.734  1.00  0.00     0.037 A 
BRANCH  27  41
ATOM     41  C   UNL A   1      43.142  27.903  35.081  1.00  0.00     0.064 A 
ATOM     42  C   UNL A   1      44.164  26.943  34.948  1.00  0.00     0.173 A 
ATOM     43  C   UNL A   1      42.179  27.691  36.071  1.00  0.00     0.173 A 
ATOM     44  F   UNL A   1      45.092  27.088  33.987  1.00  0.00    -0.203 F 
ATOM     45  C   UNL A   1      44.185  25.788  35.717  1.00  0.00     0.198 A 
ATOM     46  C   UNL A   1      42.223  26.542  36.872  1.00  0.00     0.198 A 
ATOM     47  F   UNL A   1      41.157  28.547  36.222  1.00  0.00    -0.203 F 
ATOM     48  F   UNL A   1      45.116  24.853  35.483  1.00  0.00    -0.200 F 
ATOM     49  C   UNL A   1      43.211  25.583  36.677  1.00  0.00     0.200 A 
ATOM     50  F   UNL A   1      41.280  26.333  37.801  1.00  0.00    -0.200 F 
ATOM     51  F   UNL A   1      43.212  24.451  37.397  1.00  0.00    -0.200 F 
ENDBRANCH  27  41
BRANCH  28  52
ATOM     52  C   UNL A   1      37.246  34.302  32.678  1.00  0.00     0.064 A 
ATOM     53  C   UNL A   1      36.367  34.104  31.580  1.00  0.00     0.173 A 
ATOM     54  C   UNL A   1      36.655  34.279  33.943  1.00  0.00     0.173 A 
ATOM     55  F   UNL A   1      36.829  34.205  30.322  1.00  0.00    -0.203 F 
ATOM     56  C   UNL A   1      35.043  33.707  31.746  1.00  0.00     0.198 A 
ATOM     57  C   UNL A   1      35.318  33.890  34.111  1.00  0.00     0.198 A 
ATOM     58  F   UNL A   1      37.358  34.582  35.042  1.00  0.00    -0.203 F 
ATOM     59  F   UNL A   1      34.299  33.397  30.675  1.00  0.00    -0.200 F 
ATOM     60  C   UNL A   1      34.529  33.565  33.017  1.00  0.00     0.200 A 
ATOM     61  F   UNL A   1      34.809  33.775  35.345  1.00  0.00    -0.200 F 
ATOM     62  F   UNL A   1      33.284  33.099  33.191  1.00  0.00    -0.200 F 
ENDBRANCH  28  52
BRANCH  40  63
ATOM     63  C   UNL A   1      44.048  34.721  33.277  1.00  0.00     0.064 A 
ATOM     64  C   UNL A   1      44.521  35.798  34.591  1.00  0.00     0.173 A 
ATOM     65  C   UNL A   1      44.028  35.322  31.577  1.00  0.00     0.173 A 
ATOM     66  F   UNL A   1      45.059  35.314  35.726  1.00  0.00    -0.203 F 
ATOM     67  C   UNL A   1      44.822  37.517  34.279  1.00  0.00     0.198 A 
ATOM     68  C   UNL A   1      44.378  36.983  31.087  1.00  0.00     0.198 A 
ATOM     69  F   UNL A   1      43.402  34.641  30.617  1.00  0.00    -0.203 F 
ATOM     70  F   UNL A   1      45.105  38.157  35.453  1.00  0.00    -0.200 F 
ATOM     71  C   UNL A   1      44.771  38.173  32.361  1.00  0.00     0.200 A 
ATOM     72  F   UNL A   1      44.163  37.381  29.826  1.00  0.00    -0.200 F 
ATOM     73  F   UNL A   1      44.969  39.415  31.832  1.00  0.00    -0.200 F 
ENDBRANCH  40  63
ENDBRANCH  14  15
ENDBRANCH   7   9
ENDBRANCH   6   7
ENDBRANCH   5   6
ENDBRANCH   4   5
ENDBRANCH   3   4
ENDBRANCH   2   3
ENDBRANCH   1   2
BRANCH   1  74
ATOM     74  O   UNL A   1      38.003  21.522  25.769  1.00  0.00    -0.376 OA
BRANCH  74  75
ATOM     75  C   UNL A   1      37.087  22.617  25.746  1.00  0.00     0.202 C 
BRANCH  75  76
ATOM     76  C   UNL A   1      36.544  23.159  24.421  1.00  0.00     0.261 C 
BRANCH  76  77
ATOM     77  O   UNL A   1      35.718  22.202  23.762  1.00  0.00    -0.463 OA
BRANCH  77  78
ATOM     78  C   UNL A   1      34.464  22.634  23.488  1.00  0.00     0.309 C 
ATOM     79  O   UNL A   1      34.146  23.788  23.251  1.00  0.00    -0.252 OA
BRANCH  78  80
ATOM     80  C   UNL A   1      33.509  21.470  23.511  1.00  0.00     0.102 C 
ATOM     81  C   UNL A   1      32.053  21.851  23.265  1.00  0.00     0.032 C 
ATOM     82  C   UNL A   1      33.689  20.824  24.850  1.00  0.00     0.032 C 
ATOM     83  C   UNL A   1      31.446  22.721  24.360  1.00  0.00     0.103 C 
ATOM     84  C   UNL A   1      33.074  21.666  25.938  1.00  0.00     0.103 C 
ATOM     85  N   UNL A   1      31.714  22.236  25.760  1.00  0.00    -0.198 NA
BRANCH  85  86
ATOM     86  S   UNL A   1      31.333  23.572  26.877  1.00  0.00     0.243 S 
ATOM     87  O   UNL A   1      29.921  23.480  27.182  1.00  0.00    -0.207 OA
ATOM     88  O   UNL A   1      32.329  23.531  27.924  1.00  0.00    -0.207 OA
BRANCH  86  89
ATOM     89  C   UNL A   1      31.504  25.150  26.057  1.00  0.00     0.084 A 
ATOM     90  C   UNL A   1      33.113  25.766  25.727  1.00  0.00     0.024 A 
ATOM     91  C   UNL A   1      30.176  25.845  25.141  1.00  0.00     0.043 A 
ATOM     92  C   UNL A   1      33.383  27.209  24.347  1.00  0.00     0.031 A 
ATOM     93  C   UNL A   1      30.385  27.158  23.926  1.00  0.00     0.059 A 
ATOM     94  C   UNL A   1      31.912  27.849  23.514  1.00  0.00     0.085 A 
ATOM     95  S   UNL A   1      29.288  28.160  23.051  1.00  0.00    -0.077 S 
ATOM     96  N   UNL A   1      31.821  28.972  22.760  1.00  0.00    -0.203 NA
ATOM     97  C   UNL A   1      30.547  29.254  22.622  1.00  0.00     0.271 A 
BRANCH  97  98
ATOM     98  O   UNL A   1      30.270  30.468  22.179  1.00  0.00    -0.486 OA
ATOM     99  H   UNL A   1      30.774  30.839  21.482  1.00  0.00     0.296 HD
ENDBRANCH  97  98
ENDBRANCH  86  89
ENDBRANCH  85  86
ENDBRANCH  78  80
ENDBRANCH  77  78
ENDBRANCH  76  77
ENDBRANCH  75  76
ENDBRANCH  74  75
ENDBRANCH   1  74
TORSDOF 20
ENDMDL
MODEL 2
REMARK VINA RESULT:     -11.1      1.720      2.539
REMARK SMILES O=C(OCCOCCOCCOC(=O)C1CCN(S(=O)(=O)c2ccc3nc(O)sc3c2)CC1)c1ccc(-c2c3nc(c(-c4c(F)c(F)c(F)c(F)c4F)c4ccc([nH]4)c(-c4c(F)c(F)c(F)c(F)c4F)c4nc(c(-c5c(F)c(F)c(F)c(F)c5F)c5ccc2[nH]5)C=C4)C=C3)cc1
REMARK SMILES IDX 8 1 7 2 6 3 5 4 4 5 3 6 2 7 1 8 34 9 35 10 96 11 36 12 95 13
REMARK SMILES IDX 37 14 38 15 39 16 89 17 40 18 94 19 88 20 90 21 41 22 93 23
REMARK SMILES IDX 87 24 86 25 42 27 74 28 54 29 73 30 55 31 58 32 72 33 91 34
REMARK SMILES IDX 56 35 57 36 71 38 92 39 59 40 43 41 44 42 52 43 45 44 46 45
REMARK SMILES IDX 50 46 53 47 47 48 48 49 51 50 49 51 75 52 76 53 84 54 77 55
REMARK SMILES IDX 78 56 82 57 85 58 79 59 80 60 83 61 81 62 60 63 61 64 69 65
REMARK SMILES IDX 62 66 63 67 67 68 70 69 64 70 65 71 68 72 66 73 9 74 10 75
REMARK SMILES IDX 11 76 12 77 13 78 14 79 15 80 16 81 33 82 17 83 32 84 18 85
REMARK SMILES IDX 19 86 20 87 21 88 22 89 23 90 31 91 24 92 30 93 25 94 29 95
REMARK SMILES IDX 26 96 27 97 28 98
REMARK H PARENT 90 26 58 37 28 99
REMARK Flexibility Score: inf
ROOT
ATOM      1  C   UNL A   1      41.553  22.341  28.249  1.00  0.00     0.188 C 
ENDROOT
BRANCH   1   2
ATOM      2  C   UNL A   1      42.010  23.786  28.012  1.00  0.00     0.188 C 
BRANCH   2   3
ATOM      3  O   UNL A   1      43.191  23.925  27.238  1.00  0.00    -0.376 OA
BRANCH   3   4
ATOM      4  C   UNL A   1      42.958  24.103  25.835  1.00  0.00     0.202 C 
BRANCH   4   5
ATOM      5  C   UNL A   1      43.123  25.550  25.348  1.00  0.00     0.261 C 
BRANCH   5   6
ATOM      6  O   UNL A   1      41.910  26.273  25.602  1.00  0.00    -0.460 OA
BRANCH   6   7
ATOM      7  C   UNL A   1      42.002  27.621  25.464  1.00  0.00     0.338 C 
ATOM      8  O   UNL A   1      42.652  28.226  24.628  1.00  0.00    -0.246 OA
BRANCH   7   9
ATOM      9  C   UNL A   1      41.349  28.276  26.624  1.00  0.00     0.060 A 
ATOM     10  C   UNL A   1      39.964  28.479  26.654  1.00  0.00     0.016 A 
ATOM     11  C   UNL A   1      42.149  28.855  27.605  1.00  0.00     0.016 A 
ATOM     12  C   UNL A   1      39.391  29.265  27.668  1.00  0.00     0.010 A 
ATOM     13  C   UNL A   1      41.587  29.673  28.566  1.00  0.00     0.010 A 
ATOM     14  C   UNL A   1      40.205  29.882  28.630  1.00  0.00    -0.014 A 
BRANCH  14  15
ATOM     15  C   UNL A   1      39.638  30.526  29.839  1.00  0.00     0.031 A 
ATOM     16  C   UNL A   1      39.966  29.773  31.120  1.00  0.00     0.074 A 
ATOM     17  C   UNL A   1      39.150  31.787  29.883  1.00  0.00     0.049 A 
ATOM     18  N   UNL A   1      41.068  29.927  31.812  1.00  0.00    -0.248 NA
ATOM     19  C   UNL A   1      39.254  28.531  31.441  1.00  0.00     0.031 C 
ATOM     20  C   UNL A   1      39.798  32.962  29.288  1.00  0.00     0.029 A 
ATOM     21  N   UNL A   1      38.231  32.331  30.758  1.00  0.00    -0.354 N 
ATOM     22  C   UNL A   1      41.204  28.810  32.637  1.00  0.00     0.074 A 
ATOM     23  C   UNL A   1      40.068  27.965  32.345  1.00  0.00     0.031 C 
ATOM     24  C   UNL A   1      39.530  34.046  30.040  1.00  0.00     0.029 A 
ATOM     25  C   UNL A   1      38.478  33.697  30.961  1.00  0.00     0.049 A 
ATOM     26  H   UNL A   1      37.500  31.827  31.183  1.00  0.00     0.167 HD
ATOM     27  C   UNL A   1      42.220  28.627  33.529  1.00  0.00     0.037 A 
ATOM     28  C   UNL A   1      38.174  34.338  32.115  1.00  0.00     0.037 A 
ATOM     29  C   UNL A   1      43.151  29.705  33.666  1.00  0.00     0.049 A 
ATOM     30  C   UNL A   1      39.252  33.772  33.013  1.00  0.00     0.074 A 
ATOM     31  C   UNL A   1      44.495  29.949  33.527  1.00  0.00     0.029 A 
ATOM     32  N   UNL A   1      42.722  30.797  34.377  1.00  0.00    -0.354 N 
ATOM     33  N   UNL A   1      40.503  34.155  33.041  1.00  0.00    -0.248 NA
ATOM     34  C   UNL A   1      39.030  32.484  33.648  1.00  0.00     0.031 C 
ATOM     35  C   UNL A   1      44.650  31.350  33.795  1.00  0.00     0.029 A 
ATOM     36  C   UNL A   1      43.379  31.911  33.929  1.00  0.00     0.049 A 
ATOM     37  H   UNL A   1      42.049  30.781  35.096  1.00  0.00     0.167 HD
ATOM     38  C   UNL A   1      41.277  33.155  33.631  1.00  0.00     0.074 A 
ATOM     39  C   UNL A   1      40.286  32.112  33.881  1.00  0.00     0.031 C 
ATOM     40  C   UNL A   1      42.665  33.180  33.774  1.00  0.00     0.037 A 
BRANCH  27  41
ATOM     41  C   UNL A   1      42.281  27.592  34.597  1.00  0.00     0.064 A 
ATOM     42  C   UNL A   1      42.851  26.359  34.226  1.00  0.00     0.173 A 
ATOM     43  C   UNL A   1      41.529  27.630  35.775  1.00  0.00     0.173 A 
ATOM     44  F   UNL A   1      43.554  26.267  33.085  1.00  0.00    -0.203 F 
ATOM     45  C   UNL A   1      42.623  25.200  34.956  1.00  0.00     0.198 A 
ATOM     46  C   UNL A   1      41.331  26.467  36.530  1.00  0.00     0.198 A 
ATOM     47  F   UNL A   1      40.926  28.764  36.162  1.00  0.00    -0.203 F 
ATOM     48  F   UNL A   1      43.098  24.030  34.507  1.00  0.00    -0.200 F 
ATOM     49  C   UNL A   1      41.857  25.251  36.106  1.00  0.00     0.200 A 
ATOM     50  F   UNL A   1      40.585  26.506  37.643  1.00  0.00    -0.200 F 
ATOM     51  F   UNL A   1      41.608  24.126  36.792  1.00  0.00    -0.200 F 
ENDBRANCH  27  41
BRANCH  28  52
ATOM     52  C   UNL A   1      36.683  34.294  32.311  1.00  0.00     0.064 A 
ATOM     53  C   UNL A   1      36.215  34.559  33.627  1.00  0.00     0.173 A 
ATOM     54  C   UNL A   1      35.700  34.175  31.327  1.00  0.00     0.173 A 
ATOM     55  F   UNL A   1      37.079  34.595  34.654  1.00  0.00    -0.203 F 
ATOM     56  C   UNL A   1      34.888  34.886  33.894  1.00  0.00     0.198 A 
ATOM     57  C   UNL A   1      34.361  34.493  31.598  1.00  0.00     0.198 A 
ATOM     58  F   UNL A   1      36.010  33.798  30.080  1.00  0.00    -0.203 F 
ATOM     59  F   UNL A   1      34.529  35.265  35.129  1.00  0.00    -0.200 F 
ATOM     60  C   UNL A   1      33.966  34.888  32.868  1.00  0.00     0.200 A 
ATOM     61  F   UNL A   1      33.460  34.472  30.607  1.00  0.00    -0.200 F 
ATOM     62  F   UNL A   1      32.707  35.286  33.097  1.00  0.00    -0.200 F 
ENDBRANCH  28  52
BRANCH  40  63
ATOM     63  C   UNL A   1      43.417  34.525  33.496  1.00  0.00     0.064 A 
ATOM     64  C   UNL A   1      43.674  35.533  34.920  1.00  0.00     0.173 A 
ATOM     65  C   UNL A   1      43.653  35.211  31.846  1.00  0.00     0.173 A 
ATOM     66  F   UNL A   1      44.035  34.993  36.098  1.00  0.00    -0.203 F 
ATOM     67  C   UNL A   1      44.006  37.267  34.744  1.00  0.00     0.198 A 
ATOM     68  C   UNL A   1      44.062  36.895  31.500  1.00  0.00     0.198 A 
ATOM     69  F   UNL A   1      43.188  34.580  30.768  1.00  0.00    -0.203 F 
ATOM     70  F   UNL A   1      44.100  37.846  35.978  1.00  0.00    -0.200 F 
ATOM     71  C   UNL A   1      44.245  38.019  32.877  1.00  0.00     0.200 A 
ATOM     72  F   UNL A   1      44.040  37.356  30.242  1.00  0.00    -0.200 F 
ATOM     73  F   UNL A   1      44.512  39.286  32.448  1.00  0.00    -0.200 F 
ENDBRANCH  40  63
ENDBRANCH  14  15
ENDBRANCH   7   9
ENDBRANCH   6   7
ENDBRANCH   5   6
ENDBRANCH   4   5
ENDBRANCH   3   4
ENDBRANCH   2   3
ENDBRANCH   1   2
BRANCH   1  74
ATOM     74  O   UNL A   1      40.348  21.877  27.660  1.00  0.00    -0.376 OA
BRANCH  74  75
ATOM     75  C   UNL A   1      39.887  22.398  26.413  1.00  0.00     0.202 C 
BRANCH  75  76
ATOM     76  C   UNL A   1      38.589  23.204  26.330  1.00  0.00     0.261 C 
BRANCH  76  77
ATOM     77  O   UNL A   1      37.459  22.360  26.124  1.00  0.00    -0.463 OA
BRANCH  77  78
ATOM     78  C   UNL A   1      36.330  23.010  25.754  1.00  0.00     0.309 C 
ATOM     79  O   UNL A   1      36.285  24.076  25.162  1.00  0.00    -0.252 OA
BRANCH  78  80
ATOM     80  C   UNL A   1      35.123  22.215  26.177  1.00  0.00     0.102 C 
ATOM     81  C   UNL A   1      34.437  21.467  25.039  1.00  0.00     0.032 C 
ATOM     82  C   UNL A   1      34.198  23.197  26.826  1.00  0.00     0.032 C 
ATOM     83  C   UNL A   1      33.807  22.377  23.990  1.00  0.00     0.103 C 
ATOM     84  C   UNL A   1      33.553  24.088  25.796  1.00  0.00     0.103 C 
ATOM     85  N   UNL A   1      32.982  23.502  24.557  1.00  0.00    -0.198 NA
BRANCH  85  86
ATOM     86  S   UNL A   1      32.711  24.685  23.250  1.00  0.00     0.243 S 
ATOM     87  O   UNL A   1      33.866  24.627  22.381  1.00  0.00    -0.207 OA
ATOM     88  O   UNL A   1      31.378  24.440  22.743  1.00  0.00    -0.207 OA
BRANCH  86  89
ATOM     89  C   UNL A   1      32.726  26.351  23.893  1.00  0.00     0.084 A 
ATOM     90  C   UNL A   1      31.299  27.351  23.693  1.00  0.00     0.024 A 
ATOM     91  C   UNL A   1      33.881  26.839  25.124  1.00  0.00     0.043 A 
ATOM     92  C   UNL A   1      31.034  28.982  24.848  1.00  0.00     0.031 A 
ATOM     93  C   UNL A   1      33.684  28.308  26.146  1.00  0.00     0.059 A 
ATOM     94  C   UNL A   1      32.330  29.373  26.045  1.00  0.00     0.085 A 
ATOM     95  S   UNL A   1      34.714  29.138  27.252  1.00  0.00    -0.077 S 
ATOM     96  N   UNL A   1      32.491  30.533  26.729  1.00  0.00    -0.203 NA
ATOM     97  C   UNL A   1      33.705  30.534  27.225  1.00  0.00     0.271 A 
BRANCH  97  98
ATOM     98  O   UNL A   1      34.147  31.701  27.663  1.00  0.00    -0.486 OA
ATOM     99  H   UNL A   1      33.573  32.440  27.687  1.00  0.00     0.296 HD
ENDBRANCH  97  98
ENDBRANCH  86  89
ENDBRANCH  85  86
ENDBRANCH  78  80
ENDBRANCH  77  78
ENDBRANCH  76  77
ENDBRANCH  75  76
ENDBRANCH  74  75
ENDBRANCH   1  74
TORSDOF 20
ENDMDL
MODEL 3
REMARK VINA RESULT:     -11.0      6.204     11.672
REMARK SMILES O=C(OCCOCCOCCOC(=O)C1CCN(S(=O)(=O)c2ccc3nc(O)sc3c2)CC1)c1ccc(-c2c3nc(c(-c4c(F)c(F)c(F)c(F)c4F)c4ccc([nH]4)c(-c4c(F)c(F)c(F)c(F)c4F)c4nc(c(-c5c(F)c(F)c(F)c(F)c5F)c5ccc2[nH]5)C=C4)C=C3)cc1
REMARK SMILES IDX 8 1 7 2 6 3 5 4 4 5 3 6 2 7 1 8 34 9 35 10 96 11 36 12 95 13
REMARK SMILES IDX 37 14 38 15 39 16 89 17 40 18 94 19 88 20 90 21 41 22 93 23
REMARK SMILES IDX 87 24 86 25 42 27 74 28 54 29 73 30 55 31 58 32 72 33 91 34
REMARK SMILES IDX 56 35 57 36 71 38 92 39 59 40 43 41 44 42 52 43 45 44 46 45
REMARK SMILES IDX 50 46 53 47 47 48 48 49 51 50 49 51 75 52 76 53 84 54 77 55
REMARK SMILES IDX 78 56 82 57 85 58 79 59 80 60 83 61 81 62 60 63 61 64 69 65
REMARK SMILES IDX 62 66 63 67 67 68 70 69 64 70 65 71 68 72 66 73 9 74 10 75
REMARK SMILES IDX 11 76 12 77 13 78 14 79 15 80 16 81 33 82 17 83 32 84 18 85
REMARK SMILES IDX 19 86 20 87 21 88 22 89 23 90 31 91 24 92 30 93 25 94 29 95
REMARK SMILES IDX 26 96 27 97 28 98
REMARK H PARENT 90 26 58 37 28 99
REMARK Flexibility Score: inf
ROOT
ATOM      1  C   UNL A   1      40.174  32.910  37.689  1.00  0.00     0.188 C 
ENDROOT
BRANCH   1   2
ATOM      2  C   UNL A   1      41.373  32.228  37.019  1.00  0.00     0.188 C 
BRANCH   2   3
ATOM      3  O   UNL A   1      42.111  31.350  37.854  1.00  0.00    -0.376 OA
BRANCH   3   4
ATOM      4  C   UNL A   1      43.426  31.817  38.183  1.00  0.00     0.202 C 
BRANCH   4   5
ATOM      5  C   UNL A   1      44.561  30.950  37.620  1.00  0.00     0.261 C 
BRANCH   5   6
ATOM      6  O   UNL A   1      44.187  30.473  36.320  1.00  0.00    -0.460 OA
BRANCH   6   7
ATOM      7  C   UNL A   1      44.441  29.157  36.092  1.00  0.00     0.338 C 
ATOM      8  O   UNL A   1      45.026  28.389  36.836  1.00  0.00    -0.246 OA
BRANCH   7   9
ATOM      9  C   UNL A   1      44.079  28.825  34.693  1.00  0.00     0.060 A 
ATOM     10  C   UNL A   1      42.827  28.282  34.379  1.00  0.00     0.016 A 
ATOM     11  C   UNL A   1      45.065  28.887  33.712  1.00  0.00     0.016 A 
ATOM     12  C   UNL A   1      42.574  27.802  33.084  1.00  0.00     0.010 A 
ATOM     13  C   UNL A   1      44.830  28.362  32.457  1.00  0.00     0.010 A 
ATOM     14  C   UNL A   1      43.584  27.826  32.110  1.00  0.00    -0.014 A 
BRANCH  14  15
ATOM     15  C   UNL A   1      43.302  27.545  30.682  1.00  0.00     0.031 A 
ATOM     16  C   UNL A   1      43.317  28.798  29.818  1.00  0.00     0.074 A 
ATOM     17  C   UNL A   1      43.329  26.315  30.119  1.00  0.00     0.049 A 
ATOM     18  N   UNL A   1      44.395  29.320  29.285  1.00  0.00    -0.248 NA
ATOM     19  C   UNL A   1      42.188  29.731  29.863  1.00  0.00     0.031 C 
ATOM     20  C   UNL A   1      44.375  25.310  30.342  1.00  0.00     0.029 A 
ATOM     21  N   UNL A   1      42.684  25.867  28.984  1.00  0.00    -0.354 N 
ATOM     22  C   UNL A   1      44.096  30.639  28.944  1.00  0.00     0.074 A 
ATOM     23  C   UNL A   1      42.725  30.849  29.350  1.00  0.00     0.031 C 
ATOM     24  C   UNL A   1      44.538  24.582  29.221  1.00  0.00     0.029 A 
ATOM     25  C   UNL A   1      43.430  24.867  28.344  1.00  0.00     0.049 A 
ATOM     26  H   UNL A   1      41.816  26.205  28.666  1.00  0.00     0.167 HD
ATOM     27  C   UNL A   1      44.965  31.496  28.334  1.00  0.00     0.037 A 
ATOM     28  C   UNL A   1      43.391  24.658  27.006  1.00  0.00     0.037 A 
ATOM     29  C   UNL A   1      46.236  30.955  27.957  1.00  0.00     0.049 A 
ATOM     30  C   UNL A   1      44.173  25.867  26.537  1.00  0.00     0.074 A 
ATOM     31  C   UNL A   1      47.571  31.165  28.194  1.00  0.00     0.029 A 
ATOM     32  N   UNL A   1      46.252  30.148  26.848  1.00  0.00    -0.354 N 
ATOM     33  N   UNL A   1      45.475  25.989  26.556  1.00  0.00    -0.248 NA
ATOM     34  C   UNL A   1      43.478  27.133  26.380  1.00  0.00     0.031 C 
ATOM     35  C   UNL A   1      48.247  30.127  27.468  1.00  0.00     0.029 A 
ATOM     36  C   UNL A   1      47.283  29.254  26.959  1.00  0.00     0.049 A 
ATOM     37  H   UNL A   1      45.623  30.203  26.092  1.00  0.00     0.167 HD
ATOM     38  C   UNL A   1      45.811  27.341  26.482  1.00  0.00     0.074 A 
ATOM     39  C   UNL A   1      44.498  27.980  26.480  1.00  0.00     0.031 C 
ATOM     40  C   UNL A   1      47.104  27.862  26.543  1.00  0.00     0.037 A 
BRANCH  27  41
ATOM     41  C   UNL A   1      44.628  32.813  27.728  1.00  0.00     0.064 A 
ATOM     42  C   UNL A   1      44.425  33.872  28.633  1.00  0.00     0.173 A 
ATOM     43  C   UNL A   1      44.170  32.983  26.418  1.00  0.00     0.173 A 
ATOM     44  F   UNL A   1      44.818  33.740  29.912  1.00  0.00    -0.203 F 
ATOM     45  C   UNL A   1      43.732  35.020  28.271  1.00  0.00     0.198 A 
ATOM     46  C   UNL A   1      43.504  34.158  26.045  1.00  0.00     0.198 A 
ATOM     47  F   UNL A   1      44.296  31.996  25.519  1.00  0.00    -0.203 F 
ATOM     48  F   UNL A   1      43.471  35.955  29.195  1.00  0.00    -0.200 F 
ATOM     49  C   UNL A   1      43.266  35.162  26.977  1.00  0.00     0.200 A 
ATOM     50  F   UNL A   1      43.044  34.302  24.794  1.00  0.00    -0.200 F 
ATOM     51  F   UNL A   1      42.568  36.255  26.637  1.00  0.00    -0.200 F 
ENDBRANCH  27  41
BRANCH  28  52
ATOM     52  C   UNL A   1      41.995  24.250  26.623  1.00  0.00     0.064 A 
ATOM     53  C   UNL A   1      41.806  22.877  26.308  1.00  0.00     0.173 A 
ATOM     54  C   UNL A   1      40.835  25.025  26.689  1.00  0.00     0.173 A 
ATOM     55  F   UNL A   1      42.869  22.075  26.128  1.00  0.00    -0.203 F 
ATOM     56  C   UNL A   1      40.546  22.288  26.269  1.00  0.00     0.198 A 
ATOM     57  C   UNL A   1      39.564  24.433  26.639  1.00  0.00     0.198 A 
ATOM     58  F   UNL A   1      40.898  26.353  26.849  1.00  0.00    -0.203 F 
ATOM     59  F   UNL A   1      40.432  20.961  26.107  1.00  0.00    -0.200 F 
ATOM     60  C   UNL A   1      39.423  23.063  26.472  1.00  0.00     0.200 A 
ATOM     61  F   UNL A   1      38.472  25.190  26.812  1.00  0.00    -0.200 F 
ATOM     62  F   UNL A   1      38.212  22.492  26.525  1.00  0.00    -0.200 F 
ENDBRANCH  28  52
BRANCH  40  63
ATOM     63  C   UNL A   1      48.310  26.871  26.427  1.00  0.00     0.064 A 
ATOM     64  C   UNL A   1      48.710  26.017  27.918  1.00  0.00     0.173 A 
ATOM     65  C   UNL A   1      49.468  26.868  25.045  1.00  0.00     0.173 A 
ATOM     66  F   UNL A   1      47.745  25.538  28.724  1.00  0.00    -0.203 F 
ATOM     67  C   UNL A   1      50.313  25.290  28.134  1.00  0.00     0.198 A 
ATOM     68  C   UNL A   1      51.070  26.124  25.069  1.00  0.00     0.198 A 
ATOM     69  F   UNL A   1      49.335  27.732  24.038  1.00  0.00    -0.203 F 
ATOM     70  F   UNL A   1      50.409  24.749  29.386  1.00  0.00    -0.200 F 
ATOM     71  C   UNL A   1      51.605  25.320  26.573  1.00  0.00     0.200 A 
ATOM     72  F   UNL A   1      51.931  26.327  24.062  1.00  0.00    -0.200 F 
ATOM     73  F   UNL A   1      52.875  24.839  26.450  1.00  0.00    -0.200 F 
ENDBRANCH  40  63
ENDBRANCH  14  15
ENDBRANCH   7   9
ENDBRANCH   6   7
ENDBRANCH   5   6
ENDBRANCH   4   5
ENDBRANCH   3   4
ENDBRANCH   2   3
ENDBRANCH   1   2
BRANCH   1  74
ATOM     74  O   UNL A   1      38.904  32.277  37.677  1.00  0.00    -0.376 OA
BRANCH  74  75
ATOM     75  C   UNL A   1      38.266  31.923  36.450  1.00  0.00     0.202 C 
BRANCH  75  76
ATOM     76  C   UNL A   1      38.213  32.909  35.280  1.00  0.00     0.261 C 
BRANCH  76  77
ATOM     77  O   UNL A   1      38.805  32.360  34.104  1.00  0.00    -0.463 OA
BRANCH  77  78
ATOM     78  C   UNL A   1      39.103  33.270  33.146  1.00  0.00     0.309 C 
ATOM     79  O   UNL A   1      38.644  34.397  33.069  1.00  0.00    -0.252 OA
BRANCH  78  80
ATOM     80  C   UNL A   1      40.101  32.685  32.183  1.00  0.00     0.102 C 
ATOM     81  C   UNL A   1      40.006  33.244  30.768  1.00  0.00     0.032 C 
ATOM     82  C   UNL A   1      39.870  31.206  32.206  1.00  0.00     0.032 C 
ATOM     83  C   UNL A   1      38.705  32.899  30.051  1.00  0.00     0.103 C 
ATOM     84  C   UNL A   1      38.597  30.851  31.482  1.00  0.00     0.103 C 
ATOM     85  N   UNL A   1      38.301  31.453  30.157  1.00  0.00    -0.198 NA
BRANCH  85  86
ATOM     86  S   UNL A   1      36.591  31.331  29.667  1.00  0.00     0.243 S 
ATOM     87  O   UNL A   1      36.577  31.007  28.257  1.00  0.00    -0.207 OA
ATOM     88  O   UNL A   1      35.944  30.478  30.639  1.00  0.00    -0.207 OA
BRANCH  86  89
ATOM     89  C   UNL A   1      35.793  32.926  29.762  1.00  0.00     0.084 A 
ATOM     90  C   UNL A   1      34.718  33.416  28.465  1.00  0.00     0.024 A 
ATOM     91  C   UNL A   1      35.643  33.778  31.292  1.00  0.00     0.043 A 
ATOM     92  C   UNL A   1      33.382  34.896  28.760  1.00  0.00     0.031 A 
ATOM     93  C   UNL A   1      34.482  35.124  31.571  1.00  0.00     0.059 A 
ATOM     94  C   UNL A   1      33.375  35.701  30.379  1.00  0.00     0.085 A 
ATOM     95  S   UNL A   1      34.255  36.259  32.850  1.00  0.00    -0.077 S 
ATOM     96  N   UNL A   1      32.762  36.863  30.713  1.00  0.00    -0.203 NA
ATOM     97  C   UNL A   1      33.265  37.259  31.858  1.00  0.00     0.271 A 
BRANCH  97  98
ATOM     98  O   UNL A   1      33.014  38.513  32.194  1.00  0.00    -0.486 OA
ATOM     99  H   UNL A   1      33.020  38.767  33.095  1.00  0.00     0.296 HD
ENDBRANCH  97  98
ENDBRANCH  86  89
ENDBRANCH  85  86
ENDBRANCH  78  80
ENDBRANCH  77  78
ENDBRANCH  76  77
ENDBRANCH  75  76
ENDBRANCH  74  75
ENDBRANCH   1  74
TORSDOF 20
ENDMDL
