MODEL 1
REMARK VINA RESULT:     -10.5      0.000      0.000
REMARK SMILES C[C@@H]1CCC[C@H](C)[N@H+]1Cc1cc2c(cc1Cl)C=C(C(=O)OCCOCCOCCOC(=O)c1ccc(-c3c4nc(c(-c5c(F)c(F)c(F)c(F)c5F)c5ccc([nH]5)c(-c5c(F)c(F)c(F)c(F)c5F)c5nc(c(-c6c(F)c(F)c(F)c(F)c6F)c6ccc3[nH]6)C=C5)C=C4)cc1)[C@@H](C(F)(F)F)O2
REMARK SMILES IDX 25 1 24 2 23 3 22 4 21 5 19 6 20 7 18 8 10 9 11 10 15 11
REMARK SMILES IDX 12 12 14 13 16 14 13 15 101 16 17 17 96 18 9 19 8 20 7 21
REMARK SMILES IDX 6 22 5 23 4 24 2 25 3 27 1 28 97 29 98 30 99 31 100 32 26 33
REMARK SMILES IDX 27 34 28 35 29 36 30 37 31 38 32 39 33 40 34 41 95 42 35 43
REMARK SMILES IDX 94 44 36 45 37 46 38 47 88 48 39 49 93 50 87 51 89 52 40 53
REMARK SMILES IDX 92 54 86 55 85 56 41 58 73 59 53 60 72 61 54 62 57 63 71 64
REMARK SMILES IDX 90 65 55 66 56 67 70 69 91 70 58 71 42 72 43 73 51 74 44 75
REMARK SMILES IDX 45 76 49 77 52 78 46 79 47 80 50 81 48 82 74 83 75 84 83 85
REMARK SMILES IDX 76 86 77 87 81 88 84 89 78 90 79 91 82 92 80 93 59 94 60 95
REMARK SMILES IDX 68 96 61 97 62 98 66 99 69 100 63 101 64 102 67 103 65 104
REMARK H PARENT 8 26 89 57 57 68
REMARK Flexibility Score: inf
ROOT
ATOM      1  C   UNL A   1      34.228  31.316  28.018  1.00  0.00     0.188 C 
ENDROOT
BRANCH   1   2
ATOM      2  O   UNL A   1      32.951  31.354  27.431  1.00  0.00    -0.376 OA
BRANCH   2   3
ATOM      3  C   UNL A   1      32.545  30.430  26.439  1.00  0.00     0.202 C 
BRANCH   3   4
ATOM      4  C   UNL A   1      31.523  30.680  25.315  1.00  0.00     0.261 C 
BRANCH   4   5
ATOM      5  O   UNL A   1      30.584  29.646  25.020  1.00  0.00    -0.460 OA
BRANCH   5   6
ATOM      6  C   UNL A   1      30.544  29.265  23.722  1.00  0.00     0.338 C 
ATOM      7  O   UNL A   1      30.268  29.974  22.768  1.00  0.00    -0.246 OA
BRANCH   6   8
ATOM      8  C   UNL A   1      31.020  27.875  23.588  1.00  0.00     0.087 C 
ATOM      9  C   UNL A   1      31.715  22.914  24.146  1.00  0.00     0.029 A 
ATOM     10  C   UNL A   1      32.210  23.888  23.248  1.00  0.00     0.058 A 
ATOM     11  C   UNL A   1      30.901  23.358  25.202  1.00  0.00     0.050 A 
ATOM     12  C   UNL A   1      31.821  25.229  23.343  1.00  0.00     0.128 A 
ATOM     13  C   UNL A   1      30.456  24.682  25.252  1.00  0.00     0.033 A 
ATOM     14  Cl  UNL A   1      30.414  22.346  26.516  1.00  0.00    -0.084 Cl
ATOM     15  C   UNL A   1      30.897  25.610  24.312  1.00  0.00     0.019 A 
ATOM     16  O   UNL A   1      32.343  26.103  22.431  1.00  0.00    -0.475 OA
ATOM     17  C   UNL A   1      30.399  26.970  24.351  1.00  0.00     0.027 C 
ATOM     18  C   UNL A   1      32.176  27.533  22.683  1.00  0.00     0.316 C 
BRANCH   9  19
ATOM     19  C   UNL A   1      32.060  21.452  23.927  1.00  0.00     0.301 C 
BRANCH  19  20
ATOM     20  N   UNL A   1      32.759  20.737  25.020  1.00  0.00    -0.327 N 
ATOM     21  C   UNL A   1      33.904  21.258  27.155  1.00  0.00     0.075 C 
ATOM     22  C   UNL A   1      33.880  21.463  25.632  1.00  0.00     0.181 C 
ATOM     23  C   UNL A   1      35.247  21.117  25.021  1.00  0.00     0.065 C 
ATOM     24  C   UNL A   1      35.486  19.618  24.895  1.00  0.00     0.012 C 
ATOM     25  C   UNL A   1      32.948  19.295  24.807  1.00  0.00     0.181 C 
ATOM     26  H   UNL A   1      32.075  20.745  25.778  1.00  0.00     0.348 HD
ATOM     27  C   UNL A   1      34.315  18.927  24.206  1.00  0.00     0.065 C 
ATOM     28  C   UNL A   1      32.669  18.481  26.079  1.00  0.00     0.075 C 
ENDBRANCH  19  20
ENDBRANCH   9  19
BRANCH  18  29
ATOM     29  C   UNL A   1      33.483  28.145  23.208  1.00  0.00     0.430 C 
ATOM     30  F   UNL A   1      33.527  29.481  23.002  1.00  0.00    -0.167 F 
ATOM     31  F   UNL A   1      33.612  27.950  24.543  1.00  0.00    -0.167 F 
ATOM     32  F   UNL A   1      34.572  27.604  22.616  1.00  0.00    -0.167 F 
ENDBRANCH  18  29
ENDBRANCH   6   8
ENDBRANCH   5   6
ENDBRANCH   4   5
ENDBRANCH   3   4
ENDBRANCH   2   3
ENDBRANCH   1   2
BRANCH   1  33
ATOM     33  C   UNL A   1      34.615  32.477  28.956  1.00  0.00     0.188 C 
BRANCH  33  34
ATOM     34  O   UNL A   1      35.134  33.683  28.420  1.00  0.00    -0.376 OA
BRANCH  34  35
ATOM     35  C   UNL A   1      34.296  34.833  28.366  1.00  0.00     0.202 C 
BRANCH  35  36
ATOM     36  C   UNL A   1      33.096  34.941  29.316  1.00  0.00     0.261 C 
BRANCH  36  37
ATOM     37  O   UNL A   1      33.296  35.868  30.396  1.00  0.00    -0.460 OA
BRANCH  37  38
ATOM     38  C   UNL A   1      32.970  35.411  31.629  1.00  0.00     0.338 C 
ATOM     39  O   UNL A   1      31.865  35.374  32.142  1.00  0.00    -0.246 OA
BRANCH  38  40
ATOM     40  C   UNL A   1      34.150  34.749  32.217  1.00  0.00     0.060 A 
ATOM     41  C   UNL A   1      34.024  33.555  32.929  1.00  0.00     0.016 A 
ATOM     42  C   UNL A   1      35.406  35.347  32.043  1.00  0.00     0.016 A 
ATOM     43  C   UNL A   1      35.169  32.948  33.451  1.00  0.00     0.010 A 
ATOM     44  C   UNL A   1      36.546  34.750  32.585  1.00  0.00     0.010 A 
ATOM     45  C   UNL A   1      36.435  33.536  33.275  1.00  0.00    -0.014 A 
BRANCH  45  46
ATOM     46  C   UNL A   1      37.653  32.800  33.690  1.00  0.00     0.031 A 
ATOM     47  C   UNL A   1      38.297  31.780  32.804  1.00  0.00     0.074 A 
ATOM     48  C   UNL A   1      38.185  33.087  34.893  1.00  0.00     0.049 A 
ATOM     49  N   UNL A   1      39.419  31.129  32.983  1.00  0.00    -0.248 NA
ATOM     50  C   UNL A   1      37.599  31.446  31.554  1.00  0.00     0.031 C 
ATOM     51  C   UNL A   1      37.632  34.053  35.842  1.00  0.00     0.029 A 
ATOM     52  N   UNL A   1      39.313  32.614  35.513  1.00  0.00    -0.354 N 
ATOM     53  C   UNL A   1      39.586  30.339  31.856  1.00  0.00     0.074 A 
ATOM     54  C   UNL A   1      38.418  30.547  31.021  1.00  0.00     0.031 C 
ATOM     55  C   UNL A   1      38.440  34.126  36.911  1.00  0.00     0.029 A 
ATOM     56  C   UNL A   1      39.554  33.200  36.730  1.00  0.00     0.049 A 
ATOM     57  H   UNL A   1      39.893  31.921  35.123  1.00  0.00     0.167 HD
ATOM     58  C   UNL A   1      40.631  29.537  31.540  1.00  0.00     0.037 A 
ATOM     59  C   UNL A   1      40.569  33.022  37.596  1.00  0.00     0.037 A 
ATOM     60  C   UNL A   1      41.777  29.314  32.386  1.00  0.00     0.049 A 
ATOM     61  C   UNL A   1      41.673  32.063  37.249  1.00  0.00     0.074 A 
ATOM     62  C   UNL A   1      42.886  28.521  32.143  1.00  0.00     0.029 A 
ATOM     63  N   UNL A   1      41.958  29.877  33.641  1.00  0.00    -0.354 N 
ATOM     64  N   UNL A   1      41.851  31.367  36.154  1.00  0.00    -0.248 NA
ATOM     65  C   UNL A   1      42.722  31.870  38.260  1.00  0.00     0.031 C 
ATOM     66  C   UNL A   1      43.717  28.570  33.267  1.00  0.00     0.029 A 
ATOM     67  C   UNL A   1      43.151  29.431  34.192  1.00  0.00     0.049 A 
ATOM     68  H   UNL A   1      41.333  30.501  34.075  1.00  0.00     0.167 HD
ATOM     69  C   UNL A   1      43.043  30.679  36.329  1.00  0.00     0.074 A 
ATOM     70  C   UNL A   1      43.554  31.051  37.632  1.00  0.00     0.031 C 
ATOM     71  C   UNL A   1      43.655  29.813  35.486  1.00  0.00     0.037 A 
BRANCH  58  72
ATOM     72  C   UNL A   1      40.615  28.852  30.204  1.00  0.00     0.064 A 
ATOM     73  C   UNL A   1      39.879  27.674  30.008  1.00  0.00     0.173 A 
ATOM     74  C   UNL A   1      41.235  29.434  29.089  1.00  0.00     0.173 A 
ATOM     75  F   UNL A   1      39.271  27.078  31.044  1.00  0.00    -0.203 F 
ATOM     76  C   UNL A   1      39.765  27.103  28.743  1.00  0.00     0.198 A 
ATOM     77  C   UNL A   1      41.100  28.873  27.821  1.00  0.00     0.198 A 
ATOM     78  F   UNL A   1      41.941  30.567  29.221  1.00  0.00    -0.203 F 
ATOM     79  F   UNL A   1      39.065  25.972  28.582  1.00  0.00    -0.200 F 
ATOM     80  C   UNL A   1      40.365  27.709  27.649  1.00  0.00     0.200 A 
ATOM     81  F   UNL A   1      41.665  29.469  26.762  1.00  0.00    -0.200 F 
ATOM     82  F   UNL A   1      40.231  27.173  26.428  1.00  0.00    -0.200 F 
ENDBRANCH  58  72
BRANCH  59  83
ATOM     83  C   UNL A   1      40.613  33.808  38.855  1.00  0.00     0.064 A 
ATOM     84  C   UNL A   1      41.343  35.002  38.926  1.00  0.00     0.173 A 
ATOM     85  C   UNL A   1      39.931  33.387  40.005  1.00  0.00     0.173 A 
ATOM     86  F   UNL A   1      42.027  35.434  37.855  1.00  0.00    -0.203 F 
ATOM     87  C   UNL A   1      41.404  35.737  40.107  1.00  0.00     0.198 A 
ATOM     88  C   UNL A   1      39.971  34.137  41.178  1.00  0.00     0.198 A 
ATOM     89  F   UNL A   1      39.215  32.253  39.985  1.00  0.00    -0.203 F 
ATOM     90  F   UNL A   1      42.143  36.853  40.161  1.00  0.00    -0.200 F 
ATOM     91  C   UNL A   1      40.714  35.307  41.231  1.00  0.00     0.200 A 
ATOM     92  F   UNL A   1      39.291  33.726  42.257  1.00  0.00    -0.200 F 
ATOM     93  F   UNL A   1      40.770  36.016  42.366  1.00  0.00    -0.200 F 
ENDBRANCH  59  83
BRANCH  71  94
ATOM     94  C   UNL A   1      44.961  29.222  35.931  1.00  0.00     0.064 A 
ATOM     95  C   UNL A   1      45.016  28.004  36.625  1.00  0.00     0.173 A 
ATOM     96  C   UNL A   1      46.174  29.851  35.612  1.00  0.00     0.173 A 
ATOM     97  F   UNL A   1      43.883  27.371  36.966  1.00  0.00    -0.203 F 
ATOM     98  C   UNL A   1      46.235  27.449  37.001  1.00  0.00     0.198 A 
ATOM     99  C   UNL A   1      47.394  29.279  35.966  1.00  0.00     0.198 A 
ATOM    100  F   UNL A   1      46.179  31.014  34.944  1.00  0.00    -0.203 F 
ATOM    101  F   UNL A   1      46.260  26.305  37.700  1.00  0.00    -0.200 F 
ATOM    102  C   UNL A   1      47.423  28.081  36.664  1.00  0.00     0.200 A 
ATOM    103  F   UNL A   1      48.540  29.884  35.627  1.00  0.00    -0.200 F 
ATOM    104  F   UNL A   1      48.596  27.539  37.018  1.00  0.00    -0.200 F 
ENDBRANCH  71  94
ENDBRANCH  45  46
ENDBRANCH  38  40
ENDBRANCH  37  38
ENDBRANCH  36  37
ENDBRANCH  35  36
ENDBRANCH  34  35
ENDBRANCH  33  34
ENDBRANCH   1  33
TORSDOF 20
ENDMDL
MODEL 2
REMARK VINA RESULT:     -10.5      4.923      7.763
REMARK SMILES C[C@@H]1CCC[C@H](C)[N@H+]1Cc1cc2c(cc1Cl)C=C(C(=O)OCCOCCOCCOC(=O)c1ccc(-c3c4nc(c(-c5c(F)c(F)c(F)c(F)c5F)c5ccc([nH]5)c(-c5c(F)c(F)c(F)c(F)c5F)c5nc(c(-c6c(F)c(F)c(F)c(F)c6F)c6ccc3[nH]6)C=C5)C=C4)cc1)[C@@H](C(F)(F)F)O2
REMARK SMILES IDX 25 1 24 2 23 3 22 4 21 5 19 6 20 7 18 8 10 9 11 10 15 11
REMARK SMILES IDX 12 12 14 13 16 14 13 15 101 16 17 17 96 18 9 19 8 20 7 21
REMARK SMILES IDX 6 22 5 23 4 24 2 25 3 27 1 28 97 29 98 30 99 31 100 32 26 33
REMARK SMILES IDX 27 34 28 35 29 36 30 37 31 38 32 39 33 40 34 41 95 42 35 43
REMARK SMILES IDX 94 44 36 45 37 46 38 47 88 48 39 49 93 50 87 51 89 52 40 53
REMARK SMILES IDX 92 54 86 55 85 56 41 58 73 59 53 60 72 61 54 62 57 63 71 64
REMARK SMILES IDX 90 65 55 66 56 67 70 69 91 70 58 71 42 72 43 73 51 74 44 75
REMARK SMILES IDX 45 76 49 77 52 78 46 79 47 80 50 81 48 82 74 83 75 84 83 85
REMARK SMILES IDX 76 86 77 87 81 88 84 89 78 90 79 91 82 92 80 93 59 94 60 95
REMARK SMILES IDX 68 96 61 97 62 98 66 99 69 100 63 101 64 102 67 103 65 104
REMARK H PARENT 8 26 89 57 57 68
REMARK Flexibility Score: inf
ROOT
ATOM      1  C   UNL A   1      35.525  33.423  28.274  1.00  0.00     0.188 C 
ENDROOT
BRANCH   1   2
ATOM      2  O   UNL A   1      34.665  32.490  27.670  1.00  0.00    -0.376 OA
BRANCH   2   3
ATOM      3  C   UNL A   1      34.936  31.100  27.668  1.00  0.00     0.202 C 
BRANCH   3   4
ATOM      4  C   UNL A   1      33.964  29.976  27.265  1.00  0.00     0.261 C 
BRANCH   4   5
ATOM      5  O   UNL A   1      34.429  28.983  26.352  1.00  0.00    -0.460 OA
BRANCH   5   6
ATOM      6  C   UNL A   1      33.629  28.771  25.282  1.00  0.00     0.338 C 
ATOM      7  O   UNL A   1      33.295  29.602  24.452  1.00  0.00    -0.246 OA
BRANCH   6   8
ATOM      8  C   UNL A   1      33.310  27.336  25.164  1.00  0.00     0.087 C 
ATOM      9  C   UNL A   1      32.752  22.616  23.486  1.00  0.00     0.029 A 
ATOM     10  C   UNL A   1      32.543  23.255  24.730  1.00  0.00     0.058 A 
ATOM     11  C   UNL A   1      33.123  23.421  22.396  1.00  0.00     0.050 A 
ATOM     12  C   UNL A   1      32.797  24.621  24.897  1.00  0.00     0.128 A 
ATOM     13  C   UNL A   1      33.446  24.768  22.581  1.00  0.00     0.033 A 
ATOM     14  Cl  UNL A   1      33.182  22.846  20.767  1.00  0.00    -0.084 Cl
ATOM     15  C   UNL A   1      33.305  25.361  23.833  1.00  0.00     0.019 A 
ATOM     16  O   UNL A   1      32.573  25.158  26.135  1.00  0.00    -0.475 OA
ATOM     17  C   UNL A   1      33.680  26.749  24.022  1.00  0.00     0.027 C 
ATOM     18  C   UNL A   1      32.561  26.614  26.255  1.00  0.00     0.316 C 
BRANCH   9  19
ATOM     19  C   UNL A   1      32.588  21.110  23.383  1.00  0.00     0.301 C 
BRANCH  19  20
ATOM     20  N   UNL A   1      32.983  20.292  24.553  1.00  0.00    -0.327 N 
ATOM     21  C   UNL A   1      33.852  20.622  26.851  1.00  0.00     0.075 C 
ATOM     22  C   UNL A   1      34.099  20.826  25.348  1.00  0.00     0.181 C 
ATOM     23  C   UNL A   1      35.470  20.261  24.947  1.00  0.00     0.065 C 
ATOM     24  C   UNL A   1      35.480  18.742  24.823  1.00  0.00     0.012 C 
ATOM     25  C   UNL A   1      32.969  18.838  24.337  1.00  0.00     0.181 C 
ATOM     26  H   UNL A   1      32.201  20.413  25.197  1.00  0.00     0.348 HD
ATOM     27  C   UNL A   1      34.335  18.251  23.946  1.00  0.00     0.065 C 
ATOM     28  C   UNL A   1      32.367  18.083  25.532  1.00  0.00     0.075 C 
ENDBRANCH  19  20
ENDBRANCH   9  19
BRANCH  18  29
ATOM     29  C   UNL A   1      31.120  27.134  26.367  1.00  0.00     0.430 C 
ATOM     30  F   UNL A   1      30.712  27.726  25.221  1.00  0.00    -0.167 F 
ATOM     31  F   UNL A   1      30.254  26.121  26.615  1.00  0.00    -0.167 F 
ATOM     32  F   UNL A   1      30.981  28.035  27.365  1.00  0.00    -0.167 F 
ENDBRANCH  18  29
ENDBRANCH   6   8
ENDBRANCH   5   6
ENDBRANCH   4   5
ENDBRANCH   3   4
ENDBRANCH   2   3
ENDBRANCH   1   2
BRANCH   1  33
ATOM     33  C   UNL A   1      34.881  34.532  29.131  1.00  0.00     0.188 C 
BRANCH  33  34
ATOM     34  O   UNL A   1      34.796  34.384  30.539  1.00  0.00    -0.376 OA
BRANCH  34  35
ATOM     35  C   UNL A   1      34.372  33.136  31.079  1.00  0.00     0.202 C 
BRANCH  35  36
ATOM     36  C   UNL A   1      34.853  32.711  32.472  1.00  0.00     0.261 C 
BRANCH  36  37
ATOM     37  O   UNL A   1      35.844  31.670  32.447  1.00  0.00    -0.460 OA
BRANCH  37  38
ATOM     38  C   UNL A   1      36.906  31.852  33.269  1.00  0.00     0.338 C 
ATOM     39  O   UNL A   1      36.891  32.126  34.457  1.00  0.00    -0.246 OA
BRANCH  38  40
ATOM     40  C   UNL A   1      38.134  31.459  32.553  1.00  0.00     0.060 A 
ATOM     41  C   UNL A   1      39.146  30.746  33.198  1.00  0.00     0.016 A 
ATOM     42  C   UNL A   1      38.262  31.815  31.203  1.00  0.00     0.016 A 
ATOM     43  C   UNL A   1      40.283  30.372  32.478  1.00  0.00     0.010 A 
ATOM     44  C   UNL A   1      39.409  31.460  30.492  1.00  0.00     0.010 A 
ATOM     45  C   UNL A   1      40.418  30.719  31.121  1.00  0.00    -0.014 A 
BRANCH  45  46
ATOM     46  C   UNL A   1      41.549  30.177  30.332  1.00  0.00     0.031 A 
ATOM     47  C   UNL A   1      41.473  28.840  29.663  1.00  0.00     0.074 A 
ATOM     48  C   UNL A   1      42.655  30.934  30.212  1.00  0.00     0.049 A 
ATOM     49  N   UNL A   1      42.338  28.276  28.857  1.00  0.00    -0.248 NA
ATOM     50  C   UNL A   1      40.276  28.029  29.927  1.00  0.00     0.031 C 
ATOM     51  C   UNL A   1      42.842  32.246  30.832  1.00  0.00     0.029 A 
ATOM     52  N   UNL A   1      43.819  30.722  29.517  1.00  0.00    -0.354 N 
ATOM     53  C   UNL A   1      41.776  27.064  28.484  1.00  0.00     0.074 A 
ATOM     54  C   UNL A   1      40.519  26.946  29.198  1.00  0.00     0.031 C 
ATOM     55  C   UNL A   1      44.035  32.737  30.464  1.00  0.00     0.029 A 
ATOM     56  C   UNL A   1      44.703  31.769  29.599  1.00  0.00     0.049 A 
ATOM     57  H   UNL A   1      44.002  29.899  29.009  1.00  0.00     0.167 HD
ATOM     58  C   UNL A   1      42.257  26.151  27.606  1.00  0.00     0.037 A 
ATOM     59  C   UNL A   1      45.909  31.937  29.027  1.00  0.00     0.037 A 
ATOM     60  C   UNL A   1      43.519  26.262  26.918  1.00  0.00     0.049 A 
ATOM     61  C   UNL A   1      46.449  30.866  28.119  1.00  0.00     0.074 A 
ATOM     62  C   UNL A   1      44.083  25.386  26.005  1.00  0.00     0.029 A 
ATOM     63  N   UNL A   1      44.417  27.308  27.072  1.00  0.00    -0.354 N 
ATOM     64  N   UNL A   1      45.882  29.752  27.725  1.00  0.00    -0.248 NA
ATOM     65  C   UNL A   1      47.795  31.081  27.571  1.00  0.00     0.031 C 
ATOM     66  C   UNL A   1      45.340  25.880  25.640  1.00  0.00     0.029 A 
ATOM     67  C   UNL A   1      45.540  27.087  26.288  1.00  0.00     0.049 A 
ATOM     68  H   UNL A   1      44.278  28.091  27.652  1.00  0.00     0.167 HD
ATOM     69  C   UNL A   1      46.786  29.150  26.863  1.00  0.00     0.074 A 
ATOM     70  C   UNL A   1      47.935  30.028  26.779  1.00  0.00     0.031 C 
ATOM     71  C   UNL A   1      46.674  27.971  26.204  1.00  0.00     0.037 A 
BRANCH  58  72
ATOM     72  C   UNL A   1      41.407  24.953  27.300  1.00  0.00     0.064 A 
ATOM     73  C   UNL A   1      41.663  23.715  27.908  1.00  0.00     0.173 A 
ATOM     74  C   UNL A   1      40.265  25.066  26.493  1.00  0.00     0.173 A 
ATOM     75  F   UNL A   1      42.744  23.556  28.685  1.00  0.00    -0.203 F 
ATOM     76  C   UNL A   1      40.806  22.633  27.719  1.00  0.00     0.198 A 
ATOM     77  C   UNL A   1      39.397  23.988  26.326  1.00  0.00     0.198 A 
ATOM     78  F   UNL A   1      39.968  26.231  25.898  1.00  0.00    -0.203 F 
ATOM     79  F   UNL A   1      41.077  21.457  28.302  1.00  0.00    -0.200 F 
ATOM     80  C   UNL A   1      39.668  22.774  26.939  1.00  0.00     0.200 A 
ATOM     81  F   UNL A   1      38.289  24.130  25.585  1.00  0.00    -0.200 F 
ATOM     82  F   UNL A   1      38.831  21.739  26.780  1.00  0.00    -0.200 F 
ENDBRANCH  58  72
BRANCH  59  83
ATOM     83  C   UNL A   1      46.669  33.191  29.257  1.00  0.00     0.064 A 
ATOM     84  C   UNL A   1      46.588  34.252  28.345  1.00  0.00     0.173 A 
ATOM     85  C   UNL A   1      47.485  33.356  30.384  1.00  0.00     0.173 A 
ATOM     86  F   UNL A   1      45.835  34.131  27.241  1.00  0.00    -0.203 F 
ATOM     87  C   UNL A   1      47.311  35.426  28.543  1.00  0.00     0.198 A 
ATOM     88  C   UNL A   1      48.186  34.542  30.596  1.00  0.00     0.198 A 
ATOM     89  F   UNL A   1      47.591  32.370  31.288  1.00  0.00    -0.203 F 
ATOM     90  F   UNL A   1      47.250  36.408  27.635  1.00  0.00    -0.200 F 
ATOM     91  C   UNL A   1      48.104  35.572  29.671  1.00  0.00     0.200 A 
ATOM     92  F   UNL A   1      48.941  34.684  31.694  1.00  0.00    -0.200 F 
ATOM     93  F   UNL A   1      48.796  36.703  29.863  1.00  0.00    -0.200 F 
ENDBRANCH  59  83
BRANCH  71  94
ATOM     94  C   UNL A   1      47.812  27.567  25.312  1.00  0.00     0.064 A 
ATOM     95  C   UNL A   1      48.932  26.888  25.815  1.00  0.00     0.173 A 
ATOM     96  C   UNL A   1      47.758  27.813  23.932  1.00  0.00     0.173 A 
ATOM     97  F   UNL A   1      49.038  26.642  27.130  1.00  0.00    -0.203 F 
ATOM     98  C   UNL A   1      49.965  26.488  24.971  1.00  0.00     0.198 A 
ATOM     99  C   UNL A   1      48.780  27.387  23.087  1.00  0.00     0.198 A 
ATOM    100  F   UNL A   1      46.707  28.453  23.399  1.00  0.00    -0.203 F 
ATOM    101  F   UNL A   1      51.044  25.877  25.480  1.00  0.00    -0.200 F 
ATOM    102  C   UNL A   1      49.884  26.729  23.608  1.00  0.00     0.200 A 
ATOM    103  F   UNL A   1      48.694  27.609  21.768  1.00  0.00    -0.200 F 
ATOM    104  F   UNL A   1      50.874  26.333  22.796  1.00  0.00    -0.200 F 
ENDBRANCH  71  94
ENDBRANCH  45  46
ENDBRANCH  38  40
ENDBRANCH  37  38
ENDBRANCH  36  37
ENDBRANCH  35  36
ENDBRANCH  34  35
ENDBRANCH  33  34
ENDBRANCH   1  33
TORSDOF 20
ENDMDL
MODEL 3
REMARK VINA RESULT:     -10.0      6.206      9.636
REMARK SMILES C[C@@H]1CCC[C@H](C)[N@H+]1Cc1cc2c(cc1Cl)C=C(C(=O)OCCOCCOCCOC(=O)c1ccc(-c3c4nc(c(-c5c(F)c(F)c(F)c(F)c5F)c5ccc([nH]5)c(-c5c(F)c(F)c(F)c(F)c5F)c5nc(c(-c6c(F)c(F)c(F)c(F)c6F)c6ccc3[nH]6)C=C5)C=C4)cc1)[C@@H](C(F)(F)F)O2
REMARK SMILES IDX 25 1 24 2 23 3 22 4 21 5 19 6 20 7 18 8 10 9 11 10 15 11
REMARK SMILES IDX 12 12 14 13 16 14 13 15 101 16 17 17 96 18 9 19 8 20 7 21
REMARK SMILES IDX 6 22 5 23 4 24 2 25 3 27 1 28 97 29 98 30 99 31 100 32 26 33
REMARK SMILES IDX 27 34 28 35 29 36 30 37 31 38 32 39 33 40 34 41 95 42 35 43
REMARK SMILES IDX 94 44 36 45 37 46 38 47 88 48 39 49 93 50 87 51 89 52 40 53
REMARK SMILES IDX 92 54 86 55 85 56 41 58 73 59 53 60 72 61 54 62 57 63 71 64
REMARK SMILES IDX 90 65 55 66 56 67 70 69 91 70 58 71 42 72 43 73 51 74 44 75
REMARK SMILES IDX 45 76 49 77 52 78 46 79 47 80 50 81 48 82 74 83 75 84 83 85
REMARK SMILES IDX 76 86 77 87 81 88 84 89 78 90 79 91 82 92 80 93 59 94 60 95
REMARK SMILES IDX 68 96 61 97 62 98 66 99 69 100 63 101 64 102 67 103 65 104
REMARK H PARENT 8 26 89 57 57 68
REMARK Flexibility Score: inf
ROOT
ATOM      1  C   UNL A   1      34.775  35.636  33.134  1.00  0.00     0.188 C 
ENDROOT
BRANCH   1   2
ATOM      2  O   UNL A   1      33.633  35.353  32.363  1.00  0.00    -0.376 OA
BRANCH   2   3
ATOM      3  C   UNL A   1      33.698  35.127  30.967  1.00  0.00     0.202 C 
BRANCH   3   4
ATOM      4  C   UNL A   1      34.528  34.047  30.250  1.00  0.00     0.261 C 
BRANCH   4   5
ATOM      5  O   UNL A   1      33.843  33.139  29.388  1.00  0.00    -0.460 OA
BRANCH   5   6
ATOM      6  C   UNL A   1      34.338  33.063  28.131  1.00  0.00     0.338 C 
ATOM      7  O   UNL A   1      34.765  33.992  27.463  1.00  0.00    -0.246 OA
BRANCH   6   8
ATOM      8  C   UNL A   1      34.423  31.653  27.704  1.00  0.00     0.087 C 
ATOM      9  C   UNL A   1      33.322  26.958  26.240  1.00  0.00     0.029 A 
ATOM     10  C   UNL A   1      34.522  27.688  26.403  1.00  0.00     0.058 A 
ATOM     11  C   UNL A   1      32.124  27.582  26.629  1.00  0.00     0.050 A 
ATOM     12  C   UNL A   1      34.510  29.019  26.834  1.00  0.00     0.128 A 
ATOM     13  C   UNL A   1      32.107  28.931  26.990  1.00  0.00     0.033 A 
ATOM     14  Cl  UNL A   1      30.610  26.754  26.724  1.00  0.00    -0.084 Cl
ATOM     15  C   UNL A   1      33.294  29.655  27.070  1.00  0.00     0.019 A 
ATOM     16  O   UNL A   1      35.715  29.653  26.959  1.00  0.00    -0.475 OA
ATOM     17  C   UNL A   1      33.260  31.063  27.408  1.00  0.00     0.027 C 
ATOM     18  C   UNL A   1      35.744  30.930  27.668  1.00  0.00     0.316 C 
BRANCH   9  19
ATOM     19  C   UNL A   1      33.372  25.561  25.646  1.00  0.00     0.301 C 
BRANCH  19  20
ATOM     20  N   UNL A   1      32.746  25.354  24.320  1.00  0.00    -0.327 N 
ATOM     21  C   UNL A   1      30.506  24.884  23.368  1.00  0.00     0.075 C 
ATOM     22  C   UNL A   1      31.633  24.394  24.292  1.00  0.00     0.181 C 
ATOM     23  C   UNL A   1      32.057  22.967  23.911  1.00  0.00     0.065 C 
ATOM     24  C   UNL A   1      32.942  22.913  22.672  1.00  0.00     0.012 C 
ATOM     25  C   UNL A   1      33.679  25.311  23.185  1.00  0.00     0.181 C 
ATOM     26  H   UNL A   1      32.258  26.234  24.152  1.00  0.00     0.348 HD
ATOM     27  C   UNL A   1      34.107  23.890  22.781  1.00  0.00     0.065 C 
ATOM     28  C   UNL A   1      33.149  26.091  21.972  1.00  0.00     0.075 C 
ENDBRANCH  19  20
ENDBRANCH   9  19
BRANCH  18  29
ATOM     29  C   UNL A   1      36.307  30.747  29.085  1.00  0.00     0.430 C 
ATOM     30  F   UNL A   1      37.036  29.613  29.191  1.00  0.00    -0.167 F 
ATOM     31  F   UNL A   1      37.128  31.773  29.420  1.00  0.00    -0.167 F 
ATOM     32  F   UNL A   1      35.330  30.694  30.018  1.00  0.00    -0.167 F 
ENDBRANCH  18  29
ENDBRANCH   6   8
ENDBRANCH   5   6
ENDBRANCH   4   5
ENDBRANCH   3   4
ENDBRANCH   2   3
ENDBRANCH   1   2
BRANCH   1  33
ATOM     33  C   UNL A   1      35.147  34.634  34.246  1.00  0.00     0.188 C 
BRANCH  33  34
ATOM     34  O   UNL A   1      34.843  33.257  34.095  1.00  0.00    -0.376 OA
BRANCH  34  35
ATOM     35  C   UNL A   1      35.703  32.443  33.303  1.00  0.00     0.202 C 
BRANCH  35  36
ATOM     36  C   UNL A   1      37.198  32.371  33.638  1.00  0.00     0.261 C 
BRANCH  36  37
ATOM     37  O   UNL A   1      37.605  31.110  34.196  1.00  0.00    -0.460 OA
BRANCH  37  38
ATOM     38  C   UNL A   1      37.878  30.132  33.299  1.00  0.00     0.338 C 
ATOM     39  O   UNL A   1      37.159  29.205  32.965  1.00  0.00    -0.246 OA
BRANCH  38  40
ATOM     40  C   UNL A   1      39.132  30.466  32.599  1.00  0.00     0.060 A 
ATOM     41  C   UNL A   1      39.281  30.221  31.233  1.00  0.00     0.016 A 
ATOM     42  C   UNL A   1      40.176  31.041  33.338  1.00  0.00     0.016 A 
ATOM     43  C   UNL A   1      40.477  30.573  30.602  1.00  0.00     0.010 A 
ATOM     44  C   UNL A   1      41.377  31.372  32.710  1.00  0.00     0.010 A 
ATOM     45  C   UNL A   1      41.527  31.157  31.334  1.00  0.00    -0.014 A 
BRANCH  45  46
ATOM     46  C   UNL A   1      42.721  31.673  30.624  1.00  0.00     0.031 A 
ATOM     47  C   UNL A   1      42.758  33.054  30.046  1.00  0.00     0.074 A 
ATOM     48  C   UNL A   1      43.795  30.867  30.526  1.00  0.00     0.049 A 
ATOM     49  N   UNL A   1      43.762  33.682  29.487  1.00  0.00    -0.248 NA
ATOM     50  C   UNL A   1      41.513  33.833  30.100  1.00  0.00     0.031 C 
ATOM     51  C   UNL A   1      43.863  29.500  31.041  1.00  0.00     0.029 A 
ATOM     52  N   UNL A   1      45.034  31.084  29.980  1.00  0.00    -0.354 N 
ATOM     53  C   UNL A   1      43.287  34.943  29.160  1.00  0.00     0.074 A 
ATOM     54  C   UNL A   1      41.885  34.973  29.530  1.00  0.00     0.031 C 
ATOM     55  C   UNL A   1      45.092  29.009  30.816  1.00  0.00     0.029 A 
ATOM     56  C   UNL A   1      45.889  30.019  30.126  1.00  0.00     0.049 A 
ATOM     57  H   UNL A   1      45.286  31.921  29.527  1.00  0.00     0.167 HD
ATOM     58  C   UNL A   1      43.969  35.985  28.625  1.00  0.00     0.037 A 
ATOM     59  C   UNL A   1      47.176  29.880  29.759  1.00  0.00     0.037 A 
ATOM     60  C   UNL A   1      45.357  35.941  28.236  1.00  0.00     0.049 A 
ATOM     61  C   UNL A   1      47.881  31.030  29.095  1.00  0.00     0.074 A 
ATOM     62  C   UNL A   1      46.132  36.951  27.691  1.00  0.00     0.029 A 
ATOM     63  N   UNL A   1      46.176  34.826  28.343  1.00  0.00    -0.354 N 
ATOM     64  N   UNL A   1      47.440  32.239  28.846  1.00  0.00    -0.248 NA
ATOM     65  C   UNL A   1      49.268  30.797  28.667  1.00  0.00     0.031 C 
ATOM     66  C   UNL A   1      47.405  36.437  27.428  1.00  0.00     0.029 A 
ATOM     67  C   UNL A   1      47.440  35.119  27.853  1.00  0.00     0.049 A 
ATOM     68  H   UNL A   1      45.900  33.956  28.711  1.00  0.00     0.167 HD
ATOM     69  C   UNL A   1      48.499  32.917  28.261  1.00  0.00     0.074 A 
ATOM     70  C   UNL A   1      49.611  31.991  28.205  1.00  0.00     0.031 C 
ATOM     71  C   UNL A   1      48.543  34.194  27.808  1.00  0.00     0.037 A 
BRANCH  58  72
ATOM     72  C   UNL A   1      43.244  37.287  28.451  1.00  0.00     0.064 A 
ATOM     73  C   UNL A   1      43.409  38.331  29.372  1.00  0.00     0.173 A 
ATOM     74  C   UNL A   1      42.479  37.538  27.302  1.00  0.00     0.173 A 
ATOM     75  F   UNL A   1      44.129  38.140  30.488  1.00  0.00    -0.203 F 
ATOM     76  C   UNL A   1      42.834  39.580  29.151  1.00  0.00     0.198 A 
ATOM     77  C   UNL A   1      41.924  38.795  27.073  1.00  0.00     0.198 A 
ATOM     78  F   UNL A   1      42.300  36.576  26.384  1.00  0.00    -0.203 F 
ATOM     79  F   UNL A   1      42.996  40.560  30.051  1.00  0.00    -0.200 F 
ATOM     80  C   UNL A   1      42.102  39.814  27.996  1.00  0.00     0.200 A 
ATOM     81  F   UNL A   1      41.232  39.025  25.948  1.00  0.00    -0.200 F 
ATOM     82  F   UNL A   1      41.572  41.024  27.772  1.00  0.00    -0.200 F 
ENDBRANCH  58  72
BRANCH  59  83
ATOM     83  C   UNL A   1      47.897  28.618  30.058  1.00  0.00     0.064 A 
ATOM     84  C   UNL A   1      48.651  28.487  31.232  1.00  0.00     0.173 A 
ATOM     85  C   UNL A   1      47.850  27.523  29.183  1.00  0.00     0.173 A 
ATOM     86  F   UNL A   1      48.741  29.515  32.089  1.00  0.00    -0.203 F 
ATOM     87  C   UNL A   1      49.345  27.312  31.512  1.00  0.00     0.198 A 
ATOM     88  C   UNL A   1      48.522  26.339  29.478  1.00  0.00     0.198 A 
ATOM     89  F   UNL A   1      47.138  27.599  28.049  1.00  0.00    -0.203 F 
ATOM     90  F   UNL A   1      50.092  27.227  32.620  1.00  0.00    -0.200 F 
ATOM     91  C   UNL A   1      49.276  26.238  30.638  1.00  0.00     0.200 A 
ATOM     92  F   UNL A   1      48.441  25.299  28.638  1.00  0.00    -0.200 F 
ATOM     93  F   UNL A   1      49.941  25.107  30.910  1.00  0.00    -0.200 F 
ENDBRANCH  59  83
BRANCH  71  94
ATOM     94  C   UNL A   1      49.841  34.678  27.231  1.00  0.00     0.064 A 
ATOM     95  C   UNL A   1      50.898  35.096  28.052  1.00  0.00     0.173 A 
ATOM     96  C   UNL A   1      50.050  34.673  25.843  1.00  0.00     0.173 A 
ATOM     97  F   UNL A   1      50.743  35.133  29.384  1.00  0.00    -0.203 F 
ATOM     98  C   UNL A   1      52.109  35.510  27.505  1.00  0.00     0.198 A 
ATOM     99  C   UNL A   1      51.273  35.061  25.300  1.00  0.00     0.198 A 
ATOM    100  F   UNL A   1      49.074  34.277  25.012  1.00  0.00    -0.203 F 
ATOM    101  F   UNL A   1      53.091  35.944  28.308  1.00  0.00    -0.200 F 
ATOM    102  C   UNL A   1      52.299  35.484  26.131  1.00  0.00     0.200 A 
ATOM    103  F   UNL A   1      51.458  35.022  23.974  1.00  0.00    -0.200 F 
ATOM    104  F   UNL A   1      53.470  35.872  25.608  1.00  0.00    -0.200 F 
ENDBRANCH  71  94
ENDBRANCH  45  46
ENDBRANCH  38  40
ENDBRANCH  37  38
ENDBRANCH  36  37
ENDBRANCH  35  36
ENDBRANCH  34  35
ENDBRANCH  33  34
ENDBRANCH   1  33
TORSDOF 20
ENDMDL
