MODEL 1
REMARK VINA RESULT:     -11.6      0.000      0.000
REMARK SMILES CC1(C)[C@H](C(=O)OCCOCCOCCOC(=O)c2ccc(-c3c4nc(c(-c5c(F)c(F)c(F)c(F)c5F)c5ccc([nH]5)c(-c5c(F)c(F)c(F)c(F)c5F)c5nc(c(-c6c(F)c(F)c(F)c(F)c6F)c6ccc3[nH]6)C=C5)C=C4)cc2)[C@@H]1C(=O)Nc1ccc(NC(=O)C2CCC2)cc1
REMARK SMILES IDX 11 1 10 2 9 3 8 4 7 5 5 6 6 7 4 8 1 9 2 10 3 11 82 12 83 13
REMARK SMILES IDX 84 14 85 15 86 17 87 18 98 19 88 20 97 21 89 22 90 23 91 24
REMARK SMILES IDX 92 26 93 27 94 28 96 29 95 30 12 31 13 32 14 33 15 34 16 35
REMARK SMILES IDX 17 36 18 37 19 38 20 39 81 40 21 41 80 42 22 43 23 44 24 45
REMARK SMILES IDX 74 46 25 47 79 48 73 49 75 50 26 51 78 52 72 53 71 54 27 56
REMARK SMILES IDX 59 57 39 58 58 59 40 60 43 61 57 62 76 63 41 64 42 65 56 67
REMARK SMILES IDX 77 68 44 69 28 70 29 71 37 72 30 73 31 74 35 75 38 76 32 77
REMARK SMILES IDX 33 78 36 79 34 80 60 81 61 82 69 83 62 84 63 85 67 86 70 87
REMARK SMILES IDX 64 88 65 89 68 90 66 91 45 92 46 93 54 94 47 95 48 96 52 97
REMARK SMILES IDX 55 98 49 99 50 100 53 101 51 102
REMARK H PARENT 85 16 90 25 75 55 43 66
REMARK Flexibility Score: inf
ROOT
ATOM      1  C   UNL A   1      41.009  21.736  26.553  1.00  0.00     0.188 C 
ENDROOT
BRANCH   1   2
ATOM      2  O   UNL A   1      39.749  22.230  26.130  1.00  0.00    -0.376 OA
BRANCH   2   3
ATOM      3  C   UNL A   1      38.777  21.274  25.736  1.00  0.00     0.202 C 
BRANCH   3   4
ATOM      4  C   UNL A   1      37.407  21.855  25.365  1.00  0.00     0.261 C 
BRANCH   4   5
ATOM      5  O   UNL A   1      36.188  21.174  25.750  1.00  0.00    -0.463 OA
BRANCH   5   6
ATOM      6  C   UNL A   1      35.159  20.980  24.892  1.00  0.00     0.310 C 
ATOM      7  O   UNL A   1      34.542  19.953  24.737  1.00  0.00    -0.252 OA
BRANCH   6   8
ATOM      8  C   UNL A   1      34.679  22.196  24.196  1.00  0.00     0.118 C 
ATOM      9  C   UNL A   1      33.171  23.084  22.338  1.00  0.00     0.013 C 
ATOM     10  C   UNL A   1      33.275  22.510  23.733  1.00  0.00    -0.009 C 
ATOM     11  C   UNL A   1      32.112  21.602  24.068  1.00  0.00     0.013 C 
ATOM     12  C   UNL A   1      33.963  23.357  24.830  1.00  0.00     0.100 C 
BRANCH  12  13
ATOM     13  C   UNL A   1      33.341  23.439  26.173  1.00  0.00     0.228 C 
ATOM     14  O   UNL A   1      33.780  22.727  27.074  1.00  0.00    -0.274 OA
ATOM     15  N   UNL A   1      32.291  24.278  26.452  1.00  0.00    -0.326 N 
ATOM     16  H   UNL A   1      31.895  24.172  27.347  1.00  0.00     0.169 HD
BRANCH  15  17
ATOM     17  C   UNL A   1      31.706  25.259  25.655  1.00  0.00     0.041 A 
ATOM     18  C   UNL A   1      32.300  26.510  25.724  1.00  0.00     0.028 A 
ATOM     19  C   UNL A   1      30.671  25.044  24.751  1.00  0.00     0.028 A 
ATOM     20  C   UNL A   1      32.008  27.474  24.762  1.00  0.00     0.028 A 
ATOM     21  C   UNL A   1      30.313  26.068  23.853  1.00  0.00     0.028 A 
ATOM     22  C   UNL A   1      31.037  27.275  23.801  1.00  0.00     0.041 A 
BRANCH  22  23
ATOM     23  N   UNL A   1      30.769  28.147  22.735  1.00  0.00    -0.326 N 
ATOM     24  C   UNL A   1      29.925  29.202  22.462  1.00  0.00     0.227 C 
ATOM     25  H   UNL A   1      31.346  27.949  21.964  1.00  0.00     0.169 HD
ATOM     26  O   UNL A   1      30.130  29.705  21.335  1.00  0.00    -0.274 OA
BRANCH  24  27
ATOM     27  C   UNL A   1      28.855  29.848  23.363  1.00  0.00     0.079 C 
ATOM     28  C   UNL A   1      28.944  31.421  23.391  1.00  0.00     0.013 C 
ATOM     29  C   UNL A   1      27.356  30.086  23.059  1.00  0.00     0.013 C 
ATOM     30  C   UNL A   1      27.457  31.446  23.753  1.00  0.00     0.002 C 
ENDBRANCH  24  27
ENDBRANCH  22  23
ENDBRANCH  15  17
ENDBRANCH  12  13
ENDBRANCH   6   8
ENDBRANCH   5   6
ENDBRANCH   4   5
ENDBRANCH   3   4
ENDBRANCH   2   3
ENDBRANCH   1   2
BRANCH   1  31
ATOM     31  C   UNL A   1      41.080  20.205  26.698  1.00  0.00     0.188 C 
BRANCH  31  32
ATOM     32  O   UNL A   1      41.813  19.433  25.757  1.00  0.00    -0.376 OA
BRANCH  32  33
ATOM     33  C   UNL A   1      42.543  18.306  26.214  1.00  0.00     0.202 C 
BRANCH  33  34
ATOM     34  C   UNL A   1      43.990  18.154  25.728  1.00  0.00     0.261 C 
BRANCH  34  35
ATOM     35  O   UNL A   1      44.234  18.697  24.419  1.00  0.00    -0.460 OA
BRANCH  35  36
ATOM     36  C   UNL A   1      45.311  19.514  24.313  1.00  0.00     0.338 C 
ATOM     37  O   UNL A   1      46.376  19.268  23.774  1.00  0.00    -0.246 OA
BRANCH  36  38
ATOM     38  C   UNL A   1      44.951  20.870  24.790  1.00  0.00     0.060 A 
ATOM     39  C   UNL A   1      44.613  21.842  23.834  1.00  0.00     0.016 A 
ATOM     40  C   UNL A   1      44.986  21.200  26.145  1.00  0.00     0.016 A 
ATOM     41  C   UNL A   1      44.345  23.154  24.223  1.00  0.00     0.010 A 
ATOM     42  C   UNL A   1      44.761  22.524  26.531  1.00  0.00     0.010 A 
ATOM     43  C   UNL A   1      44.482  23.512  25.568  1.00  0.00    -0.014 A 
BRANCH  43  44
ATOM     44  C   UNL A   1      44.632  24.940  25.935  1.00  0.00     0.031 A 
ATOM     45  C   UNL A   1      46.004  25.544  25.814  1.00  0.00     0.074 A 
ATOM     46  C   UNL A   1      43.600  25.681  26.374  1.00  0.00     0.049 A 
ATOM     47  N   UNL A   1      46.443  26.710  26.212  1.00  0.00    -0.248 NA
ATOM     48  C   UNL A   1      47.025  24.709  25.158  1.00  0.00     0.031 C 
ATOM     49  C   UNL A   1      42.214  25.234  26.466  1.00  0.00     0.029 A 
ATOM     50  N   UNL A   1      43.576  26.969  26.848  1.00  0.00    -0.354 N 
ATOM     51  C   UNL A   1      47.789  26.738  25.873  1.00  0.00     0.074 A 
ATOM     52  C   UNL A   1      48.101  25.474  25.247  1.00  0.00     0.031 C 
ATOM     53  C   UNL A   1      41.475  26.225  26.999  1.00  0.00     0.029 A 
ATOM     54  C   UNL A   1      42.347  27.355  27.322  1.00  0.00     0.049 A 
ATOM     55  H   UNL A   1      44.364  27.559  26.849  1.00  0.00     0.167 HD
ATOM     56  C   UNL A   1      48.688  27.728  26.073  1.00  0.00     0.037 A 
ATOM     57  C   UNL A   1      41.985  28.475  27.979  1.00  0.00     0.037 A 
ATOM     58  C   UNL A   1      48.378  28.981  26.706  1.00  0.00     0.049 A 
ATOM     59  C   UNL A   1      43.024  29.533  28.269  1.00  0.00     0.074 A 
ATOM     60  C   UNL A   1      49.218  30.048  26.965  1.00  0.00     0.029 A 
ATOM     61  N   UNL A   1      47.124  29.327  27.186  1.00  0.00    -0.354 N 
ATOM     62  N   UNL A   1      44.296  29.554  27.954  1.00  0.00    -0.248 NA
ATOM     63  C   UNL A   1      42.575  30.719  29.014  1.00  0.00     0.031 C 
ATOM     64  C   UNL A   1      48.482  31.025  27.642  1.00  0.00     0.029 A 
ATOM     65  C   UNL A   1      47.171  30.587  27.756  1.00  0.00     0.049 A 
ATOM     66  H   UNL A   1      46.321  28.761  27.129  1.00  0.00     0.167 HD
ATOM     67  C   UNL A   1      44.789  30.765  28.425  1.00  0.00     0.074 A 
ATOM     68  C   UNL A   1      43.678  31.453  29.050  1.00  0.00     0.031 C 
ATOM     69  C   UNL A   1      46.046  31.266  28.346  1.00  0.00     0.037 A 
BRANCH  56  70
ATOM     70  C   UNL A   1      50.102  27.473  25.642  1.00  0.00     0.064 A 
ATOM     71  C   UNL A   1      50.501  27.607  24.304  1.00  0.00     0.173 A 
ATOM     72  C   UNL A   1      51.071  27.102  26.585  1.00  0.00     0.173 A 
ATOM     73  F   UNL A   1      49.604  27.939  23.362  1.00  0.00    -0.203 F 
ATOM     74  C   UNL A   1      51.815  27.356  23.922  1.00  0.00     0.198 A 
ATOM     75  C   UNL A   1      52.391  26.879  26.203  1.00  0.00     0.198 A 
ATOM     76  F   UNL A   1      50.739  26.958  27.876  1.00  0.00    -0.203 F 
ATOM     77  F   UNL A   1      52.164  27.442  22.631  1.00  0.00    -0.200 F 
ATOM     78  C   UNL A   1      52.761  26.999  24.873  1.00  0.00     0.200 A 
ATOM     79  F   UNL A   1      53.305  26.543  27.125  1.00  0.00    -0.200 F 
ATOM     80  F   UNL A   1      54.027  26.763  24.504  1.00  0.00    -0.200 F 
ENDBRANCH  56  70
BRANCH  57  81
ATOM     81  C   UNL A   1      40.582  28.652  28.439  1.00  0.00     0.064 A 
ATOM     82  C   UNL A   1      40.196  28.289  29.736  1.00  0.00     0.173 A 
ATOM     83  C   UNL A   1      39.593  29.158  27.583  1.00  0.00     0.173 A 
ATOM     84  F   UNL A   1      41.099  27.771  30.583  1.00  0.00    -0.203 F 
ATOM     85  C   UNL A   1      38.872  28.410  30.155  1.00  0.00     0.198 A 
ATOM     86  C   UNL A   1      38.274  29.303  28.011  1.00  0.00     0.198 A 
ATOM     87  F   UNL A   1      39.907  29.511  26.328  1.00  0.00    -0.203 F 
ATOM     88  F   UNL A   1      38.521  28.010  31.385  1.00  0.00    -0.200 F 
ATOM     89  C   UNL A   1      37.914  28.923  29.294  1.00  0.00     0.200 A 
ATOM     90  F   UNL A   1      37.354  29.805  27.177  1.00  0.00    -0.200 F 
ATOM     91  F   UNL A   1      36.641  29.039  29.697  1.00  0.00    -0.200 F 
ENDBRANCH  57  81
BRANCH  69  92
ATOM     92  C   UNL A   1      46.285  32.647  28.883  1.00  0.00     0.064 A 
ATOM     93  C   UNL A   1      46.090  33.790  28.097  1.00  0.00     0.173 A 
ATOM     94  C   UNL A   1      46.641  32.825  30.228  1.00  0.00     0.173 A 
ATOM     95  F   UNL A   1      45.760  33.673  26.802  1.00  0.00    -0.203 F 
ATOM     96  C   UNL A   1      46.256  35.064  28.637  1.00  0.00     0.198 A 
ATOM     97  C   UNL A   1      46.779  34.098  30.772  1.00  0.00     0.198 A 
ATOM     98  F   UNL A   1      46.829  31.760  31.025  1.00  0.00    -0.203 F 
ATOM     99  F   UNL A   1      46.097  36.145  27.860  1.00  0.00    -0.200 F 
ATOM    100  C   UNL A   1      46.591  35.217  29.974  1.00  0.00     0.200 A 
ATOM    101  F   UNL A   1      47.087  34.244  32.068  1.00  0.00    -0.200 F 
ATOM    102  F   UNL A   1      46.735  36.442  30.495  1.00  0.00    -0.200 F 
ENDBRANCH  69  92
ENDBRANCH  43  44
ENDBRANCH  36  38
ENDBRANCH  35  36
ENDBRANCH  34  35
ENDBRANCH  33  34
ENDBRANCH  32  33
ENDBRANCH  31  32
ENDBRANCH   1  31
TORSDOF 21
ENDMDL
MODEL 2
REMARK VINA RESULT:     -11.5      6.410     12.372
REMARK SMILES CC1(C)[C@H](C(=O)OCCOCCOCCOC(=O)c2ccc(-c3c4nc(c(-c5c(F)c(F)c(F)c(F)c5F)c5ccc([nH]5)c(-c5c(F)c(F)c(F)c(F)c5F)c5nc(c(-c6c(F)c(F)c(F)c(F)c6F)c6ccc3[nH]6)C=C5)C=C4)cc2)[C@@H]1C(=O)Nc1ccc(NC(=O)C2CCC2)cc1
REMARK SMILES IDX 11 1 10 2 9 3 8 4 7 5 5 6 6 7 4 8 1 9 2 10 3 11 82 12 83 13
REMARK SMILES IDX 84 14 85 15 86 17 87 18 98 19 88 20 97 21 89 22 90 23 91 24
REMARK SMILES IDX 92 26 93 27 94 28 96 29 95 30 12 31 13 32 14 33 15 34 16 35
REMARK SMILES IDX 17 36 18 37 19 38 20 39 81 40 21 41 80 42 22 43 23 44 24 45
REMARK SMILES IDX 74 46 25 47 79 48 73 49 75 50 26 51 78 52 72 53 71 54 27 56
REMARK SMILES IDX 59 57 39 58 58 59 40 60 43 61 57 62 76 63 41 64 42 65 56 67
REMARK SMILES IDX 77 68 44 69 28 70 29 71 37 72 30 73 31 74 35 75 38 76 32 77
REMARK SMILES IDX 33 78 36 79 34 80 60 81 61 82 69 83 62 84 63 85 67 86 70 87
REMARK SMILES IDX 64 88 65 89 68 90 66 91 45 92 46 93 54 94 47 95 48 96 52 97
REMARK SMILES IDX 55 98 49 99 50 100 53 101 51 102
REMARK H PARENT 85 16 90 25 75 55 43 66
REMARK Flexibility Score: inf
ROOT
ATOM      1  C   UNL A   1      34.942  31.110  27.816  1.00  0.00     0.188 C 
ENDROOT
BRANCH   1   2
ATOM      2  O   UNL A   1      33.968  30.205  27.323  1.00  0.00    -0.376 OA
BRANCH   2   3
ATOM      3  C   UNL A   1      32.626  30.664  27.270  1.00  0.00     0.202 C 
BRANCH   3   4
ATOM      4  C   UNL A   1      31.944  30.523  25.904  1.00  0.00     0.261 C 
BRANCH   4   5
ATOM      5  O   UNL A   1      31.344  29.266  25.506  1.00  0.00    -0.463 OA
BRANCH   5   6
ATOM      6  C   UNL A   1      31.478  28.758  24.258  1.00  0.00     0.310 C 
ATOM      7  O   UNL A   1      31.057  29.250  23.237  1.00  0.00    -0.252 OA
BRANCH   6   8
ATOM      8  C   UNL A   1      32.346  27.563  24.152  1.00  0.00     0.118 C 
ATOM      9  C   UNL A   1      34.017  26.075  25.380  1.00  0.00     0.013 C 
ATOM     10  C   UNL A   1      32.574  26.483  25.184  1.00  0.00    -0.009 C 
ATOM     11  C   UNL A   1      31.788  26.448  26.476  1.00  0.00     0.013 C 
ATOM     12  C   UNL A   1      31.894  26.164  23.832  1.00  0.00     0.100 C 
BRANCH  12  13
ATOM     13  C   UNL A   1      30.518  25.613  23.829  1.00  0.00     0.228 C 
ATOM     14  O   UNL A   1      29.581  26.361  23.555  1.00  0.00    -0.274 OA
ATOM     15  N   UNL A   1      30.247  24.301  24.122  1.00  0.00    -0.326 N 
ATOM     16  H   UNL A   1      29.291  24.075  24.191  1.00  0.00     0.169 HD
BRANCH  15  17
ATOM     17  C   UNL A   1      31.125  23.241  24.337  1.00  0.00     0.041 A 
ATOM     18  C   UNL A   1      31.691  22.701  23.192  1.00  0.00     0.028 A 
ATOM     19  C   UNL A   1      31.533  22.779  25.584  1.00  0.00     0.028 A 
ATOM     20  C   UNL A   1      32.799  21.861  23.293  1.00  0.00     0.028 A 
ATOM     21  C   UNL A   1      32.585  21.846  25.665  1.00  0.00     0.028 A 
ATOM     22  C   UNL A   1      33.282  21.434  24.513  1.00  0.00     0.041 A 
BRANCH  22  23
ATOM     23  N   UNL A   1      34.455  20.686  24.697  1.00  0.00    -0.326 N 
ATOM     24  C   UNL A   1      35.800  20.919  24.882  1.00  0.00     0.227 C 
ATOM     25  H   UNL A   1      34.262  19.721  24.692  1.00  0.00     0.169 HD
ATOM     26  O   UNL A   1      36.452  19.868  25.067  1.00  0.00    -0.274 OA
BRANCH  24  27
ATOM     27  C   UNL A   1      36.552  22.263  24.950  1.00  0.00     0.079 C 
ATOM     28  C   UNL A   1      36.039  23.194  26.113  1.00  0.00     0.013 C 
ATOM     29  C   UNL A   1      37.955  22.553  25.537  1.00  0.00     0.013 C 
ATOM     30  C   UNL A   1      37.415  23.864  26.112  1.00  0.00     0.002 C 
ENDBRANCH  24  27
ENDBRANCH  22  23
ENDBRANCH  15  17
ENDBRANCH  12  13
ENDBRANCH   6   8
ENDBRANCH   5   6
ENDBRANCH   4   5
ENDBRANCH   3   4
ENDBRANCH   2   3
ENDBRANCH   1   2
BRANCH   1  31
ATOM     31  C   UNL A   1      34.367  32.324  28.565  1.00  0.00     0.188 C 
BRANCH  31  32
ATOM     32  O   UNL A   1      34.221  33.571  27.898  1.00  0.00    -0.376 OA
BRANCH  32  33
ATOM     33  C   UNL A   1      34.437  34.769  28.627  1.00  0.00     0.202 C 
BRANCH  33  34
ATOM     34  C   UNL A   1      33.201  35.517  29.142  1.00  0.00     0.261 C 
BRANCH  34  35
ATOM     35  O   UNL A   1      32.620  34.951  30.329  1.00  0.00    -0.460 OA
BRANCH  35  36
ATOM     36  C   UNL A   1      32.842  35.639  31.476  1.00  0.00     0.338 C 
ATOM     37  O   UNL A   1      32.191  36.568  31.921  1.00  0.00    -0.246 OA
BRANCH  36  38
ATOM     38  C   UNL A   1      33.912  34.969  32.253  1.00  0.00     0.060 A 
ATOM     39  C   UNL A   1      35.184  35.564  32.281  1.00  0.00     0.016 A 
ATOM     40  C   UNL A   1      33.689  33.758  32.907  1.00  0.00     0.016 A 
ATOM     41  C   UNL A   1      36.246  34.933  32.929  1.00  0.00     0.010 A 
ATOM     42  C   UNL A   1      34.762  33.104  33.519  1.00  0.00     0.010 A 
ATOM     43  C   UNL A   1      36.051  33.670  33.495  1.00  0.00    -0.014 A 
BRANCH  43  44
ATOM     44  C   UNL A   1      37.222  32.810  33.791  1.00  0.00     0.031 A 
ATOM     45  C   UNL A   1      37.954  33.060  35.080  1.00  0.00     0.074 A 
ATOM     46  C   UNL A   1      37.638  31.850  32.948  1.00  0.00     0.049 A 
ATOM     47  N   UNL A   1      39.088  32.567  35.508  1.00  0.00    -0.248 NA
ATOM     48  C   UNL A   1      37.319  34.006  36.015  1.00  0.00     0.031 C 
ATOM     49  C   UNL A   1      36.975  31.463  31.707  1.00  0.00     0.029 A 
ATOM     50  N   UNL A   1      38.746  31.040  33.010  1.00  0.00    -0.354 N 
ATOM     51  C   UNL A   1      39.309  33.157  36.746  1.00  0.00     0.074 A 
ATOM     52  C   UNL A   1      38.202  34.050  37.000  1.00  0.00     0.031 C 
ATOM     53  C   UNL A   1      37.707  30.508  31.105  1.00  0.00     0.029 A 
ATOM     54  C   UNL A   1      38.910  30.252  31.898  1.00  0.00     0.049 A 
ATOM     55  H   UNL A   1      39.363  31.027  33.777  1.00  0.00     0.167 HD
ATOM     56  C   UNL A   1      40.347  32.976  37.593  1.00  0.00     0.037 A 
ATOM     57  C   UNL A   1      39.936  29.451  31.548  1.00  0.00     0.037 A 
ATOM     58  C   UNL A   1      41.453  32.095  37.333  1.00  0.00     0.049 A 
ATOM     59  C   UNL A   1      41.127  29.329  32.469  1.00  0.00     0.074 A 
ATOM     60  C   UNL A   1      42.560  31.844  38.121  1.00  0.00     0.029 A 
ATOM     61  N   UNL A   1      41.589  31.325  36.188  1.00  0.00    -0.354 N 
ATOM     62  N   UNL A   1      41.337  29.892  33.634  1.00  0.00    -0.248 NA
ATOM     63  C   UNL A   1      42.229  28.463  32.019  1.00  0.00     0.031 C 
ATOM     64  C   UNL A   1      43.390  30.955  37.433  1.00  0.00     0.029 A 
ATOM     65  C   UNL A   1      42.773  30.611  36.240  1.00  0.00     0.049 A 
ATOM     66  H   UNL A   1      40.941  31.293  35.448  1.00  0.00     0.167 HD
ATOM     67  C   UNL A   1      42.569  29.421  34.072  1.00  0.00     0.074 A 
ATOM     68  C   UNL A   1      43.063  28.526  33.048  1.00  0.00     0.031 C 
ATOM     69  C   UNL A   1      43.231  29.702  35.222  1.00  0.00     0.037 A 
BRANCH  56  70
ATOM     70  C   UNL A   1      40.354  33.782  38.857  1.00  0.00     0.064 A 
ATOM     71  C   UNL A   1      41.084  34.975  38.967  1.00  0.00     0.173 A 
ATOM     72  C   UNL A   1      39.610  33.360  39.968  1.00  0.00     0.173 A 
ATOM     73  F   UNL A   1      41.829  35.408  37.939  1.00  0.00    -0.203 F 
ATOM     74  C   UNL A   1      41.086  35.704  40.153  1.00  0.00     0.198 A 
ATOM     75  C   UNL A   1      39.592  34.106  41.142  1.00  0.00     0.198 A 
ATOM     76  F   UNL A   1      38.898  32.224  39.913  1.00  0.00    -0.203 F 
ATOM     77  F   UNL A   1      41.829  36.815  40.253  1.00  0.00    -0.200 F 
ATOM     78  C   UNL A   1      40.334  35.273  41.237  1.00  0.00     0.200 A 
ATOM     79  F   UNL A   1      38.858  33.693  42.185  1.00  0.00    -0.200 F 
ATOM     80  F   UNL A   1      40.333  35.979  42.376  1.00  0.00    -0.200 F 
ENDBRANCH  56  70
BRANCH  57  81
ATOM     81  C   UNL A   1      39.907  28.721  30.253  1.00  0.00     0.064 A 
ATOM     82  C   UNL A   1      39.346  27.441  30.157  1.00  0.00     0.173 A 
ATOM     83  C   UNL A   1      40.467  29.276  29.092  1.00  0.00     0.173 A 
ATOM     84  F   UNL A   1      38.825  26.856  31.247  1.00  0.00    -0.203 F 
ATOM     85  C   UNL A   1      39.359  26.736  28.955  1.00  0.00     0.198 A 
ATOM     86  C   UNL A   1      40.456  28.580  27.884  1.00  0.00     0.198 A 
ATOM     87  F   UNL A   1      41.026  30.494  29.131  1.00  0.00    -0.203 F 
ATOM     88  F   UNL A   1      38.858  25.494  28.904  1.00  0.00    -0.200 F 
ATOM     89  C   UNL A   1      39.909  27.308  27.818  1.00  0.00     0.200 A 
ATOM     90  F   UNL A   1      40.982  29.140  26.787  1.00  0.00    -0.200 F 
ATOM     91  F   UNL A   1      39.921  26.630  26.662  1.00  0.00    -0.200 F 
ENDBRANCH  57  81
BRANCH  69  92
ATOM     92  C   UNL A   1      44.528  28.989  35.474  1.00  0.00     0.064 A 
ATOM     93  C   UNL A   1      45.751  29.493  35.012  1.00  0.00     0.173 A 
ATOM     94  C   UNL A   1      44.549  27.825  36.257  1.00  0.00     0.173 A 
ATOM     95  F   UNL A   1      45.783  30.597  34.250  1.00  0.00    -0.203 F 
ATOM     96  C   UNL A   1      46.949  28.847  35.313  1.00  0.00     0.198 A 
ATOM     97  C   UNL A   1      45.748  27.198  36.579  1.00  0.00     0.198 A 
ATOM     98  F   UNL A   1      43.404  27.309  36.731  1.00  0.00    -0.203 F 
ATOM     99  F   UNL A   1      48.105  29.327  34.834  1.00  0.00    -0.200 F 
ATOM    100  C   UNL A   1      46.947  27.708  36.103  1.00  0.00     0.200 A 
ATOM    101  F   UNL A   1      45.746  26.106  37.356  1.00  0.00    -0.200 F 
ATOM    102  F   UNL A   1      48.101  27.098  36.405  1.00  0.00    -0.200 F 
ENDBRANCH  69  92
ENDBRANCH  43  44
ENDBRANCH  36  38
ENDBRANCH  35  36
ENDBRANCH  34  35
ENDBRANCH  33  34
ENDBRANCH  32  33
ENDBRANCH  31  32
ENDBRANCH   1  31
TORSDOF 21
ENDMDL
MODEL 3
REMARK VINA RESULT:     -11.5      2.536      5.184
REMARK SMILES CC1(C)[C@H](C(=O)OCCOCCOCCOC(=O)c2ccc(-c3c4nc(c(-c5c(F)c(F)c(F)c(F)c5F)c5ccc([nH]5)c(-c5c(F)c(F)c(F)c(F)c5F)c5nc(c(-c6c(F)c(F)c(F)c(F)c6F)c6ccc3[nH]6)C=C5)C=C4)cc2)[C@@H]1C(=O)Nc1ccc(NC(=O)C2CCC2)cc1
REMARK SMILES IDX 11 1 10 2 9 3 8 4 7 5 5 6 6 7 4 8 1 9 2 10 3 11 82 12 83 13
REMARK SMILES IDX 84 14 85 15 86 17 87 18 98 19 88 20 97 21 89 22 90 23 91 24
REMARK SMILES IDX 92 26 93 27 94 28 96 29 95 30 12 31 13 32 14 33 15 34 16 35
REMARK SMILES IDX 17 36 18 37 19 38 20 39 81 40 21 41 80 42 22 43 23 44 24 45
REMARK SMILES IDX 74 46 25 47 79 48 73 49 75 50 26 51 78 52 72 53 71 54 27 56
REMARK SMILES IDX 59 57 39 58 58 59 40 60 43 61 57 62 76 63 41 64 42 65 56 67
REMARK SMILES IDX 77 68 44 69 28 70 29 71 37 72 30 73 31 74 35 75 38 76 32 77
REMARK SMILES IDX 33 78 36 79 34 80 60 81 61 82 69 83 62 84 63 85 67 86 70 87
REMARK SMILES IDX 64 88 65 89 68 90 66 91 45 92 46 93 54 94 47 95 48 96 52 97
REMARK SMILES IDX 55 98 49 99 50 100 53 101 51 102
REMARK H PARENT 85 16 90 25 75 55 43 66
REMARK Flexibility Score: inf
ROOT
ATOM      1  C   UNL A   1      36.877  23.208  25.027  1.00  0.00     0.188 C 
ENDROOT
BRANCH   1   2
ATOM      2  O   UNL A   1      35.840  23.755  24.230  1.00  0.00    -0.376 OA
BRANCH   2   3
ATOM      3  C   UNL A   1      35.318  22.936  23.195  1.00  0.00     0.202 C 
BRANCH   3   4
ATOM      4  C   UNL A   1      33.929  23.340  22.684  1.00  0.00     0.261 C 
BRANCH   4   5
ATOM      5  O   UNL A   1      33.526  24.731  22.667  1.00  0.00    -0.463 OA
BRANCH   5   6
ATOM      6  C   UNL A   1      32.632  25.241  23.547  1.00  0.00     0.310 C 
ATOM      7  O   UNL A   1      31.431  25.114  23.499  1.00  0.00    -0.252 OA
BRANCH   6   8
ATOM      8  C   UNL A   1      33.220  25.888  24.742  1.00  0.00     0.118 C 
ATOM      9  C   UNL A   1      33.954  28.105  25.773  1.00  0.00     0.013 C 
ATOM     10  C   UNL A   1      32.812  27.190  25.391  1.00  0.00    -0.009 C 
ATOM     11  C   UNL A   1      31.594  27.956  24.924  1.00  0.00     0.013 C 
ATOM     12  C   UNL A   1      32.663  25.843  26.139  1.00  0.00     0.100 C 
BRANCH  12  13
ATOM     13  C   UNL A   1      31.318  25.411  26.586  1.00  0.00     0.228 C 
ATOM     14  O   UNL A   1      30.443  26.261  26.738  1.00  0.00    -0.274 OA
ATOM     15  N   UNL A   1      31.010  24.098  26.839  1.00  0.00    -0.326 N 
ATOM     16  H   UNL A   1      30.118  23.944  27.228  1.00  0.00     0.169 HD
BRANCH  15  17
ATOM     17  C   UNL A   1      31.771  22.952  26.624  1.00  0.00     0.041 A 
ATOM     18  C   UNL A   1      31.386  22.181  25.538  1.00  0.00     0.028 A 
ATOM     19  C   UNL A   1      32.912  22.603  27.339  1.00  0.00     0.028 A 
ATOM     20  C   UNL A   1      32.242  21.198  25.043  1.00  0.00     0.028 A 
ATOM     21  C   UNL A   1      33.711  21.535  26.887  1.00  0.00     0.028 A 
ATOM     22  C   UNL A   1      33.420  20.868  25.682  1.00  0.00     0.041 A 
BRANCH  22  23
ATOM     23  N   UNL A   1      34.382  19.976  25.185  1.00  0.00    -0.326 N 
ATOM     24  C   UNL A   1      34.451  18.656  24.794  1.00  0.00     0.227 C 
ATOM     25  H   UNL A   1      35.256  20.418  25.088  1.00  0.00     0.169 HD
ATOM     26  O   UNL A   1      35.576  18.343  24.347  1.00  0.00    -0.274 OA
BRANCH  24  27
ATOM     27  C   UNL A   1      33.340  17.589  24.781  1.00  0.00     0.079 C 
ATOM     28  C   UNL A   1      33.846  16.183  24.280  1.00  0.00     0.013 C 
ATOM     29  C   UNL A   1      32.759  16.789  25.973  1.00  0.00     0.013 C 
ATOM     30  C   UNL A   1      32.707  15.546  25.081  1.00  0.00     0.002 C 
ENDBRANCH  24  27
ENDBRANCH  22  23
ENDBRANCH  15  17
ENDBRANCH  12  13
ENDBRANCH   6   8
ENDBRANCH   5   6
ENDBRANCH   4   5
ENDBRANCH   3   4
ENDBRANCH   2   3
ENDBRANCH   1   2
BRANCH   1  31
ATOM     31  C   UNL A   1      37.368  21.821  24.576  1.00  0.00     0.188 C 
BRANCH  31  32
ATOM     32  O   UNL A   1      37.857  20.891  25.533  1.00  0.00    -0.376 OA
BRANCH  32  33
ATOM     33  C   UNL A   1      38.495  19.709  25.077  1.00  0.00     0.202 C 
BRANCH  33  34
ATOM     34  C   UNL A   1      39.773  19.270  25.803  1.00  0.00     0.261 C 
BRANCH  34  35
ATOM     35  O   UNL A   1      40.757  20.308  25.949  1.00  0.00    -0.460 OA
BRANCH  35  36
ATOM     36  C   UNL A   1      41.327  20.407  27.176  1.00  0.00     0.338 C 
ATOM     37  O   UNL A   1      41.887  19.526  27.805  1.00  0.00    -0.246 OA
BRANCH  36  38
ATOM     38  C   UNL A   1      41.354  21.828  27.594  1.00  0.00     0.060 A 
ATOM     39  C   UNL A   1      40.505  22.731  26.934  1.00  0.00     0.016 A 
ATOM     40  C   UNL A   1      42.226  22.280  28.585  1.00  0.00     0.016 A 
ATOM     41  C   UNL A   1      40.550  24.092  27.233  1.00  0.00     0.010 A 
ATOM     42  C   UNL A   1      42.302  23.649  28.854  1.00  0.00     0.010 A 
ATOM     43  C   UNL A   1      41.495  24.563  28.150  1.00  0.00    -0.014 A 
BRANCH  43  44
ATOM     44  C   UNL A   1      41.854  26.000  28.160  1.00  0.00     0.031 A 
ATOM     45  C   UNL A   1      43.175  26.387  27.554  1.00  0.00     0.074 A 
ATOM     46  C   UNL A   1      41.053  26.937  28.697  1.00  0.00     0.049 A 
ATOM     47  N   UNL A   1      43.799  27.536  27.570  1.00  0.00    -0.248 NA
ATOM     48  C   UNL A   1      43.896  25.322  26.835  1.00  0.00     0.031 C 
ATOM     49  C   UNL A   1      39.723  26.701  29.248  1.00  0.00     0.029 A 
ATOM     50  N   UNL A   1      41.267  28.280  28.884  1.00  0.00    -0.354 N 
ATOM     51  C   UNL A   1      44.988  27.326  26.884  1.00  0.00     0.074 A 
ATOM     52  C   UNL A   1      45.008  25.942  26.472  1.00  0.00     0.031 C 
ATOM     53  C   UNL A   1      39.248  27.859  29.743  1.00  0.00     0.029 A 
ATOM     54  C   UNL A   1      40.261  28.903  29.580  1.00  0.00     0.049 A 
ATOM     55  H   UNL A   1      42.065  28.752  28.552  1.00  0.00     0.167 HD
ATOM     56  C   UNL A   1      45.980  28.209  26.627  1.00  0.00     0.037 A 
ATOM     57  C   UNL A   1      40.191  30.159  30.064  1.00  0.00     0.037 A 
ATOM     58  C   UNL A   1      45.964  29.583  27.048  1.00  0.00     0.049 A 
ATOM     59  C   UNL A   1      41.348  31.104  29.840  1.00  0.00     0.074 A 
ATOM     60  C   UNL A   1      46.922  30.559  26.846  1.00  0.00     0.029 A 
ATOM     61  N   UNL A   1      44.933  30.171  27.764  1.00  0.00    -0.354 N 
ATOM     62  N   UNL A   1      42.473  30.901  29.198  1.00  0.00    -0.248 NA
ATOM     63  C   UNL A   1      41.227  32.452  30.418  1.00  0.00     0.031 C 
ATOM     64  C   UNL A   1      46.490  31.728  27.479  1.00  0.00     0.029 A 
ATOM     65  C   UNL A   1      45.239  31.494  28.028  1.00  0.00     0.049 A 
ATOM     66  H   UNL A   1      44.106  29.714  28.043  1.00  0.00     0.167 HD
ATOM     67  C   UNL A   1      43.173  32.101  29.260  1.00  0.00     0.074 A 
ATOM     68  C   UNL A   1      42.346  33.028  30.004  1.00  0.00     0.031 C 
ATOM     69  C   UNL A   1      44.388  32.409  28.745  1.00  0.00     0.037 A 
BRANCH  56  70
ATOM     70  C   UNL A   1      47.185  27.697  25.896  1.00  0.00     0.064 A 
ATOM     71  C   UNL A   1      47.266  27.728  24.495  1.00  0.00     0.173 A 
ATOM     72  C   UNL A   1      48.277  27.180  26.607  1.00  0.00     0.173 A 
ATOM     73  F   UNL A   1      46.237  28.193  23.770  1.00  0.00    -0.203 F 
ATOM     74  C   UNL A   1      48.389  27.239  23.834  1.00  0.00     0.198 A 
ATOM     75  C   UNL A   1      49.410  26.719  25.943  1.00  0.00     0.198 A 
ATOM     76  F   UNL A   1      48.247  27.126  27.947  1.00  0.00    -0.203 F 
ATOM     77  F   UNL A   1      48.425  27.233  22.494  1.00  0.00    -0.200 F 
ATOM     78  C   UNL A   1      49.462  26.741  24.559  1.00  0.00     0.200 A 
ATOM     79  F   UNL A   1      50.449  26.246  26.645  1.00  0.00    -0.200 F 
ATOM     80  F   UNL A   1      50.545  26.275  23.919  1.00  0.00    -0.200 F 
ENDBRANCH  56  70
BRANCH  57  81
ATOM     81  C   UNL A   1      38.999  30.597  30.837  1.00  0.00     0.064 A 
ATOM     82  C   UNL A   1      38.954  30.468  32.232  1.00  0.00     0.173 A 
ATOM     83  C   UNL A   1      37.870  31.127  30.195  1.00  0.00     0.173 A 
ATOM     84  F   UNL A   1      39.997  29.938  32.888  1.00  0.00    -0.203 F 
ATOM     85  C   UNL A   1      37.820  30.835  32.953  1.00  0.00     0.198 A 
ATOM     86  C   UNL A   1      36.746  31.519  30.921  1.00  0.00     0.198 A 
ATOM     87  F   UNL A   1      37.857  31.263  28.862  1.00  0.00    -0.203 F 
ATOM     88  F   UNL A   1      37.786  30.655  34.281  1.00  0.00    -0.200 F 
ATOM     89  C   UNL A   1      36.719  31.366  32.299  1.00  0.00     0.200 A 
ATOM     90  F   UNL A   1      35.688  32.037  30.284  1.00  0.00    -0.200 F 
ATOM     91  F   UNL A   1      35.629  31.719  32.993  1.00  0.00    -0.200 F 
ENDBRANCH  57  81
BRANCH  69  92
ATOM     92  C   UNL A   1      44.878  33.819  28.901  1.00  0.00     0.064 A 
ATOM     93  C   UNL A   1      44.569  34.817  27.968  1.00  0.00     0.173 A 
ATOM     94  C   UNL A   1      45.602  34.187  30.045  1.00  0.00     0.173 A 
ATOM     95  F   UNL A   1      43.889  34.513  26.852  1.00  0.00    -0.203 F 
ATOM     96  C   UNL A   1      44.982  36.133  28.167  1.00  0.00     0.198 A 
ATOM     97  C   UNL A   1      45.988  35.507  30.256  1.00  0.00     0.198 A 
ATOM     98  F   UNL A   1      45.913  33.269  30.974  1.00  0.00    -0.203 F 
ATOM     99  F   UNL A   1      44.705  37.067  27.246  1.00  0.00    -0.200 F 
ATOM    100  C   UNL A   1      45.681  36.478  29.314  1.00  0.00     0.200 A 
ATOM    101  F   UNL A   1      46.650  35.842  31.372  1.00  0.00    -0.200 F 
ATOM    102  F   UNL A   1      46.063  37.747  29.512  1.00  0.00    -0.200 F 
ENDBRANCH  69  92
ENDBRANCH  43  44
ENDBRANCH  36  38
ENDBRANCH  35  36
ENDBRANCH  34  35
ENDBRANCH  33  34
ENDBRANCH  32  33
ENDBRANCH  31  32
ENDBRANCH   1  31
TORSDOF 21
ENDMDL
