MODEL 1
REMARK VINA RESULT:     -10.9      0.000      0.000
REMARK SMILES CC(C)(C)OC(=O)N1CC[C@@H]2CO[C@@H](CC(=O)OCCOCCOCCOC(=O)c3ccc(-c4c5nc(c(-c6c(F)c(F)c(F)c(F)c6F)c6ccc([nH]6)c(-c6c(F)c(F)c(F)c(F)c6F)c6nc(c(-c7c(F)c(F)c(F)c(F)c7F)c7ccc4[nH]7)C=C6)C=C5)cc3)[C@@H]2C1
REMARK SMILES IDX 22 1 21 2 20 3 19 4 18 5 16 6 17 7 15 8 14 9 8 10 9 11 94 12
REMARK SMILES IDX 10 13 93 14 11 15 12 16 13 17 6 18 7 19 5 20 2 21 1 22 3 23
REMARK SMILES IDX 4 24 23 25 24 26 25 27 26 28 27 29 28 30 29 31 30 32 31 33
REMARK SMILES IDX 92 34 32 35 91 36 33 37 34 38 35 39 85 40 36 41 90 42 84 43
REMARK SMILES IDX 86 44 37 45 89 46 83 47 82 48 38 50 70 51 50 52 69 53 51 54
REMARK SMILES IDX 54 55 68 56 87 57 52 58 53 59 67 61 88 62 55 63 39 64 40 65
REMARK SMILES IDX 48 66 41 67 42 68 46 69 49 70 43 71 44 72 47 73 45 74 71 75
REMARK SMILES IDX 72 76 80 77 73 78 74 79 78 80 81 81 75 82 76 83 79 84 77 85
REMARK SMILES IDX 56 86 57 87 65 88 58 89 59 90 63 91 66 92 60 93 61 94 64 95
REMARK SMILES IDX 62 96
REMARK H PARENT 86 49 54 60
REMARK Flexibility Score: inf
ROOT
ATOM      1  C   UNL A   1      33.767  29.094  25.724  1.00  0.00     0.188 C 
ENDROOT
BRANCH   1   2
ATOM      2  O   UNL A   1      33.263  29.332  24.415  1.00  0.00    -0.376 OA
BRANCH   2   3
ATOM      3  C   UNL A   1      34.007  28.740  23.341  1.00  0.00     0.202 C 
BRANCH   3   4
ATOM      4  C   UNL A   1      33.150  27.978  22.322  1.00  0.00     0.261 C 
BRANCH   4   5
ATOM      5  O   UNL A   1      32.594  26.794  22.934  1.00  0.00    -0.463 OA
BRANCH   5   6
ATOM      6  C   UNL A   1      32.791  25.634  22.258  1.00  0.00     0.308 C 
ATOM      7  O   UNL A   1      33.553  25.511  21.305  1.00  0.00    -0.252 OA
BRANCH   6   8
ATOM      8  C   UNL A   1      32.129  24.458  22.938  1.00  0.00     0.155 C 
BRANCH   8   9
ATOM      9  C   UNL A   1      32.883  23.740  24.055  1.00  0.00     0.134 C 
ATOM     10  N   UNL A   1      34.879  20.542  24.720  1.00  0.00    -0.308 N 
ATOM     11  C   UNL A   1      36.075  21.261  25.122  1.00  0.00     0.123 C 
ATOM     12  C   UNL A   1      33.676  21.347  24.504  1.00  0.00     0.129 C 
ATOM     13  C   UNL A   1      36.392  22.369  24.132  1.00  0.00     0.028 C 
ATOM     14  C   UNL A   1      33.889  22.639  23.657  1.00  0.00     0.044 C 
ATOM     15  C   UNL A   1      35.226  23.320  23.933  1.00  0.00     0.024 C 
ATOM     16  C   UNL A   1      34.900  24.207  25.118  1.00  0.00     0.164 C 
ATOM     17  O   UNL A   1      33.583  24.706  24.861  1.00  0.00    -0.377 OA
BRANCH  10  18
ATOM     18  C   UNL A   1      34.912  19.150  24.796  1.00  0.00     0.410 C 
ATOM     19  O   UNL A   1      35.948  18.516  24.618  1.00  0.00    -0.224 OA
BRANCH  18  20
ATOM     20  O   UNL A   1      33.705  18.555  25.032  1.00  0.00    -0.444 OA
BRANCH  20  21
ATOM     21  C   UNL A   1      33.237  17.501  24.134  1.00  0.00     0.106 C 
ATOM     22  C   UNL A   1      32.202  18.140  23.190  1.00  0.00     0.056 C 
ATOM     23  C   UNL A   1      32.530  16.418  24.949  1.00  0.00     0.056 C 
ATOM     24  C   UNL A   1      34.344  16.915  23.236  1.00  0.00     0.056 C 
ENDBRANCH  20  21
ENDBRANCH  18  20
ENDBRANCH  10  18
ENDBRANCH   8   9
ENDBRANCH   6   8
ENDBRANCH   5   6
ENDBRANCH   4   5
ENDBRANCH   3   4
ENDBRANCH   2   3
ENDBRANCH   1   2
BRANCH   1  25
ATOM     25  C   UNL A   1      32.772  29.358  26.851  1.00  0.00     0.188 C 
BRANCH  25  26
ATOM     26  O   UNL A   1      33.003  30.581  27.548  1.00  0.00    -0.376 OA
BRANCH  26  27
ATOM     27  C   UNL A   1      32.309  31.701  26.985  1.00  0.00     0.202 C 
BRANCH  27  28
ATOM     28  C   UNL A   1      32.974  33.062  27.248  1.00  0.00     0.261 C 
BRANCH  28  29
ATOM     29  O   UNL A   1      32.212  33.874  28.152  1.00  0.00    -0.460 OA
BRANCH  29  30
ATOM     30  C   UNL A   1      32.960  34.869  28.700  1.00  0.00     0.338 C 
ATOM     31  O   UNL A   1      32.613  36.024  28.825  1.00  0.00    -0.246 OA
BRANCH  30  32
ATOM     32  C   UNL A   1      34.211  34.364  29.306  1.00  0.00     0.060 A 
ATOM     33  C   UNL A   1      34.081  33.593  30.473  1.00  0.00     0.016 A 
ATOM     34  C   UNL A   1      35.469  34.594  28.750  1.00  0.00     0.016 A 
ATOM     35  C   UNL A   1      35.200  33.036  31.079  1.00  0.00     0.010 A 
ATOM     36  C   UNL A   1      36.593  34.037  29.357  1.00  0.00     0.010 A 
ATOM     37  C   UNL A   1      36.460  33.256  30.518  1.00  0.00    -0.014 A 
BRANCH  37  38
ATOM     38  C   UNL A   1      37.662  32.691  31.158  1.00  0.00     0.031 A 
ATOM     39  C   UNL A   1      38.375  31.556  30.502  1.00  0.00     0.074 A 
ATOM     40  C   UNL A   1      38.070  33.180  32.341  1.00  0.00     0.049 A 
ATOM     41  N   UNL A   1      39.341  30.809  30.963  1.00  0.00    -0.248 NA
ATOM     42  C   UNL A   1      37.934  31.211  29.142  1.00  0.00     0.031 C 
ATOM     43  C   UNL A   1      37.468  34.318  33.035  1.00  0.00     0.029 A 
ATOM     44  N   UNL A   1      39.068  32.760  33.180  1.00  0.00    -0.354 N 
ATOM     45  C   UNL A   1      39.614  29.891  29.960  1.00  0.00     0.074 A 
ATOM     46  C   UNL A   1      38.705  30.170  28.867  1.00  0.00     0.031 C 
ATOM     47  C   UNL A   1      38.081  34.480  34.217  1.00  0.00     0.029 A 
ATOM     48  C   UNL A   1      39.086  33.432  34.377  1.00  0.00     0.049 A 
ATOM     49  H   UNL A   1      39.708  32.049  32.949  1.00  0.00     0.167 HD
ATOM     50  C   UNL A   1      40.539  28.904  29.963  1.00  0.00     0.037 A 
ATOM     51  C   UNL A   1      39.796  33.187  35.494  1.00  0.00     0.037 A 
ATOM     52  C   UNL A   1      41.429  28.643  31.063  1.00  0.00     0.049 A 
ATOM     53  C   UNL A   1      40.756  32.032  35.506  1.00  0.00     0.074 A 
ATOM     54  C   UNL A   1      42.440  27.703  31.154  1.00  0.00     0.029 A 
ATOM     55  N   UNL A   1      41.400  29.320  32.274  1.00  0.00    -0.354 N 
ATOM     56  N   UNL A   1      41.032  31.178  34.551  1.00  0.00    -0.248 NA
ATOM     57  C   UNL A   1      41.495  31.796  36.755  1.00  0.00     0.031 C 
ATOM     58  C   UNL A   1      42.985  27.777  32.442  1.00  0.00     0.029 A 
ATOM     59  C   UNL A   1      42.345  28.791  33.138  1.00  0.00     0.049 A 
ATOM     60  H   UNL A   1      40.796  30.068  32.488  1.00  0.00     0.167 HD
ATOM     61  C   UNL A   1      41.974  30.304  35.076  1.00  0.00     0.074 A 
ATOM     62  C   UNL A   1      42.238  30.746  36.431  1.00  0.00     0.031 C 
ATOM     63  C   UNL A   1      42.567  29.234  34.492  1.00  0.00     0.037 A 
BRANCH  50  64
ATOM     64  C   UNL A   1      40.588  28.010  28.762  1.00  0.00     0.064 A 
ATOM     65  C   UNL A   1      41.352  28.330  27.629  1.00  0.00     0.173 A 
ATOM     66  C   UNL A   1      39.848  26.818  28.741  1.00  0.00     0.173 A 
ATOM     67  F   UNL A   1      42.060  29.469  27.593  1.00  0.00    -0.203 F 
ATOM     68  C   UNL A   1      41.346  27.506  26.506  1.00  0.00     0.198 A 
ATOM     69  C   UNL A   1      39.864  25.984  27.626  1.00  0.00     0.198 A 
ATOM     70  F   UNL A   1      39.100  26.468  29.797  1.00  0.00    -0.203 F 
ATOM     71  F   UNL A   1      42.037  27.860  25.414  1.00  0.00    -0.200 F 
ATOM     72  C   UNL A   1      40.605  26.333  26.507  1.00  0.00     0.200 A 
ATOM     73  F   UNL A   1      39.151  24.849  27.629  1.00  0.00    -0.200 F 
ATOM     74  F   UNL A   1      40.593  25.546  25.423  1.00  0.00    -0.200 F 
ENDBRANCH  50  64
BRANCH  51  75
ATOM     75  C   UNL A   1      39.569  34.023  36.698  1.00  0.00     0.064 A 
ATOM     76  C   UNL A   1      38.754  33.578  37.746  1.00  0.00     0.173 A 
ATOM     77  C   UNL A   1      40.196  35.271  36.841  1.00  0.00     0.173 A 
ATOM     78  F   UNL A   1      38.116  32.402  37.644  1.00  0.00    -0.203 F 
ATOM     79  C   UNL A   1      38.574  34.349  38.893  1.00  0.00     0.198 A 
ATOM     80  C   UNL A   1      40.035  36.030  37.997  1.00  0.00     0.198 A 
ATOM     81  F   UNL A   1      40.988  35.739  35.864  1.00  0.00    -0.203 F 
ATOM     82  F   UNL A   1      37.770  33.913  39.872  1.00  0.00    -0.200 F 
ATOM     83  C   UNL A   1      39.222  35.570  39.021  1.00  0.00     0.200 A 
ATOM     84  F   UNL A   1      40.672  37.202  38.121  1.00  0.00    -0.200 F 
ATOM     85  F   UNL A   1      39.060  36.304  40.131  1.00  0.00    -0.200 F 
ENDBRANCH  51  75
BRANCH  63  86
ATOM     86  C   UNL A   1      43.545  28.459  35.322  1.00  0.00     0.064 A 
ATOM     87  C   UNL A   1      44.910  28.783  35.329  1.00  0.00     0.173 A 
ATOM     88  C   UNL A   1      43.109  27.420  36.157  1.00  0.00     0.173 A 
ATOM     89  F   UNL A   1      45.375  29.757  34.534  1.00  0.00    -0.203 F 
ATOM     90  C   UNL A   1      45.805  28.084  36.134  1.00  0.00     0.198 A 
ATOM     91  C   UNL A   1      44.003  26.740  36.979  1.00  0.00     0.198 A 
ATOM     92  F   UNL A   1      41.812  27.077  36.188  1.00  0.00    -0.203 F 
ATOM     93  F   UNL A   1      47.110  28.386  36.100  1.00  0.00    -0.200 F 
ATOM     94  C   UNL A   1      45.350  27.069  36.963  1.00  0.00     0.200 A 
ATOM     95  F   UNL A   1      43.560  25.768  37.788  1.00  0.00    -0.200 F 
ATOM     96  F   UNL A   1      46.211  26.406  37.746  1.00  0.00    -0.200 F 
ENDBRANCH  63  86
ENDBRANCH  37  38
ENDBRANCH  30  32
ENDBRANCH  29  30
ENDBRANCH  28  29
ENDBRANCH  27  28
ENDBRANCH  26  27
ENDBRANCH  25  26
ENDBRANCH   1  25
TORSDOF 21
ENDMDL
MODEL 2
REMARK VINA RESULT:     -10.6      2.904      9.156
REMARK SMILES CC(C)(C)OC(=O)N1CC[C@@H]2CO[C@@H](CC(=O)OCCOCCOCCOC(=O)c3ccc(-c4c5nc(c(-c6c(F)c(F)c(F)c(F)c6F)c6ccc([nH]6)c(-c6c(F)c(F)c(F)c(F)c6F)c6nc(c(-c7c(F)c(F)c(F)c(F)c7F)c7ccc4[nH]7)C=C6)C=C5)cc3)[C@@H]2C1
REMARK SMILES IDX 22 1 21 2 20 3 19 4 18 5 16 6 17 7 15 8 14 9 8 10 9 11 94 12
REMARK SMILES IDX 10 13 93 14 11 15 12 16 13 17 6 18 7 19 5 20 2 21 1 22 3 23
REMARK SMILES IDX 4 24 23 25 24 26 25 27 26 28 27 29 28 30 29 31 30 32 31 33
REMARK SMILES IDX 92 34 32 35 91 36 33 37 34 38 35 39 85 40 36 41 90 42 84 43
REMARK SMILES IDX 86 44 37 45 89 46 83 47 82 48 38 50 70 51 50 52 69 53 51 54
REMARK SMILES IDX 54 55 68 56 87 57 52 58 53 59 67 61 88 62 55 63 39 64 40 65
REMARK SMILES IDX 48 66 41 67 42 68 46 69 49 70 43 71 44 72 47 73 45 74 71 75
REMARK SMILES IDX 72 76 80 77 73 78 74 79 78 80 81 81 75 82 76 83 79 84 77 85
REMARK SMILES IDX 56 86 57 87 65 88 58 89 59 90 63 91 66 92 60 93 61 94 64 95
REMARK SMILES IDX 62 96
REMARK H PARENT 86 49 54 60
REMARK Flexibility Score: inf
ROOT
ATOM      1  C   UNL A   1      38.953  22.481  26.076  1.00  0.00     0.188 C 
ENDROOT
BRANCH   1   2
ATOM      2  O   UNL A   1      37.536  22.597  26.120  1.00  0.00    -0.376 OA
BRANCH   2   3
ATOM      3  C   UNL A   1      36.859  22.493  24.858  1.00  0.00     0.202 C 
BRANCH   3   4
ATOM      4  C   UNL A   1      36.055  21.201  24.675  1.00  0.00     0.261 C 
BRANCH   4   5
ATOM      5  O   UNL A   1      34.807  21.291  25.398  1.00  0.00    -0.463 OA
BRANCH   5   6
ATOM      6  C   UNL A   1      33.825  20.453  24.982  1.00  0.00     0.308 C 
ATOM      7  O   UNL A   1      33.998  19.272  24.701  1.00  0.00    -0.252 OA
BRANCH   6   8
ATOM      8  C   UNL A   1      32.453  21.077  25.103  1.00  0.00     0.155 C 
BRANCH   8   9
ATOM      9  C   UNL A   1      32.028  22.113  24.065  1.00  0.00     0.134 C 
ATOM     10  N   UNL A   1      31.451  25.877  23.680  1.00  0.00    -0.308 N 
ATOM     11  C   UNL A   1      32.424  26.011  22.610  1.00  0.00     0.123 C 
ATOM     12  C   UNL A   1      31.140  24.513  24.110  1.00  0.00     0.129 C 
ATOM     13  C   UNL A   1      33.717  25.298  22.969  1.00  0.00     0.028 C 
ATOM     14  C   UNL A   1      32.377  23.592  24.333  1.00  0.00     0.044 C 
ATOM     15  C   UNL A   1      33.495  23.838  23.324  1.00  0.00     0.024 C 
ATOM     16  C   UNL A   1      33.094  22.942  22.170  1.00  0.00     0.164 C 
ATOM     17  O   UNL A   1      32.572  21.757  22.780  1.00  0.00    -0.377 OA
BRANCH  10  18
ATOM     18  C   UNL A   1      30.737  27.018  24.042  1.00  0.00     0.410 C 
ATOM     19  O   UNL A   1      29.529  26.985  24.255  1.00  0.00    -0.224 OA
BRANCH  18  20
ATOM     20  O   UNL A   1      31.471  28.169  24.091  1.00  0.00    -0.444 OA
BRANCH  20  21
ATOM     21  C   UNL A   1      32.189  28.509  25.318  1.00  0.00     0.106 C 
ATOM     22  C   UNL A   1      31.767  29.939  25.705  1.00  0.00     0.056 C 
ATOM     23  C   UNL A   1      33.693  28.518  25.039  1.00  0.00     0.056 C 
ATOM     24  C   UNL A   1      31.832  27.608  26.516  1.00  0.00     0.056 C 
ENDBRANCH  20  21
ENDBRANCH  18  20
ENDBRANCH  10  18
ENDBRANCH   8   9
ENDBRANCH   6   8
ENDBRANCH   5   6
ENDBRANCH   4   5
ENDBRANCH   3   4
ENDBRANCH   2   3
ENDBRANCH   1   2
BRANCH   1  25
ATOM     25  C   UNL A   1      39.472  21.067  25.829  1.00  0.00     0.188 C 
BRANCH  25  26
ATOM     26  O   UNL A   1      40.507  20.669  26.727  1.00  0.00    -0.376 OA
BRANCH  26  27
ATOM     27  C   UNL A   1      41.823  20.782  26.171  1.00  0.00     0.202 C 
BRANCH  27  28
ATOM     28  C   UNL A   1      42.802  21.616  27.012  1.00  0.00     0.261 C 
BRANCH  28  29
ATOM     29  O   UNL A   1      43.759  22.312  26.201  1.00  0.00    -0.460 OA
BRANCH  29  30
ATOM     30  C   UNL A   1      43.254  23.468  25.691  1.00  0.00     0.338 C 
ATOM     31  O   UNL A   1      42.988  23.667  24.525  1.00  0.00    -0.246 OA
BRANCH  30  32
ATOM     32  C   UNL A   1      42.884  24.434  26.748  1.00  0.00     0.060 A 
ATOM     33  C   UNL A   1      43.650  25.608  26.826  1.00  0.00     0.016 A 
ATOM     34  C   UNL A   1      41.810  24.235  27.614  1.00  0.00     0.016 A 
ATOM     35  C   UNL A   1      43.341  26.593  27.756  1.00  0.00     0.010 A 
ATOM     36  C   UNL A   1      41.496  25.222  28.548  1.00  0.00     0.010 A 
ATOM     37  C   UNL A   1      42.258  26.401  28.617  1.00  0.00    -0.014 A 
BRANCH  37  38
ATOM     38  C   UNL A   1      41.926  27.425  29.625  1.00  0.00     0.031 A 
ATOM     39  C   UNL A   1      42.683  27.456  30.911  1.00  0.00     0.074 A 
ATOM     40  C   UNL A   1      40.922  28.284  29.386  1.00  0.00     0.049 A 
ATOM     41  N   UNL A   1      42.452  28.155  31.990  1.00  0.00    -0.248 NA
ATOM     42  C   UNL A   1      43.858  26.576  30.996  1.00  0.00     0.031 C 
ATOM     43  C   UNL A   1      40.159  28.361  28.141  1.00  0.00     0.029 A 
ATOM     44  N   UNL A   1      40.353  29.233  30.193  1.00  0.00    -0.354 N 
ATOM     45  C   UNL A   1      43.438  27.787  32.892  1.00  0.00     0.074 A 
ATOM     46  C   UNL A   1      44.267  26.796  32.236  1.00  0.00     0.031 C 
ATOM     47  C   UNL A   1      39.190  29.279  28.281  1.00  0.00     0.029 A 
ATOM     48  C   UNL A   1      39.242  29.818  29.638  1.00  0.00     0.049 A 
ATOM     49  H   UNL A   1      40.704  29.472  31.080  1.00  0.00     0.167 HD
ATOM     50  C   UNL A   1      43.624  28.236  34.154  1.00  0.00     0.037 A 
ATOM     51  C   UNL A   1      38.339  30.651  30.188  1.00  0.00     0.037 A 
ATOM     52  C   UNL A   1      42.784  29.219  34.786  1.00  0.00     0.049 A 
ATOM     53  C   UNL A   1      38.515  31.072  31.620  1.00  0.00     0.074 A 
ATOM     54  C   UNL A   1      42.909  29.786  36.041  1.00  0.00     0.029 A 
ATOM     55  N   UNL A   1      41.647  29.768  34.209  1.00  0.00    -0.354 N 
ATOM     56  N   UNL A   1      39.461  30.742  32.466  1.00  0.00    -0.248 NA
ATOM     57  C   UNL A   1      37.494  31.968  32.178  1.00  0.00     0.031 C 
ATOM     58  C   UNL A   1      41.816  30.638  36.243  1.00  0.00     0.029 A 
ATOM     59  C   UNL A   1      41.034  30.635  35.098  1.00  0.00     0.049 A 
ATOM     60  H   UNL A   1      41.324  29.570  33.300  1.00  0.00     0.167 HD
ATOM     61  C   UNL A   1      39.154  31.389  33.656  1.00  0.00     0.074 A 
ATOM     62  C   UNL A   1      37.943  32.147  33.414  1.00  0.00     0.031 C 
ATOM     63  C   UNL A   1      39.813  31.357  34.840  1.00  0.00     0.037 A 
BRANCH  50  64
ATOM     64  C   UNL A   1      44.744  27.626  34.940  1.00  0.00     0.064 A 
ATOM     65  C   UNL A   1      45.997  28.247  35.050  1.00  0.00     0.173 A 
ATOM     66  C   UNL A   1      44.563  26.393  35.583  1.00  0.00     0.173 A 
ATOM     67  F   UNL A   1      46.227  29.417  34.436  1.00  0.00    -0.203 F 
ATOM     68  C   UNL A   1      47.038  27.638  35.747  1.00  0.00     0.198 A 
ATOM     69  C   UNL A   1      45.597  25.798  36.300  1.00  0.00     0.198 A 
ATOM     70  F   UNL A   1      43.385  25.756  35.505  1.00  0.00    -0.203 F 
ATOM     71  F   UNL A   1      48.244  28.222  35.792  1.00  0.00    -0.200 F 
ATOM     72  C   UNL A   1      46.836  26.417  36.374  1.00  0.00     0.200 A 
ATOM     73  F   UNL A   1      45.400  24.621  36.908  1.00  0.00    -0.200 F 
ATOM     74  F   UNL A   1      47.841  25.829  37.037  1.00  0.00    -0.200 F 
ENDBRANCH  50  64
BRANCH  51  75
ATOM     75  C   UNL A   1      37.166  31.083  29.389  1.00  0.00     0.064 A 
ATOM     76  C   UNL A   1      37.093  32.372  28.849  1.00  0.00     0.173 A 
ATOM     77  C   UNL A   1      36.110  30.198  29.119  1.00  0.00     0.173 A 
ATOM     78  F   UNL A   1      38.067  33.259  29.100  1.00  0.00    -0.203 F 
ATOM     79  C   UNL A   1      36.006  32.762  28.067  1.00  0.00     0.198 A 
ATOM     80  C   UNL A   1      35.037  30.580  28.318  1.00  0.00     0.198 A 
ATOM     81  F   UNL A   1      36.136  28.951  29.613  1.00  0.00    -0.203 F 
ATOM     82  F   UNL A   1      35.948  34.009  27.581  1.00  0.00    -0.200 F 
ATOM     83  C   UNL A   1      34.985  31.863  27.794  1.00  0.00     0.200 A 
ATOM     84  F   UNL A   1      34.059  29.705  28.048  1.00  0.00    -0.200 F 
ATOM     85  F   UNL A   1      33.949  32.235  27.030  1.00  0.00    -0.200 F 
ENDBRANCH  51  75
BRANCH  63  86
ATOM     86  C   UNL A   1      39.227  32.153  35.967  1.00  0.00     0.064 A 
ATOM     87  C   UNL A   1      38.289  31.589  36.844  1.00  0.00     0.173 A 
ATOM     88  C   UNL A   1      39.643  33.470  36.204  1.00  0.00     0.173 A 
ATOM     89  F   UNL A   1      37.848  30.338  36.646  1.00  0.00    -0.203 F 
ATOM     90  C   UNL A   1      37.780  32.322  37.913  1.00  0.00     0.198 A 
ATOM     91  C   UNL A   1      39.151  34.192  37.288  1.00  0.00     0.198 A 
ATOM     92  F   UNL A   1      40.541  34.052  35.394  1.00  0.00    -0.203 F 
ATOM     93  F   UNL A   1      36.859  31.776  38.719  1.00  0.00    -0.200 F 
ATOM     94  C   UNL A   1      38.217  33.619  38.138  1.00  0.00     0.200 A 
ATOM     95  F   UNL A   1      39.582  35.441  37.511  1.00  0.00    -0.200 F 
ATOM     96  F   UNL A   1      37.735  34.318  39.173  1.00  0.00    -0.200 F 
ENDBRANCH  63  86
ENDBRANCH  37  38
ENDBRANCH  30  32
ENDBRANCH  29  30
ENDBRANCH  28  29
ENDBRANCH  27  28
ENDBRANCH  26  27
ENDBRANCH  25  26
ENDBRANCH   1  25
TORSDOF 21
ENDMDL
MODEL 3
REMARK VINA RESULT:     -10.1      1.530      2.490
REMARK SMILES CC(C)(C)OC(=O)N1CC[C@@H]2CO[C@@H](CC(=O)OCCOCCOCCOC(=O)c3ccc(-c4c5nc(c(-c6c(F)c(F)c(F)c(F)c6F)c6ccc([nH]6)c(-c6c(F)c(F)c(F)c(F)c6F)c6nc(c(-c7c(F)c(F)c(F)c(F)c7F)c7ccc4[nH]7)C=C6)C=C5)cc3)[C@@H]2C1
REMARK SMILES IDX 22 1 21 2 20 3 19 4 18 5 16 6 17 7 15 8 14 9 8 10 9 11 94 12
REMARK SMILES IDX 10 13 93 14 11 15 12 16 13 17 6 18 7 19 5 20 2 21 1 22 3 23
REMARK SMILES IDX 4 24 23 25 24 26 25 27 26 28 27 29 28 30 29 31 30 32 31 33
REMARK SMILES IDX 92 34 32 35 91 36 33 37 34 38 35 39 85 40 36 41 90 42 84 43
REMARK SMILES IDX 86 44 37 45 89 46 83 47 82 48 38 50 70 51 50 52 69 53 51 54
REMARK SMILES IDX 54 55 68 56 87 57 52 58 53 59 67 61 88 62 55 63 39 64 40 65
REMARK SMILES IDX 48 66 41 67 42 68 46 69 49 70 43 71 44 72 47 73 45 74 71 75
REMARK SMILES IDX 72 76 80 77 73 78 74 79 78 80 81 81 75 82 76 83 79 84 77 85
REMARK SMILES IDX 56 86 57 87 65 88 58 89 59 90 63 91 66 92 60 93 61 94 64 95
REMARK SMILES IDX 62 96
REMARK H PARENT 86 49 54 60
REMARK Flexibility Score: inf
ROOT
ATOM      1  C   UNL A   1      33.744  28.490  24.470  1.00  0.00     0.188 C 
ENDROOT
BRANCH   1   2
ATOM      2  O   UNL A   1      32.721  29.338  23.963  1.00  0.00    -0.376 OA
BRANCH   2   3
ATOM      3  C   UNL A   1      31.882  28.770  22.946  1.00  0.00     0.202 C 
BRANCH   3   4
ATOM      4  C   UNL A   1      30.416  28.595  23.360  1.00  0.00     0.261 C 
BRANCH   4   5
ATOM      5  O   UNL A   1      30.340  27.925  24.637  1.00  0.00    -0.463 OA
BRANCH   5   6
ATOM      6  C   UNL A   1      29.813  26.675  24.615  1.00  0.00     0.308 C 
ATOM      7  O   UNL A   1      28.914  26.318  23.862  1.00  0.00    -0.252 OA
BRANCH   6   8
ATOM      8  C   UNL A   1      30.597  25.711  25.475  1.00  0.00     0.155 C 
BRANCH   8   9
ATOM      9  C   UNL A   1      31.798  24.995  24.863  1.00  0.00     0.134 C 
ATOM     10  N   UNL A   1      33.386  21.520  24.616  1.00  0.00    -0.308 N 
ATOM     11  C   UNL A   1      33.325  21.493  23.166  1.00  0.00     0.123 C 
ATOM     12  C   UNL A   1      33.031  22.786  25.259  1.00  0.00     0.129 C 
ATOM     13  C   UNL A   1      31.952  21.928  22.679  1.00  0.00     0.028 C 
ATOM     14  C   UNL A   1      31.732  23.459  24.721  1.00  0.00     0.044 C 
ATOM     15  C   UNL A   1      31.551  23.290  23.216  1.00  0.00     0.024 C 
ATOM     16  C   UNL A   1      32.334  24.464  22.661  1.00  0.00     0.164 C 
ATOM     17  O   UNL A   1      32.073  25.546  23.561  1.00  0.00    -0.377 OA
BRANCH  10  18
ATOM     18  C   UNL A   1      33.988  20.436  25.252  1.00  0.00     0.410 C 
ATOM     19  O   UNL A   1      35.186  20.424  25.517  1.00  0.00    -0.224 OA
BRANCH  18  20
ATOM     20  O   UNL A   1      33.158  19.382  25.509  1.00  0.00    -0.444 OA
BRANCH  20  21
ATOM     21  C   UNL A   1      33.275  18.165  24.707  1.00  0.00     0.106 C 
ATOM     22  C   UNL A   1      32.743  17.005  25.569  1.00  0.00     0.056 C 
ATOM     23  C   UNL A   1      34.750  17.896  24.408  1.00  0.00     0.056 C 
ATOM     24  C   UNL A   1      32.422  18.183  23.424  1.00  0.00     0.056 C 
ENDBRANCH  20  21
ENDBRANCH  18  20
ENDBRANCH  10  18
ENDBRANCH   8   9
ENDBRANCH   6   8
ENDBRANCH   5   6
ENDBRANCH   4   5
ENDBRANCH   3   4
ENDBRANCH   2   3
ENDBRANCH   1   2
BRANCH   1  25
ATOM     25  C   UNL A   1      33.579  28.093  25.934  1.00  0.00     0.188 C 
BRANCH  25  26
ATOM     26  O   UNL A   1      34.027  29.088  26.854  1.00  0.00    -0.376 OA
BRANCH  26  27
ATOM     27  C   UNL A   1      32.994  29.989  27.271  1.00  0.00     0.202 C 
BRANCH  27  28
ATOM     28  C   UNL A   1      33.224  31.455  26.870  1.00  0.00     0.261 C 
BRANCH  28  29
ATOM     29  O   UNL A   1      32.828  32.370  27.902  1.00  0.00    -0.460 OA
BRANCH  29  30
ATOM     30  C   UNL A   1      33.718  33.388  28.052  1.00  0.00     0.338 C 
ATOM     31  O   UNL A   1      33.499  34.556  27.814  1.00  0.00    -0.246 OA
BRANCH  30  32
ATOM     32  C   UNL A   1      34.966  32.951  28.715  1.00  0.00     0.060 A 
ATOM     33  C   UNL A   1      34.836  32.003  29.743  1.00  0.00     0.016 A 
ATOM     34  C   UNL A   1      36.226  33.411  28.336  1.00  0.00     0.016 A 
ATOM     35  C   UNL A   1      35.960  31.500  30.386  1.00  0.00     0.010 A 
ATOM     36  C   UNL A   1      37.356  32.907  28.979  1.00  0.00     0.010 A 
ATOM     37  C   UNL A   1      37.224  31.951  30.000  1.00  0.00    -0.014 A 
BRANCH  37  38
ATOM     38  C   UNL A   1      38.429  31.445  30.684  1.00  0.00     0.031 A 
ATOM     39  C   UNL A   1      39.258  30.395  30.022  1.00  0.00     0.074 A 
ATOM     40  C   UNL A   1      38.736  31.907  31.907  1.00  0.00     0.049 A 
ATOM     41  N   UNL A   1      40.251  29.698  30.506  1.00  0.00    -0.248 NA
ATOM     42  C   UNL A   1      38.918  30.082  28.626  1.00  0.00     0.031 C 
ATOM     43  C   UNL A   1      38.014  32.966  32.612  1.00  0.00     0.029 A 
ATOM     44  N   UNL A   1      39.715  31.521  32.784  1.00  0.00    -0.354 N 
ATOM     45  C   UNL A   1      40.645  28.850  29.483  1.00  0.00     0.074 A 
ATOM     46  C   UNL A   1      39.778  29.112  28.353  1.00  0.00     0.031 C 
ATOM     47  C   UNL A   1      38.550  33.117  33.834  1.00  0.00     0.029 A 
ATOM     48  C   UNL A   1      39.619  32.137  34.006  1.00  0.00     0.049 A 
ATOM     49  H   UNL A   1      40.418  30.869  32.560  1.00  0.00     0.167 HD
ATOM     50  C   UNL A   1      41.638  27.932  29.497  1.00  0.00     0.037 A 
ATOM     51  C   UNL A   1      40.284  31.892  35.151  1.00  0.00     0.037 A 
ATOM     52  C   UNL A   1      42.485  27.685  30.634  1.00  0.00     0.049 A 
ATOM     53  C   UNL A   1      41.325  30.809  35.170  1.00  0.00     0.074 A 
ATOM     54  C   UNL A   1      43.555  26.816  30.744  1.00  0.00     0.029 A 
ATOM     55  N   UNL A   1      42.340  28.302  31.869  1.00  0.00    -0.354 N 
ATOM     56  N   UNL A   1      41.714  30.022  34.197  1.00  0.00    -0.248 NA
ATOM     57  C   UNL A   1      42.010  30.570  36.447  1.00  0.00     0.031 C 
ATOM     58  C   UNL A   1      44.024  26.870  32.063  1.00  0.00     0.029 A 
ATOM     59  C   UNL A   1      43.274  27.802  32.763  1.00  0.00     0.049 A 
ATOM     60  H   UNL A   1      41.672  28.994  32.079  1.00  0.00     0.167 HD
ATOM     61  C   UNL A   1      42.689  29.195  34.738  1.00  0.00     0.074 A 
ATOM     62  C   UNL A   1      42.845  29.592  36.123  1.00  0.00     0.031 C 
ATOM     63  C   UNL A   1      43.389  28.198  34.144  1.00  0.00     0.037 A 
BRANCH  50  64
ATOM     64  C   UNL A   1      41.818  27.099  28.265  1.00  0.00     0.064 A 
ATOM     65  C   UNL A   1      41.030  25.966  28.014  1.00  0.00     0.173 A 
ATOM     66  C   UNL A   1      42.805  27.435  27.326  1.00  0.00     0.173 A 
ATOM     67  F   UNL A   1      40.087  25.592  28.891  1.00  0.00    -0.203 F 
ATOM     68  C   UNL A   1      41.247  25.180  26.885  1.00  0.00     0.198 A 
ATOM     69  C   UNL A   1      43.003  26.661  26.186  1.00  0.00     0.198 A 
ATOM     70  F   UNL A   1      43.587  28.506  27.521  1.00  0.00    -0.203 F 
ATOM     71  F   UNL A   1      40.520  24.070  26.693  1.00  0.00    -0.200 F 
ATOM     72  C   UNL A   1      42.230  25.530  25.970  1.00  0.00     0.200 A 
ATOM     73  F   UNL A   1      43.950  27.003  25.301  1.00  0.00    -0.200 F 
ATOM     74  F   UNL A   1      42.442  24.768  24.889  1.00  0.00    -0.200 F 
ENDBRANCH  50  64
BRANCH  51  75
ATOM     75  C   UNL A   1      39.931  32.654  36.375  1.00  0.00     0.064 A 
ATOM     76  C   UNL A   1      40.656  33.790  36.754  1.00  0.00     0.173 A 
ATOM     77  C   UNL A   1      38.835  32.280  37.169  1.00  0.00     0.173 A 
ATOM     78  F   UNL A   1      41.724  34.172  36.039  1.00  0.00    -0.203 F 
ATOM     79  C   UNL A   1      40.298  34.525  37.883  1.00  0.00     0.198 A 
ATOM     80  C   UNL A   1      38.465  33.028  38.283  1.00  0.00     0.198 A 
ATOM     81  F   UNL A   1      38.110  31.199  36.844  1.00  0.00    -0.203 F 
ATOM     82  F   UNL A   1      41.021  35.596  38.239  1.00  0.00    -0.200 F 
ATOM     83  C   UNL A   1      39.197  34.150  38.640  1.00  0.00     0.200 A 
ATOM     84  F   UNL A   1      37.394  32.669  39.004  1.00  0.00    -0.200 F 
ATOM     85  F   UNL A   1      38.846  34.866  39.717  1.00  0.00    -0.200 F 
ENDBRANCH  51  75
BRANCH  63  86
ATOM     86  C   UNL A   1      44.375  27.458  34.996  1.00  0.00     0.064 A 
ATOM     87  C   UNL A   1      45.692  27.916  35.148  1.00  0.00     0.173 A 
ATOM     88  C   UNL A   1      43.989  26.312  35.707  1.00  0.00     0.173 A 
ATOM     89  F   UNL A   1      46.112  28.997  34.475  1.00  0.00    -0.203 F 
ATOM     90  C   UNL A   1      46.591  27.245  35.974  1.00  0.00     0.198 A 
ATOM     91  C   UNL A   1      44.883  25.657  36.549  1.00  0.00     0.198 A 
ATOM     92  F   UNL A   1      42.739  25.838  35.596  1.00  0.00    -0.203 F 
ATOM     93  F   UNL A   1      47.854  27.679  36.079  1.00  0.00    -0.200 F 
ATOM     94  C   UNL A   1      46.183  26.122  36.679  1.00  0.00     0.200 A 
ATOM     95  F   UNL A   1      44.484  24.580  37.239  1.00  0.00    -0.200 F 
ATOM     96  F   UNL A   1      47.046  25.484  37.481  1.00  0.00    -0.200 F 
ENDBRANCH  63  86
ENDBRANCH  37  38
ENDBRANCH  30  32
ENDBRANCH  29  30
ENDBRANCH  28  29
ENDBRANCH  27  28
ENDBRANCH  26  27
ENDBRANCH  25  26
ENDBRANCH   1  25
TORSDOF 21
ENDMDL
