MODEL 1
REMARK VINA RESULT:     -11.1      0.000      0.000
REMARK SMILES O=C(OCCOCCOCCOC(=O)c1cc(NC(=S)NC(=O)c2ccccc2F)ccc1Cl)c1ccc(-c2c3nc(c(-c4c(F)c(F)c(F)c(F)c4F)c4ccc([nH]4)c(-c4c(F)c(F)c(F)c(F)c4F)c4nc(c(-c5c(F)c(F)c(F)c(F)c5F)c5ccc2[nH]5)C=C4)C=C3)cc1
REMARK SMILES IDX 8 1 7 2 6 3 5 4 4 5 3 6 2 7 1 8 35 9 36 10 97 11 37 12 96 13
REMARK SMILES IDX 38 14 39 15 40 16 90 17 41 18 95 19 89 20 91 21 42 22 94 23
REMARK SMILES IDX 88 24 87 25 43 27 75 28 55 29 74 30 56 31 59 32 73 33 92 34
REMARK SMILES IDX 57 35 58 36 72 38 93 39 60 40 44 41 45 42 53 43 46 44 47 45
REMARK SMILES IDX 51 46 54 47 48 48 49 49 52 50 50 51 76 52 77 53 85 54 78 55
REMARK SMILES IDX 79 56 83 57 86 58 80 59 81 60 84 61 82 62 61 63 62 64 70 65
REMARK SMILES IDX 63 66 64 67 68 68 71 69 65 70 66 71 69 72 67 73 9 74 10 75
REMARK SMILES IDX 11 76 12 77 13 78 14 79 15 80 16 81 33 82 17 83 32 84 34 85
REMARK SMILES IDX 31 86 18 87 19 89 20 90 21 91 22 92 23 94 24 95 25 96 29 97
REMARK SMILES IDX 26 98 28 99 30 100 27 101
REMARK H PARENT 91 26 59 37 18 88 21 93
REMARK Flexibility Score: inf
ROOT
ATOM      1  C   UNL A   1      45.724  19.497  24.090  1.00  0.00     0.188 C 
ENDROOT
BRANCH   1   2
ATOM      2  C   UNL A   1      46.374  20.064  25.353  1.00  0.00     0.188 C 
BRANCH   2   3
ATOM      3  O   UNL A   1      46.421  21.491  25.359  1.00  0.00    -0.376 OA
BRANCH   3   4
ATOM      4  C   UNL A   1      45.154  22.140  25.214  1.00  0.00     0.202 C 
BRANCH   4   5
ATOM      5  C   UNL A   1      45.105  23.325  24.231  1.00  0.00     0.261 C 
BRANCH   5   6
ATOM      6  O   UNL A   1      44.395  24.483  24.708  1.00  0.00    -0.460 OA
BRANCH   6   7
ATOM      7  C   UNL A   1      44.890  25.623  25.250  1.00  0.00     0.338 C 
ATOM      8  O   UNL A   1      45.867  26.154  24.723  1.00  0.00    -0.246 OA
BRANCH   7   9
ATOM      9  C   UNL A   1      44.336  26.246  26.490  1.00  0.00     0.060 A 
ATOM     10  C   UNL A   1      44.535  27.579  26.845  1.00  0.00     0.016 A 
ATOM     11  C   UNL A   1      43.389  25.525  27.229  1.00  0.00     0.016 A 
ATOM     12  C   UNL A   1      43.909  28.184  27.918  1.00  0.00     0.010 A 
ATOM     13  C   UNL A   1      42.660  26.157  28.245  1.00  0.00     0.010 A 
ATOM     14  C   UNL A   1      42.943  27.491  28.612  1.00  0.00    -0.014 A 
BRANCH  14  15
ATOM     15  C   UNL A   1      42.358  28.107  29.820  1.00  0.00     0.031 A 
ATOM     16  C   UNL A   1      41.109  28.891  29.598  1.00  0.00     0.074 A 
ATOM     17  C   UNL A   1      42.833  27.909  31.070  1.00  0.00     0.049 A 
ATOM     18  N   UNL A   1      40.461  29.653  30.430  1.00  0.00    -0.248 NA
ATOM     19  C   UNL A   1      40.467  28.752  28.274  1.00  0.00     0.031 C 
ATOM     20  C   UNL A   1      43.845  26.934  31.481  1.00  0.00     0.029 A 
ATOM     21  N   UNL A   1      42.565  28.579  32.239  1.00  0.00    -0.354 N 
ATOM     22  C   UNL A   1      39.323  30.039  29.745  1.00  0.00     0.074 A 
ATOM     23  C   UNL A   1      39.410  29.533  28.399  1.00  0.00     0.031 C 
ATOM     24  C   UNL A   1      44.255  27.200  32.731  1.00  0.00     0.029 A 
ATOM     25  C   UNL A   1      43.487  28.320  33.232  1.00  0.00     0.049 A 
ATOM     26  H   UNL A   1      41.795  29.180  32.356  1.00  0.00     0.167 HD
ATOM     27  C   UNL A   1      38.259  30.697  30.240  1.00  0.00     0.037 A 
ATOM     28  C   UNL A   1      43.696  28.940  34.408  1.00  0.00     0.037 A 
ATOM     29  C   UNL A   1      38.190  31.158  31.594  1.00  0.00     0.049 A 
ATOM     30  C   UNL A   1      42.645  29.907  34.851  1.00  0.00     0.074 A 
ATOM     31  C   UNL A   1      37.171  31.853  32.209  1.00  0.00     0.029 A 
ATOM     32  N   UNL A   1      39.192  30.972  32.538  1.00  0.00    -0.354 N 
ATOM     33  N   UNL A   1      41.572  30.289  34.202  1.00  0.00    -0.248 NA
ATOM     34  C   UNL A   1      42.769  30.456  36.203  1.00  0.00     0.031 C 
ATOM     35  C   UNL A   1      37.591  32.164  33.502  1.00  0.00     0.029 A 
ATOM     36  C   UNL A   1      38.839  31.595  33.719  1.00  0.00     0.049 A 
ATOM     37  H   UNL A   1      40.028  30.473  32.388  1.00  0.00     0.167 HD
ATOM     38  C   UNL A   1      40.847  31.055  35.093  1.00  0.00     0.074 A 
ATOM     39  C   UNL A   1      41.619  31.106  36.321  1.00  0.00     0.031 C 
ATOM     40  C   UNL A   1      39.636  31.631  34.919  1.00  0.00     0.037 A 
BRANCH  27  41
ATOM     41  C   UNL A   1      37.116  30.952  29.319  1.00  0.00     0.064 A 
ATOM     42  C   UNL A   1      36.913  32.237  28.802  1.00  0.00     0.173 A 
ATOM     43  C   UNL A   1      36.203  29.944  28.976  1.00  0.00     0.173 A 
ATOM     44  F   UNL A   1      37.781  33.221  29.080  1.00  0.00    -0.203 F 
ATOM     45  C   UNL A   1      35.809  32.517  28.006  1.00  0.00     0.198 A 
ATOM     46  C   UNL A   1      35.115  30.221  28.154  1.00  0.00     0.198 A 
ATOM     47  F   UNL A   1      36.387  28.687  29.407  1.00  0.00    -0.203 F 
ATOM     48  F   UNL A   1      35.613  33.763  27.554  1.00  0.00    -0.200 F 
ATOM     49  C   UNL A   1      34.909  31.511  27.686  1.00  0.00     0.200 A 
ATOM     50  F   UNL A   1      34.268  29.240  27.813  1.00  0.00    -0.200 F 
ATOM     51  F   UNL A   1      33.845  31.784  26.920  1.00  0.00    -0.200 F 
ENDBRANCH  27  41
BRANCH  28  52
ATOM     52  C   UNL A   1      44.890  28.650  35.243  1.00  0.00     0.064 A 
ATOM     53  C   UNL A   1      45.973  29.540  35.274  1.00  0.00     0.173 A 
ATOM     54  C   UNL A   1      44.958  27.517  36.065  1.00  0.00     0.173 A 
ATOM     55  F   UNL A   1      45.969  30.635  34.499  1.00  0.00    -0.203 F 
ATOM     56  C   UNL A   1      47.070  29.315  36.107  1.00  0.00     0.198 A 
ATOM     57  C   UNL A   1      46.054  27.296  36.900  1.00  0.00     0.198 A 
ATOM     58  F   UNL A   1      43.937  26.651  36.092  1.00  0.00    -0.203 F 
ATOM     59  F   UNL A   1      48.094  30.181  36.111  1.00  0.00    -0.200 F 
ATOM     60  C   UNL A   1      47.110  28.195  36.919  1.00  0.00     0.200 A 
ATOM     61  F   UNL A   1      46.074  26.226  37.707  1.00  0.00    -0.200 F 
ATOM     62  F   UNL A   1      48.163  27.984  37.722  1.00  0.00    -0.200 F 
ENDBRANCH  28  52
BRANCH  40  63
ATOM     63  C   UNL A   1      39.057  32.360  36.086  1.00  0.00     0.064 A 
ATOM     64  C   UNL A   1      39.418  33.693  36.331  1.00  0.00     0.173 A 
ATOM     65  C   UNL A   1      38.237  31.709  37.015  1.00  0.00     0.173 A 
ATOM     66  F   UNL A   1      40.208  34.352  35.469  1.00  0.00    -0.203 F 
ATOM     67  C   UNL A   1      39.008  34.337  37.491  1.00  0.00     0.198 A 
ATOM     68  C   UNL A   1      37.792  32.371  38.152  1.00  0.00     0.198 A 
ATOM     69  F   UNL A   1      37.854  30.440  36.806  1.00  0.00    -0.203 F 
ATOM     70  F   UNL A   1      39.417  35.589  37.740  1.00  0.00    -0.200 F 
ATOM     71  C   UNL A   1      38.192  33.676  38.398  1.00  0.00     0.200 A 
ATOM     72  F   UNL A   1      36.978  31.744  39.012  1.00  0.00    -0.200 F 
ATOM     73  F   UNL A   1      37.792  34.300  39.514  1.00  0.00    -0.200 F 
ENDBRANCH  40  63
ENDBRANCH  14  15
ENDBRANCH   7   9
ENDBRANCH   6   7
ENDBRANCH   5   6
ENDBRANCH   4   5
ENDBRANCH   3   4
ENDBRANCH   2   3
ENDBRANCH   1   2
BRANCH   1  74
ATOM     74  O   UNL A   1      44.750  18.481  24.265  1.00  0.00    -0.376 OA
BRANCH  74  75
ATOM     75  C   UNL A   1      44.019  18.517  25.483  1.00  0.00     0.202 C 
BRANCH  75  76
ATOM     76  C   UNL A   1      42.487  18.767  25.481  1.00  0.00     0.261 C 
BRANCH  76  77
ATOM     77  O   UNL A   1      41.949  20.111  25.670  1.00  0.00    -0.460 OA
BRANCH  77  78
ATOM     78  C   UNL A   1      41.307  20.273  26.862  1.00  0.00     0.339 C 
ATOM     79  O   UNL A   1      41.602  19.659  27.881  1.00  0.00    -0.246 OA
BRANCH  78  80
ATOM     80  C   UNL A   1      40.028  21.150  26.852  1.00  0.00     0.080 A 
ATOM     81  C   UNL A   1      38.443  21.417  25.633  1.00  0.00     0.043 A 
ATOM     82  C   UNL A   1      40.584  22.691  27.646  1.00  0.00     0.055 A 
ATOM     83  C   UNL A   1      37.649  22.860  25.338  1.00  0.00     0.041 A 
ATOM     84  C   UNL A   1      39.717  24.208  27.241  1.00  0.00     0.023 A 
ATOM     85  Cl  UNL A   1      41.867  22.751  28.789  1.00  0.00    -0.083 Cl
ATOM     86  C   UNL A   1      38.297  24.268  26.126  1.00  0.00     0.028 A 
BRANCH  83  87
ATOM     87  N   UNL A   1      36.589  22.562  24.439  1.00  0.00    -0.332 N 
ATOM     88  H   UNL A   1      36.868  22.166  23.582  1.00  0.00     0.169 HD
BRANCH  87  89
ATOM     89  C   UNL A   1      35.188  22.747  24.587  1.00  0.00     0.177 C 
ATOM     90  S   UNL A   1      34.413  21.751  25.698  1.00  0.00    -0.040 S 
BRANCH  89  91
ATOM     91  N   UNL A   1      34.331  23.760  23.926  1.00  0.00    -0.299 N 
ATOM     92  C   UNL A   1      33.596  25.132  23.878  1.00  0.00     0.260 C 
ATOM     93  H   UNL A   1      34.111  23.347  23.060  1.00  0.00     0.172 HD
ATOM     94  O   UNL A   1      32.678  25.314  23.085  1.00  0.00    -0.269 OA
BRANCH  92  95
ATOM     95  C   UNL A   1      34.052  26.333  24.805  1.00  0.00     0.075 A 
ATOM     96  C   UNL A   1      34.058  27.901  23.915  1.00  0.00     0.017 A 
ATOM     97  C   UNL A   1      33.019  26.052  26.216  1.00  0.00     0.135 A 
ATOM     98  C   UNL A   1      32.769  29.118  24.345  1.00  0.00     0.001 A 
ATOM     99  C   UNL A   1      31.777  27.138  26.769  1.00  0.00     0.040 A 
ATOM    100  F   UNL A   1      32.732  24.760  26.428  1.00  0.00    -0.206 F 
ATOM    101  C   UNL A   1      31.540  28.676  25.903  1.00  0.00     0.003 A 
ENDBRANCH  92  95
ENDBRANCH  89  91
ENDBRANCH  87  89
ENDBRANCH  83  87
ENDBRANCH  78  80
ENDBRANCH  77  78
ENDBRANCH  76  77
ENDBRANCH  75  76
ENDBRANCH  74  75
ENDBRANCH   1  74
TORSDOF 21
ENDMDL
MODEL 2
REMARK VINA RESULT:     -10.9      0.992      2.080
REMARK SMILES O=C(OCCOCCOCCOC(=O)c1cc(NC(=S)NC(=O)c2ccccc2F)ccc1Cl)c1ccc(-c2c3nc(c(-c4c(F)c(F)c(F)c(F)c4F)c4ccc([nH]4)c(-c4c(F)c(F)c(F)c(F)c4F)c4nc(c(-c5c(F)c(F)c(F)c(F)c5F)c5ccc2[nH]5)C=C4)C=C3)cc1
REMARK SMILES IDX 8 1 7 2 6 3 5 4 4 5 3 6 2 7 1 8 35 9 36 10 97 11 37 12 96 13
REMARK SMILES IDX 38 14 39 15 40 16 90 17 41 18 95 19 89 20 91 21 42 22 94 23
REMARK SMILES IDX 88 24 87 25 43 27 75 28 55 29 74 30 56 31 59 32 73 33 92 34
REMARK SMILES IDX 57 35 58 36 72 38 93 39 60 40 44 41 45 42 53 43 46 44 47 45
REMARK SMILES IDX 51 46 54 47 48 48 49 49 52 50 50 51 76 52 77 53 85 54 78 55
REMARK SMILES IDX 79 56 83 57 86 58 80 59 81 60 84 61 82 62 61 63 62 64 70 65
REMARK SMILES IDX 63 66 64 67 68 68 71 69 65 70 66 71 69 72 67 73 9 74 10 75
REMARK SMILES IDX 11 76 12 77 13 78 14 79 15 80 16 81 33 82 17 83 32 84 34 85
REMARK SMILES IDX 31 86 18 87 19 89 20 90 21 91 22 92 23 94 24 95 25 96 29 97
REMARK SMILES IDX 26 98 28 99 30 100 27 101
REMARK H PARENT 91 26 59 37 18 88 21 93
REMARK Flexibility Score: inf
ROOT
ATOM      1  C   UNL A   1      45.703  19.639  23.887  1.00  0.00     0.188 C 
ENDROOT
BRANCH   1   2
ATOM      2  C   UNL A   1      46.414  20.181  25.128  1.00  0.00     0.188 C 
BRANCH   2   3
ATOM      3  O   UNL A   1      46.402  21.608  25.195  1.00  0.00    -0.376 OA
BRANCH   3   4
ATOM      4  C   UNL A   1      45.107  22.195  25.355  1.00  0.00     0.202 C 
BRANCH   4   5
ATOM      5  C   UNL A   1      44.654  23.157  24.240  1.00  0.00     0.261 C 
BRANCH   5   6
ATOM      6  O   UNL A   1      44.145  24.424  24.698  1.00  0.00    -0.460 OA
BRANCH   6   7
ATOM      7  C   UNL A   1      44.792  25.411  25.366  1.00  0.00     0.338 C 
ATOM      8  O   UNL A   1      45.892  25.780  24.958  1.00  0.00    -0.246 OA
BRANCH   7   9
ATOM      9  C   UNL A   1      44.255  26.045  26.607  1.00  0.00     0.060 A 
ATOM     10  C   UNL A   1      44.522  27.359  26.987  1.00  0.00     0.016 A 
ATOM     11  C   UNL A   1      43.259  25.366  27.322  1.00  0.00     0.016 A 
ATOM     12  C   UNL A   1      43.915  27.981  28.061  1.00  0.00     0.010 A 
ATOM     13  C   UNL A   1      42.551  26.022  28.338  1.00  0.00     0.010 A 
ATOM     14  C   UNL A   1      42.902  27.332  28.731  1.00  0.00    -0.014 A 
BRANCH  14  15
ATOM     15  C   UNL A   1      42.334  27.961  29.940  1.00  0.00     0.031 A 
ATOM     16  C   UNL A   1      41.088  28.753  29.725  1.00  0.00     0.074 A 
ATOM     17  C   UNL A   1      42.820  27.769  31.186  1.00  0.00     0.049 A 
ATOM     18  N   UNL A   1      40.455  29.526  30.558  1.00  0.00    -0.248 NA
ATOM     19  C   UNL A   1      40.432  28.609  28.409  1.00  0.00     0.031 C 
ATOM     20  C   UNL A   1      43.830  26.790  31.594  1.00  0.00     0.029 A 
ATOM     21  N   UNL A   1      42.570  28.449  32.353  1.00  0.00    -0.354 N 
ATOM     22  C   UNL A   1      39.313  29.915  29.882  1.00  0.00     0.074 A 
ATOM     23  C   UNL A   1      39.382  29.399  28.539  1.00  0.00     0.031 C 
ATOM     24  C   UNL A   1      44.254  27.061  32.837  1.00  0.00     0.029 A 
ATOM     25  C   UNL A   1      43.500  28.191  33.338  1.00  0.00     0.049 A 
ATOM     26  H   UNL A   1      41.805  29.057  32.474  1.00  0.00     0.167 HD
ATOM     27  C   UNL A   1      38.259  30.584  30.384  1.00  0.00     0.037 A 
ATOM     28  C   UNL A   1      43.726  28.817  34.507  1.00  0.00     0.037 A 
ATOM     29  C   UNL A   1      38.208  31.055  31.735  1.00  0.00     0.049 A 
ATOM     30  C   UNL A   1      42.687  29.795  34.954  1.00  0.00     0.074 A 
ATOM     31  C   UNL A   1      37.200  31.762  32.355  1.00  0.00     0.029 A 
ATOM     32  N   UNL A   1      39.217  30.869  32.670  1.00  0.00    -0.354 N 
ATOM     33  N   UNL A   1      41.611  30.181  34.314  1.00  0.00    -0.248 NA
ATOM     34  C   UNL A   1      42.829  30.353  36.301  1.00  0.00     0.031 C 
ATOM     35  C   UNL A   1      37.636  32.080  33.642  1.00  0.00     0.029 A 
ATOM     36  C   UNL A   1      38.881  31.503  33.850  1.00  0.00     0.049 A 
ATOM     37  H   UNL A   1      40.048  30.363  32.515  1.00  0.00     0.167 HD
ATOM     38  C   UNL A   1      40.900  30.958  35.206  1.00  0.00     0.074 A 
ATOM     39  C   UNL A   1      41.685  31.012  36.426  1.00  0.00     0.031 C 
ATOM     40  C   UNL A   1      39.691  31.542  35.041  1.00  0.00     0.037 A 
BRANCH  27  41
ATOM     41  C   UNL A   1      37.108  30.841  29.474  1.00  0.00     0.064 A 
ATOM     42  C   UNL A   1      36.228  29.800  29.154  1.00  0.00     0.173 A 
ATOM     43  C   UNL A   1      36.892  32.099  28.890  1.00  0.00     0.173 A 
ATOM     44  F   UNL A   1      36.379  28.593  29.716  1.00  0.00    -0.203 F 
ATOM     45  C   UNL A   1      35.194  29.997  28.246  1.00  0.00     0.198 A 
ATOM     46  C   UNL A   1      35.839  32.300  28.004  1.00  0.00     0.198 A 
ATOM     47  F   UNL A   1      37.680  33.138  29.207  1.00  0.00    -0.203 F 
ATOM     48  F   UNL A   1      34.388  28.977  27.924  1.00  0.00    -0.200 F 
ATOM     49  C   UNL A   1      35.004  31.244  27.668  1.00  0.00     0.200 A 
ATOM     50  F   UNL A   1      35.631  33.514  27.477  1.00  0.00    -0.200 F 
ATOM     51  F   UNL A   1      34.008  31.429  26.791  1.00  0.00    -0.200 F 
ENDBRANCH  27  41
BRANCH  28  52
ATOM     52  C   UNL A   1      44.926  28.524  35.332  1.00  0.00     0.064 A 
ATOM     53  C   UNL A   1      44.967  27.390  36.156  1.00  0.00     0.173 A 
ATOM     54  C   UNL A   1      46.073  29.327  35.279  1.00  0.00     0.173 A 
ATOM     55  F   UNL A   1      43.894  26.590  36.256  1.00  0.00    -0.203 F 
ATOM     56  C   UNL A   1      46.113  27.064  36.883  1.00  0.00     0.198 A 
ATOM     57  C   UNL A   1      47.220  28.998  36.003  1.00  0.00     0.198 A 
ATOM     58  F   UNL A   1      46.094  30.406  34.485  1.00  0.00    -0.203 F 
ATOM     59  F   UNL A   1      46.120  25.977  37.667  1.00  0.00    -0.200 F 
ATOM     60  C   UNL A   1      47.238  27.867  36.806  1.00  0.00     0.200 A 
ATOM     61  F   UNL A   1      48.316  29.762  35.902  1.00  0.00    -0.200 F 
ATOM     62  F   UNL A   1      48.340  27.549  37.501  1.00  0.00    -0.200 F 
ENDBRANCH  28  52
BRANCH  40  63
ATOM     63  C   UNL A   1      39.130  32.283  36.209  1.00  0.00     0.064 A 
ATOM     64  C   UNL A   1      39.575  33.583  36.496  1.00  0.00     0.173 A 
ATOM     65  C   UNL A   1      38.240  31.671  37.099  1.00  0.00     0.173 A 
ATOM     66  F   UNL A   1      40.433  34.204  35.672  1.00  0.00    -0.203 F 
ATOM     67  C   UNL A   1      39.176  34.228  37.659  1.00  0.00     0.198 A 
ATOM     68  C   UNL A   1      37.809  32.337  38.239  1.00  0.00     0.198 A 
ATOM     69  F   UNL A   1      37.778  30.436  36.849  1.00  0.00    -0.203 F 
ATOM     70  F   UNL A   1      39.663  35.442  37.948  1.00  0.00    -0.200 F 
ATOM     71  C   UNL A   1      38.291  33.605  38.527  1.00  0.00     0.200 A 
ATOM     72  F   UNL A   1      36.930  31.749  39.061  1.00  0.00    -0.200 F 
ATOM     73  F   UNL A   1      37.902  34.231  39.646  1.00  0.00    -0.200 F 
ENDBRANCH  40  63
ENDBRANCH  14  15
ENDBRANCH   7   9
ENDBRANCH   6   7
ENDBRANCH   5   6
ENDBRANCH   4   5
ENDBRANCH   3   4
ENDBRANCH   2   3
ENDBRANCH   1   2
BRANCH   1  74
ATOM     74  O   UNL A   1      44.773  18.586  24.083  1.00  0.00    -0.376 OA
BRANCH  74  75
ATOM     75  C   UNL A   1      44.108  18.564  25.339  1.00  0.00     0.202 C 
BRANCH  75  76
ATOM     76  C   UNL A   1      42.576  18.802  25.429  1.00  0.00     0.261 C 
BRANCH  76  77
ATOM     77  O   UNL A   1      42.044  20.119  25.764  1.00  0.00    -0.460 OA
BRANCH  77  78
ATOM     78  C   UNL A   1      41.311  20.130  26.914  1.00  0.00     0.339 C 
ATOM     79  O   UNL A   1      41.536  19.393  27.868  1.00  0.00    -0.246 OA
BRANCH  78  80
ATOM     80  C   UNL A   1      40.028  20.999  26.915  1.00  0.00     0.080 A 
ATOM     81  C   UNL A   1      38.397  21.209  25.747  1.00  0.00     0.043 A 
ATOM     82  C   UNL A   1      40.603  22.574  27.625  1.00  0.00     0.055 A 
ATOM     83  C   UNL A   1      37.584  22.635  25.423  1.00  0.00     0.041 A 
ATOM     84  C   UNL A   1      39.713  24.070  27.191  1.00  0.00     0.023 A 
ATOM     85  Cl  UNL A   1      41.928  22.688  28.715  1.00  0.00    -0.083 Cl
ATOM     86  C   UNL A   1      38.252  24.077  26.128  1.00  0.00     0.028 A 
BRANCH  83  87
ATOM     87  N   UNL A   1      36.492  22.295  24.578  1.00  0.00    -0.332 N 
ATOM     88  H   UNL A   1      36.711  22.234  23.620  1.00  0.00     0.169 HD
BRANCH  87  89
ATOM     89  C   UNL A   1      35.135  22.029  24.902  1.00  0.00     0.177 C 
ATOM     90  S   UNL A   1      34.657  22.377  26.476  1.00  0.00    -0.040 S 
BRANCH  89  91
ATOM     91  N   UNL A   1      34.065  21.540  24.001  1.00  0.00    -0.299 N 
ATOM     92  C   UNL A   1      32.639  21.613  23.377  1.00  0.00     0.260 C 
ATOM     93  H   UNL A   1      34.470  20.756  23.565  1.00  0.00     0.172 HD
ATOM     94  O   UNL A   1      32.153  20.629  22.830  1.00  0.00    -0.269 OA
BRANCH  92  95
ATOM     95  C   UNL A   1      31.815  22.966  23.387  1.00  0.00     0.075 A 
ATOM     96  C   UNL A   1      31.275  23.408  25.049  1.00  0.00     0.017 A 
ATOM     97  C   UNL A   1      32.897  24.000  22.439  1.00  0.00     0.135 A 
ATOM     98  C   UNL A   1      32.085  24.836  25.846  1.00  0.00     0.001 A 
ATOM     99  C   UNL A   1      33.708  25.413  23.050  1.00  0.00     0.040 A 
ATOM    100  F   UNL A   1      33.602  23.339  21.511  1.00  0.00    -0.206 F 
ATOM    101  C   UNL A   1      33.406  25.909  24.735  1.00  0.00     0.003 A 
ENDBRANCH  92  95
ENDBRANCH  89  91
ENDBRANCH  87  89
ENDBRANCH  83  87
ENDBRANCH  78  80
ENDBRANCH  77  78
ENDBRANCH  76  77
ENDBRANCH  75  76
ENDBRANCH  74  75
ENDBRANCH   1  74
TORSDOF 21
ENDMDL
MODEL 3
REMARK VINA RESULT:      -9.9      3.799      6.924
REMARK SMILES O=C(OCCOCCOCCOC(=O)c1cc(NC(=S)NC(=O)c2ccccc2F)ccc1Cl)c1ccc(-c2c3nc(c(-c4c(F)c(F)c(F)c(F)c4F)c4ccc([nH]4)c(-c4c(F)c(F)c(F)c(F)c4F)c4nc(c(-c5c(F)c(F)c(F)c(F)c5F)c5ccc2[nH]5)C=C4)C=C3)cc1
REMARK SMILES IDX 8 1 7 2 6 3 5 4 4 5 3 6 2 7 1 8 35 9 36 10 97 11 37 12 96 13
REMARK SMILES IDX 38 14 39 15 40 16 90 17 41 18 95 19 89 20 91 21 42 22 94 23
REMARK SMILES IDX 88 24 87 25 43 27 75 28 55 29 74 30 56 31 59 32 73 33 92 34
REMARK SMILES IDX 57 35 58 36 72 38 93 39 60 40 44 41 45 42 53 43 46 44 47 45
REMARK SMILES IDX 51 46 54 47 48 48 49 49 52 50 50 51 76 52 77 53 85 54 78 55
REMARK SMILES IDX 79 56 83 57 86 58 80 59 81 60 84 61 82 62 61 63 62 64 70 65
REMARK SMILES IDX 63 66 64 67 68 68 71 69 65 70 66 71 69 72 67 73 9 74 10 75
REMARK SMILES IDX 11 76 12 77 13 78 14 79 15 80 16 81 33 82 17 83 32 84 34 85
REMARK SMILES IDX 31 86 18 87 19 89 20 90 21 91 22 92 23 94 24 95 25 96 29 97
REMARK SMILES IDX 26 98 28 99 30 100 27 101
REMARK H PARENT 91 26 59 37 18 88 21 93
REMARK Flexibility Score: inf
ROOT
ATOM      1  C   UNL A   1      45.675  19.556  23.993  1.00  0.00     0.188 C 
ENDROOT
BRANCH   1   2
ATOM      2  C   UNL A   1      46.016  20.697  24.954  1.00  0.00     0.188 C 
BRANCH   2   3
ATOM      3  O   UNL A   1      46.033  21.973  24.315  1.00  0.00    -0.376 OA
BRANCH   3   4
ATOM      4  C   UNL A   1      44.753  22.461  23.901  1.00  0.00     0.202 C 
BRANCH   4   5
ATOM      5  C   UNL A   1      44.090  23.500  24.825  1.00  0.00     0.261 C 
BRANCH   5   6
ATOM      6  O   UNL A   1      44.408  24.872  24.525  1.00  0.00    -0.460 OA
BRANCH   6   7
ATOM      7  C   UNL A   1      45.398  25.647  25.032  1.00  0.00     0.338 C 
ATOM      8  O   UNL A   1      46.531  25.545  24.561  1.00  0.00    -0.246 OA
BRANCH   7   9
ATOM      9  C   UNL A   1      45.195  26.591  26.171  1.00  0.00     0.060 A 
ATOM     10  C   UNL A   1      46.232  27.255  26.825  1.00  0.00     0.016 A 
ATOM     11  C   UNL A   1      43.889  27.005  26.465  1.00  0.00     0.016 A 
ATOM     12  C   UNL A   1      46.029  28.228  27.785  1.00  0.00     0.010 A 
ATOM     13  C   UNL A   1      43.671  28.072  27.348  1.00  0.00     0.010 A 
ATOM     14  C   UNL A   1      44.749  28.669  28.037  1.00  0.00    -0.014 A 
BRANCH  14  15
ATOM     15  C   UNL A   1      44.533  29.631  29.136  1.00  0.00     0.031 A 
ATOM     16  C   UNL A   1      44.103  29.036  30.434  1.00  0.00     0.074 A 
ATOM     17  C   UNL A   1      44.797  30.954  29.039  1.00  0.00     0.049 A 
ATOM     18  N   UNL A   1      43.703  29.635  31.517  1.00  0.00    -0.248 NA
ATOM     19  C   UNL A   1      44.191  27.566  30.548  1.00  0.00     0.031 C 
ATOM     20  C   UNL A   1      45.505  31.631  27.951  1.00  0.00     0.029 A 
ATOM     21  N   UNL A   1      44.435  31.994  29.859  1.00  0.00    -0.354 N 
ATOM     22  C   UNL A   1      43.541  28.621  32.443  1.00  0.00     0.074 A 
ATOM     23  C   UNL A   1      43.769  27.362  31.782  1.00  0.00     0.031 C 
ATOM     24  C   UNL A   1      45.350  32.959  28.062  1.00  0.00     0.029 A 
ATOM     25  C   UNL A   1      44.589  33.229  29.264  1.00  0.00     0.049 A 
ATOM     26  H   UNL A   1      44.101  31.872  30.777  1.00  0.00     0.167 HD
ATOM     27  C   UNL A   1      43.299  28.753  33.760  1.00  0.00     0.037 A 
ATOM     28  C   UNL A   1      44.143  34.440  29.642  1.00  0.00     0.037 A 
ATOM     29  C   UNL A   1      43.110  30.023  34.393  1.00  0.00     0.049 A 
ATOM     30  C   UNL A   1      43.597  34.547  31.031  1.00  0.00     0.074 A 
ATOM     31  C   UNL A   1      42.841  30.285  35.720  1.00  0.00     0.029 A 
ATOM     32  N   UNL A   1      43.165  31.244  33.734  1.00  0.00    -0.354 N 
ATOM     33  N   UNL A   1      43.426  33.590  31.909  1.00  0.00    -0.248 NA
ATOM     34  C   UNL A   1      43.270  35.889  31.519  1.00  0.00     0.031 C 
ATOM     35  C   UNL A   1      42.647  31.660  35.849  1.00  0.00     0.029 A 
ATOM     36  C   UNL A   1      42.873  32.264  34.619  1.00  0.00     0.049 A 
ATOM     37  H   UNL A   1      43.378  31.365  32.780  1.00  0.00     0.167 HD
ATOM     38  C   UNL A   1      43.054  34.216  33.081  1.00  0.00     0.074 A 
ATOM     39  C   UNL A   1      42.996  35.638  32.792  1.00  0.00     0.031 C 
ATOM     40  C   UNL A   1      42.818  33.666  34.294  1.00  0.00     0.037 A 
BRANCH  27  41
ATOM     41  C   UNL A   1      43.222  27.508  34.576  1.00  0.00     0.064 A 
ATOM     42  C   UNL A   1      42.001  26.837  34.706  1.00  0.00     0.173 A 
ATOM     43  C   UNL A   1      44.339  26.999  35.255  1.00  0.00     0.173 A 
ATOM     44  F   UNL A   1      40.918  27.272  34.047  1.00  0.00    -0.203 F 
ATOM     45  C   UNL A   1      41.888  25.719  35.525  1.00  0.00     0.198 A 
ATOM     46  C   UNL A   1      44.229  25.863  36.051  1.00  0.00     0.198 A 
ATOM     47  F   UNL A   1      45.540  27.580  35.119  1.00  0.00    -0.203 F 
ATOM     48  F   UNL A   1      40.701  25.116  35.666  1.00  0.00    -0.200 F 
ATOM     49  C   UNL A   1      43.000  25.236  36.200  1.00  0.00     0.200 A 
ATOM     50  F   UNL A   1      45.311  25.373  36.671  1.00  0.00    -0.200 F 
ATOM     51  F   UNL A   1      42.887  24.161  36.990  1.00  0.00    -0.200 F 
ENDBRANCH  27  41
BRANCH  28  52
ATOM     52  C   UNL A   1      44.224  35.620  28.744  1.00  0.00     0.064 A 
ATOM     53  C   UNL A   1      43.123  36.002  27.964  1.00  0.00     0.173 A 
ATOM     54  C   UNL A   1      45.371  36.423  28.681  1.00  0.00     0.173 A 
ATOM     55  F   UNL A   1      42.001  35.265  27.975  1.00  0.00    -0.203 F 
ATOM     56  C   UNL A   1      43.162  37.147  27.169  1.00  0.00     0.198 A 
ATOM     57  C   UNL A   1      45.407  37.571  27.888  1.00  0.00     0.198 A 
ATOM     58  F   UNL A   1      46.440  36.116  29.428  1.00  0.00    -0.203 F 
ATOM     59  F   UNL A   1      42.095  37.484  26.429  1.00  0.00    -0.200 F 
ATOM     60  C   UNL A   1      44.302  37.931  27.131  1.00  0.00     0.200 A 
ATOM     61  F   UNL A   1      46.503  38.342  27.879  1.00  0.00    -0.200 F 
ATOM     62  F   UNL A   1      44.335  39.035  26.370  1.00  0.00    -0.200 F 
ENDBRANCH  28  52
BRANCH  40  63
ATOM     63  C   UNL A   1      42.486  34.601  35.410  1.00  0.00     0.064 A 
ATOM     64  C   UNL A   1      41.146  34.874  35.723  1.00  0.00     0.173 A 
ATOM     65  C   UNL A   1      43.488  35.302  36.092  1.00  0.00     0.173 A 
ATOM     66  F   UNL A   1      40.156  34.229  35.088  1.00  0.00    -0.203 F 
ATOM     67  C   UNL A   1      40.822  35.850  36.655  1.00  0.00     0.198 A 
ATOM     68  C   UNL A   1      43.159  36.246  37.056  1.00  0.00     0.198 A 
ATOM     69  F   UNL A   1      44.781  35.054  35.835  1.00  0.00    -0.203 F 
ATOM     70  F   UNL A   1      39.536  36.145  36.892  1.00  0.00    -0.200 F 
ATOM     71  C   UNL A   1      41.828  36.533  37.323  1.00  0.00     0.200 A 
ATOM     72  F   UNL A   1      44.131  36.882  37.724  1.00  0.00    -0.200 F 
ATOM     73  F   UNL A   1      41.514  37.470  38.226  1.00  0.00    -0.200 F 
ENDBRANCH  40  63
ENDBRANCH  14  15
ENDBRANCH   7   9
ENDBRANCH   6   7
ENDBRANCH   5   6
ENDBRANCH   4   5
ENDBRANCH   3   4
ENDBRANCH   2   3
ENDBRANCH   1   2
BRANCH   1  74
ATOM     74  O   UNL A   1      45.108  18.384  24.556  1.00  0.00    -0.376 OA
BRANCH  74  75
ATOM     75  C   UNL A   1      44.268  18.577  25.687  1.00  0.00     0.202 C 
BRANCH  75  76
ATOM     76  C   UNL A   1      42.834  19.149  25.521  1.00  0.00     0.261 C 
BRANCH  76  77
ATOM     77  O   UNL A   1      42.500  20.480  26.019  1.00  0.00    -0.460 OA
BRANCH  77  78
ATOM     78  C   UNL A   1      41.845  20.461  27.215  1.00  0.00     0.339 C 
ATOM     79  O   UNL A   1      41.894  19.521  28.001  1.00  0.00    -0.246 OA
BRANCH  78  80
ATOM     80  C   UNL A   1      40.853  21.621  27.486  1.00  0.00     0.080 A 
ATOM     81  C   UNL A   1      39.233  22.409  26.577  1.00  0.00     0.043 A 
ATOM     82  C   UNL A   1      41.902  22.876  28.285  1.00  0.00     0.055 A 
ATOM     83  C   UNL A   1      38.811  24.027  26.528  1.00  0.00     0.041 A 
ATOM     84  C   UNL A   1      41.414  24.597  28.145  1.00  0.00     0.023 A 
ATOM     85  Cl  UNL A   1      43.309  22.487  29.194  1.00  0.00    -0.083 Cl
ATOM     86  C   UNL A   1      39.913  25.132  27.295  1.00  0.00     0.028 A 
BRANCH  83  87
ATOM     87  N   UNL A   1      37.590  24.104  25.803  1.00  0.00    -0.332 N 
ATOM     88  H   UNL A   1      37.355  25.004  25.479  1.00  0.00     0.169 HD
BRANCH  87  89
ATOM     89  C   UNL A   1      36.657  23.085  25.475  1.00  0.00     0.177 C 
ATOM     90  S   UNL A   1      36.804  22.397  23.948  1.00  0.00    -0.040 S 
BRANCH  89  91
ATOM     91  N   UNL A   1      35.605  22.504  26.342  1.00  0.00    -0.299 N 
ATOM     92  C   UNL A   1      34.162  22.460  26.928  1.00  0.00     0.260 C 
ATOM     93  H   UNL A   1      36.055  21.743  26.775  1.00  0.00     0.172 HD
ATOM     94  O   UNL A   1      33.935  21.847  27.966  1.00  0.00    -0.269 OA
BRANCH  92  95
ATOM     95  C   UNL A   1      32.956  23.155  26.172  1.00  0.00     0.075 A 
ATOM     96  C   UNL A   1      33.231  24.924  25.957  1.00  0.00     0.017 A 
ATOM     97  C   UNL A   1      32.769  22.054  24.798  1.00  0.00     0.135 A 
ATOM     98  C   UNL A   1      33.579  25.523  24.269  1.00  0.00     0.001 A 
ATOM     99  C   UNL A   1      33.028  22.491  23.133  1.00  0.00     0.040 A 
ATOM    100  F   UNL A   1      33.095  20.784  25.073  1.00  0.00    -0.206 F 
ATOM    101  C   UNL A   1      33.463  24.176  22.751  1.00  0.00     0.003 A 
ENDBRANCH  92  95
ENDBRANCH  89  91
ENDBRANCH  87  89
ENDBRANCH  83  87
ENDBRANCH  78  80
ENDBRANCH  77  78
ENDBRANCH  76  77
ENDBRANCH  75  76
ENDBRANCH  74  75
ENDBRANCH   1  74
TORSDOF 21
ENDMDL
