MODEL 1
REMARK VINA RESULT:     -11.0      0.000      0.000
REMARK SMILES Cc1nsc(NC[C@@H]2C[C@H]3CC[C@@H]2C3)c1C(=O)OCCOCCOCCOC(=O)c1ccc(-c2c3nc(c(-c4c(F)c(F)c(F)c(F)c4F)c4ccc([nH]4)c(-c4c(F)c(F)c(F)c(F)c4F)c4nc(c(-c5c(F)c(F)c(F)c(F)c5F)c5ccc2[nH]5)C=C4)C=C3)cc1
REMARK SMILES IDX 22 1 21 2 20 3 19 4 18 5 16 6 17 7 15 8 1 9 2 10 3 11 4 12
REMARK SMILES IDX 5 13 6 14 7 16 8 17 9 18 13 19 10 20 12 21 14 22 11 23 23 24
REMARK SMILES IDX 24 25 25 26 26 27 27 28 28 29 29 30 30 31 31 32 92 33 32 34
REMARK SMILES IDX 91 35 33 36 34 37 35 38 85 39 36 40 90 41 84 42 86 43 37 44
REMARK SMILES IDX 89 45 83 46 82 47 38 49 70 50 50 51 69 52 51 53 54 54 68 55
REMARK SMILES IDX 87 56 52 57 53 58 67 60 88 61 55 62 39 63 40 64 48 65 41 66
REMARK SMILES IDX 42 67 46 68 49 69 43 70 44 71 47 72 45 73 71 74 72 75 80 76
REMARK SMILES IDX 73 77 74 78 78 79 81 80 75 81 76 82 79 83 77 84 56 85 57 86
REMARK SMILES IDX 65 87 58 88 59 89 63 90 66 91 60 92 61 93 64 94 62 95
REMARK H PARENT 6 15 86 48 54 59
REMARK Flexibility Score: inf
ROOT
ATOM      1  C   UNL A   1      33.979  31.764  27.992  1.00  0.00     0.188 C 
ENDROOT
BRANCH   1   2
ATOM      2  O   UNL A   1      33.064  31.061  27.189  1.00  0.00    -0.376 OA
BRANCH   2   3
ATOM      3  C   UNL A   1      33.502  29.977  26.385  1.00  0.00     0.202 C 
BRANCH   3   4
ATOM      4  C   UNL A   1      32.685  29.264  25.280  1.00  0.00     0.261 C 
BRANCH   4   5
ATOM      5  O   UNL A   1      31.422  28.689  25.627  1.00  0.00    -0.460 OA
BRANCH   5   6
ATOM      6  C   UNL A   1      31.467  27.504  26.310  1.00  0.00     0.343 C 
ATOM      7  O   UNL A   1      31.264  27.409  27.514  1.00  0.00    -0.246 OA
BRANCH   6   8
ATOM      8  C   UNL A   1      31.575  26.349  25.428  1.00  0.00     0.117 A 
ATOM      9  C   UNL A   1      34.077  25.711  25.826  1.00  0.00     0.069 C 
ATOM     10  C   UNL A   1      32.729  25.511  25.225  1.00  0.00     0.068 A 
ATOM     11  N   UNL A   1      32.566  24.486  24.388  1.00  0.00    -0.195 NA
ATOM     12  S   UNL A   1      31.052  24.556  23.738  1.00  0.00    -0.018 S 
ATOM     13  C   UNL A   1      30.567  26.004  24.525  1.00  0.00     0.124 A 
BRANCH  13  14
ATOM     14  N   UNL A   1      29.448  26.733  24.254  1.00  0.00    -0.375 N 
ATOM     15  H   UNL A   1      28.727  26.715  24.924  1.00  0.00     0.161 HD
BRANCH  14  16
ATOM     16  C   UNL A   1      29.222  27.531  23.066  1.00  0.00     0.117 C 
BRANCH  16  17
ATOM     17  C   UNL A   1      28.676  28.932  23.418  1.00  0.00     0.012 C 
ATOM     18  C   UNL A   1      27.350  29.292  22.704  1.00  0.00     0.009 C 
ATOM     19  C   UNL A   1      29.576  30.144  23.046  1.00  0.00    -0.006 C 
ATOM     20  C   UNL A   1      27.606  30.718  22.179  1.00  0.00    -0.011 C 
ATOM     21  C   UNL A   1      29.154  31.335  23.920  1.00  0.00     0.004 C 
ATOM     22  C   UNL A   1      29.039  30.590  21.678  1.00  0.00     0.007 C 
ATOM     23  C   UNL A   1      27.773  31.695  23.355  1.00  0.00     0.004 C 
ENDBRANCH  16  17
ENDBRANCH  14  16
ENDBRANCH  13  14
ENDBRANCH   6   8
ENDBRANCH   5   6
ENDBRANCH   4   5
ENDBRANCH   3   4
ENDBRANCH   2   3
ENDBRANCH   1   2
BRANCH   1  24
ATOM     24  C   UNL A   1      33.814  33.296  28.074  1.00  0.00     0.188 C 
BRANCH  24  25
ATOM     25  O   UNL A   1      33.308  33.933  29.234  1.00  0.00    -0.376 OA
BRANCH  25  26
ATOM     26  C   UNL A   1      34.132  34.514  30.233  1.00  0.00     0.202 C 
BRANCH  26  27
ATOM     27  C   UNL A   1      34.566  33.803  31.513  1.00  0.00     0.261 C 
BRANCH  27  28
ATOM     28  O   UNL A   1      34.521  32.397  31.427  1.00  0.00    -0.460 OA
BRANCH  28  29
ATOM     29  C   UNL A   1      35.678  31.804  31.787  1.00  0.00     0.338 C 
ATOM     30  O   UNL A   1      36.130  31.679  32.906  1.00  0.00    -0.246 OA
BRANCH  29  31
ATOM     31  C   UNL A   1      36.360  31.344  30.569  1.00  0.00     0.060 A 
ATOM     32  C   UNL A   1      36.324  29.963  30.377  1.00  0.00     0.016 A 
ATOM     33  C   UNL A   1      37.364  32.165  30.042  1.00  0.00     0.016 A 
ATOM     34  C   UNL A   1      37.504  29.359  30.042  1.00  0.00     0.010 A 
ATOM     35  C   UNL A   1      38.550  31.564  29.734  1.00  0.00     0.010 A 
ATOM     36  C   UNL A   1      38.623  30.180  29.877  1.00  0.00    -0.014 A 
BRANCH  36  37
ATOM     37  C   UNL A   1      39.916  29.554  29.940  1.00  0.00     0.031 A 
ATOM     38  C   UNL A   1      40.474  29.500  31.300  1.00  0.00     0.074 A 
ATOM     39  C   UNL A   1      40.460  29.008  28.837  1.00  0.00     0.049 A 
ATOM     40  N   UNL A   1      41.581  30.008  31.719  1.00  0.00    -0.248 NA
ATOM     41  C   UNL A   1      39.615  28.946  32.358  1.00  0.00     0.031 C 
ATOM     42  C   UNL A   1      39.850  28.812  27.517  1.00  0.00     0.029 A 
ATOM     43  N   UNL A   1      41.661  28.393  28.710  1.00  0.00    -0.354 N 
ATOM     44  C   UNL A   1      41.640  29.699  33.070  1.00  0.00     0.074 A 
ATOM     45  C   UNL A   1      40.343  29.203  33.443  1.00  0.00     0.031 C 
ATOM     46  C   UNL A   1      40.588  27.920  26.819  1.00  0.00     0.029 A 
ATOM     47  C   UNL A   1      41.761  27.568  27.603  1.00  0.00     0.049 A 
ATOM     48  H   UNL A   1      42.398  28.522  29.350  1.00  0.00     0.167 HD
ATOM     49  C   UNL A   1      42.823  29.664  33.733  1.00  0.00     0.037 A 
ATOM     50  C   UNL A   1      42.680  26.584  27.443  1.00  0.00     0.037 A 
ATOM     51  C   UNL A   1      43.844  30.390  33.025  1.00  0.00     0.049 A 
ATOM     52  C   UNL A   1      43.797  26.869  28.392  1.00  0.00     0.074 A 
ATOM     53  C   UNL A   1      43.989  31.712  32.653  1.00  0.00     0.029 A 
ATOM     54  N   UNL A   1      44.739  29.682  32.261  1.00  0.00    -0.354 N 
ATOM     55  N   UNL A   1      44.613  27.882  28.265  1.00  0.00    -0.248 NA
ATOM     56  C   UNL A   1      43.705  26.317  29.739  1.00  0.00     0.031 C 
ATOM     57  C   UNL A   1      44.612  31.673  31.373  1.00  0.00     0.029 A 
ATOM     58  C   UNL A   1      44.855  30.335  31.059  1.00  0.00     0.049 A 
ATOM     59  H   UNL A   1      45.211  28.859  32.526  1.00  0.00     0.167 HD
ATOM     60  C   UNL A   1      44.807  28.351  29.558  1.00  0.00     0.074 A 
ATOM     61  C   UNL A   1      44.291  27.299  30.429  1.00  0.00     0.031 C 
ATOM     62  C   UNL A   1      45.087  29.666  29.801  1.00  0.00     0.037 A 
BRANCH  49  63
ATOM     63  C   UNL A   1      43.123  28.695  34.841  1.00  0.00     0.064 A 
ATOM     64  C   UNL A   1      43.588  29.189  36.072  1.00  0.00     0.173 A 
ATOM     65  C   UNL A   1      43.243  27.300  34.654  1.00  0.00     0.173 A 
ATOM     66  F   UNL A   1      43.538  30.502  36.344  1.00  0.00    -0.203 F 
ATOM     67  C   UNL A   1      44.196  28.356  37.014  1.00  0.00     0.198 A 
ATOM     68  C   UNL A   1      43.794  26.465  35.620  1.00  0.00     0.198 A 
ATOM     69  F   UNL A   1      42.939  26.702  33.495  1.00  0.00    -0.203 F 
ATOM     70  F   UNL A   1      44.738  28.888  38.117  1.00  0.00    -0.200 F 
ATOM     71  C   UNL A   1      44.302  26.996  36.785  1.00  0.00     0.200 A 
ATOM     72  F   UNL A   1      43.900  25.151  35.372  1.00  0.00    -0.200 F 
ATOM     73  F   UNL A   1      44.937  26.206  37.660  1.00  0.00    -0.200 F 
ENDBRANCH  49  63
BRANCH  50  74
ATOM     74  C   UNL A   1      42.477  25.268  26.788  1.00  0.00     0.064 A 
ATOM     75  C   UNL A   1      43.195  24.912  25.635  1.00  0.00     0.173 A 
ATOM     76  C   UNL A   1      41.743  24.234  27.405  1.00  0.00     0.173 A 
ATOM     77  F   UNL A   1      43.966  25.816  25.015  1.00  0.00    -0.203 F 
ATOM     78  C   UNL A   1      43.181  23.603  25.137  1.00  0.00     0.198 A 
ATOM     79  C   UNL A   1      41.716  22.935  26.898  1.00  0.00     0.198 A 
ATOM     80  F   UNL A   1      41.105  24.431  28.566  1.00  0.00    -0.203 F 
ATOM     81  F   UNL A   1      43.924  23.288  24.066  1.00  0.00    -0.200 F 
ATOM     82  C   UNL A   1      42.445  22.615  25.770  1.00  0.00     0.200 A 
ATOM     83  F   UNL A   1      41.025  21.984  27.544  1.00  0.00    -0.200 F 
ATOM     84  F   UNL A   1      42.468  21.354  25.320  1.00  0.00    -0.200 F 
ENDBRANCH  50  74
BRANCH  62  85
ATOM     85  C   UNL A   1      45.399  30.546  28.621  1.00  0.00     0.064 A 
ATOM     86  C   UNL A   1      44.414  31.208  27.867  1.00  0.00     0.173 A 
ATOM     87  C   UNL A   1      46.736  30.871  28.357  1.00  0.00     0.173 A 
ATOM     88  F   UNL A   1      43.115  31.041  28.137  1.00  0.00    -0.203 F 
ATOM     89  C   UNL A   1      44.754  32.112  26.864  1.00  0.00     0.198 A 
ATOM     90  C   UNL A   1      47.073  31.806  27.381  1.00  0.00     0.198 A 
ATOM     91  F   UNL A   1      47.718  30.322  29.090  1.00  0.00    -0.203 F 
ATOM     92  F   UNL A   1      43.792  32.720  26.153  1.00  0.00    -0.200 F 
ATOM     93  C   UNL A   1      46.083  32.417  26.628  1.00  0.00     0.200 A 
ATOM     94  F   UNL A   1      48.357  32.139  27.193  1.00  0.00    -0.200 F 
ATOM     95  F   UNL A   1      46.410  33.324  25.696  1.00  0.00    -0.200 F 
ENDBRANCH  62  85
ENDBRANCH  36  37
ENDBRANCH  29  31
ENDBRANCH  28  29
ENDBRANCH  27  28
ENDBRANCH  26  27
ENDBRANCH  25  26
ENDBRANCH  24  25
ENDBRANCH   1  24
TORSDOF 20
ENDMDL
MODEL 2
REMARK VINA RESULT:     -10.9      2.012      6.793
REMARK SMILES Cc1nsc(NC[C@@H]2C[C@H]3CC[C@@H]2C3)c1C(=O)OCCOCCOCCOC(=O)c1ccc(-c2c3nc(c(-c4c(F)c(F)c(F)c(F)c4F)c4ccc([nH]4)c(-c4c(F)c(F)c(F)c(F)c4F)c4nc(c(-c5c(F)c(F)c(F)c(F)c5F)c5ccc2[nH]5)C=C4)C=C3)cc1
REMARK SMILES IDX 22 1 21 2 20 3 19 4 18 5 16 6 17 7 15 8 1 9 2 10 3 11 4 12
REMARK SMILES IDX 5 13 6 14 7 16 8 17 9 18 13 19 10 20 12 21 14 22 11 23 23 24
REMARK SMILES IDX 24 25 25 26 26 27 27 28 28 29 29 30 30 31 31 32 92 33 32 34
REMARK SMILES IDX 91 35 33 36 34 37 35 38 85 39 36 40 90 41 84 42 86 43 37 44
REMARK SMILES IDX 89 45 83 46 82 47 38 49 70 50 50 51 69 52 51 53 54 54 68 55
REMARK SMILES IDX 87 56 52 57 53 58 67 60 88 61 55 62 39 63 40 64 48 65 41 66
REMARK SMILES IDX 42 67 46 68 49 69 43 70 44 71 47 72 45 73 71 74 72 75 80 76
REMARK SMILES IDX 73 77 74 78 78 79 81 80 75 81 76 82 79 83 77 84 56 85 57 86
REMARK SMILES IDX 65 87 58 88 59 89 63 90 66 91 60 92 61 93 64 94 62 95
REMARK H PARENT 6 15 86 48 54 59
REMARK Flexibility Score: inf
ROOT
ATOM      1  C   UNL A   1      35.573  31.741  27.950  1.00  0.00     0.188 C 
ENDROOT
BRANCH   1   2
ATOM      2  O   UNL A   1      35.323  30.551  27.244  1.00  0.00    -0.376 OA
BRANCH   2   3
ATOM      3  C   UNL A   1      34.116  29.836  27.452  1.00  0.00     0.202 C 
BRANCH   3   4
ATOM      4  C   UNL A   1      33.713  28.498  26.783  1.00  0.00     0.261 C 
BRANCH   4   5
ATOM      5  O   UNL A   1      32.437  28.411  26.144  1.00  0.00    -0.460 OA
BRANCH   5   6
ATOM      6  C   UNL A   1      31.582  27.461  26.633  1.00  0.00     0.343 C 
ATOM      7  O   UNL A   1      30.997  27.565  27.704  1.00  0.00    -0.246 OA
BRANCH   6   8
ATOM      8  C   UNL A   1      31.281  26.419  25.659  1.00  0.00     0.117 A 
ATOM      9  C   UNL A   1      32.648  24.441  26.680  1.00  0.00     0.069 C 
ATOM     10  C   UNL A   1      31.722  25.048  25.684  1.00  0.00     0.068 A 
ATOM     11  N   UNL A   1      31.279  24.274  24.693  1.00  0.00    -0.195 NA
ATOM     12  S   UNL A   1      30.401  25.194  23.642  1.00  0.00    -0.018 S 
ATOM     13  C   UNL A   1      30.622  26.690  24.458  1.00  0.00     0.124 A 
BRANCH  13  14
ATOM     14  N   UNL A   1      30.298  27.925  23.980  1.00  0.00    -0.375 N 
ATOM     15  H   UNL A   1      30.803  28.690  24.338  1.00  0.00     0.161 HD
BRANCH  14  16
ATOM     16  C   UNL A   1      29.277  28.212  22.993  1.00  0.00     0.117 C 
BRANCH  16  17
ATOM     17  C   UNL A   1      29.273  29.705  22.599  1.00  0.00     0.012 C 
ATOM     18  C   UNL A   1      29.727  30.659  23.732  1.00  0.00     0.009 C 
ATOM     19  C   UNL A   1      27.900  30.317  22.201  1.00  0.00    -0.006 C 
ATOM     20  C   UNL A   1      28.659  31.770  23.708  1.00  0.00    -0.011 C 
ATOM     21  C   UNL A   1      28.165  31.573  21.358  1.00  0.00     0.004 C 
ATOM     22  C   UNL A   1      27.392  30.950  23.505  1.00  0.00     0.007 C 
ATOM     23  C   UNL A   1      28.738  32.556  22.388  1.00  0.00     0.004 C 
ENDBRANCH  16  17
ENDBRANCH  14  16
ENDBRANCH  13  14
ENDBRANCH   6   8
ENDBRANCH   5   6
ENDBRANCH   4   5
ENDBRANCH   3   4
ENDBRANCH   2   3
ENDBRANCH   1   2
BRANCH   1  24
ATOM     24  C   UNL A   1      34.356  32.468  28.558  1.00  0.00     0.188 C 
BRANCH  24  25
ATOM     25  O   UNL A   1      34.468  33.270  29.720  1.00  0.00    -0.376 OA
BRANCH  25  26
ATOM     26  C   UNL A   1      34.653  32.741  31.025  1.00  0.00     0.202 C 
BRANCH  26  27
ATOM     27  C   UNL A   1      35.943  32.087  31.513  1.00  0.00     0.261 C 
BRANCH  27  28
ATOM     28  O   UNL A   1      35.977  30.690  31.337  1.00  0.00    -0.460 OA
BRANCH  28  29
ATOM     29  C   UNL A   1      37.091  30.116  31.835  1.00  0.00     0.338 C 
ATOM     30  O   UNL A   1      37.718  30.445  32.821  1.00  0.00    -0.246 OA
BRANCH  29  31
ATOM     31  C   UNL A   1      37.475  29.007  30.951  1.00  0.00     0.060 A 
ATOM     32  C   UNL A   1      38.100  27.943  31.600  1.00  0.00     0.016 A 
ATOM     33  C   UNL A   1      37.673  29.301  29.596  1.00  0.00     0.016 A 
ATOM     34  C   UNL A   1      39.238  27.454  31.021  1.00  0.00     0.010 A 
ATOM     35  C   UNL A   1      38.824  28.835  29.029  1.00  0.00     0.010 A 
ATOM     36  C   UNL A   1      39.645  28.030  29.816  1.00  0.00    -0.014 A 
BRANCH  36  37
ATOM     37  C   UNL A   1      41.014  27.835  29.418  1.00  0.00     0.031 A 
ATOM     38  C   UNL A   1      41.266  26.514  28.820  1.00  0.00     0.074 A 
ATOM     39  C   UNL A   1      41.901  28.840  29.524  1.00  0.00     0.049 A 
ATOM     40  N   UNL A   1      42.088  25.609  29.226  1.00  0.00    -0.248 NA
ATOM     41  C   UNL A   1      40.378  26.090  27.727  1.00  0.00     0.031 C 
ATOM     42  C   UNL A   1      41.657  30.243  29.877  1.00  0.00     0.029 A 
ATOM     43  N   UNL A   1      43.220  28.832  29.211  1.00  0.00    -0.354 N 
ATOM     44  C   UNL A   1      41.938  24.552  28.339  1.00  0.00     0.074 A 
ATOM     45  C   UNL A   1      40.767  24.829  27.552  1.00  0.00     0.031 C 
ATOM     46  C   UNL A   1      42.732  30.981  29.520  1.00  0.00     0.029 A 
ATOM     47  C   UNL A   1      43.763  30.090  29.013  1.00  0.00     0.049 A 
ATOM     48  H   UNL A   1      43.746  28.003  29.131  1.00  0.00     0.167 HD
ATOM     49  C   UNL A   1      42.923  23.634  28.167  1.00  0.00     0.037 A 
ATOM     50  C   UNL A   1      44.919  30.345  28.353  1.00  0.00     0.037 A 
ATOM     51  C   UNL A   1      43.844  23.638  29.272  1.00  0.00     0.049 A 
ATOM     52  C   UNL A   1      45.697  29.071  28.320  1.00  0.00     0.074 A 
ATOM     53  C   UNL A   1      43.715  23.378  30.622  1.00  0.00     0.029 A 
ATOM     54  N   UNL A   1      45.033  24.310  29.129  1.00  0.00    -0.354 N 
ATOM     55  N   UNL A   1      46.228  28.521  29.379  1.00  0.00    -0.248 NA
ATOM     56  C   UNL A   1      45.469  28.163  27.201  1.00  0.00     0.031 C 
ATOM     57  C   UNL A   1      44.582  24.306  31.265  1.00  0.00     0.029 A 
ATOM     58  C   UNL A   1      45.226  25.045  30.272  1.00  0.00     0.049 A 
ATOM     59  H   UNL A   1      45.636  24.272  28.351  1.00  0.00     0.167 HD
ATOM     60  C   UNL A   1      46.015  27.157  29.219  1.00  0.00     0.074 A 
ATOM     61  C   UNL A   1      45.620  26.991  27.825  1.00  0.00     0.031 C 
ATOM     62  C   UNL A   1      45.885  26.330  30.299  1.00  0.00     0.037 A 
BRANCH  49  63
ATOM     63  C   UNL A   1      43.223  22.981  26.848  1.00  0.00     0.064 A 
ATOM     64  C   UNL A   1      42.981  21.604  26.697  1.00  0.00     0.173 A 
ATOM     65  C   UNL A   1      43.996  23.584  25.830  1.00  0.00     0.173 A 
ATOM     66  F   UNL A   1      42.273  20.931  27.617  1.00  0.00    -0.203 F 
ATOM     67  C   UNL A   1      43.535  20.874  25.645  1.00  0.00     0.198 A 
ATOM     68  C   UNL A   1      44.496  22.863  24.751  1.00  0.00     0.198 A 
ATOM     69  F   UNL A   1      44.394  24.861  25.893  1.00  0.00    -0.203 F 
ATOM     70  F   UNL A   1      43.384  19.543  25.610  1.00  0.00    -0.200 F 
ATOM     71  C   UNL A   1      44.296  21.503  24.675  1.00  0.00     0.200 A 
ATOM     72  F   UNL A   1      45.242  23.490  23.830  1.00  0.00    -0.200 F 
ATOM     73  F   UNL A   1      44.876  20.793  23.700  1.00  0.00    -0.200 F 
ENDBRANCH  49  63
BRANCH  50  74
ATOM     74  C   UNL A   1      45.210  31.506  27.474  1.00  0.00     0.064 A 
ATOM     75  C   UNL A   1      44.336  31.869  26.438  1.00  0.00     0.173 A 
ATOM     76  C   UNL A   1      46.234  32.429  27.773  1.00  0.00     0.173 A 
ATOM     77  F   UNL A   1      43.298  31.081  26.124  1.00  0.00    -0.203 F 
ATOM     78  C   UNL A   1      44.477  33.081  25.749  1.00  0.00     0.198 A 
ATOM     79  C   UNL A   1      46.384  33.626  27.075  1.00  0.00     0.198 A 
ATOM     80  F   UNL A   1      47.063  32.237  28.808  1.00  0.00    -0.203 F 
ATOM     81  F   UNL A   1      43.589  33.419  24.803  1.00  0.00    -0.200 F 
ATOM     82  C   UNL A   1      45.499  33.959  26.070  1.00  0.00     0.200 A 
ATOM     83  F   UNL A   1      47.359  34.480  27.422  1.00  0.00    -0.200 F 
ATOM     84  F   UNL A   1      45.606  35.138  25.441  1.00  0.00    -0.200 F 
ENDBRANCH  50  74
BRANCH  62  85
ATOM     85  C   UNL A   1      46.198  26.893  31.658  1.00  0.00     0.064 A 
ATOM     86  C   UNL A   1      45.249  27.548  32.462  1.00  0.00     0.173 A 
ATOM     87  C   UNL A   1      47.443  26.607  32.236  1.00  0.00     0.173 A 
ATOM     88  F   UNL A   1      44.002  27.753  32.025  1.00  0.00    -0.203 F 
ATOM     89  C   UNL A   1      45.549  27.943  33.764  1.00  0.00     0.198 A 
ATOM     90  C   UNL A   1      47.726  26.966  33.552  1.00  0.00     0.198 A 
ATOM     91  F   UNL A   1      48.365  25.925  31.541  1.00  0.00    -0.203 F 
ATOM     92  F   UNL A   1      44.626  28.575  34.504  1.00  0.00    -0.200 F 
ATOM     93  C   UNL A   1      46.784  27.642  34.311  1.00  0.00     0.200 A 
ATOM     94  F   UNL A   1      48.902  26.625  34.096  1.00  0.00    -0.200 F 
ATOM     95  F   UNL A   1      47.057  27.977  35.580  1.00  0.00    -0.200 F 
ENDBRANCH  62  85
ENDBRANCH  36  37
ENDBRANCH  29  31
ENDBRANCH  28  29
ENDBRANCH  27  28
ENDBRANCH  26  27
ENDBRANCH  25  26
ENDBRANCH  24  25
ENDBRANCH   1  24
TORSDOF 20
ENDMDL
MODEL 3
REMARK VINA RESULT:     -10.8      4.451      9.535
REMARK SMILES Cc1nsc(NC[C@@H]2C[C@H]3CC[C@@H]2C3)c1C(=O)OCCOCCOCCOC(=O)c1ccc(-c2c3nc(c(-c4c(F)c(F)c(F)c(F)c4F)c4ccc([nH]4)c(-c4c(F)c(F)c(F)c(F)c4F)c4nc(c(-c5c(F)c(F)c(F)c(F)c5F)c5ccc2[nH]5)C=C4)C=C3)cc1
REMARK SMILES IDX 22 1 21 2 20 3 19 4 18 5 16 6 17 7 15 8 1 9 2 10 3 11 4 12
REMARK SMILES IDX 5 13 6 14 7 16 8 17 9 18 13 19 10 20 12 21 14 22 11 23 23 24
REMARK SMILES IDX 24 25 25 26 26 27 27 28 28 29 29 30 30 31 31 32 92 33 32 34
REMARK SMILES IDX 91 35 33 36 34 37 35 38 85 39 36 40 90 41 84 42 86 43 37 44
REMARK SMILES IDX 89 45 83 46 82 47 38 49 70 50 50 51 69 52 51 53 54 54 68 55
REMARK SMILES IDX 87 56 52 57 53 58 67 60 88 61 55 62 39 63 40 64 48 65 41 66
REMARK SMILES IDX 42 67 46 68 49 69 43 70 44 71 47 72 45 73 71 74 72 75 80 76
REMARK SMILES IDX 73 77 74 78 78 79 81 80 75 81 76 82 79 83 77 84 56 85 57 86
REMARK SMILES IDX 65 87 58 88 59 89 63 90 66 91 60 92 61 93 64 94 62 95
REMARK H PARENT 6 15 86 48 54 59
REMARK Flexibility Score: inf
ROOT
ATOM      1  C   UNL A   1      38.089  23.223  25.731  1.00  0.00     0.188 C 
ENDROOT
BRANCH   1   2
ATOM      2  O   UNL A   1      36.894  23.676  26.319  1.00  0.00    -0.376 OA
BRANCH   2   3
ATOM      3  C   UNL A   1      35.641  23.332  25.750  1.00  0.00     0.202 C 
BRANCH   3   4
ATOM      4  C   UNL A   1      35.223  23.516  24.271  1.00  0.00     0.261 C 
BRANCH   4   5
ATOM      5  O   UNL A   1      34.428  22.499  23.654  1.00  0.00    -0.460 OA
BRANCH   5   6
ATOM      6  C   UNL A   1      33.210  22.895  23.174  1.00  0.00     0.343 C 
ATOM      7  O   UNL A   1      32.922  22.907  21.984  1.00  0.00    -0.246 OA
BRANCH   6   8
ATOM      8  C   UNL A   1      32.228  23.101  24.232  1.00  0.00     0.117 A 
ATOM      9  C   UNL A   1      31.823  25.669  23.975  1.00  0.00     0.069 C 
ATOM     10  C   UNL A   1      31.568  24.333  24.582  1.00  0.00     0.068 A 
ATOM     11  N   UNL A   1      30.676  24.257  25.570  1.00  0.00    -0.195 NA
ATOM     12  S   UNL A   1      30.676  22.725  26.179  1.00  0.00    -0.018 S 
ATOM     13  C   UNL A   1      31.917  22.109  25.164  1.00  0.00     0.124 A 
BRANCH  13  14
ATOM     14  N   UNL A   1      32.549  20.908  25.300  1.00  0.00    -0.375 N 
ATOM     15  H   UNL A   1      33.234  20.840  26.004  1.00  0.00     0.161 HD
BRANCH  14  16
ATOM     16  C   UNL A   1      32.304  19.724  24.502  1.00  0.00     0.117 C 
BRANCH  16  17
ATOM     17  C   UNL A   1      33.128  18.520  25.005  1.00  0.00     0.012 C 
ATOM     18  C   UNL A   1      34.629  18.577  24.626  1.00  0.00     0.009 C 
ATOM     19  C   UNL A   1      32.718  17.121  24.466  1.00  0.00    -0.006 C 
ATOM     20  C   UNL A   1      34.913  17.160  24.091  1.00  0.00    -0.011 C 
ATOM     21  C   UNL A   1      33.248  16.060  25.442  1.00  0.00     0.004 C 
ATOM     22  C   UNL A   1      33.657  16.902  23.270  1.00  0.00     0.007 C 
ATOM     23  C   UNL A   1      34.765  16.126  25.221  1.00  0.00     0.004 C 
ENDBRANCH  16  17
ENDBRANCH  14  16
ENDBRANCH  13  14
ENDBRANCH   6   8
ENDBRANCH   5   6
ENDBRANCH   4   5
ENDBRANCH   3   4
ENDBRANCH   2   3
ENDBRANCH   1   2
BRANCH   1  24
ATOM     24  C   UNL A   1      39.212  22.761  26.683  1.00  0.00     0.188 C 
BRANCH  24  25
ATOM     25  O   UNL A   1      39.783  21.468  26.593  1.00  0.00    -0.376 OA
BRANCH  25  26
ATOM     26  C   UNL A   1      40.985  21.093  27.250  1.00  0.00     0.202 C 
BRANCH  26  27
ATOM     27  C   UNL A   1      42.063  20.205  26.632  1.00  0.00     0.261 C 
BRANCH  27  28
ATOM     28  O   UNL A   1      42.561  20.683  25.404  1.00  0.00    -0.460 OA
BRANCH  28  29
ATOM     29  C   UNL A   1      43.883  20.468  25.245  1.00  0.00     0.338 C 
ATOM     30  O   UNL A   1      44.481  19.417  25.349  1.00  0.00    -0.246 OA
BRANCH  29  31
ATOM     31  C   UNL A   1      44.529  21.755  24.951  1.00  0.00     0.060 A 
ATOM     32  C   UNL A   1      45.673  22.010  25.707  1.00  0.00     0.016 A 
ATOM     33  C   UNL A   1      43.732  22.767  24.403  1.00  0.00     0.016 A 
ATOM     34  C   UNL A   1      45.768  23.250  26.276  1.00  0.00     0.010 A 
ATOM     35  C   UNL A   1      43.810  23.996  24.991  1.00  0.00     0.010 A 
ATOM     36  C   UNL A   1      44.742  24.160  26.013  1.00  0.00    -0.014 A 
BRANCH  36  37
ATOM     37  C   UNL A   1      44.607  25.280  26.904  1.00  0.00     0.031 A 
ATOM     38  C   UNL A   1      45.676  26.279  26.753  1.00  0.00     0.074 A 
ATOM     39  C   UNL A   1      43.530  25.386  27.703  1.00  0.00     0.049 A 
ATOM     40  N   UNL A   1      46.508  26.684  27.650  1.00  0.00    -0.248 NA
ATOM     41  C   UNL A   1      45.952  26.770  25.395  1.00  0.00     0.031 C 
ATOM     42  C   UNL A   1      42.318  24.558  27.720  1.00  0.00     0.029 A 
ATOM     43  N   UNL A   1      43.244  26.358  28.604  1.00  0.00    -0.354 N 
ATOM     44  C   UNL A   1      47.319  27.609  27.007  1.00  0.00     0.074 A 
ATOM     45  C   UNL A   1      47.048  27.496  25.600  1.00  0.00     0.031 C 
ATOM     46  C   UNL A   1      41.350  25.208  28.405  1.00  0.00     0.029 A 
ATOM     47  C   UNL A   1      41.906  26.436  28.949  1.00  0.00     0.049 A 
ATOM     48  H   UNL A   1      43.930  26.956  28.979  1.00  0.00     0.167 HD
ATOM     49  C   UNL A   1      47.993  28.559  27.705  1.00  0.00     0.037 A 
ATOM     50  C   UNL A   1      41.309  27.511  29.521  1.00  0.00     0.037 A 
ATOM     51  C   UNL A   1      48.116  28.202  29.093  1.00  0.00     0.049 A 
ATOM     52  C   UNL A   1      42.391  28.344  30.125  1.00  0.00     0.074 A 
ATOM     53  C   UNL A   1      48.723  27.154  29.759  1.00  0.00     0.029 A 
ATOM     54  N   UNL A   1      47.246  28.767  29.993  1.00  0.00    -0.354 N 
ATOM     55  N   UNL A   1      43.095  27.973  31.162  1.00  0.00    -0.248 NA
ATOM     56  C   UNL A   1      43.015  29.362  29.287  1.00  0.00     0.031 C 
ATOM     57  C   UNL A   1      47.857  26.853  30.848  1.00  0.00     0.029 A 
ATOM     58  C   UNL A   1      46.799  27.761  30.814  1.00  0.00     0.049 A 
ATOM     59  H   UNL A   1      46.990  29.717  30.041  1.00  0.00     0.167 HD
ATOM     60  C   UNL A   1      44.391  28.388  30.881  1.00  0.00     0.074 A 
ATOM     61  C   UNL A   1      44.265  29.308  29.755  1.00  0.00     0.031 C 
ATOM     62  C   UNL A   1      45.472  27.720  31.384  1.00  0.00     0.037 A 
BRANCH  49  63
ATOM     63  C   UNL A   1      48.238  29.947  27.188  1.00  0.00     0.064 A 
ATOM     64  C   UNL A   1      49.552  30.446  27.168  1.00  0.00     0.173 A 
ATOM     65  C   UNL A   1      47.215  30.901  26.982  1.00  0.00     0.173 A 
ATOM     66  F   UNL A   1      50.596  29.628  27.371  1.00  0.00    -0.203 F 
ATOM     67  C   UNL A   1      49.816  31.809  27.025  1.00  0.00     0.198 A 
ATOM     68  C   UNL A   1      47.486  32.250  26.780  1.00  0.00     0.198 A 
ATOM     69  F   UNL A   1      45.916  30.592  27.078  1.00  0.00    -0.203 F 
ATOM     70  F   UNL A   1      51.074  32.256  27.138  1.00  0.00    -0.200 F 
ATOM     71  C   UNL A   1      48.784  32.710  26.836  1.00  0.00     0.200 A 
ATOM     72  F   UNL A   1      46.470  33.108  26.613  1.00  0.00    -0.200 F 
ATOM     73  F   UNL A   1      49.032  34.024  26.759  1.00  0.00    -0.200 F 
ENDBRANCH  49  63
BRANCH  50  74
ATOM     74  C   UNL A   1      39.934  28.010  29.267  1.00  0.00     0.064 A 
ATOM     75  C   UNL A   1      38.988  28.087  30.301  1.00  0.00     0.173 A 
ATOM     76  C   UNL A   1      39.582  28.641  28.056  1.00  0.00     0.173 A 
ATOM     77  F   UNL A   1      39.261  27.566  31.505  1.00  0.00    -0.203 F 
ATOM     78  C   UNL A   1      37.769  28.758  30.132  1.00  0.00     0.198 A 
ATOM     79  C   UNL A   1      38.362  29.293  27.883  1.00  0.00     0.198 A 
ATOM     80  F   UNL A   1      40.447  28.721  27.036  1.00  0.00    -0.203 F 
ATOM     81  F   UNL A   1      36.914  28.858  31.160  1.00  0.00    -0.200 F 
ATOM     82  C   UNL A   1      37.459  29.362  28.925  1.00  0.00     0.200 A 
ATOM     83  F   UNL A   1      38.093  29.902  26.718  1.00  0.00    -0.200 F 
ATOM     84  F   UNL A   1      36.313  30.041  28.778  1.00  0.00    -0.200 F 
ENDBRANCH  50  74
BRANCH  62  85
ATOM     85  C   UNL A   1      45.223  26.664  32.426  1.00  0.00     0.064 A 
ATOM     86  C   UNL A   1      44.921  25.327  32.115  1.00  0.00     0.173 A 
ATOM     87  C   UNL A   1      45.472  26.972  33.770  1.00  0.00     0.173 A 
ATOM     88  F   UNL A   1      44.785  24.930  30.846  1.00  0.00    -0.203 F 
ATOM     89  C   UNL A   1      44.822  24.356  33.109  1.00  0.00     0.198 A 
ATOM     90  C   UNL A   1      45.413  25.990  34.757  1.00  0.00     0.198 A 
ATOM     91  F   UNL A   1      45.831  28.217  34.119  1.00  0.00    -0.203 F 
ATOM     92  F   UNL A   1      44.522  23.089  32.783  1.00  0.00    -0.200 F 
ATOM     93  C   UNL A   1      45.078  24.686  34.428  1.00  0.00     0.200 A 
ATOM     94  F   UNL A   1      45.715  26.303  36.025  1.00  0.00    -0.200 F 
ATOM     95  F   UNL A   1      45.032  23.743  35.380  1.00  0.00    -0.200 F 
ENDBRANCH  62  85
ENDBRANCH  36  37
ENDBRANCH  29  31
ENDBRANCH  28  29
ENDBRANCH  27  28
ENDBRANCH  26  27
ENDBRANCH  25  26
ENDBRANCH  24  25
ENDBRANCH   1  24
TORSDOF 20
ENDMDL
