MODEL 1
REMARK VINA RESULT:      -7.6      0.000      0.000
REMARK SMILES CCC[N@@H+](CC1CC[NH2+]CC1)[C@@H](CC)C(=O)OCCOCCOCCOC(=O)c1ccc(-c2c3nc(c(-c4c(F)c(F)c(F)c(F)c4F)c4ccc([nH]4)c(-c4c(F)c(F)c(F)c(F)c4F)c4nc(c(-c5c(F)c(F)c(F)c(F)c5F)c5ccc2[nH]5)C=C4)C=C3)cc1
REMARK SMILES IDX 21 1 20 2 19 3 18 4 17 5 15 6 16 7 12 8 4 9 3 11 2 12 1 13
REMARK SMILES IDX 5 14 6 15 7 16 11 17 8 18 10 19 9 20 13 23 14 24 22 25 23 26
REMARK SMILES IDX 24 27 25 28 26 29 27 30 28 31 29 32 30 33 91 34 31 35 90 36
REMARK SMILES IDX 32 37 33 38 34 39 84 40 35 41 89 42 83 43 85 44 36 45 88 46
REMARK SMILES IDX 82 47 81 48 37 50 69 51 49 52 68 53 50 54 53 55 67 56 86 57
REMARK SMILES IDX 51 58 52 59 66 61 87 62 54 63 38 64 39 65 47 66 40 67 41 68
REMARK SMILES IDX 45 69 48 70 42 71 43 72 46 73 44 74 70 75 71 76 79 77 72 78
REMARK SMILES IDX 73 79 77 80 80 81 74 82 75 83 78 84 76 85 55 86 56 87 64 88
REMARK SMILES IDX 57 89 58 90 62 91 65 92 59 93 60 94 63 95 61 96
REMARK H PARENT 4 10 9 21 9 22 85 49 53 60
REMARK Flexibility Score: inf
ROOT
ATOM      1  C   UNL A   1      38.268  31.143  35.676  1.00  0.00     0.188 C 
ENDROOT
BRANCH   1   2
ATOM      2  O   UNL A   1      38.974  30.098  35.041  1.00  0.00    -0.376 OA
BRANCH   2   3
ATOM      3  C   UNL A   1      39.285  30.200  33.658  1.00  0.00     0.202 C 
BRANCH   3   4
ATOM      4  C   UNL A   1      38.436  29.473  32.621  1.00  0.00     0.261 C 
BRANCH   4   5
ATOM      5  O   UNL A   1      39.140  29.210  31.392  1.00  0.00    -0.459 OA
BRANCH   5   6
ATOM      6  C   UNL A   1      39.221  30.268  30.553  1.00  0.00     0.364 C 
ATOM      7  O   UNL A   1      40.296  30.767  30.212  1.00  0.00    -0.245 OA
BRANCH   6   8
ATOM      8  C   UNL A   1      37.900  30.853  30.026  1.00  0.00     0.294 C 
BRANCH   8   9
ATOM      9  N   UNL A   1      37.537  32.264  30.364  1.00  0.00    -0.323 N 
ATOM     10  H   UNL A   1      38.383  32.476  30.892  1.00  0.00     0.348 HD
BRANCH   9  11
ATOM     11  C   UNL A   1      37.581  33.378  29.397  1.00  0.00     0.262 C 
BRANCH  11  12
ATOM     12  C   UNL A   1      38.762  34.351  29.308  1.00  0.00     0.058 C 
ATOM     13  C   UNL A   1      39.651  34.478  30.525  1.00  0.00     0.010 C 
ENDBRANCH  11  12
ENDBRANCH   9  11
BRANCH   9  14
ATOM     14  C   UNL A   1      36.255  32.329  31.140  1.00  0.00     0.266 C 
BRANCH  14  15
ATOM     15  C   UNL A   1      35.900  33.732  31.700  1.00  0.00     0.055 C 
ATOM     16  C   UNL A   1      36.740  34.146  32.920  1.00  0.00     0.071 C 
ATOM     17  C   UNL A   1      34.391  33.899  31.948  1.00  0.00     0.071 C 
ATOM     18  C   UNL A   1      36.144  33.722  34.257  1.00  0.00     0.261 C 
ATOM     19  C   UNL A   1      33.946  33.451  33.333  1.00  0.00     0.261 C 
ATOM     20  N   UNL A   1      34.742  34.116  34.359  1.00  0.00    -0.346 N 
ATOM     21  H   UNL A   1      34.667  35.125  34.239  1.00  0.00     0.346 HD
ATOM     22  H   UNL A   1      34.390  33.843  35.277  1.00  0.00     0.346 HD
ENDBRANCH  14  15
ENDBRANCH   9  14
ENDBRANCH   8   9
BRANCH   8  23
ATOM     23  C   UNL A   1      37.579  30.209  28.658  1.00  0.00     0.074 C 
ATOM     24  C   UNL A   1      36.195  29.634  28.450  1.00  0.00     0.011 C 
ENDBRANCH   8  23
ENDBRANCH   6   8
ENDBRANCH   5   6
ENDBRANCH   4   5
ENDBRANCH   3   4
ENDBRANCH   2   3
ENDBRANCH   1   2
BRANCH   1  25
ATOM     25  C   UNL A   1      38.916  31.927  36.835  1.00  0.00     0.188 C 
BRANCH  25  26
ATOM     26  O   UNL A   1      38.317  32.104  38.102  1.00  0.00    -0.376 OA
BRANCH  26  27
ATOM     27  C   UNL A   1      38.949  32.849  39.117  1.00  0.00     0.202 C 
BRANCH  27  28
ATOM     28  C   UNL A   1      38.666  34.343  39.254  1.00  0.00     0.261 C 
BRANCH  28  29
ATOM     29  O   UNL A   1      39.835  35.166  39.230  1.00  0.00    -0.460 OA
BRANCH  29  30
ATOM     30  C   UNL A   1      39.859  36.114  38.266  1.00  0.00     0.338 C 
ATOM     31  O   UNL A   1      39.513  37.285  38.351  1.00  0.00    -0.246 OA
BRANCH  30  32
ATOM     32  C   UNL A   1      40.559  35.560  37.097  1.00  0.00     0.060 A 
ATOM     33  C   UNL A   1      39.824  35.262  35.937  1.00  0.00     0.016 A 
ATOM     34  C   UNL A   1      41.936  35.350  37.143  1.00  0.00     0.016 A 
ATOM     35  C   UNL A   1      40.467  34.746  34.815  1.00  0.00     0.010 A 
ATOM     36  C   UNL A   1      42.571  34.788  36.039  1.00  0.00     0.010 A 
ATOM     37  C   UNL A   1      41.834  34.458  34.886  1.00  0.00    -0.014 A 
BRANCH  37  38
ATOM     38  C   UNL A   1      42.452  33.554  33.894  1.00  0.00     0.031 A 
ATOM     39  C   UNL A   1      42.785  34.143  32.553  1.00  0.00     0.074 A 
ATOM     40  C   UNL A   1      42.666  32.255  34.153  1.00  0.00     0.049 A 
ATOM     41  N   UNL A   1      43.129  33.548  31.443  1.00  0.00    -0.248 NA
ATOM     42  C   UNL A   1      42.700  35.611  32.451  1.00  0.00     0.031 C 
ATOM     43  C   UNL A   1      42.448  31.597  35.438  1.00  0.00     0.029 A 
ATOM     44  N   UNL A   1      43.091  31.249  33.323  1.00  0.00    -0.354 N 
ATOM     45  C   UNL A   1      43.283  34.564  30.510  1.00  0.00     0.074 A 
ATOM     46  C   UNL A   1      42.971  35.811  31.172  1.00  0.00     0.031 C 
ATOM     47  C   UNL A   1      42.712  30.284  35.302  1.00  0.00     0.029 A 
ATOM     48  C   UNL A   1      43.066  30.009  33.910  1.00  0.00     0.049 A 
ATOM     49  H   UNL A   1      43.384  31.403  32.395  1.00  0.00     0.167 HD
ATOM     50  C   UNL A   1      43.653  34.462  29.213  1.00  0.00     0.037 A 
ATOM     51  C   UNL A   1      43.265  28.794  33.363  1.00  0.00     0.037 A 
ATOM     52  C   UNL A   1      43.945  33.215  28.564  1.00  0.00     0.049 A 
ATOM     53  C   UNL A   1      43.573  28.698  31.886  1.00  0.00     0.074 A 
ATOM     54  C   UNL A   1      44.310  32.991  27.250  1.00  0.00     0.029 A 
ATOM     55  N   UNL A   1      43.898  31.977  29.188  1.00  0.00    -0.354 N 
ATOM     56  N   UNL A   1      43.711  29.656  31.000  1.00  0.00    -0.248 NA
ATOM     57  C   UNL A   1      43.750  27.347  31.333  1.00  0.00     0.031 C 
ATOM     58  C   UNL A   1      44.436  31.611  27.066  1.00  0.00     0.029 A 
ATOM     59  C   UNL A   1      44.218  30.982  28.282  1.00  0.00     0.049 A 
ATOM     60  H   UNL A   1      43.672  31.829  30.135  1.00  0.00     0.167 HD
ATOM     61  C   UNL A   1      44.042  29.029  29.804  1.00  0.00     0.074 A 
ATOM     62  C   UNL A   1      44.082  27.608  30.076  1.00  0.00     0.031 C 
ATOM     63  C   UNL A   1      44.294  29.577  28.590  1.00  0.00     0.037 A 
BRANCH  50  64
ATOM     64  C   UNL A   1      43.730  35.729  28.413  1.00  0.00     0.064 A 
ATOM     65  C   UNL A   1      42.595  36.287  27.806  1.00  0.00     0.173 A 
ATOM     66  C   UNL A   1      44.951  36.407  28.272  1.00  0.00     0.173 A 
ATOM     67  F   UNL A   1      41.409  35.666  27.892  1.00  0.00    -0.203 F 
ATOM     68  C   UNL A   1      42.683  37.465  27.070  1.00  0.00     0.198 A 
ATOM     69  C   UNL A   1      45.028  37.603  27.564  1.00  0.00     0.198 A 
ATOM     70  F   UNL A   1      46.067  35.913  28.828  1.00  0.00    -0.203 F 
ATOM     71  F   UNL A   1      41.595  37.953  26.459  1.00  0.00    -0.200 F 
ATOM     72  C   UNL A   1      43.896  38.127  26.958  1.00  0.00     0.200 A 
ATOM     73  F   UNL A   1      46.199  38.246  27.467  1.00  0.00    -0.200 F 
ATOM     74  F   UNL A   1      43.976  39.268  26.261  1.00  0.00    -0.200 F 
ENDBRANCH  50  64
BRANCH  51  75
ATOM     75  C   UNL A   1      43.158  27.563  34.192  1.00  0.00     0.064 A 
ATOM     76  C   UNL A   1      41.916  26.951  34.413  1.00  0.00     0.173 A 
ATOM     77  C   UNL A   1      44.279  27.005  34.826  1.00  0.00     0.173 A 
ATOM     78  F   UNL A   1      40.810  27.461  33.851  1.00  0.00    -0.203 F 
ATOM     79  C   UNL A   1      41.793  25.852  35.262  1.00  0.00     0.198 A 
ATOM     80  C   UNL A   1      44.160  25.885  35.647  1.00  0.00     0.198 A 
ATOM     81  F   UNL A   1      45.491  27.551  34.654  1.00  0.00    -0.203 F 
ATOM     82  F   UNL A   1      40.583  25.332  35.507  1.00  0.00    -0.200 F 
ATOM     83  C   UNL A   1      42.915  25.318  35.875  1.00  0.00     0.200 A 
ATOM     84  F   UNL A   1      45.248  25.365  36.231  1.00  0.00    -0.200 F 
ATOM     85  F   UNL A   1      42.795  24.267  36.698  1.00  0.00    -0.200 F 
ENDBRANCH  51  75
BRANCH  63  86
ATOM     86  C   UNL A   1      44.726  28.657  27.483  1.00  0.00     0.064 A 
ATOM     87  C   UNL A   1      46.062  28.274  27.310  1.00  0.00     0.173 A 
ATOM     88  C   UNL A   1      43.764  28.095  26.628  1.00  0.00     0.173 A 
ATOM     89  F   UNL A   1      47.020  28.790  28.094  1.00  0.00    -0.203 F 
ATOM     90  C   UNL A   1      46.424  27.380  26.305  1.00  0.00     0.198 A 
ATOM     91  C   UNL A   1      44.125  27.175  25.649  1.00  0.00     0.198 A 
ATOM     92  F   UNL A   1      42.469  28.419  26.760  1.00  0.00    -0.203 F 
ATOM     93  F   UNL A   1      47.714  27.061  26.128  1.00  0.00    -0.200 F 
ATOM     94  C   UNL A   1      45.455  26.823  25.484  1.00  0.00     0.200 A 
ATOM     95  F   UNL A   1      43.183  26.623  24.870  1.00  0.00    -0.200 F 
ATOM     96  F   UNL A   1      45.804  25.950  24.530  1.00  0.00    -0.200 F 
ENDBRANCH  63  86
ENDBRANCH  37  38
ENDBRANCH  30  32
ENDBRANCH  29  30
ENDBRANCH  28  29
ENDBRANCH  27  28
ENDBRANCH  26  27
ENDBRANCH  25  26
ENDBRANCH   1  25
TORSDOF 23
ENDMDL
MODEL 2
REMARK VINA RESULT:      -7.3      5.456     12.019
REMARK SMILES CCC[N@@H+](CC1CC[NH2+]CC1)[C@@H](CC)C(=O)OCCOCCOCCOC(=O)c1ccc(-c2c3nc(c(-c4c(F)c(F)c(F)c(F)c4F)c4ccc([nH]4)c(-c4c(F)c(F)c(F)c(F)c4F)c4nc(c(-c5c(F)c(F)c(F)c(F)c5F)c5ccc2[nH]5)C=C4)C=C3)cc1
REMARK SMILES IDX 21 1 20 2 19 3 18 4 17 5 15 6 16 7 12 8 4 9 3 11 2 12 1 13
REMARK SMILES IDX 5 14 6 15 7 16 11 17 8 18 10 19 9 20 13 23 14 24 22 25 23 26
REMARK SMILES IDX 24 27 25 28 26 29 27 30 28 31 29 32 30 33 91 34 31 35 90 36
REMARK SMILES IDX 32 37 33 38 34 39 84 40 35 41 89 42 83 43 85 44 36 45 88 46
REMARK SMILES IDX 82 47 81 48 37 50 69 51 49 52 68 53 50 54 53 55 67 56 86 57
REMARK SMILES IDX 51 58 52 59 66 61 87 62 54 63 38 64 39 65 47 66 40 67 41 68
REMARK SMILES IDX 45 69 48 70 42 71 43 72 46 73 44 74 70 75 71 76 79 77 72 78
REMARK SMILES IDX 73 79 77 80 80 81 74 82 75 83 78 84 76 85 55 86 56 87 64 88
REMARK SMILES IDX 57 89 58 90 62 91 65 92 59 93 60 94 63 95 61 96
REMARK H PARENT 4 10 9 21 9 22 85 49 53 60
REMARK Flexibility Score: inf
ROOT
ATOM      1  C   UNL A   1      39.639  24.565  26.733  1.00  0.00     0.188 C 
ENDROOT
BRANCH   1   2
ATOM      2  O   UNL A   1      38.303  24.126  26.873  1.00  0.00    -0.376 OA
BRANCH   2   3
ATOM      3  C   UNL A   1      37.763  23.212  25.928  1.00  0.00     0.202 C 
BRANCH   3   4
ATOM      4  C   UNL A   1      36.616  23.636  25.015  1.00  0.00     0.261 C 
BRANCH   4   5
ATOM      5  O   UNL A   1      35.505  22.720  25.035  1.00  0.00    -0.459 OA
BRANCH   5   6
ATOM      6  C   UNL A   1      34.459  23.120  25.795  1.00  0.00     0.364 C 
ATOM      7  O   UNL A   1      34.546  23.285  27.014  1.00  0.00    -0.245 OA
BRANCH   6   8
ATOM      8  C   UNL A   1      33.121  23.363  25.080  1.00  0.00     0.294 C 
BRANCH   8   9
ATOM      9  N   UNL A   1      33.056  23.256  23.589  1.00  0.00    -0.323 N 
ATOM     10  H   UNL A   1      33.809  22.574  23.491  1.00  0.00     0.348 HD
BRANCH   9  11
ATOM     11  C   UNL A   1      31.993  22.535  22.862  1.00  0.00     0.262 C 
BRANCH  11  12
ATOM     12  C   UNL A   1      32.096  21.047  22.507  1.00  0.00     0.058 C 
ATOM     13  C   UNL A   1      32.535  20.100  23.603  1.00  0.00     0.010 C 
ENDBRANCH  11  12
ENDBRANCH   9  11
BRANCH   9  14
ATOM     14  C   UNL A   1      33.294  24.584  22.934  1.00  0.00     0.266 C 
BRANCH  14  15
ATOM     15  C   UNL A   1      32.729  25.805  23.708  1.00  0.00     0.055 C 
ATOM     16  C   UNL A   1      31.272  26.146  23.355  1.00  0.00     0.071 C 
ATOM     17  C   UNL A   1      33.652  27.032  23.619  1.00  0.00     0.071 C 
ATOM     18  C   UNL A   1      31.125  27.117  22.189  1.00  0.00     0.261 C 
ATOM     19  C   UNL A   1      33.376  27.919  22.412  1.00  0.00     0.261 C 
ATOM     20  N   UNL A   1      31.967  28.295  22.374  1.00  0.00    -0.346 N 
ATOM     21  H   UNL A   1      31.718  28.751  23.252  1.00  0.00     0.346 HD
ATOM     22  H   UNL A   1      31.818  28.932  21.592  1.00  0.00     0.346 HD
ENDBRANCH  14  15
ENDBRANCH   9  14
ENDBRANCH   8   9
BRANCH   8  23
ATOM     23  C   UNL A   1      31.970  22.903  26.003  1.00  0.00     0.074 C 
ATOM     24  C   UNL A   1      31.000  23.950  26.507  1.00  0.00     0.011 C 
ENDBRANCH   8  23
ENDBRANCH   6   8
ENDBRANCH   5   6
ENDBRANCH   4   5
ENDBRANCH   3   4
ENDBRANCH   2   3
ENDBRANCH   1   2
BRANCH   1  25
ATOM     25  C   UNL A   1      40.706  23.629  26.129  1.00  0.00     0.188 C 
BRANCH  25  26
ATOM     26  O   UNL A   1      40.983  22.332  26.614  1.00  0.00    -0.376 OA
BRANCH  26  27
ATOM     27  C   UNL A   1      41.956  21.513  26.006  1.00  0.00     0.202 C 
BRANCH  27  28
ATOM     28  C   UNL A   1      43.260  22.125  25.501  1.00  0.00     0.261 C 
BRANCH  28  29
ATOM     29  O   UNL A   1      44.285  22.221  26.493  1.00  0.00    -0.460 OA
BRANCH  29  30
ATOM     30  C   UNL A   1      44.972  23.387  26.507  1.00  0.00     0.338 C 
ATOM     31  O   UNL A   1      46.004  23.661  25.910  1.00  0.00    -0.246 OA
BRANCH  30  32
ATOM     32  C   UNL A   1      44.168  24.382  27.235  1.00  0.00     0.060 A 
ATOM     33  C   UNL A   1      44.162  25.714  26.788  1.00  0.00     0.016 A 
ATOM     34  C   UNL A   1      43.416  23.996  28.343  1.00  0.00     0.016 A 
ATOM     35  C   UNL A   1      43.401  26.670  27.455  1.00  0.00     0.010 A 
ATOM     36  C   UNL A   1      42.695  24.962  29.039  1.00  0.00     0.010 A 
ATOM     37  C   UNL A   1      42.710  26.304  28.615  1.00  0.00    -0.014 A 
BRANCH  37  38
ATOM     38  C   UNL A   1      42.242  27.343  29.556  1.00  0.00     0.031 A 
ATOM     39  C   UNL A   1      42.970  27.452  30.864  1.00  0.00     0.074 A 
ATOM     40  C   UNL A   1      41.187  28.125  29.282  1.00  0.00     0.049 A 
ATOM     41  N   UNL A   1      42.651  28.114  31.944  1.00  0.00    -0.248 NA
ATOM     42  C   UNL A   1      44.229  26.693  30.971  1.00  0.00     0.031 C 
ATOM     43  C   UNL A   1      40.454  28.153  28.020  1.00  0.00     0.029 A 
ATOM     44  N   UNL A   1      40.532  29.031  30.076  1.00  0.00    -0.354 N 
ATOM     45  C   UNL A   1      43.656  27.836  32.860  1.00  0.00     0.074 A 
ATOM     46  C   UNL A   1      44.583  26.928  32.224  1.00  0.00     0.031 C 
ATOM     47  C   UNL A   1      39.425  29.014  28.135  1.00  0.00     0.029 A 
ATOM     48  C   UNL A   1      39.403  29.552  29.494  1.00  0.00     0.049 A 
ATOM     49  H   UNL A   1      40.841  29.283  30.977  1.00  0.00     0.167 HD
ATOM     50  C   UNL A   1      43.791  28.301  34.123  1.00  0.00     0.037 A 
ATOM     51  C   UNL A   1      38.447  30.339  30.025  1.00  0.00     0.037 A 
ATOM     52  C   UNL A   1      42.853  29.191  34.748  1.00  0.00     0.049 A 
ATOM     53  C   UNL A   1      38.564  30.759  31.473  1.00  0.00     0.074 A 
ATOM     54  C   UNL A   1      42.878  29.710  36.029  1.00  0.00     0.029 A 
ATOM     55  N   UNL A   1      41.715  29.690  34.131  1.00  0.00    -0.354 N 
ATOM     56  N   UNL A   1      39.509  30.492  32.344  1.00  0.00    -0.248 NA
ATOM     57  C   UNL A   1      37.478  31.590  32.011  1.00  0.00     0.031 C 
ATOM     58  C   UNL A   1      41.728  30.485  36.204  1.00  0.00     0.029 A 
ATOM     59  C   UNL A   1      41.023  30.504  35.010  1.00  0.00     0.049 A 
ATOM     60  H   UNL A   1      41.441  29.494  33.206  1.00  0.00     0.167 HD
ATOM     61  C   UNL A   1      39.158  31.162  33.509  1.00  0.00     0.074 A 
ATOM     62  C   UNL A   1      37.913  31.848  33.237  1.00  0.00     0.031 C 
ATOM     63  C   UNL A   1      39.807  31.210  34.699  1.00  0.00     0.037 A 
BRANCH  50  64
ATOM     64  C   UNL A   1      44.975  27.828  34.913  1.00  0.00     0.064 A 
ATOM     65  C   UNL A   1      44.929  26.652  35.676  1.00  0.00     0.173 A 
ATOM     66  C   UNL A   1      46.179  28.547  34.886  1.00  0.00     0.173 A 
ATOM     67  F   UNL A   1      43.794  25.940  35.753  1.00  0.00    -0.203 F 
ATOM     68  C   UNL A   1      46.038  26.225  36.400  1.00  0.00     0.198 A 
ATOM     69  C   UNL A   1      47.297  28.099  35.584  1.00  0.00     0.198 A 
ATOM     70  F   UNL A   1      46.275  29.682  34.176  1.00  0.00    -0.203 F 
ATOM     71  F   UNL A   1      45.957  25.125  37.161  1.00  0.00    -0.200 F 
ATOM     72  C   UNL A   1      47.224  26.942  36.346  1.00  0.00     0.200 A 
ATOM     73  F   UNL A   1      48.444  28.788  35.521  1.00  0.00    -0.200 F 
ATOM     74  F   UNL A   1      48.295  26.522  37.032  1.00  0.00    -0.200 F 
ENDBRANCH  50  64
BRANCH  51  75
ATOM     75  C   UNL A   1      37.279  30.767  29.209  1.00  0.00     0.064 A 
ATOM     76  C   UNL A   1      37.170  32.087  28.748  1.00  0.00     0.173 A 
ATOM     77  C   UNL A   1      36.222  29.890  28.921  1.00  0.00     0.173 A 
ATOM     78  F   UNL A   1      38.141  32.972  29.019  1.00  0.00    -0.203 F 
ATOM     79  C   UNL A   1      36.036  32.521  28.062  1.00  0.00     0.198 A 
ATOM     80  C   UNL A   1      35.105  30.316  28.206  1.00  0.00     0.198 A 
ATOM     81  F   UNL A   1      36.270  28.618  29.342  1.00  0.00    -0.203 F 
ATOM     82  F   UNL A   1      35.931  33.805  27.694  1.00  0.00    -0.200 F 
ATOM     83  C   UNL A   1      35.006  31.635  27.788  1.00  0.00     0.200 A 
ATOM     84  F   UNL A   1      34.115  29.454  27.934  1.00  0.00    -0.200 F 
ATOM     85  F   UNL A   1      33.914  32.055  27.136  1.00  0.00    -0.200 F 
ENDBRANCH  51  75
BRANCH  63  86
ATOM     86  C   UNL A   1      39.242  32.102  35.768  1.00  0.00     0.064 A 
ATOM     87  C   UNL A   1      38.306  31.643  36.704  1.00  0.00     0.173 A 
ATOM     88  C   UNL A   1      39.707  33.421  35.895  1.00  0.00     0.173 A 
ATOM     89  F   UNL A   1      37.822  30.395  36.620  1.00  0.00    -0.203 F 
ATOM     90  C   UNL A   1      37.837  32.481  37.715  1.00  0.00     0.198 A 
ATOM     91  C   UNL A   1      39.265  34.242  36.927  1.00  0.00     0.198 A 
ATOM     92  F   UNL A   1      40.614  33.905  35.032  1.00  0.00    -0.203 F 
ATOM     93  F   UNL A   1      36.908  32.036  38.573  1.00  0.00    -0.200 F 
ATOM     94  C   UNL A   1      38.325  33.773  37.832  1.00  0.00     0.200 A 
ATOM     95  F   UNL A   1      39.754  35.484  37.050  1.00  0.00    -0.200 F 
ATOM     96  F   UNL A   1      37.887  34.570  38.816  1.00  0.00    -0.200 F 
ENDBRANCH  63  86
ENDBRANCH  37  38
ENDBRANCH  30  32
ENDBRANCH  29  30
ENDBRANCH  28  29
ENDBRANCH  27  28
ENDBRANCH  26  27
ENDBRANCH  25  26
ENDBRANCH   1  25
TORSDOF 23
ENDMDL
MODEL 3
REMARK VINA RESULT:      -7.1      1.125      2.136
REMARK SMILES CCC[N@@H+](CC1CC[NH2+]CC1)[C@@H](CC)C(=O)OCCOCCOCCOC(=O)c1ccc(-c2c3nc(c(-c4c(F)c(F)c(F)c(F)c4F)c4ccc([nH]4)c(-c4c(F)c(F)c(F)c(F)c4F)c4nc(c(-c5c(F)c(F)c(F)c(F)c5F)c5ccc2[nH]5)C=C4)C=C3)cc1
REMARK SMILES IDX 21 1 20 2 19 3 18 4 17 5 15 6 16 7 12 8 4 9 3 11 2 12 1 13
REMARK SMILES IDX 5 14 6 15 7 16 11 17 8 18 10 19 9 20 13 23 14 24 22 25 23 26
REMARK SMILES IDX 24 27 25 28 26 29 27 30 28 31 29 32 30 33 91 34 31 35 90 36
REMARK SMILES IDX 32 37 33 38 34 39 84 40 35 41 89 42 83 43 85 44 36 45 88 46
REMARK SMILES IDX 82 47 81 48 37 50 69 51 49 52 68 53 50 54 53 55 67 56 86 57
REMARK SMILES IDX 51 58 52 59 66 61 87 62 54 63 38 64 39 65 47 66 40 67 41 68
REMARK SMILES IDX 45 69 48 70 42 71 43 72 46 73 44 74 70 75 71 76 79 77 72 78
REMARK SMILES IDX 73 79 77 80 80 81 74 82 75 83 78 84 76 85 55 86 56 87 64 88
REMARK SMILES IDX 57 89 58 90 62 91 65 92 59 93 60 94 63 95 61 96
REMARK H PARENT 4 10 9 21 9 22 85 49 53 60
REMARK Flexibility Score: inf
ROOT
ATOM      1  C   UNL A   1      38.224  31.656  36.057  1.00  0.00     0.188 C 
ENDROOT
BRANCH   1   2
ATOM      2  O   UNL A   1      38.664  30.411  35.556  1.00  0.00    -0.376 OA
BRANCH   2   3
ATOM      3  C   UNL A   1      39.232  30.339  34.255  1.00  0.00     0.202 C 
BRANCH   3   4
ATOM      4  C   UNL A   1      38.457  29.694  33.111  1.00  0.00     0.261 C 
BRANCH   4   5
ATOM      5  O   UNL A   1      38.126  30.617  32.056  1.00  0.00    -0.459 OA
BRANCH   5   6
ATOM      6  C   UNL A   1      36.879  31.136  32.133  1.00  0.00     0.364 C 
ATOM      7  O   UNL A   1      35.863  30.445  32.030  1.00  0.00    -0.245 OA
BRANCH   6   8
ATOM      8  C   UNL A   1      36.759  32.653  32.352  1.00  0.00     0.294 C 
BRANCH   8   9
ATOM      9  N   UNL A   1      36.838  33.572  31.174  1.00  0.00    -0.323 N 
ATOM     10  H   UNL A   1      36.336  34.349  31.602  1.00  0.00     0.348 HD
BRANCH   9  11
ATOM     11  C   UNL A   1      38.066  34.283  30.768  1.00  0.00     0.262 C 
BRANCH  11  12
ATOM     12  C   UNL A   1      39.460  33.874  31.256  1.00  0.00     0.058 C 
ATOM     13  C   UNL A   1      40.138  32.727  30.538  1.00  0.00     0.010 C 
ENDBRANCH  11  12
ENDBRANCH   9  11
BRANCH   9  14
ATOM     14  C   UNL A   1      36.190  32.968  29.963  1.00  0.00     0.266 C 
BRANCH  14  15
ATOM     15  C   UNL A   1      34.638  32.979  29.979  1.00  0.00     0.055 C 
ATOM     16  C   UNL A   1      33.998  32.465  28.680  1.00  0.00     0.071 C 
ATOM     17  C   UNL A   1      34.068  34.341  30.410  1.00  0.00     0.071 C 
ATOM     18  C   UNL A   1      33.759  33.546  27.633  1.00  0.00     0.261 C 
ATOM     19  C   UNL A   1      33.866  35.312  29.255  1.00  0.00     0.261 C 
ATOM     20  N   UNL A   1      33.060  34.692  28.209  1.00  0.00    -0.346 N 
ATOM     21  H   UNL A   1      32.176  34.380  28.607  1.00  0.00     0.346 HD
ATOM     22  H   UNL A   1      32.893  35.378  27.473  1.00  0.00     0.346 HD
ENDBRANCH  14  15
ENDBRANCH   9  14
ENDBRANCH   8   9
BRANCH   8  23
ATOM     23  C   UNL A   1      35.824  32.912  33.555  1.00  0.00     0.074 C 
ATOM     24  C   UNL A   1      36.006  34.198  34.333  1.00  0.00     0.011 C 
ENDBRANCH   8  23
ENDBRANCH   6   8
ENDBRANCH   5   6
ENDBRANCH   4   5
ENDBRANCH   3   4
ENDBRANCH   2   3
ENDBRANCH   1   2
BRANCH   1  25
ATOM     25  C   UNL A   1      38.948  32.314  37.250  1.00  0.00     0.188 C 
BRANCH  25  26
ATOM     26  O   UNL A   1      38.463  32.293  38.577  1.00  0.00    -0.376 OA
BRANCH  26  27
ATOM     27  C   UNL A   1      39.048  33.084  39.586  1.00  0.00     0.202 C 
BRANCH  27  28
ATOM     28  C   UNL A   1      38.838  34.595  39.586  1.00  0.00     0.261 C 
BRANCH  28  29
ATOM     29  O   UNL A   1      40.041  35.354  39.430  1.00  0.00    -0.460 OA
BRANCH  29  30
ATOM     30  C   UNL A   1      40.020  36.279  38.444  1.00  0.00     0.338 C 
ATOM     31  O   UNL A   1      39.657  37.445  38.512  1.00  0.00    -0.246 OA
BRANCH  30  32
ATOM     32  C   UNL A   1      40.697  35.708  37.268  1.00  0.00     0.060 A 
ATOM     33  C   UNL A   1      39.951  35.460  36.104  1.00  0.00     0.016 A 
ATOM     34  C   UNL A   1      42.063  35.435  37.314  1.00  0.00     0.016 A 
ATOM     35  C   UNL A   1      40.572  34.931  34.976  1.00  0.00     0.010 A 
ATOM     36  C   UNL A   1      42.673  34.859  36.203  1.00  0.00     0.010 A 
ATOM     37  C   UNL A   1      41.924  34.578  35.045  1.00  0.00    -0.014 A 
BRANCH  37  38
ATOM     38  C   UNL A   1      42.501  33.661  34.041  1.00  0.00     0.031 A 
ATOM     39  C   UNL A   1      42.803  34.237  32.688  1.00  0.00     0.074 A 
ATOM     40  C   UNL A   1      42.705  32.360  34.302  1.00  0.00     0.049 A 
ATOM     41  N   UNL A   1      43.108  33.630  31.572  1.00  0.00    -0.248 NA
ATOM     42  C   UNL A   1      42.735  35.705  32.579  1.00  0.00     0.031 C 
ATOM     43  C   UNL A   1      42.514  31.712  35.597  1.00  0.00     0.029 A 
ATOM     44  N   UNL A   1      43.092  31.344  33.467  1.00  0.00    -0.354 N 
ATOM     45  C   UNL A   1      43.249  34.639  30.629  1.00  0.00     0.074 A 
ATOM     46  C   UNL A   1      42.973  35.893  31.291  1.00  0.00     0.031 C 
ATOM     47  C   UNL A   1      42.757  30.396  35.462  1.00  0.00     0.029 A 
ATOM     48  C   UNL A   1      43.067  30.108  34.063  1.00  0.00     0.049 A 
ATOM     49  H   UNL A   1      43.362  31.487  32.531  1.00  0.00     0.167 HD
ATOM     50  C   UNL A   1      43.581  34.524  29.323  1.00  0.00     0.037 A 
ATOM     51  C   UNL A   1      43.235  28.886  33.518  1.00  0.00     0.037 A 
ATOM     52  C   UNL A   1      43.838  33.269  28.674  1.00  0.00     0.049 A 
ATOM     53  C   UNL A   1      43.499  28.777  32.034  1.00  0.00     0.074 A 
ATOM     54  C   UNL A   1      44.162  33.032  27.352  1.00  0.00     0.029 A 
ATOM     55  N   UNL A   1      43.792  32.036  29.307  1.00  0.00    -0.354 N 
ATOM     56  N   UNL A   1      43.626  29.728  31.138  1.00  0.00    -0.248 NA
ATOM     57  C   UNL A   1      43.642  27.421  31.485  1.00  0.00     0.031 C 
ATOM     58  C   UNL A   1      44.265  31.650  27.173  1.00  0.00     0.029 A 
ATOM     59  C   UNL A   1      44.073  31.031  28.398  1.00  0.00     0.049 A 
ATOM     60  H   UNL A   1      43.591  31.896  30.261  1.00  0.00     0.167 HD
ATOM     61  C   UNL A   1      43.913  29.089  29.937  1.00  0.00     0.074 A 
ATOM     62  C   UNL A   1      43.942  27.670  30.217  1.00  0.00     0.031 C 
ATOM     63  C   UNL A   1      44.138  29.627  28.713  1.00  0.00     0.037 A 
BRANCH  50  64
ATOM     64  C   UNL A   1      43.653  35.784  28.513  1.00  0.00     0.064 A 
ATOM     65  C   UNL A   1      42.515  36.332  27.901  1.00  0.00     0.173 A 
ATOM     66  C   UNL A   1      44.870  36.467  28.368  1.00  0.00     0.173 A 
ATOM     67  F   UNL A   1      41.332  35.705  27.991  1.00  0.00    -0.203 F 
ATOM     68  C   UNL A   1      42.597  37.505  27.156  1.00  0.00     0.198 A 
ATOM     69  C   UNL A   1      44.941  37.658  27.650  1.00  0.00     0.198 A 
ATOM     70  F   UNL A   1      45.988  35.984  28.928  1.00  0.00    -0.203 F 
ATOM     71  F   UNL A   1      41.508  37.983  26.540  1.00  0.00    -0.200 F 
ATOM     72  C   UNL A   1      43.807  38.172  27.039  1.00  0.00     0.200 A 
ATOM     73  F   UNL A   1      46.109  38.307  27.549  1.00  0.00    -0.200 F 
ATOM     74  F   UNL A   1      43.882  39.308  26.333  1.00  0.00    -0.200 F 
ENDBRANCH  50  64
BRANCH  51  75
ATOM     75  C   UNL A   1      43.135  27.662  34.357  1.00  0.00     0.064 A 
ATOM     76  C   UNL A   1      44.273  27.118  34.971  1.00  0.00     0.173 A 
ATOM     77  C   UNL A   1      41.921  26.978  34.519  1.00  0.00     0.173 A 
ATOM     78  F   UNL A   1      45.463  27.718  34.826  1.00  0.00    -0.203 F 
ATOM     79  C   UNL A   1      44.206  25.920  35.683  1.00  0.00     0.198 A 
ATOM     80  C   UNL A   1      41.849  25.800  35.259  1.00  0.00     0.198 A 
ATOM     81  F   UNL A   1      40.802  27.450  33.950  1.00  0.00    -0.203 F 
ATOM     82  F   UNL A   1      45.323  25.389  36.200  1.00  0.00    -0.200 F 
ATOM     83  C   UNL A   1      42.994  25.264  35.829  1.00  0.00     0.200 A 
ATOM     84  F   UNL A   1      40.673  25.173  35.407  1.00  0.00    -0.200 F 
ATOM     85  F   UNL A   1      42.932  24.110  36.506  1.00  0.00    -0.200 F 
ENDBRANCH  51  75
BRANCH  63  86
ATOM     86  C   UNL A   1      44.526  28.694  27.601  1.00  0.00     0.064 A 
ATOM     87  C   UNL A   1      45.845  28.258  27.418  1.00  0.00     0.173 A 
ATOM     88  C   UNL A   1      43.538  28.174  26.749  1.00  0.00     0.173 A 
ATOM     89  F   UNL A   1      46.828  28.733  28.198  1.00  0.00    -0.203 F 
ATOM     90  C   UNL A   1      46.165  27.354  26.407  1.00  0.00     0.198 A 
ATOM     91  C   UNL A   1      43.855  27.245  25.765  1.00  0.00     0.198 A 
ATOM     92  F   UNL A   1      42.257  28.550  26.890  1.00  0.00    -0.203 F 
ATOM     93  F   UNL A   1      47.440  26.985  26.221  1.00  0.00    -0.200 F 
ATOM     94  C   UNL A   1      45.170  26.840  25.590  1.00  0.00     0.200 A 
ATOM     95  F   UNL A   1      42.888  26.734  24.990  1.00  0.00    -0.200 F 
ATOM     96  F   UNL A   1      45.477  25.957  24.631  1.00  0.00    -0.200 F 
ENDBRANCH  63  86
ENDBRANCH  37  38
ENDBRANCH  30  32
ENDBRANCH  29  30
ENDBRANCH  28  29
ENDBRANCH  27  28
ENDBRANCH  26  27
ENDBRANCH  25  26
ENDBRANCH   1  25
TORSDOF 23
ENDMDL
