MODEL 1
REMARK VINA RESULT:     -10.1      0.000      0.000
REMARK SMILES CN(CC(C)(C)O)C(=O)NC[C@@H](C(=O)OCCOCCOCCOC(=O)c1ccc(-c2c3nc(c(-c4c(F)c(F)c(F)c(F)c4F)c4ccc([nH]4)c(-c4c(F)c(F)c(F)c(F)c4F)c4nc(c(-c5c(F)c(F)c(F)c(F)c5F)c5ccc2[nH]5)C=C4)C=C3)cc1)c1ccccc1
REMARK SMILES IDX 17 1 16 2 15 3 13 4 14 5 12 6 11 7 10 8 8 9 9 10 2 12 1 13
REMARK SMILES IDX 3 14 4 15 5 16 6 17 7 18 90 20 91 21 95 22 92 23 94 24 93 25
REMARK SMILES IDX 18 26 19 27 20 28 21 29 22 30 23 31 24 32 25 33 26 34 27 35
REMARK SMILES IDX 28 36 89 37 29 38 88 39 30 40 31 41 32 42 82 43 33 44 87 45
REMARK SMILES IDX 81 46 83 47 34 48 86 49 80 50 79 51 35 53 67 54 47 55 66 56
REMARK SMILES IDX 48 57 51 58 65 59 84 60 49 61 50 62 64 64 85 65 52 66 36 67
REMARK SMILES IDX 37 68 45 69 38 70 39 71 43 72 46 73 40 74 41 75 44 76 42 77
REMARK SMILES IDX 68 78 69 79 77 80 70 81 71 82 75 83 78 84 72 85 73 86 76 87
REMARK SMILES IDX 74 88 53 89 54 90 62 91 55 92 56 93 60 94 63 95 57 96 58 97
REMARK SMILES IDX 61 98 59 99
REMARK H PARENT 10 11 7 19 83 52 51 63
REMARK Flexibility Score: inf
ROOT
ATOM      1  C   UNL A   1      33.485  21.826  24.392  1.00  0.00     0.202 C 
ENDROOT
BRANCH   1   2
ATOM      2  C   UNL A   1      32.204  22.672  24.271  1.00  0.00     0.261 C 
BRANCH   2   3
ATOM      3  O   UNL A   1      32.342  24.020  24.777  1.00  0.00    -0.463 OA
BRANCH   3   4
ATOM      4  C   UNL A   1      31.771  24.279  25.985  1.00  0.00     0.315 C 
ATOM      5  O   UNL A   1      31.844  23.514  26.944  1.00  0.00    -0.251 OA
BRANCH   4   6
ATOM      6  C   UNL A   1      31.052  25.638  26.067  1.00  0.00     0.148 C 
BRANCH   6   7
ATOM      7  C   UNL A   1      30.073  25.897  24.899  1.00  0.00     0.137 C 
BRANCH   7   8
ATOM      8  N   UNL A   1      30.727  25.990  23.600  1.00  0.00    -0.337 N 
ATOM      9  C   UNL A   1      31.441  26.883  22.898  1.00  0.00     0.317 C 
ATOM     10  O   UNL A   1      32.009  26.391  21.913  1.00  0.00    -0.249 OA
ATOM     11  H   UNL A   1      30.613  25.155  23.090  1.00  0.00     0.165 HD
BRANCH   9  12
ATOM     12  N   UNL A   1      31.565  28.212  23.190  1.00  0.00    -0.325 N 
ATOM     13  C   UNL A   1      32.850  28.792  22.799  1.00  0.00     0.148 C 
BRANCH  12  14
ATOM     14  C   UNL A   1      30.622  29.174  23.785  1.00  0.00     0.155 C 
BRANCH  14  15
ATOM     15  C   UNL A   1      29.526  29.745  22.834  1.00  0.00     0.077 C 
ATOM     16  C   UNL A   1      28.280  28.870  22.744  1.00  0.00     0.043 C 
ATOM     17  C   UNL A   1      29.115  31.144  23.327  1.00  0.00     0.043 C 
BRANCH  15  18
ATOM     18  O   UNL A   1      30.061  29.896  21.514  1.00  0.00    -0.389 OA
ATOM     19  H   UNL A   1      30.479  30.768  21.431  1.00  0.00     0.211 HD
ENDBRANCH  15  18
ENDBRANCH  14  15
ENDBRANCH  12  14
ENDBRANCH   9  12
ENDBRANCH   7   8
ENDBRANCH   6   7
BRANCH   6  20
ATOM     20  C   UNL A   1      31.948  26.842  26.462  1.00  0.00    -0.032 A 
ATOM     21  C   UNL A   1      31.405  28.005  27.041  1.00  0.00     0.004 A 
ATOM     22  C   UNL A   1      33.310  26.907  26.105  1.00  0.00     0.004 A 
ATOM     23  C   UNL A   1      32.178  29.155  27.261  1.00  0.00     0.000 A 
ATOM     24  C   UNL A   1      34.079  28.062  26.306  1.00  0.00     0.000 A 
ATOM     25  C   UNL A   1      33.514  29.187  26.887  1.00  0.00     0.000 A 
ENDBRANCH   6  20
ENDBRANCH   4   6
ENDBRANCH   3   4
ENDBRANCH   2   3
ENDBRANCH   1   2
BRANCH   1  26
ATOM     26  O   UNL A   1      34.459  22.260  25.343  1.00  0.00    -0.376 OA
BRANCH  26  27
ATOM     27  C   UNL A   1      35.634  21.467  25.465  1.00  0.00     0.188 C 
BRANCH  27  28
ATOM     28  C   UNL A   1      35.559  20.035  24.924  1.00  0.00     0.188 C 
BRANCH  28  29
ATOM     29  O   UNL A   1      36.774  19.301  25.006  1.00  0.00    -0.376 OA
BRANCH  29  30
ATOM     30  C   UNL A   1      37.979  20.042  25.208  1.00  0.00     0.202 C 
BRANCH  30  31
ATOM     31  C   UNL A   1      39.261  19.210  25.375  1.00  0.00     0.261 C 
BRANCH  31  32
ATOM     32  O   UNL A   1      40.067  19.585  26.512  1.00  0.00    -0.460 OA
BRANCH  32  33
ATOM     33  C   UNL A   1      41.413  19.552  26.365  1.00  0.00     0.338 C 
ATOM     34  O   UNL A   1      42.082  18.622  25.971  1.00  0.00    -0.246 OA
BRANCH  33  35
ATOM     35  C   UNL A   1      41.925  20.945  26.510  1.00  0.00     0.060 A 
ATOM     36  C   UNL A   1      42.271  21.389  27.794  1.00  0.00     0.016 A 
ATOM     37  C   UNL A   1      42.144  21.773  25.405  1.00  0.00     0.016 A 
ATOM     38  C   UNL A   1      42.784  22.674  27.980  1.00  0.00     0.010 A 
ATOM     39  C   UNL A   1      42.655  23.061  25.592  1.00  0.00     0.010 A 
ATOM     40  C   UNL A   1      42.942  23.531  26.884  1.00  0.00    -0.014 A 
BRANCH  40  41
ATOM     41  C   UNL A   1      43.150  24.984  27.098  1.00  0.00     0.031 A 
ATOM     42  C   UNL A   1      44.495  25.552  26.732  1.00  0.00     0.074 A 
ATOM     43  C   UNL A   1      42.195  25.791  27.592  1.00  0.00     0.049 A 
ATOM     44  N   UNL A   1      44.983  26.748  26.938  1.00  0.00    -0.248 NA
ATOM     45  C   UNL A   1      45.415  24.636  26.037  1.00  0.00     0.031 C 
ATOM     46  C   UNL A   1      40.827  25.395  27.913  1.00  0.00     0.029 A 
ATOM     47  N   UNL A   1      42.248  27.125  27.925  1.00  0.00    -0.354 N 
ATOM     48  C   UNL A   1      46.268  26.722  26.412  1.00  0.00     0.074 A 
ATOM     49  C   UNL A   1      46.494  25.389  25.898  1.00  0.00     0.031 C 
ATOM     50  C   UNL A   1      40.175  26.458  28.420  1.00  0.00     0.029 A 
ATOM     51  C   UNL A   1      41.093  27.596  28.499  1.00  0.00     0.049 A 
ATOM     52  H   UNL A   1      43.039  27.687  27.766  1.00  0.00     0.167 HD
ATOM     53  C   UNL A   1      47.180  27.719  26.361  1.00  0.00     0.037 A 
ATOM     54  C   UNL A   1      40.826  28.796  29.054  1.00  0.00     0.037 A 
ATOM     55  C   UNL A   1      46.963  29.043  26.873  1.00  0.00     0.049 A 
ATOM     56  C   UNL A   1      41.899  29.861  29.085  1.00  0.00     0.074 A 
ATOM     57  C   UNL A   1      47.831  30.120  26.874  1.00  0.00     0.029 A 
ATOM     58  N   UNL A   1      45.793  29.469  27.482  1.00  0.00    -0.354 N 
ATOM     59  N   UNL A   1      43.113  29.832  28.592  1.00  0.00    -0.248 NA
ATOM     60  C   UNL A   1      41.562  31.127  29.758  1.00  0.00     0.031 C 
ATOM     61  C   UNL A   1      47.205  31.183  27.530  1.00  0.00     0.029 A 
ATOM     62  C   UNL A   1      45.925  30.787  27.883  1.00  0.00     0.049 A 
ATOM     63  H   UNL A   1      44.988  28.917  27.609  1.00  0.00     0.167 HD
ATOM     64  C   UNL A   1      43.666  31.081  28.857  1.00  0.00     0.074 A 
ATOM     65  C   UNL A   1      42.657  31.846  29.555  1.00  0.00     0.031 C 
ATOM     66  C   UNL A   1      44.900  31.550  28.546  1.00  0.00     0.037 A 
BRANCH  53  67
ATOM     67  C   UNL A   1      48.515  27.398  25.759  1.00  0.00     0.064 A 
ATOM     68  C   UNL A   1      49.613  27.031  26.549  1.00  0.00     0.173 A 
ATOM     69  C   UNL A   1      48.689  27.442  24.368  1.00  0.00     0.173 A 
ATOM     70  F   UNL A   1      49.501  26.997  27.886  1.00  0.00    -0.203 F 
ATOM     71  C   UNL A   1      50.846  26.745  25.971  1.00  0.00     0.198 A 
ATOM     72  C   UNL A   1      49.914  27.125  23.790  1.00  0.00     0.198 A 
ATOM     73  F   UNL A   1      47.670  27.789  23.568  1.00  0.00    -0.203 F 
ATOM     74  F   UNL A   1      51.895  26.447  26.748  1.00  0.00    -0.200 F 
ATOM     75  C   UNL A   1      50.994  26.784  24.592  1.00  0.00     0.200 A 
ATOM     76  F   UNL A   1      50.053  27.154  22.457  1.00  0.00    -0.200 F 
ATOM     77  F   UNL A   1      52.180  26.502  24.036  1.00  0.00    -0.200 F 
ENDBRANCH  53  67
BRANCH  54  78
ATOM     78  C   UNL A   1      39.496  29.062  29.664  1.00  0.00     0.064 A 
ATOM     79  C   UNL A   1      38.441  29.582  28.901  1.00  0.00     0.173 A 
ATOM     80  C   UNL A   1      39.268  28.857  31.033  1.00  0.00     0.173 A 
ATOM     81  F   UNL A   1      38.618  29.829  27.595  1.00  0.00    -0.203 F 
ATOM     82  C   UNL A   1      37.218  29.905  29.487  1.00  0.00     0.198 A 
ATOM     83  C   UNL A   1      38.035  29.152  31.612  1.00  0.00     0.198 A 
ATOM     84  F   UNL A   1      40.247  28.374  31.812  1.00  0.00    -0.203 F 
ATOM     85  F   UNL A   1      36.247  30.455  28.744  1.00  0.00    -0.200 F 
ATOM     86  C   UNL A   1      37.015  29.686  30.841  1.00  0.00     0.200 A 
ATOM     87  F   UNL A   1      37.842  28.934  32.920  1.00  0.00    -0.200 F 
ATOM     88  F   UNL A   1      35.841  30.002  31.404  1.00  0.00    -0.200 F 
ENDBRANCH  54  78
BRANCH  66  89
ATOM     89  C   UNL A   1      45.222  32.978  28.889  1.00  0.00     0.064 A 
ATOM     90  C   UNL A   1      44.895  34.037  28.032  1.00  0.00     0.173 A 
ATOM     91  C   UNL A   1      45.787  33.291  30.136  1.00  0.00     0.173 A 
ATOM     92  F   UNL A   1      44.364  33.791  26.824  1.00  0.00    -0.203 F 
ATOM     93  C   UNL A   1      45.130  35.358  28.406  1.00  0.00     0.198 A 
ATOM     94  C   UNL A   1      45.994  34.612  30.518  1.00  0.00     0.198 A 
ATOM     95  F   UNL A   1      46.110  32.314  30.996  1.00  0.00    -0.203 F 
ATOM     96  F   UNL A   1      44.836  36.355  27.560  1.00  0.00    -0.200 F 
ATOM     97  C   UNL A   1      45.669  35.645  29.652  1.00  0.00     0.200 A 
ATOM     98  F   UNL A   1      46.499  34.887  31.729  1.00  0.00    -0.200 F 
ATOM     99  F   UNL A   1      45.876  36.918  30.018  1.00  0.00    -0.200 F 
ENDBRANCH  66  89
ENDBRANCH  40  41
ENDBRANCH  33  35
ENDBRANCH  32  33
ENDBRANCH  31  32
ENDBRANCH  30  31
ENDBRANCH  29  30
ENDBRANCH  28  29
ENDBRANCH  27  28
ENDBRANCH  26  27
ENDBRANCH   1  26
TORSDOF 24
ENDMDL
MODEL 2
REMARK VINA RESULT:     -10.1      5.822     11.507
REMARK SMILES CN(CC(C)(C)O)C(=O)NC[C@@H](C(=O)OCCOCCOCCOC(=O)c1ccc(-c2c3nc(c(-c4c(F)c(F)c(F)c(F)c4F)c4ccc([nH]4)c(-c4c(F)c(F)c(F)c(F)c4F)c4nc(c(-c5c(F)c(F)c(F)c(F)c5F)c5ccc2[nH]5)C=C4)C=C3)cc1)c1ccccc1
REMARK SMILES IDX 17 1 16 2 15 3 13 4 14 5 12 6 11 7 10 8 8 9 9 10 2 12 1 13
REMARK SMILES IDX 3 14 4 15 5 16 6 17 7 18 90 20 91 21 95 22 92 23 94 24 93 25
REMARK SMILES IDX 18 26 19 27 20 28 21 29 22 30 23 31 24 32 25 33 26 34 27 35
REMARK SMILES IDX 28 36 89 37 29 38 88 39 30 40 31 41 32 42 82 43 33 44 87 45
REMARK SMILES IDX 81 46 83 47 34 48 86 49 80 50 79 51 35 53 67 54 47 55 66 56
REMARK SMILES IDX 48 57 51 58 65 59 84 60 49 61 50 62 64 64 85 65 52 66 36 67
REMARK SMILES IDX 37 68 45 69 38 70 39 71 43 72 46 73 40 74 41 75 44 76 42 77
REMARK SMILES IDX 68 78 69 79 77 80 70 81 71 82 75 83 78 84 72 85 73 86 76 87
REMARK SMILES IDX 74 88 53 89 54 90 62 91 55 92 56 93 60 94 63 95 57 96 58 97
REMARK SMILES IDX 61 98 59 99
REMARK H PARENT 10 11 7 19 83 52 51 63
REMARK Flexibility Score: inf
ROOT
ATOM      1  C   UNL A   1      34.053  28.578  26.827  1.00  0.00     0.202 C 
ENDROOT
BRANCH   1   2
ATOM      2  C   UNL A   1      33.637  27.801  25.564  1.00  0.00     0.261 C 
BRANCH   2   3
ATOM      3  O   UNL A   1      32.390  27.082  25.702  1.00  0.00    -0.463 OA
BRANCH   3   4
ATOM      4  C   UNL A   1      32.466  25.724  25.710  1.00  0.00     0.315 C 
ATOM      5  O   UNL A   1      32.158  25.036  26.680  1.00  0.00    -0.251 OA
BRANCH   4   6
ATOM      6  C   UNL A   1      32.938  25.109  24.379  1.00  0.00     0.148 C 
BRANCH   6   7
ATOM      7  C   UNL A   1      31.853  24.278  23.656  1.00  0.00     0.137 C 
BRANCH   7   8
ATOM      8  N   UNL A   1      31.148  23.351  24.533  1.00  0.00    -0.337 N 
ATOM      9  C   UNL A   1      31.419  22.260  25.265  1.00  0.00     0.317 C 
ATOM     10  O   UNL A   1      30.517  21.968  26.061  1.00  0.00    -0.249 OA
ATOM     11  H   UNL A   1      30.198  23.598  24.610  1.00  0.00     0.165 HD
BRANCH   9  12
ATOM     12  N   UNL A   1      32.556  21.508  25.183  1.00  0.00    -0.325 N 
ATOM     13  C   UNL A   1      33.355  21.499  26.409  1.00  0.00     0.148 C 
BRANCH  12  14
ATOM     14  C   UNL A   1      33.098  20.668  24.101  1.00  0.00     0.155 C 
BRANCH  14  15
ATOM     15  C   UNL A   1      32.894  19.130  24.253  1.00  0.00     0.077 C 
ATOM     16  C   UNL A   1      32.264  18.475  23.028  1.00  0.00     0.043 C 
ATOM     17  C   UNL A   1      34.256  18.468  24.524  1.00  0.00     0.043 C 
BRANCH  15  18
ATOM     18  O   UNL A   1      32.055  18.862  25.382  1.00  0.00    -0.389 OA
ATOM     19  H   UNL A   1      32.583  18.899  26.195  1.00  0.00     0.211 HD
ENDBRANCH  15  18
ENDBRANCH  14  15
ENDBRANCH  12  14
ENDBRANCH   9  12
ENDBRANCH   7   8
ENDBRANCH   6   7
BRANCH   6  20
ATOM     20  C   UNL A   1      34.353  24.473  24.405  1.00  0.00    -0.032 A 
ATOM     21  C   UNL A   1      34.841  23.716  23.322  1.00  0.00     0.004 A 
ATOM     22  C   UNL A   1      35.149  24.469  25.569  1.00  0.00     0.004 A 
ATOM     23  C   UNL A   1      36.052  23.011  23.394  1.00  0.00     0.000 A 
ATOM     24  C   UNL A   1      36.349  23.750  25.650  1.00  0.00     0.000 A 
ATOM     25  C   UNL A   1      36.804  23.022  24.560  1.00  0.00     0.000 A 
ENDBRANCH   6  20
ENDBRANCH   4   6
ENDBRANCH   3   4
ENDBRANCH   2   3
ENDBRANCH   1   2
BRANCH   1  26
ATOM     26  O   UNL A   1      33.135  29.559  27.315  1.00  0.00    -0.376 OA
BRANCH  26  27
ATOM     27  C   UNL A   1      33.448  30.920  27.044  1.00  0.00     0.188 C 
BRANCH  27  28
ATOM     28  C   UNL A   1      34.113  31.713  28.175  1.00  0.00     0.188 C 
BRANCH  28  29
ATOM     29  O   UNL A   1      34.230  33.109  27.935  1.00  0.00    -0.376 OA
BRANCH  29  30
ATOM     30  C   UNL A   1      33.123  33.936  28.300  1.00  0.00     0.202 C 
BRANCH  30  31
ATOM     31  C   UNL A   1      33.412  35.025  29.346  1.00  0.00     0.261 C 
BRANCH  31  32
ATOM     32  O   UNL A   1      32.422  35.121  30.392  1.00  0.00    -0.460 OA
BRANCH  32  33
ATOM     33  C   UNL A   1      32.786  35.728  31.546  1.00  0.00     0.338 C 
ATOM     34  O   UNL A   1      32.186  36.603  32.132  1.00  0.00    -0.246 OA
BRANCH  33  35
ATOM     35  C   UNL A   1      33.918  34.956  32.134  1.00  0.00     0.060 A 
ATOM     36  C   UNL A   1      35.187  35.551  32.141  1.00  0.00     0.016 A 
ATOM     37  C   UNL A   1      33.729  33.712  32.743  1.00  0.00     0.016 A 
ATOM     38  C   UNL A   1      36.274  34.883  32.708  1.00  0.00     0.010 A 
ATOM     39  C   UNL A   1      34.818  33.042  33.307  1.00  0.00     0.010 A 
ATOM     40  C   UNL A   1      36.104  33.608  33.259  1.00  0.00    -0.014 A 
BRANCH  40  41
ATOM     41  C   UNL A   1      37.283  32.754  33.544  1.00  0.00     0.031 A 
ATOM     42  C   UNL A   1      38.021  33.001  34.832  1.00  0.00     0.074 A 
ATOM     43  C   UNL A   1      37.700  31.787  32.708  1.00  0.00     0.049 A 
ATOM     44  N   UNL A   1      39.148  32.495  35.261  1.00  0.00    -0.248 NA
ATOM     45  C   UNL A   1      37.394  33.954  35.763  1.00  0.00     0.031 C 
ATOM     46  C   UNL A   1      37.038  31.386  31.470  1.00  0.00     0.029 A 
ATOM     47  N   UNL A   1      38.806  30.972  32.780  1.00  0.00    -0.354 N 
ATOM     48  C   UNL A   1      39.371  33.080  36.500  1.00  0.00     0.074 A 
ATOM     49  C   UNL A   1      38.277  33.992  36.747  1.00  0.00     0.031 C 
ATOM     50  C   UNL A   1      37.764  30.416  30.885  1.00  0.00     0.029 A 
ATOM     51  C   UNL A   1      38.963  30.159  31.684  1.00  0.00     0.049 A 
ATOM     52  H   UNL A   1      39.426  30.972  33.544  1.00  0.00     0.167 HD
ATOM     53  C   UNL A   1      40.396  32.875  37.360  1.00  0.00     0.037 A 
ATOM     54  C   UNL A   1      39.977  29.333  31.353  1.00  0.00     0.037 A 
ATOM     55  C   UNL A   1      41.487  31.972  37.118  1.00  0.00     0.049 A 
ATOM     56  C   UNL A   1      41.167  29.203  32.278  1.00  0.00     0.074 A 
ATOM     57  C   UNL A   1      42.577  31.703  37.926  1.00  0.00     0.029 A 
ATOM     58  N   UNL A   1      41.629  31.196  35.979  1.00  0.00    -0.354 N 
ATOM     59  N   UNL A   1      41.377  29.760  33.446  1.00  0.00    -0.248 NA
ATOM     60  C   UNL A   1      42.266  28.331  31.830  1.00  0.00     0.031 C 
ATOM     61  C   UNL A   1      43.405  30.802  37.253  1.00  0.00     0.029 A 
ATOM     62  C   UNL A   1      42.801  30.464  36.052  1.00  0.00     0.049 A 
ATOM     63  H   UNL A   1      40.991  31.169  35.229  1.00  0.00     0.167 HD
ATOM     64  C   UNL A   1      42.604  29.276  33.888  1.00  0.00     0.074 A 
ATOM     65  C   UNL A   1      43.095  28.380  32.864  1.00  0.00     0.031 C 
ATOM     66  C   UNL A   1      43.262  29.548  35.041  1.00  0.00     0.037 A 
BRANCH  53  67
ATOM     67  C   UNL A   1      40.399  33.674  38.628  1.00  0.00     0.064 A 
ATOM     68  C   UNL A   1      39.640  33.292  39.743  1.00  0.00     0.173 A 
ATOM     69  C   UNL A   1      41.188  34.828  38.731  1.00  0.00     0.173 A 
ATOM     70  F   UNL A   1      38.852  32.208  39.685  1.00  0.00    -0.203 F 
ATOM     71  C   UNL A   1      39.651  34.053  40.909  1.00  0.00     0.198 A 
ATOM     72  C   UNL A   1      41.222  35.570  39.908  1.00  0.00     0.198 A 
ATOM     73  F   UNL A   1      41.930  35.237  37.690  1.00  0.00    -0.203 F 
ATOM     74  F   UNL A   1      38.879  33.699  41.944  1.00  0.00    -0.200 F 
ATOM     75  C   UNL A   1      40.448  35.185  40.993  1.00  0.00     0.200 A 
ATOM     76  F   UNL A   1      41.999  36.658  39.990  1.00  0.00    -0.200 F 
ATOM     77  F   UNL A   1      40.462  35.913  42.118  1.00  0.00    -0.200 F 
ENDBRANCH  53  67
BRANCH  54  78
ATOM     78  C   UNL A   1      39.945  28.579  30.072  1.00  0.00     0.064 A 
ATOM     79  C   UNL A   1      39.403  27.287  30.006  1.00  0.00     0.173 A 
ATOM     80  C   UNL A   1      40.506  29.109  28.900  1.00  0.00     0.173 A 
ATOM     81  F   UNL A   1      38.885  26.722  31.106  1.00  0.00    -0.203 F 
ATOM     82  C   UNL A   1      39.441  26.548  28.824  1.00  0.00     0.198 A 
ATOM     83  C   UNL A   1      40.517  28.381  27.712  1.00  0.00     0.198 A 
ATOM     84  F   UNL A   1      41.050  30.335  28.911  1.00  0.00    -0.203 F 
ATOM     85  F   UNL A   1      38.968  25.295  28.805  1.00  0.00    -0.200 F 
ATOM     86  C   UNL A   1      39.995  27.097  27.678  1.00  0.00     0.200 A 
ATOM     87  F   UNL A   1      41.048  28.918  26.605  1.00  0.00    -0.200 F 
ATOM     88  F   UNL A   1      40.036  26.384  26.544  1.00  0.00    -0.200 F 
ENDBRANCH  54  78
BRANCH  66  89
ATOM     89  C   UNL A   1      44.553  28.826  35.308  1.00  0.00     0.064 A 
ATOM     90  C   UNL A   1      44.589  27.588  35.963  1.00  0.00     0.173 A 
ATOM     91  C   UNL A   1      45.763  29.347  34.820  1.00  0.00     0.173 A 
ATOM     92  F   UNL A   1      43.463  27.053  36.459  1.00  0.00    -0.203 F 
ATOM     93  C   UNL A   1      45.789  26.900  36.127  1.00  0.00     0.198 A 
ATOM     94  C   UNL A   1      46.956  28.644  34.960  1.00  0.00     0.198 A 
ATOM     95  F   UNL A   1      45.782  30.525  34.178  1.00  0.00    -0.203 F 
ATOM     96  F   UNL A   1      45.805  25.730  36.781  1.00  0.00    -0.200 F 
ATOM     97  C   UNL A   1      46.968  27.423  35.617  1.00  0.00     0.200 A 
ATOM     98  F   UNL A   1      48.090  29.143  34.451  1.00  0.00    -0.200 F 
ATOM     99  F   UNL A   1      48.119  26.750  35.758  1.00  0.00    -0.200 F 
ENDBRANCH  66  89
ENDBRANCH  40  41
ENDBRANCH  33  35
ENDBRANCH  32  33
ENDBRANCH  31  32
ENDBRANCH  30  31
ENDBRANCH  29  30
ENDBRANCH  28  29
ENDBRANCH  27  28
ENDBRANCH  26  27
ENDBRANCH   1  26
TORSDOF 24
ENDMDL
MODEL 3
REMARK VINA RESULT:      -9.8      5.196      9.934
REMARK SMILES CN(CC(C)(C)O)C(=O)NC[C@@H](C(=O)OCCOCCOCCOC(=O)c1ccc(-c2c3nc(c(-c4c(F)c(F)c(F)c(F)c4F)c4ccc([nH]4)c(-c4c(F)c(F)c(F)c(F)c4F)c4nc(c(-c5c(F)c(F)c(F)c(F)c5F)c5ccc2[nH]5)C=C4)C=C3)cc1)c1ccccc1
REMARK SMILES IDX 17 1 16 2 15 3 13 4 14 5 12 6 11 7 10 8 8 9 9 10 2 12 1 13
REMARK SMILES IDX 3 14 4 15 5 16 6 17 7 18 90 20 91 21 95 22 92 23 94 24 93 25
REMARK SMILES IDX 18 26 19 27 20 28 21 29 22 30 23 31 24 32 25 33 26 34 27 35
REMARK SMILES IDX 28 36 89 37 29 38 88 39 30 40 31 41 32 42 82 43 33 44 87 45
REMARK SMILES IDX 81 46 83 47 34 48 86 49 80 50 79 51 35 53 67 54 47 55 66 56
REMARK SMILES IDX 48 57 51 58 65 59 84 60 49 61 50 62 64 64 85 65 52 66 36 67
REMARK SMILES IDX 37 68 45 69 38 70 39 71 43 72 46 73 40 74 41 75 44 76 42 77
REMARK SMILES IDX 68 78 69 79 77 80 70 81 71 82 75 83 78 84 72 85 73 86 76 87
REMARK SMILES IDX 74 88 53 89 54 90 62 91 55 92 56 93 60 94 63 95 57 96 58 97
REMARK SMILES IDX 61 98 59 99
REMARK H PARENT 10 11 7 19 83 52 51 63
REMARK Flexibility Score: inf
ROOT
ATOM      1  C   UNL A   1      31.305  27.957  24.745  1.00  0.00     0.202 C 
ENDROOT
BRANCH   1   2
ATOM      2  C   UNL A   1      32.283  27.374  23.707  1.00  0.00     0.261 C 
BRANCH   2   3
ATOM      3  O   UNL A   1      32.544  25.962  23.876  1.00  0.00    -0.463 OA
BRANCH   3   4
ATOM      4  C   UNL A   1      33.376  25.382  22.969  1.00  0.00     0.315 C 
ATOM      5  O   UNL A   1      33.872  25.990  22.023  1.00  0.00    -0.251 OA
BRANCH   4   6
ATOM      6  C   UNL A   1      33.679  23.898  23.246  1.00  0.00     0.148 C 
BRANCH   6   7
ATOM      7  C   UNL A   1      32.485  23.119  23.842  1.00  0.00     0.137 C 
BRANCH   7   8
ATOM      8  N   UNL A   1      32.821  22.369  25.046  1.00  0.00    -0.337 N 
ATOM      9  C   UNL A   1      33.009  21.093  25.414  1.00  0.00     0.317 C 
ATOM     10  O   UNL A   1      33.543  20.977  26.525  1.00  0.00    -0.249 OA
ATOM     11  H   UNL A   1      32.947  22.976  25.812  1.00  0.00     0.165 HD
BRANCH   9  12
ATOM     12  N   UNL A   1      32.665  19.993  24.680  1.00  0.00    -0.325 N 
ATOM     13  C   UNL A   1      32.405  20.275  23.268  1.00  0.00     0.148 C 
BRANCH  12  14
ATOM     14  C   UNL A   1      32.554  18.570  25.043  1.00  0.00     0.155 C 
BRANCH  14  15
ATOM     15  C   UNL A   1      33.745  17.655  24.623  1.00  0.00     0.077 C 
ATOM     16  C   UNL A   1      33.873  16.394  25.471  1.00  0.00     0.043 C 
ATOM     17  C   UNL A   1      33.566  17.246  23.150  1.00  0.00     0.043 C 
BRANCH  15  18
ATOM     18  O   UNL A   1      34.973  18.385  24.719  1.00  0.00    -0.389 OA
ATOM     19  H   UNL A   1      35.703  17.769  24.892  1.00  0.00     0.211 HD
ENDBRANCH  15  18
ENDBRANCH  14  15
ENDBRANCH  12  14
ENDBRANCH   9  12
ENDBRANCH   7   8
ENDBRANCH   6   7
BRANCH   6  20
ATOM     20  C   UNL A   1      35.055  23.612  23.905  1.00  0.00    -0.032 A 
ATOM     21  C   UNL A   1      35.880  22.562  23.459  1.00  0.00     0.004 A 
ATOM     22  C   UNL A   1      35.469  24.266  25.083  1.00  0.00     0.004 A 
ATOM     23  C   UNL A   1      37.051  22.197  24.141  1.00  0.00     0.000 A 
ATOM     24  C   UNL A   1      36.628  23.890  25.776  1.00  0.00     0.000 A 
ATOM     25  C   UNL A   1      37.422  22.857  25.304  1.00  0.00     0.000 A 
ENDBRANCH   6  20
ENDBRANCH   4   6
ENDBRANCH   3   4
ENDBRANCH   2   3
ENDBRANCH   1   2
BRANCH   1  26
ATOM     26  O   UNL A   1      31.417  27.469  26.083  1.00  0.00    -0.376 OA
BRANCH  26  27
ATOM     27  C   UNL A   1      31.842  28.399  27.072  1.00  0.00     0.188 C 
BRANCH  27  28
ATOM     28  C   UNL A   1      33.341  28.719  27.118  1.00  0.00     0.188 C 
BRANCH  28  29
ATOM     29  O   UNL A   1      33.698  29.984  26.576  1.00  0.00    -0.376 OA
BRANCH  29  30
ATOM     30  C   UNL A   1      33.975  31.041  27.496  1.00  0.00     0.202 C 
BRANCH  30  31
ATOM     31  C   UNL A   1      32.871  32.100  27.657  1.00  0.00     0.261 C 
BRANCH  31  32
ATOM     32  O   UNL A   1      33.307  33.453  27.412  1.00  0.00    -0.460 OA
BRANCH  32  33
ATOM     33  C   UNL A   1      33.321  34.308  28.462  1.00  0.00     0.338 C 
ATOM     34  O   UNL A   1      32.440  35.068  28.797  1.00  0.00    -0.246 OA
BRANCH  33  35
ATOM     35  C   UNL A   1      34.500  33.971  29.312  1.00  0.00     0.060 A 
ATOM     36  C   UNL A   1      35.777  34.248  28.805  1.00  0.00     0.016 A 
ATOM     37  C   UNL A   1      34.359  33.475  30.611  1.00  0.00     0.016 A 
ATOM     38  C   UNL A   1      36.912  33.980  29.574  1.00  0.00     0.010 A 
ATOM     39  C   UNL A   1      35.495  33.204  31.379  1.00  0.00     0.010 A 
ATOM     40  C   UNL A   1      36.779  33.420  30.850  1.00  0.00    -0.014 A 
BRANCH  40  41
ATOM     41  C   UNL A   1      37.953  32.818  31.526  1.00  0.00     0.031 A 
ATOM     42  C   UNL A   1      38.587  31.617  30.875  1.00  0.00     0.074 A 
ATOM     43  C   UNL A   1      38.461  33.303  32.673  1.00  0.00     0.049 A 
ATOM     44  N   UNL A   1      39.529  30.826  31.317  1.00  0.00    -0.248 NA
ATOM     45  C   UNL A   1      38.078  31.264  29.539  1.00  0.00     0.031 C 
ATOM     46  C   UNL A   1      38.001  34.501  33.369  1.00  0.00     0.029 A 
ATOM     47  N   UNL A   1      39.479  32.822  33.463  1.00  0.00    -0.354 N 
ATOM     48  C   UNL A   1      39.715  29.877  30.320  1.00  0.00     0.074 A 
ATOM     49  C   UNL A   1      38.776  30.175  29.262  1.00  0.00     0.031 C 
ATOM     50  C   UNL A   1      38.719  34.650  34.497  1.00  0.00     0.029 A 
ATOM     51  C   UNL A   1      39.659  33.533  34.624  1.00  0.00     0.049 A 
ATOM     52  H   UNL A   1      40.026  32.041  33.220  1.00  0.00     0.167 HD
ATOM     53  C   UNL A   1      40.592  28.847  30.288  1.00  0.00     0.037 A 
ATOM     54  C   UNL A   1      40.463  33.287  35.678  1.00  0.00     0.037 A 
ATOM     55  C   UNL A   1      41.525  28.543  31.337  1.00  0.00     0.049 A 
ATOM     56  C   UNL A   1      41.356  32.067  35.668  1.00  0.00     0.074 A 
ATOM     57  C   UNL A   1      42.448  27.515  31.398  1.00  0.00     0.029 A 
ATOM     58  N   UNL A   1      41.648  29.266  32.513  1.00  0.00    -0.354 N 
ATOM     59  N   UNL A   1      41.526  31.169  34.728  1.00  0.00    -0.248 NA
ATOM     60  C   UNL A   1      42.165  31.823  36.874  1.00  0.00     0.031 C 
ATOM     61  C   UNL A   1      43.095  27.585  32.635  1.00  0.00     0.029 A 
ATOM     62  C   UNL A   1      42.618  28.692  33.317  1.00  0.00     0.049 A 
ATOM     63  H   UNL A   1      41.126  30.068  32.742  1.00  0.00     0.167 HD
ATOM     64  C   UNL A   1      42.486  30.284  35.210  1.00  0.00     0.074 A 
ATOM     65  C   UNL A   1      42.863  30.751  36.526  1.00  0.00     0.031 C 
ATOM     66  C   UNL A   1      43.009  29.186  34.612  1.00  0.00     0.037 A 
BRANCH  53  67
ATOM     67  C   UNL A   1      40.553  27.950  29.087  1.00  0.00     0.064 A 
ATOM     68  C   UNL A   1      39.704  26.836  29.026  1.00  0.00     0.173 A 
ATOM     69  C   UNL A   1      41.365  28.222  27.977  1.00  0.00     0.173 A 
ATOM     70  F   UNL A   1      38.925  26.521  30.072  1.00  0.00    -0.203 F 
ATOM     71  C   UNL A   1      39.689  26.010  27.905  1.00  0.00     0.198 A 
ATOM     72  C   UNL A   1      41.325  27.414  26.846  1.00  0.00     0.198 A 
ATOM     73  F   UNL A   1      42.196  29.275  27.988  1.00  0.00    -0.203 F 
ATOM     74  F   UNL A   1      38.909  24.922  27.887  1.00  0.00    -0.200 F 
ATOM     75  C   UNL A   1      40.492  26.304  26.813  1.00  0.00     0.200 A 
ATOM     76  F   UNL A   1      42.095  27.705  25.788  1.00  0.00    -0.200 F 
ATOM     77  F   UNL A   1      40.472  25.513  25.732  1.00  0.00    -0.200 F 
ENDBRANCH  53  67
BRANCH  54  78
ATOM     78  C   UNL A   1      40.451  34.190  36.860  1.00  0.00     0.064 A 
ATOM     79  C   UNL A   1      39.556  33.983  37.920  1.00  0.00     0.173 A 
ATOM     80  C   UNL A   1      41.292  35.310  36.929  1.00  0.00     0.173 A 
ATOM     81  F   UNL A   1      38.707  32.946  37.886  1.00  0.00    -0.203 F 
ATOM     82  C   UNL A   1      39.490  34.872  38.992  1.00  0.00     0.198 A 
ATOM     83  C   UNL A   1      41.245  36.182  38.015  1.00  0.00     0.198 A 
ATOM     84  F   UNL A   1      42.158  35.563  35.936  1.00  0.00    -0.203 F 
ATOM     85  F   UNL A   1      38.585  34.682  39.962  1.00  0.00    -0.200 F 
ATOM     86  C   UNL A   1      40.337  35.969  39.040  1.00  0.00     0.200 A 
ATOM     87  F   UNL A   1      42.070  37.238  38.060  1.00  0.00    -0.200 F 
ATOM     88  F   UNL A   1      40.268  36.826  40.068  1.00  0.00    -0.200 F 
ENDBRANCH  54  78
BRANCH  66  89
ATOM     89  C   UNL A   1      44.097  28.439  35.330  1.00  0.00     0.064 A 
ATOM     90  C   UNL A   1      45.453  28.742  35.144  1.00  0.00     0.173 A 
ATOM     91  C   UNL A   1      43.768  27.463  36.285  1.00  0.00     0.173 A 
ATOM     92  F   UNL A   1      45.822  29.658  34.235  1.00  0.00    -0.203 F 
ATOM     93  C   UNL A   1      46.439  28.091  35.881  1.00  0.00     0.198 A 
ATOM     94  C   UNL A   1      44.753  26.835  37.040  1.00  0.00     0.198 A 
ATOM     95  F   UNL A   1      42.484  27.142  36.507  1.00  0.00    -0.203 F 
ATOM     96  F   UNL A   1      47.731  28.376  35.667  1.00  0.00    -0.200 F 
ATOM     97  C   UNL A   1      46.088  27.147  36.835  1.00  0.00     0.200 A 
ATOM     98  F   UNL A   1      44.410  25.936  37.973  1.00  0.00    -0.200 F 
ATOM     99  F   UNL A   1      47.038  26.536  37.557  1.00  0.00    -0.200 F 
ENDBRANCH  66  89
ENDBRANCH  40  41
ENDBRANCH  33  35
ENDBRANCH  32  33
ENDBRANCH  31  32
ENDBRANCH  30  31
ENDBRANCH  29  30
ENDBRANCH  28  29
ENDBRANCH  27  28
ENDBRANCH  26  27
ENDBRANCH   1  26
TORSDOF 24
ENDMDL
