MODEL 1
REMARK VINA RESULT:     -10.0      0.000      0.000
REMARK SMILES O=C(CSc1ccnc(C(=O)OCCOCCOCCOC(=O)c2ccc(-c3c4nc(c(-c5c(F)c(F)c(F)c(F)c5F)c5ccc([nH]5)c(-c5c(F)c(F)c(F)c(F)c5F)c5nc(c(-c6c(F)c(F)c(F)c(F)c6F)c6ccc3[nH]6)C=C5)C=C4)cc2)c1)NCC(F)(F)F
REMARK SMILES IDX 15 1 14 2 13 3 12 4 10 5 11 6 9 7 5 8 6 9 87 10 7 11 8 12
REMARK SMILES IDX 4 13 3 14 2 15 1 16 88 17 89 19 90 20 91 21 92 22 93 23
REMARK SMILES IDX 16 24 17 25 18 26 19 27 20 28 21 29 22 30 23 31 24 32 25 33
REMARK SMILES IDX 86 34 26 35 85 36 27 37 28 38 29 39 79 40 30 41 84 42 78 43
REMARK SMILES IDX 80 44 31 45 83 46 77 47 76 48 32 50 64 51 44 52 63 53 45 54
REMARK SMILES IDX 48 55 62 56 81 57 46 58 47 59 61 61 82 62 49 63 33 64 34 65
REMARK SMILES IDX 42 66 35 67 36 68 40 69 43 70 37 71 38 72 41 73 39 74 65 75
REMARK SMILES IDX 66 76 74 77 67 78 68 79 72 80 75 81 69 82 70 83 73 84 71 85
REMARK SMILES IDX 50 86 51 87 59 88 52 89 53 90 57 91 60 92 54 93 55 94 58 95
REMARK SMILES IDX 56 96
REMARK H PARENT 88 18 80 49 48 60
REMARK Flexibility Score: inf
ROOT
ATOM      1  O   UNL A   1      38.923  21.766  26.526  1.00  0.00    -0.376 OA
ENDROOT
BRANCH   1   2
ATOM      2  C   UNL A   1      38.153  21.693  25.329  1.00  0.00     0.202 C 
BRANCH   2   3
ATOM      3  C   UNL A   1      36.630  21.532  25.433  1.00  0.00     0.261 C 
BRANCH   3   4
ATOM      4  O   UNL A   1      35.917  22.781  25.442  1.00  0.00    -0.459 OA
BRANCH   4   5
ATOM      5  C   UNL A   1      34.738  22.787  24.763  1.00  0.00     0.357 C 
ATOM      6  O   UNL A   1      34.150  21.817  24.315  1.00  0.00    -0.244 OA
BRANCH   5   7
ATOM      7  C   UNL A   1      34.182  24.168  24.765  1.00  0.00     0.149 A 
ATOM      8  C   UNL A   1      33.492  26.166  23.663  1.00  0.00     0.012 A 
ATOM      9  C   UNL A   1      33.163  26.695  24.910  1.00  0.00     0.035 A 
ATOM     10  C   UNL A   1      34.042  24.885  23.587  1.00  0.00     0.051 A 
ATOM     11  C   UNL A   1      33.350  25.908  26.032  1.00  0.00     0.113 A 
ATOM     12  N   UNL A   1      33.847  24.658  25.989  1.00  0.00    -0.249 NA
BRANCH   8  13
ATOM     13  S   UNL A   1      33.226  27.068  22.143  1.00  0.00    -0.116 SA
BRANCH  13  14
ATOM     14  C   UNL A   1      32.520  28.640  22.763  1.00  0.00     0.174 C 
BRANCH  14  15
ATOM     15  C   UNL A   1      31.050  28.791  22.405  1.00  0.00     0.230 C 
ATOM     16  O   UNL A   1      30.251  27.870  22.554  1.00  0.00    -0.274 OA
ATOM     17  N   UNL A   1      30.681  30.034  21.946  1.00  0.00    -0.346 N 
ATOM     18  H   UNL A   1      31.371  30.731  21.857  1.00  0.00     0.163 HD
BRANCH  17  19
ATOM     19  C   UNL A   1      29.299  30.359  21.585  1.00  0.00     0.231 C 
BRANCH  19  20
ATOM     20  C   UNL A   1      28.509  31.060  22.688  1.00  0.00     0.405 C 
ATOM     21  F   UNL A   1      29.182  30.998  23.863  1.00  0.00    -0.169 F 
ATOM     22  F   UNL A   1      28.319  32.366  22.396  1.00  0.00    -0.169 F 
ATOM     23  F   UNL A   1      27.298  30.496  22.881  1.00  0.00    -0.169 F 
ENDBRANCH  19  20
ENDBRANCH  17  19
ENDBRANCH  14  15
ENDBRANCH  13  14
ENDBRANCH   8  13
ENDBRANCH   5   7
ENDBRANCH   4   5
ENDBRANCH   3   4
ENDBRANCH   2   3
ENDBRANCH   1   2
BRANCH   1  24
ATOM     24  C   UNL A   1      40.279  22.201  26.463  1.00  0.00     0.188 C 
BRANCH  24  25
ATOM     25  C   UNL A   1      41.205  21.971  27.677  1.00  0.00     0.188 C 
BRANCH  25  26
ATOM     26  O   UNL A   1      41.967  20.789  27.592  1.00  0.00    -0.376 OA
BRANCH  26  27
ATOM     27  C   UNL A   1      41.680  19.849  26.570  1.00  0.00     0.202 C 
BRANCH  27  28
ATOM     28  C   UNL A   1      42.768  19.036  25.842  1.00  0.00     0.261 C 
BRANCH  28  29
ATOM     29  O   UNL A   1      43.226  19.514  24.574  1.00  0.00    -0.460 OA
BRANCH  29  30
ATOM     30  C   UNL A   1      44.561  19.648  24.414  1.00  0.00     0.338 C 
ATOM     31  O   UNL A   1      45.337  18.840  23.943  1.00  0.00    -0.246 OA
BRANCH  30  32
ATOM     32  C   UNL A   1      44.919  21.035  24.774  1.00  0.00     0.060 A 
ATOM     33  C   UNL A   1      45.353  21.303  26.078  1.00  0.00     0.016 A 
ATOM     34  C   UNL A   1      44.810  22.065  23.835  1.00  0.00     0.016 A 
ATOM     35  C   UNL A   1      45.658  22.611  26.454  1.00  0.00     0.010 A 
ATOM     36  C   UNL A   1      45.098  23.377  24.220  1.00  0.00     0.010 A 
ATOM     37  C   UNL A   1      45.497  23.659  25.538  1.00  0.00    -0.014 A 
BRANCH  37  38
ATOM     38  C   UNL A   1      45.587  25.066  25.999  1.00  0.00     0.031 A 
ATOM     39  C   UNL A   1      46.922  25.754  25.952  1.00  0.00     0.074 A 
ATOM     40  C   UNL A   1      44.505  25.723  26.447  1.00  0.00     0.049 A 
ATOM     41  N   UNL A   1      47.254  26.959  26.341  1.00  0.00    -0.248 NA
ATOM     42  C   UNL A   1      48.036  24.973  25.391  1.00  0.00     0.031 C 
ATOM     43  C   UNL A   1      43.152  25.176  26.512  1.00  0.00     0.029 A 
ATOM     44  N   UNL A   1      44.381  26.996  26.946  1.00  0.00    -0.354 N 
ATOM     45  C   UNL A   1      48.611  27.078  26.077  1.00  0.00     0.074 A 
ATOM     46  C   UNL A   1      49.049  25.815  25.523  1.00  0.00     0.031 C 
ATOM     47  C   UNL A   1      42.334  26.104  27.039  1.00  0.00     0.029 A 
ATOM     48  C   UNL A   1      43.113  27.295  27.375  1.00  0.00     0.049 A 
ATOM     49  H   UNL A   1      45.131  27.633  26.992  1.00  0.00     0.167 HD
ATOM     50  C   UNL A   1      49.419  28.148  26.273  1.00  0.00     0.037 A 
ATOM     51  C   UNL A   1      42.642  28.399  27.989  1.00  0.00     0.037 A 
ATOM     52  C   UNL A   1      48.984  29.399  26.833  1.00  0.00     0.049 A 
ATOM     53  C   UNL A   1      43.574  29.551  28.263  1.00  0.00     0.074 A 
ATOM     54  C   UNL A   1      49.720  30.551  27.049  1.00  0.00     0.029 A 
ATOM     55  N   UNL A   1      47.697  29.658  27.282  1.00  0.00    -0.354 N 
ATOM     56  N   UNL A   1      44.848  29.673  27.978  1.00  0.00    -0.248 NA
ATOM     57  C   UNL A   1      43.000  30.721  28.943  1.00  0.00     0.031 C 
ATOM     58  C   UNL A   1      48.892  31.488  27.678  1.00  0.00     0.029 A 
ATOM     59  C   UNL A   1      47.624  30.941  27.802  1.00  0.00     0.049 A 
ATOM     60  H   UNL A   1      46.945  29.023  27.237  1.00  0.00     0.167 HD
ATOM     61  C   UNL A   1      45.222  30.937  28.418  1.00  0.00     0.074 A 
ATOM     62  C   UNL A   1      44.035  31.549  28.979  1.00  0.00     0.031 C 
ATOM     63  C   UNL A   1      46.436  31.538  28.357  1.00  0.00     0.037 A 
BRANCH  50  64
ATOM     64  C   UNL A   1      50.866  27.990  25.906  1.00  0.00     0.064 A 
ATOM     65  C   UNL A   1      51.313  28.134  24.584  1.00  0.00     0.173 A 
ATOM     66  C   UNL A   1      51.819  27.698  26.894  1.00  0.00     0.173 A 
ATOM     67  F   UNL A   1      50.440  28.397  23.601  1.00  0.00    -0.203 F 
ATOM     68  C   UNL A   1      52.655  27.957  24.259  1.00  0.00     0.198 A 
ATOM     69  C   UNL A   1      53.164  27.551  26.570  1.00  0.00     0.198 A 
ATOM     70  F   UNL A   1      51.445  27.554  28.174  1.00  0.00    -0.203 F 
ATOM     71  F   UNL A   1      53.051  28.041  22.982  1.00  0.00    -0.200 F 
ATOM     72  C   UNL A   1      53.580  27.671  25.252  1.00  0.00     0.200 A 
ATOM     73  F   UNL A   1      54.059  27.286  27.532  1.00  0.00    -0.200 F 
ATOM     74  F   UNL A   1      54.872  27.499  24.938  1.00  0.00    -0.200 F 
ENDBRANCH  50  64
BRANCH  51  75
ATOM     75  C   UNL A   1      41.215  28.463  28.396  1.00  0.00     0.064 A 
ATOM     76  C   UNL A   1      40.800  28.016  29.657  1.00  0.00     0.173 A 
ATOM     77  C   UNL A   1      40.236  28.969  27.529  1.00  0.00     0.173 A 
ATOM     78  F   UNL A   1      41.695  27.494  30.510  1.00  0.00    -0.203 F 
ATOM     79  C   UNL A   1      39.458  28.063  30.032  1.00  0.00     0.198 A 
ATOM     80  C   UNL A   1      38.899  29.040  27.914  1.00  0.00     0.198 A 
ATOM     81  F   UNL A   1      40.580  29.403  26.307  1.00  0.00    -0.203 F 
ATOM     82  F   UNL A   1      39.083  27.589  31.228  1.00  0.00    -0.200 F 
ATOM     83  C   UNL A   1      38.510  28.582  29.163  1.00  0.00     0.200 A 
ATOM     84  F   UNL A   1      37.987  29.548  27.073  1.00  0.00    -0.200 F 
ATOM     85  F   UNL A   1      37.221  28.629  29.526  1.00  0.00    -0.200 F 
ENDBRANCH  51  75
BRANCH  63  86
ATOM     86  C   UNL A   1      46.541  32.942  28.882  1.00  0.00     0.064 A 
ATOM     87  C   UNL A   1      46.906  33.207  30.210  1.00  0.00     0.173 A 
ATOM     88  C   UNL A   1      46.321  34.036  28.031  1.00  0.00     0.173 A 
ATOM     89  F   UNL A   1      47.115  32.198  31.069  1.00  0.00    -0.203 F 
ATOM     90  C   UNL A   1      47.025  34.516  30.672  1.00  0.00     0.198 A 
ATOM     91  C   UNL A   1      46.470  35.342  28.487  1.00  0.00     0.198 A 
ATOM     92  F   UNL A   1      45.978  33.837  26.750  1.00  0.00    -0.203 F 
ATOM     93  F   UNL A   1      47.332  34.747  31.956  1.00  0.00    -0.200 F 
ATOM     94  C   UNL A   1      46.814  35.582  29.809  1.00  0.00     0.200 A 
ATOM     95  F   UNL A   1      46.281  36.369  27.649  1.00  0.00    -0.200 F 
ATOM     96  F   UNL A   1      46.937  36.840  30.253  1.00  0.00    -0.200 F 
ENDBRANCH  63  86
ENDBRANCH  37  38
ENDBRANCH  30  32
ENDBRANCH  29  30
ENDBRANCH  28  29
ENDBRANCH  27  28
ENDBRANCH  26  27
ENDBRANCH  25  26
ENDBRANCH  24  25
ENDBRANCH   1  24
TORSDOF 22
ENDMDL
MODEL 2
REMARK VINA RESULT:      -9.3      0.471      7.255
REMARK SMILES O=C(CSc1ccnc(C(=O)OCCOCCOCCOC(=O)c2ccc(-c3c4nc(c(-c5c(F)c(F)c(F)c(F)c5F)c5ccc([nH]5)c(-c5c(F)c(F)c(F)c(F)c5F)c5nc(c(-c6c(F)c(F)c(F)c(F)c6F)c6ccc3[nH]6)C=C5)C=C4)cc2)c1)NCC(F)(F)F
REMARK SMILES IDX 15 1 14 2 13 3 12 4 10 5 11 6 9 7 5 8 6 9 87 10 7 11 8 12
REMARK SMILES IDX 4 13 3 14 2 15 1 16 88 17 89 19 90 20 91 21 92 22 93 23
REMARK SMILES IDX 16 24 17 25 18 26 19 27 20 28 21 29 22 30 23 31 24 32 25 33
REMARK SMILES IDX 86 34 26 35 85 36 27 37 28 38 29 39 79 40 30 41 84 42 78 43
REMARK SMILES IDX 80 44 31 45 83 46 77 47 76 48 32 50 64 51 44 52 63 53 45 54
REMARK SMILES IDX 48 55 62 56 81 57 46 58 47 59 61 61 82 62 49 63 33 64 34 65
REMARK SMILES IDX 42 66 35 67 36 68 40 69 43 70 37 71 38 72 41 73 39 74 65 75
REMARK SMILES IDX 66 76 74 77 67 78 68 79 72 80 75 81 69 82 70 83 73 84 71 85
REMARK SMILES IDX 50 86 51 87 59 88 52 89 53 90 57 91 60 92 54 93 55 94 58 95
REMARK SMILES IDX 56 96
REMARK H PARENT 88 18 80 49 48 60
REMARK Flexibility Score: inf
ROOT
ATOM      1  O   UNL A   1      38.878  21.942  26.596  1.00  0.00    -0.376 OA
ENDROOT
BRANCH   1   2
ATOM      2  C   UNL A   1      38.180  21.816  25.360  1.00  0.00     0.202 C 
BRANCH   2   3
ATOM      3  C   UNL A   1      36.668  21.552  25.382  1.00  0.00     0.261 C 
BRANCH   3   4
ATOM      4  O   UNL A   1      35.874  22.749  25.441  1.00  0.00    -0.459 OA
BRANCH   4   5
ATOM      5  C   UNL A   1      34.706  22.713  24.744  1.00  0.00     0.357 C 
ATOM      6  O   UNL A   1      34.161  21.723  24.287  1.00  0.00    -0.244 OA
BRANCH   5   7
ATOM      7  C   UNL A   1      34.101  24.073  24.737  1.00  0.00     0.149 A 
ATOM      8  C   UNL A   1      33.307  26.022  23.618  1.00  0.00     0.012 A 
ATOM      9  C   UNL A   1      32.996  26.565  24.865  1.00  0.00     0.035 A 
ATOM     10  C   UNL A   1      33.899  24.761  23.550  1.00  0.00     0.051 A 
ATOM     11  C   UNL A   1      33.245  25.808  25.995  1.00  0.00     0.113 A 
ATOM     12  N   UNL A   1      33.786  24.575  25.961  1.00  0.00    -0.249 NA
BRANCH   8  13
ATOM     13  S   UNL A   1      32.962  26.884  22.090  1.00  0.00    -0.116 SA
BRANCH  13  14
ATOM     14  C   UNL A   1      32.427  28.525  22.701  1.00  0.00     0.174 C 
BRANCH  14  15
ATOM     15  C   UNL A   1      30.946  28.773  22.462  1.00  0.00     0.230 C 
ATOM     16  O   UNL A   1      30.106  27.895  22.644  1.00  0.00    -0.274 OA
ATOM     17  N   UNL A   1      30.619  30.050  22.070  1.00  0.00    -0.346 N 
ATOM     18  H   UNL A   1      31.341  30.708  21.949  1.00  0.00     0.163 HD
BRANCH  17  19
ATOM     19  C   UNL A   1      29.236  30.467  21.825  1.00  0.00     0.231 C 
BRANCH  19  20
ATOM     20  C   UNL A   1      28.716  31.522  22.800  1.00  0.00     0.405 C 
ATOM     21  F   UNL A   1      27.375  31.402  22.954  1.00  0.00    -0.169 F 
ATOM     22  F   UNL A   1      29.280  31.378  24.019  1.00  0.00    -0.169 F 
ATOM     23  F   UNL A   1      28.967  32.777  22.370  1.00  0.00    -0.169 F 
ENDBRANCH  19  20
ENDBRANCH  17  19
ENDBRANCH  14  15
ENDBRANCH  13  14
ENDBRANCH   8  13
ENDBRANCH   5   7
ENDBRANCH   4   5
ENDBRANCH   3   4
ENDBRANCH   2   3
ENDBRANCH   1   2
BRANCH   1  24
ATOM     24  C   UNL A   1      40.120  22.639  26.633  1.00  0.00     0.188 C 
BRANCH  24  25
ATOM     25  C   UNL A   1      41.093  22.390  27.806  1.00  0.00     0.188 C 
BRANCH  25  26
ATOM     26  O   UNL A   1      41.924  21.266  27.623  1.00  0.00    -0.376 OA
BRANCH  26  27
ATOM     27  C   UNL A   1      41.573  20.292  26.655  1.00  0.00     0.202 C 
BRANCH  27  28
ATOM     28  C   UNL A   1      42.603  19.371  25.973  1.00  0.00     0.261 C 
BRANCH  28  29
ATOM     29  O   UNL A   1      43.068  19.734  24.670  1.00  0.00    -0.460 OA
BRANCH  29  30
ATOM     30  C   UNL A   1      44.405  19.727  24.473  1.00  0.00     0.338 C 
ATOM     31  O   UNL A   1      45.076  18.845  23.975  1.00  0.00    -0.246 OA
BRANCH  30  32
ATOM     32  C   UNL A   1      44.919  21.065  24.828  1.00  0.00     0.060 A 
ATOM     33  C   UNL A   1      45.396  21.281  26.126  1.00  0.00     0.016 A 
ATOM     34  C   UNL A   1      44.912  22.102  23.891  1.00  0.00     0.016 A 
ATOM     35  C   UNL A   1      45.848  22.547  26.499  1.00  0.00     0.010 A 
ATOM     36  C   UNL A   1      45.349  23.373  24.272  1.00  0.00     0.010 A 
ATOM     37  C   UNL A   1      45.793  23.608  25.585  1.00  0.00    -0.014 A 
BRANCH  37  38
ATOM     38  C   UNL A   1      46.044  24.995  26.045  1.00  0.00     0.031 A 
ATOM     39  C   UNL A   1      44.886  25.805  26.556  1.00  0.00     0.074 A 
ATOM     40  C   UNL A   1      47.278  25.527  26.013  1.00  0.00     0.049 A 
ATOM     41  N   UNL A   1      44.854  27.047  26.967  1.00  0.00    -0.248 NA
ATOM     42  C   UNL A   1      43.586  25.119  26.608  1.00  0.00     0.031 C 
ATOM     43  C   UNL A   1      48.484  24.834  25.569  1.00  0.00     0.029 A 
ATOM     44  N   UNL A   1      47.713  26.784  26.352  1.00  0.00    -0.354 N 
ATOM     45  C   UNL A   1      43.534  27.292  27.320  1.00  0.00     0.074 A 
ATOM     46  C   UNL A   1      42.790  26.081  27.048  1.00  0.00     0.031 C 
ATOM     47  C   UNL A   1      49.524  25.681  25.647  1.00  0.00     0.029 A 
ATOM     48  C   UNL A   1      49.050  26.983  26.116  1.00  0.00     0.049 A 
ATOM     49  H   UNL A   1      47.122  27.477  26.727  1.00  0.00     0.167 HD
ATOM     50  C   UNL A   1      42.992  28.422  27.832  1.00  0.00     0.037 A 
ATOM     51  C   UNL A   1      49.797  28.097  26.244  1.00  0.00     0.037 A 
ATOM     52  C   UNL A   1      43.732  29.629  28.093  1.00  0.00     0.049 A 
ATOM     53  C   UNL A   1      49.159  29.366  26.748  1.00  0.00     0.074 A 
ATOM     54  C   UNL A   1      43.279  30.819  28.634  1.00  0.00     0.029 A 
ATOM     55  N   UNL A   1      45.080  29.803  27.816  1.00  0.00    -0.354 N 
ATOM     56  N   UNL A   1      47.919  29.581  27.116  1.00  0.00    -0.248 NA
ATOM     57  C   UNL A   1      50.027  30.547  26.857  1.00  0.00     0.031 C 
ATOM     58  C   UNL A   1      44.340  31.732  28.634  1.00  0.00     0.029 A 
ATOM     59  C   UNL A   1      45.469  31.092  28.147  1.00  0.00     0.049 A 
ATOM     60  H   UNL A   1      45.673  29.113  27.440  1.00  0.00     0.167 HD
ATOM     61  C   UNL A   1      47.863  30.908  27.523  1.00  0.00     0.074 A 
ATOM     62  C   UNL A   1      49.199  31.447  27.368  1.00  0.00     0.031 C 
ATOM     63  C   UNL A   1      46.803  31.615  27.988  1.00  0.00     0.037 A 
BRANCH  50  64
ATOM     64  C   UNL A   1      41.518  28.411  28.110  1.00  0.00     0.064 A 
ATOM     65  C   UNL A   1      40.584  28.869  27.168  1.00  0.00     0.173 A 
ATOM     66  C   UNL A   1      41.031  27.928  29.335  1.00  0.00     0.173 A 
ATOM     67  F   UNL A   1      40.999  29.355  25.989  1.00  0.00    -0.203 F 
ATOM     68  C   UNL A   1      39.222  28.876  27.455  1.00  0.00     0.198 A 
ATOM     69  C   UNL A   1      39.667  27.910  29.607  1.00  0.00     0.198 A 
ATOM     70  F   UNL A   1      41.881  27.475  30.269  1.00  0.00    -0.203 F 
ATOM     71  F   UNL A   1      38.353  29.372  26.563  1.00  0.00    -0.200 F 
ATOM     72  C   UNL A   1      38.764  28.392  28.671  1.00  0.00     0.200 A 
ATOM     73  F   UNL A   1      39.225  27.431  30.778  1.00  0.00    -0.200 F 
ATOM     74  F   UNL A   1      37.452  28.401  28.947  1.00  0.00    -0.200 F 
ENDBRANCH  50  64
BRANCH  51  75
ATOM     75  C   UNL A   1      51.237  28.063  25.879  1.00  0.00     0.064 A 
ATOM     76  C   UNL A   1      51.658  28.309  24.566  1.00  0.00     0.173 A 
ATOM     77  C   UNL A   1      52.221  27.781  26.838  1.00  0.00     0.173 A 
ATOM     78  F   UNL A   1      50.752  28.553  23.608  1.00  0.00    -0.203 F 
ATOM     79  C   UNL A   1      53.008  28.263  24.222  1.00  0.00     0.198 A 
ATOM     80  C   UNL A   1      53.572  27.760  26.499  1.00  0.00     0.198 A 
ATOM     81  F   UNL A   1      51.870  27.531  28.108  1.00  0.00    -0.203 F 
ATOM     82  F   UNL A   1      53.379  28.459  22.950  1.00  0.00    -0.200 F 
ATOM     83  C   UNL A   1      53.964  27.996  25.191  1.00  0.00     0.200 A 
ATOM     84  F   UNL A   1      54.493  27.508  27.439  1.00  0.00    -0.200 F 
ATOM     85  F   UNL A   1      55.262  27.955  24.859  1.00  0.00    -0.200 F 
ENDBRANCH  51  75
BRANCH  63  86
ATOM     86  C   UNL A   1      47.045  33.041  28.394  1.00  0.00     0.064 A 
ATOM     87  C   UNL A   1      46.827  34.108  27.510  1.00  0.00     0.173 A 
ATOM     88  C   UNL A   1      47.454  33.346  29.702  1.00  0.00     0.173 A 
ATOM     89  F   UNL A   1      46.449  33.870  26.245  1.00  0.00    -0.203 F 
ATOM     90  C   UNL A   1      47.032  35.425  27.913  1.00  0.00     0.198 A 
ATOM     91  C   UNL A   1      47.628  34.665  30.111  1.00  0.00     0.198 A 
ATOM     92  F   UNL A   1      47.668  32.364  30.590  1.00  0.00    -0.203 F 
ATOM     93  F   UNL A   1      46.861  36.426  27.039  1.00  0.00    -0.200 F 
ATOM     94  C   UNL A   1      47.425  35.703  29.214  1.00  0.00     0.200 A 
ATOM     95  F   UNL A   1      47.993  34.932  31.372  1.00  0.00    -0.200 F 
ATOM     96  F   UNL A   1      47.612  36.971  29.602  1.00  0.00    -0.200 F 
ENDBRANCH  63  86
ENDBRANCH  37  38
ENDBRANCH  30  32
ENDBRANCH  29  30
ENDBRANCH  28  29
ENDBRANCH  27  28
ENDBRANCH  26  27
ENDBRANCH  25  26
ENDBRANCH  24  25
ENDBRANCH   1  24
TORSDOF 22
ENDMDL
MODEL 3
REMARK VINA RESULT:      -9.0      5.452     10.076
REMARK SMILES O=C(CSc1ccnc(C(=O)OCCOCCOCCOC(=O)c2ccc(-c3c4nc(c(-c5c(F)c(F)c(F)c(F)c5F)c5ccc([nH]5)c(-c5c(F)c(F)c(F)c(F)c5F)c5nc(c(-c6c(F)c(F)c(F)c(F)c6F)c6ccc3[nH]6)C=C5)C=C4)cc2)c1)NCC(F)(F)F
REMARK SMILES IDX 15 1 14 2 13 3 12 4 10 5 11 6 9 7 5 8 6 9 87 10 7 11 8 12
REMARK SMILES IDX 4 13 3 14 2 15 1 16 88 17 89 19 90 20 91 21 92 22 93 23
REMARK SMILES IDX 16 24 17 25 18 26 19 27 20 28 21 29 22 30 23 31 24 32 25 33
REMARK SMILES IDX 86 34 26 35 85 36 27 37 28 38 29 39 79 40 30 41 84 42 78 43
REMARK SMILES IDX 80 44 31 45 83 46 77 47 76 48 32 50 64 51 44 52 63 53 45 54
REMARK SMILES IDX 48 55 62 56 81 57 46 58 47 59 61 61 82 62 49 63 33 64 34 65
REMARK SMILES IDX 42 66 35 67 36 68 40 69 43 70 37 71 38 72 41 73 39 74 65 75
REMARK SMILES IDX 66 76 74 77 67 78 68 79 72 80 75 81 69 82 70 83 73 84 71 85
REMARK SMILES IDX 50 86 51 87 59 88 52 89 53 90 57 91 60 92 54 93 55 94 58 95
REMARK SMILES IDX 56 96
REMARK H PARENT 88 18 80 49 48 60
REMARK Flexibility Score: inf
ROOT
ATOM      1  O   UNL A   1      37.427  21.482  24.414  1.00  0.00    -0.376 OA
ENDROOT
BRANCH   1   2
ATOM      2  C   UNL A   1      36.028  21.606  24.660  1.00  0.00     0.202 C 
BRANCH   2   3
ATOM      3  C   UNL A   1      35.529  21.645  26.112  1.00  0.00     0.261 C 
BRANCH   3   4
ATOM      4  O   UNL A   1      34.137  21.312  26.252  1.00  0.00    -0.459 OA
BRANCH   4   5
ATOM      5  C   UNL A   1      33.370  22.249  26.873  1.00  0.00     0.357 C 
ATOM      6  O   UNL A   1      33.179  22.355  28.072  1.00  0.00    -0.244 OA
BRANCH   5   7
ATOM      7  C   UNL A   1      32.897  23.236  25.864  1.00  0.00     0.149 A 
ATOM      8  C   UNL A   1      32.845  25.422  24.915  1.00  0.00     0.012 A 
ATOM      9  C   UNL A   1      31.943  24.947  23.963  1.00  0.00     0.035 A 
ATOM     10  C   UNL A   1      33.312  24.559  25.906  1.00  0.00     0.051 A 
ATOM     11  C   UNL A   1      31.578  23.614  24.009  1.00  0.00     0.113 A 
ATOM     12  N   UNL A   1      32.035  22.748  24.932  1.00  0.00    -0.249 NA
BRANCH   8  13
ATOM     13  S   UNL A   1      33.440  27.108  24.907  1.00  0.00    -0.116 SA
BRANCH  13  14
ATOM     14  C   UNL A   1      31.898  28.047  25.213  1.00  0.00     0.174 C 
BRANCH  14  15
ATOM     15  C   UNL A   1      32.025  28.989  26.401  1.00  0.00     0.230 C 
ATOM     16  O   UNL A   1      31.462  28.761  27.468  1.00  0.00    -0.274 OA
ATOM     17  N   UNL A   1      32.839  30.079  26.202  1.00  0.00    -0.346 N 
ATOM     18  H   UNL A   1      33.267  30.198  25.324  1.00  0.00     0.163 HD
BRANCH  17  19
ATOM     19  C   UNL A   1      33.095  31.069  27.252  1.00  0.00     0.231 C 
BRANCH  19  20
ATOM     20  C   UNL A   1      34.441  30.907  27.955  1.00  0.00     0.405 C 
ATOM     21  F   UNL A   1      34.748  29.594  28.090  1.00  0.00    -0.169 F 
ATOM     22  F   UNL A   1      35.433  31.486  27.245  1.00  0.00    -0.169 F 
ATOM     23  F   UNL A   1      34.437  31.454  29.189  1.00  0.00    -0.169 F 
ENDBRANCH  19  20
ENDBRANCH  17  19
ENDBRANCH  14  15
ENDBRANCH  13  14
ENDBRANCH   8  13
ENDBRANCH   5   7
ENDBRANCH   4   5
ENDBRANCH   3   4
ENDBRANCH   2   3
ENDBRANCH   1   2
BRANCH   1  24
ATOM     24  C   UNL A   1      38.153  20.416  25.019  1.00  0.00     0.188 C 
BRANCH  24  25
ATOM     25  C   UNL A   1      39.193  20.734  26.115  1.00  0.00     0.188 C 
BRANCH  25  26
ATOM     26  O   UNL A   1      40.528  20.651  25.671  1.00  0.00    -0.376 OA
BRANCH  26  27
ATOM     27  C   UNL A   1      41.488  21.561  26.180  1.00  0.00     0.202 C 
BRANCH  27  28
ATOM     28  C   UNL A   1      41.118  22.782  27.044  1.00  0.00     0.261 C 
BRANCH  28  29
ATOM     29  O   UNL A   1      40.857  24.021  26.377  1.00  0.00    -0.460 OA
BRANCH  29  30
ATOM     30  C   UNL A   1      39.612  24.533  26.501  1.00  0.00     0.338 C 
ATOM     31  O   UNL A   1      38.581  24.099  26.026  1.00  0.00    -0.246 OA
BRANCH  30  32
ATOM     32  C   UNL A   1      39.680  25.653  27.460  1.00  0.00     0.060 A 
ATOM     33  C   UNL A   1      40.427  26.787  27.120  1.00  0.00     0.016 A 
ATOM     34  C   UNL A   1      39.026  25.575  28.693  1.00  0.00     0.016 A 
ATOM     35  C   UNL A   1      40.541  27.842  28.027  1.00  0.00     0.010 A 
ATOM     36  C   UNL A   1      39.156  26.625  29.606  1.00  0.00     0.010 A 
ATOM     37  C   UNL A   1      39.937  27.750  29.288  1.00  0.00    -0.014 A 
BRANCH  37  38
ATOM     38  C   UNL A   1      40.251  28.752  30.335  1.00  0.00     0.031 A 
ATOM     39  C   UNL A   1      39.292  29.887  30.556  1.00  0.00     0.074 A 
ATOM     40  C   UNL A   1      41.366  28.656  31.079  1.00  0.00     0.049 A 
ATOM     41  N   UNL A   1      39.376  30.902  31.378  1.00  0.00    -0.248 NA
ATOM     42  C   UNL A   1      38.071  29.875  29.734  1.00  0.00     0.031 C 
ATOM     43  C   UNL A   1      42.357  27.588  30.981  1.00  0.00     0.029 A 
ATOM     44  N   UNL A   1      41.855  29.485  32.058  1.00  0.00    -0.354 N 
ATOM     45  C   UNL A   1      38.226  31.650  31.169  1.00  0.00     0.074 A 
ATOM     46  C   UNL A   1      37.473  30.991  30.123  1.00  0.00     0.031 C 
ATOM     47  C   UNL A   1      43.348  27.834  31.855  1.00  0.00     0.029 A 
ATOM     48  C   UNL A   1      43.074  29.092  32.550  1.00  0.00     0.049 A 
ATOM     49  H   UNL A   1      41.377  30.285  32.376  1.00  0.00     0.167 HD
ATOM     50  C   UNL A   1      37.828  32.782  31.798  1.00  0.00     0.037 A 
ATOM     51  C   UNL A   1      43.885  29.693  33.442  1.00  0.00     0.037 A 
ATOM     52  C   UNL A   1      38.582  33.443  32.830  1.00  0.00     0.049 A 
ATOM     53  C   UNL A   1      43.456  30.991  34.078  1.00  0.00     0.074 A 
ATOM     54  C   UNL A   1      38.253  34.580  33.546  1.00  0.00     0.029 A 
ATOM     55  N   UNL A   1      39.826  33.030  33.284  1.00  0.00    -0.354 N 
ATOM     56  N   UNL A   1      42.351  31.674  33.904  1.00  0.00    -0.248 NA
ATOM     57  C   UNL A   1      44.390  31.599  35.037  1.00  0.00     0.031 C 
ATOM     58  C   UNL A   1      39.323  34.888  34.394  1.00  0.00     0.029 A 
ATOM     59  C   UNL A   1      40.294  33.909  34.249  1.00  0.00     0.049 A 
ATOM     60  H   UNL A   1      40.307  32.232  32.967  1.00  0.00     0.167 HD
ATOM     61  C   UNL A   1      42.443  32.775  34.747  1.00  0.00     0.074 A 
ATOM     62  C   UNL A   1      43.709  32.662  35.442  1.00  0.00     0.031 C 
ATOM     63  C   UNL A   1      41.556  33.784  34.933  1.00  0.00     0.037 A 
BRANCH  50  64
ATOM     64  C   UNL A   1      36.530  33.393  31.355  1.00  0.00     0.064 A 
ATOM     65  C   UNL A   1      35.396  33.397  32.181  1.00  0.00     0.173 A 
ATOM     66  C   UNL A   1      36.423  33.988  30.088  1.00  0.00     0.173 A 
ATOM     67  F   UNL A   1      35.442  32.828  33.394  1.00  0.00    -0.203 F 
ATOM     68  C   UNL A   1      34.193  33.944  31.742  1.00  0.00     0.198 A 
ATOM     69  C   UNL A   1      35.227  34.559  29.665  1.00  0.00     0.198 A 
ATOM     70  F   UNL A   1      37.478  34.013  29.261  1.00  0.00    -0.203 F 
ATOM     71  F   UNL A   1      33.107  33.887  32.525  1.00  0.00    -0.200 F 
ATOM     72  C   UNL A   1      34.111  34.529  30.487  1.00  0.00     0.200 A 
ATOM     73  F   UNL A   1      35.152  35.134  28.456  1.00  0.00    -0.200 F 
ATOM     74  F   UNL A   1      32.952  35.054  30.065  1.00  0.00    -0.200 F 
ENDBRANCH  50  64
BRANCH  51  75
ATOM     75  C   UNL A   1      45.193  29.076  33.782  1.00  0.00     0.064 A 
ATOM     76  C   UNL A   1      46.342  29.353  33.030  1.00  0.00     0.173 A 
ATOM     77  C   UNL A   1      45.318  28.192  34.864  1.00  0.00     0.173 A 
ATOM     78  F   UNL A   1      46.266  30.167  31.967  1.00  0.00    -0.203 F 
ATOM     79  C   UNL A   1      47.565  28.762  33.341  1.00  0.00     0.198 A 
ATOM     80  C   UNL A   1      46.546  27.622  35.190  1.00  0.00     0.198 A 
ATOM     81  F   UNL A   1      44.246  27.889  35.611  1.00  0.00    -0.203 F 
ATOM     82  F   UNL A   1      48.639  29.011  32.579  1.00  0.00    -0.200 F 
ATOM     83  C   UNL A   1      47.668  27.903  34.425  1.00  0.00     0.200 A 
ATOM     84  F   UNL A   1      46.642  26.797  36.242  1.00  0.00    -0.200 F 
ATOM     85  F   UNL A   1      48.845  27.337  34.724  1.00  0.00    -0.200 F 
ENDBRANCH  51  75
BRANCH  63  86
ATOM     86  C   UNL A   1      41.905  34.835  35.949  1.00  0.00     0.064 A 
ATOM     87  C   UNL A   1      42.695  35.946  35.621  1.00  0.00     0.173 A 
ATOM     88  C   UNL A   1      41.401  34.752  37.257  1.00  0.00     0.173 A 
ATOM     89  F   UNL A   1      43.213  36.066  34.389  1.00  0.00    -0.203 F 
ATOM     90  C   UNL A   1      42.986  36.924  36.569  1.00  0.00     0.198 A 
ATOM     91  C   UNL A   1      41.668  35.746  38.194  1.00  0.00     0.198 A 
ATOM     92  F   UNL A   1      40.633  33.714  37.621  1.00  0.00    -0.203 F 
ATOM     93  F   UNL A   1      43.779  37.954  36.246  1.00  0.00    -0.200 F 
ATOM     94  C   UNL A   1      42.466  36.826  37.852  1.00  0.00     0.200 A 
ATOM     95  F   UNL A   1      41.153  35.658  39.427  1.00  0.00    -0.200 F 
ATOM     96  F   UNL A   1      42.740  37.772  38.761  1.00  0.00    -0.200 F 
ENDBRANCH  63  86
ENDBRANCH  37  38
ENDBRANCH  30  32
ENDBRANCH  29  30
ENDBRANCH  28  29
ENDBRANCH  27  28
ENDBRANCH  26  27
ENDBRANCH  25  26
ENDBRANCH  24  25
ENDBRANCH   1  24
TORSDOF 22
ENDMDL
