MODEL 1
REMARK VINA RESULT:     -10.7      0.000      0.000
REMARK SMILES C[C@H](Cc1ccc(C2CC2)cc1)C(=O)OCCOCCOCCOC(=O)c1ccc(-c2c3nc(c(-c4c(F)c(F)c(F)c(F)c4F)c4ccc([nH]4)c(-c4c(F)c(F)c(F)c(F)c4F)c4nc(c(-c5c(F)c(F)c(F)c(F)c5F)c5ccc2[nH]5)C=C4)C=C3)cc1
REMARK SMILES IDX 19 1 18 2 17 3 16 4 15 5 13 6 14 7 2 8 1 9 3 10 4 11 5 12
REMARK SMILES IDX 12 13 6 14 11 15 7 16 8 17 9 18 10 19 20 20 21 21 22 22
REMARK SMILES IDX 23 23 24 24 25 25 26 26 27 27 28 28 89 29 29 30 88 31 30 32
REMARK SMILES IDX 31 33 32 34 82 35 33 36 87 37 81 38 83 39 34 40 86 41 80 42
REMARK SMILES IDX 79 43 35 45 67 46 47 47 66 48 48 49 51 50 65 51 84 52 49 53
REMARK SMILES IDX 50 54 64 56 85 57 52 58 36 59 37 60 45 61 38 62 39 63 43 64
REMARK SMILES IDX 46 65 40 66 41 67 44 68 42 69 68 70 69 71 77 72 70 73 71 74
REMARK SMILES IDX 75 75 78 76 72 77 73 78 76 79 74 80 53 81 54 82 62 83 55 84
REMARK SMILES IDX 56 85 60 86 63 87 57 88 58 89 61 90 59 91
REMARK H PARENT 83 44 51 55
REMARK Flexibility Score: inf
ROOT
ATOM      1  C   UNL A   1      43.605  19.312  24.680  1.00  0.00     0.188 C 
ENDROOT
BRANCH   1   2
ATOM      2  O   UNL A   1      42.314  19.258  25.262  1.00  0.00    -0.376 OA
BRANCH   2   3
ATOM      3  C   UNL A   1      41.887  20.350  26.071  1.00  0.00     0.202 C 
BRANCH   3   4
ATOM      4  C   UNL A   1      40.405  20.465  26.485  1.00  0.00     0.261 C 
BRANCH   4   5
ATOM      5  O   UNL A   1      39.761  21.725  26.182  1.00  0.00    -0.463 OA
BRANCH   5   6
ATOM      6  C   UNL A   1      38.552  21.633  25.578  1.00  0.00     0.309 C 
ATOM      7  O   UNL A   1      38.102  20.582  25.125  1.00  0.00    -0.252 OA
BRANCH   6   8
ATOM      8  C   UNL A   1      37.696  22.900  25.612  1.00  0.00     0.100 C 
ATOM      9  C   UNL A   1      38.448  23.927  26.461  1.00  0.00     0.020 C 
BRANCH   8  10
ATOM     10  C   UNL A   1      36.174  22.796  25.892  1.00  0.00     0.050 C 
BRANCH  10  11
ATOM     11  C   UNL A   1      35.220  23.612  25.064  1.00  0.00    -0.047 A 
ATOM     12  C   UNL A   1      34.720  23.133  23.852  1.00  0.00     0.004 A 
ATOM     13  C   UNL A   1      34.803  24.868  25.507  1.00  0.00     0.004 A 
ATOM     14  C   UNL A   1      34.000  23.975  23.008  1.00  0.00     0.004 A 
ATOM     15  C   UNL A   1      34.038  25.688  24.675  1.00  0.00     0.004 A 
ATOM     16  C   UNL A   1      33.691  25.293  23.373  1.00  0.00    -0.045 A 
BRANCH  16  17
ATOM     17  C   UNL A   1      33.057  26.211  22.353  1.00  0.00     0.019 C 
ATOM     18  C   UNL A   1      32.660  25.704  20.994  1.00  0.00     0.009 C 
ATOM     19  C   UNL A   1      31.598  26.099  21.981  1.00  0.00     0.009 C 
ENDBRANCH  16  17
ENDBRANCH  10  11
ENDBRANCH   8  10
ENDBRANCH   6   8
ENDBRANCH   5   6
ENDBRANCH   4   5
ENDBRANCH   3   4
ENDBRANCH   2   3
ENDBRANCH   1   2
BRANCH   1  20
ATOM     20  C   UNL A   1      44.805  18.855  25.514  1.00  0.00     0.188 C 
BRANCH  20  21
ATOM     21  O   UNL A   1      45.821  19.814  25.677  1.00  0.00    -0.376 OA
BRANCH  21  22
ATOM     22  C   UNL A   1      46.042  20.797  24.674  1.00  0.00     0.202 C 
BRANCH  22  23
ATOM     23  C   UNL A   1      46.001  22.310  24.991  1.00  0.00     0.261 C 
BRANCH  23  24
ATOM     24  O   UNL A   1      44.932  22.798  25.820  1.00  0.00    -0.460 OA
BRANCH  24  25
ATOM     25  C   UNL A   1      43.851  23.330  25.201  1.00  0.00     0.338 C 
ATOM     26  O   UNL A   1      43.312  22.916  24.186  1.00  0.00    -0.246 OA
BRANCH  25  27
ATOM     27  C   UNL A   1      43.244  24.317  26.135  1.00  0.00     0.060 A 
ATOM     28  C   UNL A   1      43.557  25.678  25.974  1.00  0.00     0.016 A 
ATOM     29  C   UNL A   1      42.313  23.926  27.098  1.00  0.00     0.016 A 
ATOM     30  C   UNL A   1      42.965  26.643  26.792  1.00  0.00     0.010 A 
ATOM     31  C   UNL A   1      41.743  24.890  27.938  1.00  0.00     0.010 A 
ATOM     32  C   UNL A   1      42.088  26.250  27.810  1.00  0.00    -0.014 A 
BRANCH  32  33
ATOM     33  C   UNL A   1      41.708  27.210  28.880  1.00  0.00     0.031 A 
ATOM     34  C   UNL A   1      42.515  27.202  30.150  1.00  0.00     0.074 A 
ATOM     35  C   UNL A   1      40.685  28.072  28.743  1.00  0.00     0.049 A 
ATOM     36  N   UNL A   1      42.333  27.869  31.262  1.00  0.00    -0.248 NA
ATOM     37  C   UNL A   1      43.684  26.309  30.168  1.00  0.00     0.031 C 
ATOM     38  C   UNL A   1      39.857  28.225  27.551  1.00  0.00     0.029 A 
ATOM     39  N   UNL A   1      40.163  28.979  29.635  1.00  0.00    -0.354 N 
ATOM     40  C   UNL A   1      43.356  27.467  32.112  1.00  0.00     0.074 A 
ATOM     41  C   UNL A   1      44.134  26.476  31.401  1.00  0.00     0.031 C 
ATOM     42  C   UNL A   1      38.917  29.156  27.790  1.00  0.00     0.029 A 
ATOM     43  C   UNL A   1      39.053  29.637  29.165  1.00  0.00     0.049 A 
ATOM     44  H   UNL A   1      40.547  29.140  30.527  1.00  0.00     0.167 HD
ATOM     45  C   UNL A   1      43.626  27.887  33.370  1.00  0.00     0.037 A 
ATOM     46  C   UNL A   1      38.225  30.503  29.786  1.00  0.00     0.037 A 
ATOM     47  C   UNL A   1      42.850  28.869  34.079  1.00  0.00     0.049 A 
ATOM     48  C   UNL A   1      38.494  30.890  31.222  1.00  0.00     0.074 A 
ATOM     49  C   UNL A   1      43.054  29.374  35.352  1.00  0.00     0.029 A 
ATOM     50  N   UNL A   1      41.711  29.486  33.582  1.00  0.00    -0.354 N 
ATOM     51  N   UNL A   1      39.473  30.524  32.013  1.00  0.00    -0.248 NA
ATOM     52  C   UNL A   1      37.536  31.815  31.849  1.00  0.00     0.031 C 
ATOM     53  C   UNL A   1      42.002  30.247  35.650  1.00  0.00     0.029 A 
ATOM     54  C   UNL A   1      41.183  30.342  34.537  1.00  0.00     0.049 A 
ATOM     55  H   UNL A   1      41.334  29.338  32.685  1.00  0.00     0.167 HD
ATOM     56  C   UNL A   1      39.269  31.196  33.214  1.00  0.00     0.074 A 
ATOM     57  C   UNL A   1      38.080  32.003  33.044  1.00  0.00     0.031 C 
ATOM     58  C   UNL A   1      40.002  31.149  34.355  1.00  0.00     0.037 A 
BRANCH  45  59
ATOM     59  C   UNL A   1      44.792  27.255  34.074  1.00  0.00     0.064 A 
ATOM     60  C   UNL A   1      44.643  26.127  34.894  1.00  0.00     0.173 A 
ATOM     61  C   UNL A   1      46.085  27.777  33.909  1.00  0.00     0.173 A 
ATOM     62  F   UNL A   1      43.426  25.597  35.100  1.00  0.00    -0.203 F 
ATOM     63  C   UNL A   1      45.736  25.566  35.548  1.00  0.00     0.198 A 
ATOM     64  C   UNL A   1      47.181  27.191  34.535  1.00  0.00     0.198 A 
ATOM     65  F   UNL A   1      46.287  28.853  33.133  1.00  0.00    -0.203 F 
ATOM     66  F   UNL A   1      45.559  24.524  36.373  1.00  0.00    -0.200 F 
ATOM     67  C   UNL A   1      47.004  26.093  35.362  1.00  0.00     0.200 A 
ATOM     68  F   UNL A   1      48.408  27.695  34.341  1.00  0.00    -0.200 F 
ATOM     69  F   UNL A   1      48.058  25.547  35.988  1.00  0.00    -0.200 F 
ENDBRANCH  45  59
BRANCH  46  70
ATOM     70  C   UNL A   1      37.046  31.056  29.066  1.00  0.00     0.064 A 
ATOM     71  C   UNL A   1      37.016  32.394  28.646  1.00  0.00     0.173 A 
ATOM     72  C   UNL A   1      35.911  30.270  28.815  1.00  0.00     0.173 A 
ATOM     73  F   UNL A   1      38.061  33.196  28.893  1.00  0.00    -0.203 F 
ATOM     74  C   UNL A   1      35.891  32.928  28.019  1.00  0.00     0.198 A 
ATOM     75  C   UNL A   1      34.800  30.796  28.158  1.00  0.00     0.198 A 
ATOM     76  F   UNL A   1      35.882  28.988  29.204  1.00  0.00    -0.203 F 
ATOM     77  F   UNL A   1      35.869  34.224  27.677  1.00  0.00    -0.200 F 
ATOM     78  C   UNL A   1      34.788  32.126  27.768  1.00  0.00     0.200 A 
ATOM     79  F   UNL A   1      33.739  30.016  27.911  1.00  0.00    -0.200 F 
ATOM     80  F   UNL A   1      33.707  32.640  27.163  1.00  0.00    -0.200 F 
ENDBRANCH  46  70
BRANCH  58  81
ATOM     81  C   UNL A   1      39.573  32.027  35.498  1.00  0.00     0.064 A 
ATOM     82  C   UNL A   1      38.627  31.607  36.445  1.00  0.00     0.173 A 
ATOM     83  C   UNL A   1      40.156  33.293  35.676  1.00  0.00     0.173 A 
ATOM     84  F   UNL A   1      38.031  30.412  36.317  1.00  0.00    -0.203 F 
ATOM     85  C   UNL A   1      38.259  32.429  37.507  1.00  0.00     0.198 A 
ATOM     86  C   UNL A   1      39.813  34.098  36.759  1.00  0.00     0.198 A 
ATOM     87  F   UNL A   1      41.075  33.743  34.808  1.00  0.00    -0.203 F 
ATOM     88  F   UNL A   1      37.315  32.026  38.367  1.00  0.00    -0.200 F 
ATOM     89  C   UNL A   1      38.858  33.669  37.668  1.00  0.00     0.200 A 
ATOM     90  F   UNL A   1      40.408  35.288  36.923  1.00  0.00    -0.200 F 
ATOM     91  F   UNL A   1      38.511  34.455  38.696  1.00  0.00    -0.200 F 
ENDBRANCH  58  81
ENDBRANCH  32  33
ENDBRANCH  25  27
ENDBRANCH  24  25
ENDBRANCH  23  24
ENDBRANCH  22  23
ENDBRANCH  21  22
ENDBRANCH  20  21
ENDBRANCH   1  20
TORSDOF 20
ENDMDL
MODEL 2
REMARK VINA RESULT:     -10.5      3.880      6.578
REMARK SMILES C[C@H](Cc1ccc(C2CC2)cc1)C(=O)OCCOCCOCCOC(=O)c1ccc(-c2c3nc(c(-c4c(F)c(F)c(F)c(F)c4F)c4ccc([nH]4)c(-c4c(F)c(F)c(F)c(F)c4F)c4nc(c(-c5c(F)c(F)c(F)c(F)c5F)c5ccc2[nH]5)C=C4)C=C3)cc1
REMARK SMILES IDX 19 1 18 2 17 3 16 4 15 5 13 6 14 7 2 8 1 9 3 10 4 11 5 12
REMARK SMILES IDX 12 13 6 14 11 15 7 16 8 17 9 18 10 19 20 20 21 21 22 22
REMARK SMILES IDX 23 23 24 24 25 25 26 26 27 27 28 28 89 29 29 30 88 31 30 32
REMARK SMILES IDX 31 33 32 34 82 35 33 36 87 37 81 38 83 39 34 40 86 41 80 42
REMARK SMILES IDX 79 43 35 45 67 46 47 47 66 48 48 49 51 50 65 51 84 52 49 53
REMARK SMILES IDX 50 54 64 56 85 57 52 58 36 59 37 60 45 61 38 62 39 63 43 64
REMARK SMILES IDX 46 65 40 66 41 67 44 68 42 69 68 70 69 71 77 72 70 73 71 74
REMARK SMILES IDX 75 75 78 76 72 77 73 78 76 79 74 80 53 81 54 82 62 83 55 84
REMARK SMILES IDX 56 85 60 86 63 87 57 88 58 89 61 90 59 91
REMARK H PARENT 83 44 51 55
REMARK Flexibility Score: inf
ROOT
ATOM      1  C   UNL A   1      43.797  18.243  26.065  1.00  0.00     0.188 C 
ENDROOT
BRANCH   1   2
ATOM      2  O   UNL A   1      44.400  18.453  24.800  1.00  0.00    -0.376 OA
BRANCH   2   3
ATOM      3  C   UNL A   1      45.618  19.192  24.742  1.00  0.00     0.202 C 
BRANCH   3   4
ATOM      4  C   UNL A   1      45.595  20.678  24.330  1.00  0.00     0.261 C 
BRANCH   4   5
ATOM      5  O   UNL A   1      45.503  21.633  25.413  1.00  0.00    -0.463 OA
BRANCH   5   6
ATOM      6  C   UNL A   1      45.485  22.936  25.045  1.00  0.00     0.309 C 
ATOM      7  O   UNL A   1      45.652  23.312  23.885  1.00  0.00    -0.252 OA
BRANCH   6   8
ATOM      8  C   UNL A   1      45.098  23.930  26.141  1.00  0.00     0.100 C 
ATOM      9  C   UNL A   1      44.627  25.207  25.442  1.00  0.00     0.020 C 
BRANCH   8  10
ATOM     10  C   UNL A   1      46.042  24.149  27.353  1.00  0.00     0.050 C 
BRANCH  10  11
ATOM     11  C   UNL A   1      45.447  24.286  28.727  1.00  0.00    -0.047 A 
ATOM     12  C   UNL A   1      45.938  25.219  29.640  1.00  0.00     0.004 A 
ATOM     13  C   UNL A   1      44.370  23.483  29.109  1.00  0.00     0.004 A 
ATOM     14  C   UNL A   1      45.510  25.198  30.965  1.00  0.00     0.004 A 
ATOM     15  C   UNL A   1      43.912  23.503  30.427  1.00  0.00     0.004 A 
ATOM     16  C   UNL A   1      44.528  24.299  31.407  1.00  0.00    -0.045 A 
BRANCH  16  17
ATOM     17  C   UNL A   1      44.225  24.206  32.884  1.00  0.00     0.019 C 
ATOM     18  C   UNL A   1      43.643  22.952  33.478  1.00  0.00     0.009 C 
ATOM     19  C   UNL A   1      45.053  23.352  33.813  1.00  0.00     0.009 C 
ENDBRANCH  16  17
ENDBRANCH  10  11
ENDBRANCH   8  10
ENDBRANCH   6   8
ENDBRANCH   5   6
ENDBRANCH   4   5
ENDBRANCH   3   4
ENDBRANCH   2   3
ENDBRANCH   1   2
BRANCH   1  20
ATOM     20  C   UNL A   1      42.339  18.666  26.261  1.00  0.00     0.188 C 
BRANCH  20  21
ATOM     21  O   UNL A   1      41.943  19.804  25.537  1.00  0.00    -0.376 OA
BRANCH  21  22
ATOM     22  C   UNL A   1      42.217  21.104  26.044  1.00  0.00     0.202 C 
BRANCH  22  23
ATOM     23  C   UNL A   1      41.707  21.564  27.429  1.00  0.00     0.261 C 
BRANCH  23  24
ATOM     24  O   UNL A   1      40.294  21.774  27.594  1.00  0.00    -0.460 OA
BRANCH  24  25
ATOM     25  C   UNL A   1      39.662  22.541  26.674  1.00  0.00     0.338 C 
ATOM     26  O   UNL A   1      38.904  22.155  25.797  1.00  0.00    -0.246 OA
BRANCH  25  27
ATOM     27  C   UNL A   1      39.801  23.959  27.105  1.00  0.00     0.060 A 
ATOM     28  C   UNL A   1      40.331  24.890  26.194  1.00  0.00     0.016 A 
ATOM     29  C   UNL A   1      39.337  24.388  28.349  1.00  0.00     0.016 A 
ATOM     30  C   UNL A   1      40.425  26.242  26.537  1.00  0.00     0.010 A 
ATOM     31  C   UNL A   1      39.460  25.737  28.703  1.00  0.00     0.010 A 
ATOM     32  C   UNL A   1      40.032  26.665  27.812  1.00  0.00    -0.014 A 
BRANCH  32  33
ATOM     33  C   UNL A   1      40.421  28.014  28.302  1.00  0.00     0.031 A 
ATOM     34  C   UNL A   1      41.879  28.272  28.569  1.00  0.00     0.074 A 
ATOM     35  C   UNL A   1      39.520  28.993  28.505  1.00  0.00     0.049 A 
ATOM     36  N   UNL A   1      42.463  29.325  29.084  1.00  0.00    -0.248 NA
ATOM     37  C   UNL A   1      42.804  27.186  28.209  1.00  0.00     0.031 C 
ATOM     38  C   UNL A   1      38.089  28.898  28.238  1.00  0.00     0.029 A 
ATOM     39  N   UNL A   1      39.688  30.264  29.002  1.00  0.00    -0.354 N 
ATOM     40  C   UNL A   1      43.818  29.020  29.122  1.00  0.00     0.074 A 
ATOM     41  C   UNL A   1      43.966  27.676  28.608  1.00  0.00     0.031 C 
ATOM     42  C   UNL A   1      37.503  30.057  28.591  1.00  0.00     0.029 A 
ATOM     43  C   UNL A   1      38.513  30.959  29.145  1.00  0.00     0.049 A 
ATOM     44  H   UNL A   1      40.568  30.641  29.234  1.00  0.00     0.167 HD
ATOM     45  C   UNL A   1      44.848  29.792  29.542  1.00  0.00     0.037 A 
ATOM     46  C   UNL A   1      38.277  32.171  29.690  1.00  0.00     0.037 A 
ATOM     47  C   UNL A   1      44.701  31.127  30.057  1.00  0.00     0.049 A 
ATOM     48  C   UNL A   1      39.431  32.979  30.236  1.00  0.00     0.074 A 
ATOM     49  C   UNL A   1      45.686  31.996  30.492  1.00  0.00     0.029 A 
ATOM     50  N   UNL A   1      43.489  31.782  30.220  1.00  0.00    -0.354 N 
ATOM     51  N   UNL A   1      40.712  32.696  30.250  1.00  0.00    -0.248 NA
ATOM     52  C   UNL A   1      39.102  34.278  30.843  1.00  0.00     0.031 C 
ATOM     53  C   UNL A   1      45.066  33.151  30.980  1.00  0.00     0.029 A 
ATOM     54  C   UNL A   1      43.700  33.032  30.781  1.00  0.00     0.049 A 
ATOM     55  H   UNL A   1      42.610  31.415  29.974  1.00  0.00     0.167 HD
ATOM     56  C   UNL A   1      41.341  33.791  30.833  1.00  0.00     0.074 A 
ATOM     57  C   UNL A   1      40.304  34.749  31.148  1.00  0.00     0.031 C 
ATOM     58  C   UNL A   1      42.661  33.985  31.084  1.00  0.00     0.037 A 
BRANCH  45  59
ATOM     59  C   UNL A   1      46.224  29.192  29.496  1.00  0.00     0.064 A 
ATOM     60  C   UNL A   1      47.012  29.228  28.336  1.00  0.00     0.173 A 
ATOM     61  C   UNL A   1      46.770  28.588  30.639  1.00  0.00     0.173 A 
ATOM     62  F   UNL A   1      46.531  29.779  27.209  1.00  0.00    -0.203 F 
ATOM     63  C   UNL A   1      48.279  28.653  28.312  1.00  0.00     0.198 A 
ATOM     64  C   UNL A   1      48.051  28.047  30.622  1.00  0.00     0.198 A 
ATOM     65  F   UNL A   1      46.062  28.529  31.777  1.00  0.00    -0.203 F 
ATOM     66  F   UNL A   1      48.989  28.647  27.175  1.00  0.00    -0.200 F 
ATOM     67  C   UNL A   1      48.801  28.069  29.457  1.00  0.00     0.200 A 
ATOM     68  F   UNL A   1      48.559  27.497  31.735  1.00  0.00    -0.200 F 
ATOM     69  F   UNL A   1      50.025  27.522  29.434  1.00  0.00    -0.200 F 
ENDBRANCH  45  59
BRANCH  46  70
ATOM     70  C   UNL A   1      36.887  32.698  29.768  1.00  0.00     0.064 A 
ATOM     71  C   UNL A   1      36.338  33.451  28.721  1.00  0.00     0.173 A 
ATOM     72  C   UNL A   1      36.093  32.490  30.906  1.00  0.00     0.173 A 
ATOM     73  F   UNL A   1      37.068  33.707  27.626  1.00  0.00    -0.203 F 
ATOM     74  C   UNL A   1      35.055  33.990  28.815  1.00  0.00     0.198 A 
ATOM     75  C   UNL A   1      34.798  33.001  30.985  1.00  0.00     0.198 A 
ATOM     76  F   UNL A   1      36.572  31.785  31.941  1.00  0.00    -0.203 F 
ATOM     77  F   UNL A   1      34.577  34.752  27.822  1.00  0.00    -0.200 F 
ATOM     78  C   UNL A   1      34.284  33.757  29.945  1.00  0.00     0.200 A 
ATOM     79  F   UNL A   1      34.054  32.767  32.075  1.00  0.00    -0.200 F 
ATOM     80  F   UNL A   1      33.051  34.274  30.034  1.00  0.00    -0.200 F 
ENDBRANCH  46  70
BRANCH  58  81
ATOM     81  C   UNL A   1      43.072  35.300  31.687  1.00  0.00     0.064 A 
ATOM     82  C   UNL A   1      42.946  35.559  33.060  1.00  0.00     0.173 A 
ATOM     83  C   UNL A   1      43.647  36.299  30.884  1.00  0.00     0.173 A 
ATOM     84  F   UNL A   1      42.393  34.645  33.871  1.00  0.00    -0.203 F 
ATOM     85  C   UNL A   1      43.351  36.777  33.601  1.00  0.00     0.198 A 
ATOM     86  C   UNL A   1      44.084  37.501  31.434  1.00  0.00     0.198 A 
ATOM     87  F   UNL A   1      43.802  36.102  29.566  1.00  0.00    -0.203 F 
ATOM     88  F   UNL A   1      43.173  37.021  34.906  1.00  0.00    -0.200 F 
ATOM     89  C   UNL A   1      43.927  37.743  32.789  1.00  0.00     0.200 A 
ATOM     90  F   UNL A   1      44.659  38.424  30.650  1.00  0.00    -0.200 F 
ATOM     91  F   UNL A   1      44.327  38.910  33.313  1.00  0.00    -0.200 F 
ENDBRANCH  58  81
ENDBRANCH  32  33
ENDBRANCH  25  27
ENDBRANCH  24  25
ENDBRANCH  23  24
ENDBRANCH  22  23
ENDBRANCH  21  22
ENDBRANCH  20  21
ENDBRANCH   1  20
TORSDOF 20
ENDMDL
MODEL 3
REMARK VINA RESULT:     -10.2      4.015      7.075
REMARK SMILES C[C@H](Cc1ccc(C2CC2)cc1)C(=O)OCCOCCOCCOC(=O)c1ccc(-c2c3nc(c(-c4c(F)c(F)c(F)c(F)c4F)c4ccc([nH]4)c(-c4c(F)c(F)c(F)c(F)c4F)c4nc(c(-c5c(F)c(F)c(F)c(F)c5F)c5ccc2[nH]5)C=C4)C=C3)cc1
REMARK SMILES IDX 19 1 18 2 17 3 16 4 15 5 13 6 14 7 2 8 1 9 3 10 4 11 5 12
REMARK SMILES IDX 12 13 6 14 11 15 7 16 8 17 9 18 10 19 20 20 21 21 22 22
REMARK SMILES IDX 23 23 24 24 25 25 26 26 27 27 28 28 89 29 29 30 88 31 30 32
REMARK SMILES IDX 31 33 32 34 82 35 33 36 87 37 81 38 83 39 34 40 86 41 80 42
REMARK SMILES IDX 79 43 35 45 67 46 47 47 66 48 48 49 51 50 65 51 84 52 49 53
REMARK SMILES IDX 50 54 64 56 85 57 52 58 36 59 37 60 45 61 38 62 39 63 43 64
REMARK SMILES IDX 46 65 40 66 41 67 44 68 42 69 68 70 69 71 77 72 70 73 71 74
REMARK SMILES IDX 75 75 78 76 72 77 73 78 76 79 74 80 53 81 54 82 62 83 55 84
REMARK SMILES IDX 56 85 60 86 63 87 57 88 58 89 61 90 59 91
REMARK H PARENT 83 44 51 55
REMARK Flexibility Score: inf
ROOT
ATOM      1  C   UNL A   1      43.696  18.354  26.035  1.00  0.00     0.188 C 
ENDROOT
BRANCH   1   2
ATOM      2  O   UNL A   1      44.465  18.768  24.918  1.00  0.00    -0.376 OA
BRANCH   2   3
ATOM      3  C   UNL A   1      45.835  19.105  25.124  1.00  0.00     0.202 C 
BRANCH   3   4
ATOM      4  C   UNL A   1      46.345  20.509  24.740  1.00  0.00     0.261 C 
BRANCH   4   5
ATOM      5  O   UNL A   1      45.948  21.587  25.620  1.00  0.00    -0.463 OA
BRANCH   5   6
ATOM      6  C   UNL A   1      45.483  22.701  25.006  1.00  0.00     0.309 C 
ATOM      7  O   UNL A   1      45.552  22.881  23.791  1.00  0.00    -0.252 OA
BRANCH   6   8
ATOM      8  C   UNL A   1      44.725  23.684  25.900  1.00  0.00     0.100 C 
ATOM      9  C   UNL A   1      43.856  24.546  24.982  1.00  0.00     0.020 C 
BRANCH   8  10
ATOM     10  C   UNL A   1      45.480  24.455  27.014  1.00  0.00     0.050 C 
BRANCH  10  11
ATOM     11  C   UNL A   1      46.865  24.971  26.735  1.00  0.00    -0.047 A 
ATOM     12  C   UNL A   1      47.116  25.832  25.667  1.00  0.00     0.004 A 
ATOM     13  C   UNL A   1      47.929  24.605  27.561  1.00  0.00     0.004 A 
ATOM     14  C   UNL A   1      48.426  26.141  25.307  1.00  0.00     0.004 A 
ATOM     15  C   UNL A   1      49.236  24.960  27.222  1.00  0.00     0.004 A 
ATOM     16  C   UNL A   1      49.522  25.665  26.040  1.00  0.00    -0.045 A 
BRANCH  16  17
ATOM     17  C   UNL A   1      50.918  25.889  25.509  1.00  0.00     0.019 C 
ATOM     18  C   UNL A   1      51.341  27.234  24.984  1.00  0.00     0.009 C 
ATOM     19  C   UNL A   1      51.934  26.713  26.263  1.00  0.00     0.009 C 
ENDBRANCH  16  17
ENDBRANCH  10  11
ENDBRANCH   8  10
ENDBRANCH   6   8
ENDBRANCH   5   6
ENDBRANCH   4   5
ENDBRANCH   3   4
ENDBRANCH   2   3
ENDBRANCH   1   2
BRANCH   1  20
ATOM     20  C   UNL A   1      42.226  18.772  26.110  1.00  0.00     0.188 C 
BRANCH  20  21
ATOM     21  O   UNL A   1      41.915  19.985  25.470  1.00  0.00    -0.376 OA
BRANCH  21  22
ATOM     22  C   UNL A   1      42.195  21.223  26.110  1.00  0.00     0.202 C 
BRANCH  22  23
ATOM     23  C   UNL A   1      41.625  21.568  27.505  1.00  0.00     0.261 C 
BRANCH  23  24
ATOM     24  O   UNL A   1      40.205  21.764  27.625  1.00  0.00    -0.460 OA
BRANCH  24  25
ATOM     25  C   UNL A   1      39.598  22.541  26.696  1.00  0.00     0.338 C 
ATOM     26  O   UNL A   1      38.840  22.168  25.814  1.00  0.00    -0.246 OA
BRANCH  25  27
ATOM     27  C   UNL A   1      39.763  23.957  27.124  1.00  0.00     0.060 A 
ATOM     28  C   UNL A   1      40.318  24.874  26.214  1.00  0.00     0.016 A 
ATOM     29  C   UNL A   1      39.299  24.400  28.363  1.00  0.00     0.016 A 
ATOM     30  C   UNL A   1      40.438  26.224  26.553  1.00  0.00     0.010 A 
ATOM     31  C   UNL A   1      39.447  25.747  28.714  1.00  0.00     0.010 A 
ATOM     32  C   UNL A   1      40.044  26.660  27.824  1.00  0.00    -0.014 A 
BRANCH  32  33
ATOM     33  C   UNL A   1      40.457  28.003  28.313  1.00  0.00     0.031 A 
ATOM     34  C   UNL A   1      41.923  28.246  28.544  1.00  0.00     0.074 A 
ATOM     35  C   UNL A   1      39.570  28.988  28.544  1.00  0.00     0.049 A 
ATOM     36  N   UNL A   1      42.529  29.290  29.051  1.00  0.00    -0.248 NA
ATOM     37  C   UNL A   1      42.829  27.154  28.155  1.00  0.00     0.031 C 
ATOM     38  C   UNL A   1      38.132  28.907  28.313  1.00  0.00     0.029 A 
ATOM     39  N   UNL A   1      39.762  30.254  29.044  1.00  0.00    -0.354 N 
ATOM     40  C   UNL A   1      43.882  28.974  29.053  1.00  0.00     0.074 A 
ATOM     41  C   UNL A   1      44.006  27.632  28.528  1.00  0.00     0.031 C 
ATOM     42  C   UNL A   1      37.565  30.069  28.687  1.00  0.00     0.029 A 
ATOM     43  C   UNL A   1      38.596  30.959  29.221  1.00  0.00     0.049 A 
ATOM     44  H   UNL A   1      40.650  30.622  29.257  1.00  0.00     0.167 HD
ATOM     45  C   UNL A   1      44.929  29.734  29.452  1.00  0.00     0.037 A 
ATOM     46  C   UNL A   1      38.386  32.169  29.779  1.00  0.00     0.037 A 
ATOM     47  C   UNL A   1      44.807  31.067  29.979  1.00  0.00     0.049 A 
ATOM     48  C   UNL A   1      39.560  32.963  30.301  1.00  0.00     0.074 A 
ATOM     49  C   UNL A   1      45.810  31.925  30.395  1.00  0.00     0.029 A 
ATOM     50  N   UNL A   1      43.605  31.732  30.177  1.00  0.00    -0.354 N 
ATOM     51  N   UNL A   1      40.838  32.669  30.281  1.00  0.00    -0.248 NA
ATOM     52  C   UNL A   1      39.258  34.261  30.925  1.00  0.00     0.031 C 
ATOM     53  C   UNL A   1      45.213  33.082  30.905  1.00  0.00     0.029 A 
ATOM     54  C   UNL A   1      43.841  32.976  30.740  1.00  0.00     0.049 A 
ATOM     55  H   UNL A   1      42.717  31.373  29.950  1.00  0.00     0.167 HD
ATOM     56  C   UNL A   1      41.491  33.755  30.855  1.00  0.00     0.074 A 
ATOM     57  C   UNL A   1      40.470  34.720  31.202  1.00  0.00     0.031 C 
ATOM     58  C   UNL A   1      42.818  33.935  31.074  1.00  0.00     0.037 A 
BRANCH  45  59
ATOM     59  C   UNL A   1      46.298  29.123  29.368  1.00  0.00     0.064 A 
ATOM     60  C   UNL A   1      46.855  28.398  30.433  1.00  0.00     0.173 A 
ATOM     61  C   UNL A   1      47.058  29.248  28.195  1.00  0.00     0.173 A 
ATOM     62  F   UNL A   1      46.178  28.261  31.584  1.00  0.00    -0.203 F 
ATOM     63  C   UNL A   1      48.132  27.851  30.338  1.00  0.00     0.198 A 
ATOM     64  C   UNL A   1      48.319  28.670  28.090  1.00  0.00     0.198 A 
ATOM     65  F   UNL A   1      46.573  29.928  27.144  1.00  0.00    -0.203 F 
ATOM     66  F   UNL A   1      48.666  27.214  31.389  1.00  0.00    -0.200 F 
ATOM     67  C   UNL A   1      48.859  27.981  29.165  1.00  0.00     0.200 A 
ATOM     68  F   UNL A   1      49.014  28.785  26.950  1.00  0.00    -0.200 F 
ATOM     69  F   UNL A   1      50.086  27.449  29.073  1.00  0.00    -0.200 F 
ENDBRANCH  45  59
BRANCH  46  70
ATOM     70  C   UNL A   1      37.002  32.707  29.896  1.00  0.00     0.064 A 
ATOM     71  C   UNL A   1      36.428  33.457  28.860  1.00  0.00     0.173 A 
ATOM     72  C   UNL A   1      36.242  32.514  31.058  1.00  0.00     0.173 A 
ATOM     73  F   UNL A   1      37.126  33.699  27.742  1.00  0.00    -0.203 F 
ATOM     74  C   UNL A   1      35.153  34.006  28.989  1.00  0.00     0.198 A 
ATOM     75  C   UNL A   1      34.954  33.035  31.173  1.00  0.00     0.198 A 
ATOM     76  F   UNL A   1      36.747  31.813  32.084  1.00  0.00    -0.203 F 
ATOM     77  F   UNL A   1      34.650  34.765  28.005  1.00  0.00    -0.200 F 
ATOM     78  C   UNL A   1      34.414  33.788  30.143  1.00  0.00     0.200 A 
ATOM     79  F   UNL A   1      34.241  32.815  32.287  1.00  0.00    -0.200 F 
ATOM     80  F   UNL A   1      33.188  34.316  30.266  1.00  0.00    -0.200 F 
ENDBRANCH  46  70
BRANCH  58  81
ATOM     81  C   UNL A   1      43.256  35.243  31.675  1.00  0.00     0.064 A 
ATOM     82  C   UNL A   1      43.655  36.329  30.882  1.00  0.00     0.173 A 
ATOM     83  C   UNL A   1      43.227  35.427  33.068  1.00  0.00     0.173 A 
ATOM     84  F   UNL A   1      43.712  36.205  29.548  1.00  0.00    -0.203 F 
ATOM     85  C   UNL A   1      44.038  37.537  31.459  1.00  0.00     0.198 A 
ATOM     86  C   UNL A   1      43.576  36.648  33.639  1.00  0.00     0.198 A 
ATOM     87  F   UNL A   1      42.843  34.427  33.876  1.00  0.00    -0.203 F 
ATOM     88  F   UNL A   1      44.465  38.542  30.684  1.00  0.00    -0.200 F 
ATOM     89  C   UNL A   1      43.990  37.699  32.836  1.00  0.00     0.200 A 
ATOM     90  F   UNL A   1      43.508  36.807  34.969  1.00  0.00    -0.200 F 
ATOM     91  F   UNL A   1      44.348  38.866  33.389  1.00  0.00    -0.200 F 
ENDBRANCH  58  81
ENDBRANCH  32  33
ENDBRANCH  25  27
ENDBRANCH  24  25
ENDBRANCH  23  24
ENDBRANCH  22  23
ENDBRANCH  21  22
ENDBRANCH  20  21
ENDBRANCH   1  20
TORSDOF 20
ENDMDL
