MODEL 1
REMARK VINA RESULT:     -11.4      0.000      0.000
REMARK SMILES CC(C)[C@H](NC(=O)c1cc2cc(Cl)ccc2n1C)C(=O)N[C@@H](C(=O)OCCOCCOCCOC(=O)c1ccc(-c2c3nc(c(-c4c(F)c(F)c(F)c(F)c4F)c4ccc([nH]4)c(-c4c(F)c(F)c(F)c(F)c4F)c4nc(c(-c5c(F)c(F)c(F)c(F)c5F)c5ccc2[nH]5)C=C4)C=C3)cc1)c1ccccc1
REMARK SMILES IDX 29 1 28 2 27 3 26 4 25 5 23 6 24 7 22 8 21 9 19 10 20 11
REMARK SMILES IDX 4 13 2 14 1 15 3 16 5 17 6 18 7 20 8 21 9 22 17 23 10 24
REMARK SMILES IDX 16 25 18 26 11 27 15 28 12 29 14 30 13 31 100 32 101 33
REMARK SMILES IDX 105 34 102 35 104 36 103 37 30 38 31 39 32 40 33 41 34 42
REMARK SMILES IDX 35 43 36 44 37 45 38 46 99 47 39 48 98 49 40 50 41 51 42 52
REMARK SMILES IDX 92 53 43 54 97 55 91 56 93 57 44 58 96 59 90 60 89 61 45 63
REMARK SMILES IDX 77 64 57 65 76 66 58 67 61 68 75 69 94 70 59 71 60 72 74 74
REMARK SMILES IDX 95 75 62 76 46 77 47 78 55 79 48 80 49 81 53 82 56 83 50 84
REMARK SMILES IDX 51 85 54 86 52 87 78 88 79 89 87 90 80 91 81 92 85 93 88 94
REMARK SMILES IDX 82 95 83 96 86 97 84 98 63 99 64 100 72 101 65 102 66 103
REMARK SMILES IDX 70 104 73 105 67 106 68 107 71 108 69 109
REMARK H PARENT 21 12 5 19 93 62 61 73
REMARK Flexibility Score: inf
ROOT
ATOM      1  C   UNL A   1      36.149  30.587  27.688  1.00  0.00     0.188 C 
ENDROOT
BRANCH   1   2
ATOM      2  O   UNL A   1      34.827  30.099  27.633  1.00  0.00    -0.376 OA
BRANCH   2   3
ATOM      3  C   UNL A   1      34.744  28.775  27.089  1.00  0.00     0.202 C 
BRANCH   3   4
ATOM      4  C   UNL A   1      33.955  28.642  25.758  1.00  0.00     0.261 C 
BRANCH   4   5
ATOM      5  O   UNL A   1      32.489  28.593  25.906  1.00  0.00    -0.461 OA
BRANCH   5   6
ATOM      6  C   UNL A   1      31.956  27.347  26.125  1.00  0.00     0.333 C 
ATOM      7  O   UNL A   1      31.355  27.088  27.172  1.00  0.00    -0.249 OA
BRANCH   6   8
ATOM      8  C   UNL A   1      32.020  26.263  24.886  1.00  0.00     0.223 C 
BRANCH   8   9
ATOM      9  N   UNL A   1      33.028  25.617  23.985  1.00  0.00    -0.337 N 
ATOM     10  C   UNL A   1      33.990  24.683  24.042  1.00  0.00     0.243 C 
ATOM     11  O   UNL A   1      34.577  24.307  23.022  1.00  0.00    -0.273 OA
ATOM     12  H   UNL A   1      32.966  25.992  23.077  1.00  0.00     0.164 HD
BRANCH  10  13
ATOM     13  C   UNL A   1      34.132  24.000  25.317  1.00  0.00     0.174 C 
BRANCH  13  14
ATOM     14  C   UNL A   1      35.479  23.125  25.063  1.00  0.00     0.015 C 
ATOM     15  C   UNL A   1      36.848  23.703  25.397  1.00  0.00     0.010 C 
ATOM     16  C   UNL A   1      35.518  21.631  25.556  1.00  0.00     0.010 C 
ENDBRANCH  13  14
BRANCH  13  17
ATOM     17  N   UNL A   1      32.744  23.517  25.505  1.00  0.00    -0.339 N 
ATOM     18  C   UNL A   1      31.934  22.629  24.720  1.00  0.00     0.268 C 
ATOM     19  H   UNL A   1      32.299  23.867  26.311  1.00  0.00     0.164 HD
ATOM     20  O   UNL A   1      30.787  23.098  24.625  1.00  0.00    -0.268 OA
BRANCH  18  21
ATOM     21  C   UNL A   1      32.123  21.143  24.312  1.00  0.00     0.107 A 
ATOM     22  C   UNL A   1      32.148  20.170  25.340  1.00  0.00     0.042 A 
ATOM     23  N   UNL A   1      32.289  20.306  23.169  1.00  0.00    -0.340 N 
ATOM     24  C   UNL A   1      32.551  18.889  24.874  1.00  0.00     0.002 A 
ATOM     25  C   UNL A   1      32.804  19.041  23.526  1.00  0.00     0.048 A 
ATOM     26  C   UNL A   1      31.777  20.411  21.813  1.00  0.00     0.150 C 
ATOM     27  C   UNL A   1      32.740  17.616  25.454  1.00  0.00     0.030 A 
ATOM     28  C   UNL A   1      33.359  17.984  22.755  1.00  0.00     0.028 A 
ATOM     29  C   UNL A   1      33.293  16.574  24.694  1.00  0.00     0.041 A 
ATOM     30  C   UNL A   1      33.663  16.772  23.374  1.00  0.00     0.023 A 
ATOM     31  Cl  UNL A   1      33.512  15.018  25.403  1.00  0.00    -0.084 Cl
ENDBRANCH  18  21
ENDBRANCH  13  17
ENDBRANCH  10  13
ENDBRANCH   8   9
BRANCH   8  32
ATOM     32  C   UNL A   1      30.675  26.263  23.988  1.00  0.00    -0.014 A 
ATOM     33  C   UNL A   1      31.111  26.079  22.748  1.00  0.00     0.006 A 
ATOM     34  C   UNL A   1      29.833  27.400  23.985  1.00  0.00     0.006 A 
ATOM     35  C   UNL A   1      31.732  27.224  22.345  1.00  0.00     0.000 A 
ATOM     36  C   UNL A   1      30.311  28.626  23.541  1.00  0.00     0.000 A 
ATOM     37  C   UNL A   1      31.442  28.530  22.797  1.00  0.00     0.000 A 
ENDBRANCH   8  32
ENDBRANCH   6   8
ENDBRANCH   5   6
ENDBRANCH   4   5
ENDBRANCH   3   4
ENDBRANCH   2   3
ENDBRANCH   1   2
BRANCH   1  38
ATOM     38  C   UNL A   1      36.405  31.483  28.886  1.00  0.00     0.188 C 
BRANCH  38  39
ATOM     39  O   UNL A   1      36.015  31.084  30.191  1.00  0.00    -0.376 OA
BRANCH  39  40
ATOM     40  C   UNL A   1      37.150  30.666  30.961  1.00  0.00     0.202 C 
BRANCH  40  41
ATOM     41  C   UNL A   1      38.565  31.102  30.464  1.00  0.00     0.261 C 
BRANCH  41  42
ATOM     42  O   UNL A   1      39.138  32.230  31.193  1.00  0.00    -0.460 OA
BRANCH  42  43
ATOM     43  C   UNL A   1      38.921  33.472  30.686  1.00  0.00     0.338 C 
ATOM     44  O   UNL A   1      37.870  34.090  30.813  1.00  0.00    -0.246 OA
BRANCH  43  45
ATOM     45  C   UNL A   1      40.182  34.135  30.149  1.00  0.00     0.060 A 
ATOM     46  C   UNL A   1      41.466  34.164  30.734  1.00  0.00     0.016 A 
ATOM     47  C   UNL A   1      39.997  34.935  29.028  1.00  0.00     0.016 A 
ATOM     48  C   UNL A   1      42.474  35.112  30.318  1.00  0.00     0.010 A 
ATOM     49  C   UNL A   1      41.005  35.816  28.594  1.00  0.00     0.010 A 
ATOM     50  C   UNL A   1      42.227  36.036  29.289  1.00  0.00    -0.014 A 
BRANCH  50  51
ATOM     51  C   UNL A   1      43.166  37.138  28.688  1.00  0.00     0.031 A 
ATOM     52  C   UNL A   1      44.367  36.386  28.388  1.00  0.00     0.074 A 
ATOM     53  C   UNL A   1      43.203  38.493  28.321  1.00  0.00     0.049 A 
ATOM     54  N   UNL A   1      45.210  36.144  29.336  1.00  0.00    -0.248 NA
ATOM     55  C   UNL A   1      44.566  35.606  27.166  1.00  0.00     0.031 C 
ATOM     56  C   UNL A   1      42.262  39.615  28.577  1.00  0.00     0.029 A 
ATOM     57  N   UNL A   1      44.038  39.162  27.404  1.00  0.00    -0.354 N 
ATOM     58  C   UNL A   1      46.272  35.656  28.642  1.00  0.00     0.074 A 
ATOM     59  C   UNL A   1      45.706  34.982  27.497  1.00  0.00     0.031 C 
ATOM     60  C   UNL A   1      42.303  40.571  27.630  1.00  0.00     0.029 A 
ATOM     61  C   UNL A   1      43.477  40.329  26.816  1.00  0.00     0.049 A 
ATOM     62  H   UNL A   1      44.944  38.844  27.185  1.00  0.00     0.167 HD
ATOM     63  C   UNL A   1      47.417  36.385  28.728  1.00  0.00     0.037 A 
ATOM     64  C   UNL A   1      44.025  41.434  26.233  1.00  0.00     0.037 A 
ATOM     65  C   UNL A   1      47.347  37.413  29.765  1.00  0.00     0.049 A 
ATOM     66  C   UNL A   1      45.213  41.776  27.041  1.00  0.00     0.074 A 
ATOM     67  C   UNL A   1      47.078  37.419  31.122  1.00  0.00     0.029 A 
ATOM     68  N   UNL A   1      47.144  38.704  29.331  1.00  0.00    -0.354 N 
ATOM     69  N   UNL A   1      45.173  42.120  28.302  1.00  0.00    -0.248 NA
ATOM     70  C   UNL A   1      46.500  41.312  26.548  1.00  0.00     0.031 C 
ATOM     71  C   UNL A   1      46.638  38.729  31.468  1.00  0.00     0.029 A 
ATOM     72  C   UNL A   1      46.693  39.534  30.337  1.00  0.00     0.049 A 
ATOM     73  H   UNL A   1      47.303  39.002  28.406  1.00  0.00     0.167 HD
ATOM     74  C   UNL A   1      46.254  41.449  28.844  1.00  0.00     0.074 A 
ATOM     75  C   UNL A   1      47.110  41.109  27.716  1.00  0.00     0.031 C 
ATOM     76  C   UNL A   1      46.172  40.867  30.075  1.00  0.00     0.037 A 
BRANCH  63  77
ATOM     77  C   UNL A   1      48.407  36.452  27.617  1.00  0.00     0.064 A 
ATOM     78  C   UNL A   1      49.712  36.023  27.881  1.00  0.00     0.173 A 
ATOM     79  C   UNL A   1      48.188  37.082  26.373  1.00  0.00     0.173 A 
ATOM     80  F   UNL A   1      50.016  35.476  29.067  1.00  0.00    -0.203 F 
ATOM     81  C   UNL A   1      50.733  36.208  26.954  1.00  0.00     0.198 A 
ATOM     82  C   UNL A   1      49.193  37.202  25.423  1.00  0.00     0.198 A 
ATOM     83  F   UNL A   1      47.040  37.702  26.075  1.00  0.00    -0.203 F 
ATOM     84  F   UNL A   1      51.986  35.871  27.279  1.00  0.00    -0.200 F 
ATOM     85  C   UNL A   1      50.470  36.781  25.720  1.00  0.00     0.200 A 
ATOM     86  F   UNL A   1      48.923  37.793  24.251  1.00  0.00    -0.200 F 
ATOM     87  F   UNL A   1      51.458  36.980  24.839  1.00  0.00    -0.200 F 
ENDBRANCH  63  77
BRANCH  64  88
ATOM     88  C   UNL A   1      43.462  42.277  25.130  1.00  0.00     0.064 A 
ATOM     89  C   UNL A   1      44.050  43.484  24.704  1.00  0.00     0.173 A 
ATOM     90  C   UNL A   1      42.425  41.785  24.309  1.00  0.00     0.173 A 
ATOM     91  F   UNL A   1      45.047  44.035  25.409  1.00  0.00    -0.203 F 
ATOM     92  C   UNL A   1      43.660  44.126  23.516  1.00  0.00     0.198 A 
ATOM     93  C   UNL A   1      42.037  42.425  23.123  1.00  0.00     0.198 A 
ATOM     94  F   UNL A   1      41.807  40.635  24.616  1.00  0.00    -0.203 F 
ATOM     95  F   UNL A   1      44.285  45.246  23.122  1.00  0.00    -0.200 F 
ATOM     96  C   UNL A   1      42.667  43.586  22.717  1.00  0.00     0.200 A 
ATOM     97  F   UNL A   1      41.084  41.881  22.352  1.00  0.00    -0.200 F 
ATOM     98  F   UNL A   1      42.340  44.163  21.550  1.00  0.00    -0.200 F 
ENDBRANCH  64  88
BRANCH  76  99
ATOM     99  C   UNL A   1      45.385  41.567  31.152  1.00  0.00     0.064 A 
ATOM    100  C   UNL A   1      44.180  41.107  31.685  1.00  0.00     0.173 A 
ATOM    101  C   UNL A   1      45.928  42.705  31.760  1.00  0.00     0.173 A 
ATOM    102  F   UNL A   1      43.620  40.005  31.210  1.00  0.00    -0.203 F 
ATOM    103  C   UNL A   1      43.534  41.730  32.751  1.00  0.00     0.198 A 
ATOM    104  C   UNL A   1      45.298  43.331  32.841  1.00  0.00     0.198 A 
ATOM    105  F   UNL A   1      47.102  43.194  31.330  1.00  0.00    -0.203 F 
ATOM    106  F   UNL A   1      42.387  41.222  33.230  1.00  0.00    -0.200 F 
ATOM    107  C   UNL A   1      44.097  42.845  33.334  1.00  0.00     0.200 A 
ATOM    108  F   UNL A   1      45.873  44.389  33.427  1.00  0.00    -0.200 F 
ATOM    109  F   UNL A   1      43.500  43.434  34.379  1.00  0.00    -0.200 F 
ENDBRANCH  76  99
ENDBRANCH  50  51
ENDBRANCH  43  45
ENDBRANCH  42  43
ENDBRANCH  41  42
ENDBRANCH  40  41
ENDBRANCH  39  40
ENDBRANCH  38  39
ENDBRANCH   1  38
TORSDOF 23
ENDMDL
MODEL 2
REMARK VINA RESULT:     -11.1      9.917     15.243
REMARK SMILES CC(C)[C@H](NC(=O)c1cc2cc(Cl)ccc2n1C)C(=O)N[C@@H](C(=O)OCCOCCOCCOC(=O)c1ccc(-c2c3nc(c(-c4c(F)c(F)c(F)c(F)c4F)c4ccc([nH]4)c(-c4c(F)c(F)c(F)c(F)c4F)c4nc(c(-c5c(F)c(F)c(F)c(F)c5F)c5ccc2[nH]5)C=C4)C=C3)cc1)c1ccccc1
REMARK SMILES IDX 29 1 28 2 27 3 26 4 25 5 23 6 24 7 22 8 21 9 19 10 20 11
REMARK SMILES IDX 4 13 2 14 1 15 3 16 5 17 6 18 7 20 8 21 9 22 17 23 10 24
REMARK SMILES IDX 16 25 18 26 11 27 15 28 12 29 14 30 13 31 100 32 101 33
REMARK SMILES IDX 105 34 102 35 104 36 103 37 30 38 31 39 32 40 33 41 34 42
REMARK SMILES IDX 35 43 36 44 37 45 38 46 99 47 39 48 98 49 40 50 41 51 42 52
REMARK SMILES IDX 92 53 43 54 97 55 91 56 93 57 44 58 96 59 90 60 89 61 45 63
REMARK SMILES IDX 77 64 57 65 76 66 58 67 61 68 75 69 94 70 59 71 60 72 74 74
REMARK SMILES IDX 95 75 62 76 46 77 47 78 55 79 48 80 49 81 53 82 56 83 50 84
REMARK SMILES IDX 51 85 54 86 52 87 78 88 79 89 87 90 80 91 81 92 85 93 88 94
REMARK SMILES IDX 82 95 83 96 86 97 84 98 63 99 64 100 72 101 65 102 66 103
REMARK SMILES IDX 70 104 73 105 67 106 68 107 71 108 69 109
REMARK H PARENT 21 12 5 19 93 62 61 73
REMARK Flexibility Score: inf
ROOT
ATOM      1  C   UNL A   1      44.966  31.022  40.922  1.00  0.00     0.188 C 
ENDROOT
BRANCH   1   2
ATOM      2  O   UNL A   1      43.811  30.945  40.116  1.00  0.00    -0.376 OA
BRANCH   2   3
ATOM      3  C   UNL A   1      43.686  32.054  39.215  1.00  0.00     0.202 C 
BRANCH   3   4
ATOM      4  C   UNL A   1      42.267  32.288  38.628  1.00  0.00     0.261 C 
BRANCH   4   5
ATOM      5  O   UNL A   1      42.033  33.641  38.090  1.00  0.00    -0.461 OA
BRANCH   5   6
ATOM      6  C   UNL A   1      41.243  33.704  36.968  1.00  0.00     0.333 C 
ATOM      7  O   UNL A   1      41.632  34.283  35.949  1.00  0.00    -0.249 OA
BRANCH   6   8
ATOM      8  C   UNL A   1      39.830  32.858  36.983  1.00  0.00     0.223 C 
BRANCH   8   9
ATOM      9  N   UNL A   1      39.218  31.646  36.350  1.00  0.00    -0.337 N 
ATOM     10  C   UNL A   1      38.766  31.246  35.152  1.00  0.00     0.243 C 
ATOM     11  O   UNL A   1      38.413  30.077  34.959  1.00  0.00    -0.273 OA
ATOM     12  H   UNL A   1      39.116  30.926  37.014  1.00  0.00     0.164 HD
BRANCH  10  13
ATOM     13  C   UNL A   1      38.929  32.197  34.065  1.00  0.00     0.174 C 
BRANCH  13  14
ATOM     14  C   UNL A   1      37.508  32.986  34.114  1.00  0.00     0.015 C 
ATOM     15  C   UNL A   1      37.451  34.486  33.854  1.00  0.00     0.010 C 
ATOM     16  C   UNL A   1      36.274  32.376  33.350  1.00  0.00     0.010 C 
ENDBRANCH  13  14
BRANCH  13  17
ATOM     17  N   UNL A   1      39.443  31.293  33.009  1.00  0.00    -0.339 N 
ATOM     18  C   UNL A   1      40.708  30.629  32.862  1.00  0.00     0.268 C 
ATOM     19  H   UNL A   1      38.805  31.116  32.280  1.00  0.00     0.164 HD
ATOM     20  O   UNL A   1      41.089  30.731  31.683  1.00  0.00    -0.268 OA
BRANCH  18  21
ATOM     21  C   UNL A   1      41.441  29.589  33.751  1.00  0.00     0.107 A 
ATOM     22  C   UNL A   1      41.568  28.268  33.260  1.00  0.00     0.042 A 
ATOM     23  N   UNL A   1      42.111  29.458  35.003  1.00  0.00    -0.340 N 
ATOM     24  C   UNL A   1      42.046  27.360  34.244  1.00  0.00     0.002 A 
ATOM     25  C   UNL A   1      42.217  28.104  35.392  1.00  0.00     0.048 A 
ATOM     26  C   UNL A   1      42.918  30.392  35.770  1.00  0.00     0.150 C 
ATOM     27  C   UNL A   1      42.343  25.980  34.286  1.00  0.00     0.030 A 
ATOM     28  C   UNL A   1      42.564  27.490  36.626  1.00  0.00     0.028 A 
ATOM     29  C   UNL A   1      42.679  25.373  35.506  1.00  0.00     0.041 A 
ATOM     30  C   UNL A   1      42.725  26.106  36.680  1.00  0.00     0.023 A 
ATOM     31  Cl  UNL A   1      43.051  23.690  35.552  1.00  0.00    -0.084 Cl
ENDBRANCH  18  21
ENDBRANCH  13  17
ENDBRANCH  10  13
ENDBRANCH   8   9
BRANCH   8  32
ATOM     32  C   UNL A   1      38.547  33.793  37.294  1.00  0.00    -0.014 A 
ATOM     33  C   UNL A   1      38.960  34.602  38.261  1.00  0.00     0.006 A 
ATOM     34  C   UNL A   1      37.333  33.201  37.715  1.00  0.00     0.006 A 
ATOM     35  C   UNL A   1      39.071  33.870  39.405  1.00  0.00     0.000 A 
ATOM     36  C   UNL A   1      37.279  32.475  38.897  1.00  0.00     0.000 A 
ATOM     37  C   UNL A   1      38.323  32.718  39.731  1.00  0.00     0.000 A 
ENDBRANCH   8  32
ENDBRANCH   6   8
ENDBRANCH   5   6
ENDBRANCH   4   5
ENDBRANCH   3   4
ENDBRANCH   2   3
ENDBRANCH   1   2
BRANCH   1  38
ATOM     38  C   UNL A   1      45.939  29.883  40.678  1.00  0.00     0.188 C 
BRANCH  38  39
ATOM     39  O   UNL A   1      45.566  28.537  40.929  1.00  0.00    -0.376 OA
BRANCH  39  40
ATOM     40  C   UNL A   1      45.620  27.757  39.727  1.00  0.00     0.202 C 
BRANCH  40  41
ATOM     41  C   UNL A   1      46.237  28.423  38.457  1.00  0.00     0.261 C 
BRANCH  41  42
ATOM     42  O   UNL A   1      45.822  27.814  37.196  1.00  0.00    -0.460 OA
BRANCH  42  43
ATOM     43  C   UNL A   1      46.703  26.970  36.594  1.00  0.00     0.338 C 
ATOM     44  O   UNL A   1      47.701  26.517  37.141  1.00  0.00    -0.246 OA
BRANCH  43  45
ATOM     45  C   UNL A   1      46.213  26.443  35.253  1.00  0.00     0.060 A 
ATOM     46  C   UNL A   1      46.283  25.122  34.758  1.00  0.00     0.016 A 
ATOM     47  C   UNL A   1      45.790  27.415  34.354  1.00  0.00     0.016 A 
ATOM     48  C   UNL A   1      46.117  24.821  33.355  1.00  0.00     0.010 A 
ATOM     49  C   UNL A   1      45.576  27.103  32.999  1.00  0.00     0.010 A 
ATOM     50  C   UNL A   1      45.852  25.834  32.418  1.00  0.00    -0.014 A 
BRANCH  50  51
ATOM     51  C   UNL A   1      45.640  25.730  30.868  1.00  0.00     0.031 A 
ATOM     52  C   UNL A   1      46.805  26.420  30.354  1.00  0.00     0.074 A 
ATOM     53  C   UNL A   1      44.791  25.184  29.893  1.00  0.00     0.049 A 
ATOM     54  N   UNL A   1      46.797  27.710  30.298  1.00  0.00    -0.248 NA
ATOM     55  C   UNL A   1      48.118  25.799  30.176  1.00  0.00     0.031 C 
ATOM     56  C   UNL A   1      43.453  24.542  29.990  1.00  0.00     0.029 A 
ATOM     57  N   UNL A   1      45.044  24.873  28.541  1.00  0.00    -0.354 N 
ATOM     58  C   UNL A   1      47.913  27.961  29.562  1.00  0.00     0.074 A 
ATOM     59  C   UNL A   1      48.833  26.896  29.887  1.00  0.00     0.031 C 
ATOM     60  C   UNL A   1      43.218  23.651  29.010  1.00  0.00     0.029 A 
ATOM     61  C   UNL A   1      44.244  23.827  28.003  1.00  0.00     0.049 A 
ATOM     62  H   UNL A   1      45.724  25.344  28.009  1.00  0.00     0.167 HD
ATOM     63  C   UNL A   1      47.706  28.583  28.371  1.00  0.00     0.037 A 
ATOM     64  C   UNL A   1      43.882  23.492  26.731  1.00  0.00     0.037 A 
ATOM     65  C   UNL A   1      46.342  29.092  28.237  1.00  0.00     0.049 A 
ATOM     66  C   UNL A   1      43.616  24.766  26.033  1.00  0.00     0.074 A 
ATOM     67  C   UNL A   1      45.536  29.939  28.976  1.00  0.00     0.029 A 
ATOM     68  N   UNL A   1      45.493  28.358  27.438  1.00  0.00    -0.354 N 
ATOM     69  N   UNL A   1      42.678  25.611  26.373  1.00  0.00    -0.248 NA
ATOM     70  C   UNL A   1      44.688  25.303  25.209  1.00  0.00     0.031 C 
ATOM     71  C   UNL A   1      44.183  29.638  28.650  1.00  0.00     0.029 A 
ATOM     72  C   UNL A   1      44.165  28.650  27.674  1.00  0.00     0.049 A 
ATOM     73  H   UNL A   1      45.800  27.700  26.774  1.00  0.00     0.167 HD
ATOM     74  C   UNL A   1      43.299  26.840  26.239  1.00  0.00     0.074 A 
ATOM     75  C   UNL A   1      44.453  26.604  25.382  1.00  0.00     0.031 C 
ATOM     76  C   UNL A   1      43.082  27.837  27.143  1.00  0.00     0.037 A 
BRANCH  63  77
ATOM     77  C   UNL A   1      48.582  28.354  27.188  1.00  0.00     0.064 A 
ATOM     78  C   UNL A   1      48.435  27.150  26.492  1.00  0.00     0.173 A 
ATOM     79  C   UNL A   1      49.675  29.169  26.818  1.00  0.00     0.173 A 
ATOM     80  F   UNL A   1      47.464  26.290  26.829  1.00  0.00    -0.203 F 
ATOM     81  C   UNL A   1      49.323  26.787  25.484  1.00  0.00     0.198 A 
ATOM     82  C   UNL A   1      50.516  28.836  25.766  1.00  0.00     0.198 A 
ATOM     83  F   UNL A   1      50.037  30.247  27.523  1.00  0.00    -0.203 F 
ATOM     84  F   UNL A   1      49.207  25.586  24.906  1.00  0.00    -0.200 F 
ATOM     85  C   UNL A   1      50.352  27.636  25.110  1.00  0.00     0.200 A 
ATOM     86  F   UNL A   1      51.526  29.657  25.446  1.00  0.00    -0.200 F 
ATOM     87  F   UNL A   1      51.218  27.275  24.156  1.00  0.00    -0.200 F 
ENDBRANCH  63  77
BRANCH  64  88
ATOM     88  C   UNL A   1      43.603  22.130  26.174  1.00  0.00     0.064 A 
ATOM     89  C   UNL A   1      44.605  21.287  25.656  1.00  0.00     0.173 A 
ATOM     90  C   UNL A   1      42.335  21.532  26.344  1.00  0.00     0.173 A 
ATOM     91  F   UNL A   1      45.846  21.754  25.462  1.00  0.00    -0.203 F 
ATOM     92  C   UNL A   1      44.368  19.929  25.375  1.00  0.00     0.198 A 
ATOM     93  C   UNL A   1      42.100  20.178  26.064  1.00  0.00     0.198 A 
ATOM     94  F   UNL A   1      41.314  22.243  26.843  1.00  0.00    -0.203 F 
ATOM     95  F   UNL A   1      45.367  19.151  24.933  1.00  0.00    -0.200 F 
ATOM     96  C   UNL A   1      43.121  19.373  25.596  1.00  0.00     0.200 A 
ATOM     97  F   UNL A   1      40.890  19.650  26.298  1.00  0.00    -0.200 F 
ATOM     98  F   UNL A   1      42.911  18.063  25.390  1.00  0.00    -0.200 F 
ENDBRANCH  64  88
BRANCH  76  99
ATOM     99  C   UNL A   1      41.699  28.000  27.718  1.00  0.00     0.064 A 
ATOM    100  C   UNL A   1      41.316  27.596  28.998  1.00  0.00     0.173 A 
ATOM    101  C   UNL A   1      40.734  28.700  26.983  1.00  0.00     0.173 A 
ATOM    102  F   UNL A   1      42.179  26.977  29.787  1.00  0.00    -0.203 F 
ATOM    103  C   UNL A   1      40.054  27.856  29.530  1.00  0.00     0.198 A 
ATOM    104  C   UNL A   1      39.470  28.981  27.512  1.00  0.00     0.198 A 
ATOM    105  F   UNL A   1      41.032  29.153  25.755  1.00  0.00    -0.203 F 
ATOM    106  F   UNL A   1      39.757  27.458  30.777  1.00  0.00    -0.200 F 
ATOM    107  C   UNL A   1      39.128  28.554  28.785  1.00  0.00     0.200 A 
ATOM    108  F   UNL A   1      38.592  29.695  26.796  1.00  0.00    -0.200 F 
ATOM    109  F   UNL A   1      37.923  28.835  29.299  1.00  0.00    -0.200 F 
ENDBRANCH  76  99
ENDBRANCH  50  51
ENDBRANCH  43  45
ENDBRANCH  42  43
ENDBRANCH  41  42
ENDBRANCH  40  41
ENDBRANCH  39  40
ENDBRANCH  38  39
ENDBRANCH   1  38
TORSDOF 23
ENDMDL
MODEL 3
REMARK VINA RESULT:     -11.0      8.363     13.227
REMARK SMILES CC(C)[C@H](NC(=O)c1cc2cc(Cl)ccc2n1C)C(=O)N[C@@H](C(=O)OCCOCCOCCOC(=O)c1ccc(-c2c3nc(c(-c4c(F)c(F)c(F)c(F)c4F)c4ccc([nH]4)c(-c4c(F)c(F)c(F)c(F)c4F)c4nc(c(-c5c(F)c(F)c(F)c(F)c5F)c5ccc2[nH]5)C=C4)C=C3)cc1)c1ccccc1
REMARK SMILES IDX 29 1 28 2 27 3 26 4 25 5 23 6 24 7 22 8 21 9 19 10 20 11
REMARK SMILES IDX 4 13 2 14 1 15 3 16 5 17 6 18 7 20 8 21 9 22 17 23 10 24
REMARK SMILES IDX 16 25 18 26 11 27 15 28 12 29 14 30 13 31 100 32 101 33
REMARK SMILES IDX 105 34 102 35 104 36 103 37 30 38 31 39 32 40 33 41 34 42
REMARK SMILES IDX 35 43 36 44 37 45 38 46 99 47 39 48 98 49 40 50 41 51 42 52
REMARK SMILES IDX 92 53 43 54 97 55 91 56 93 57 44 58 96 59 90 60 89 61 45 63
REMARK SMILES IDX 77 64 57 65 76 66 58 67 61 68 75 69 94 70 59 71 60 72 74 74
REMARK SMILES IDX 95 75 62 76 46 77 47 78 55 79 48 80 49 81 53 82 56 83 50 84
REMARK SMILES IDX 51 85 54 86 52 87 78 88 79 89 87 90 80 91 81 92 85 93 88 94
REMARK SMILES IDX 82 95 83 96 86 97 84 98 63 99 64 100 72 101 65 102 66 103
REMARK SMILES IDX 70 104 73 105 67 106 68 107 71 108 69 109
REMARK H PARENT 21 12 5 19 93 62 61 73
REMARK Flexibility Score: inf
ROOT
ATOM      1  C   UNL A   1      46.160  30.640  27.524  1.00  0.00     0.188 C 
ENDROOT
BRANCH   1   2
ATOM      2  O   UNL A   1      44.805  30.871  27.202  1.00  0.00    -0.376 OA
BRANCH   2   3
ATOM      3  C   UNL A   1      43.926  29.877  27.745  1.00  0.00     0.202 C 
BRANCH   3   4
ATOM      4  C   UNL A   1      43.114  29.057  26.705  1.00  0.00     0.261 C 
BRANCH   4   5
ATOM      5  O   UNL A   1      43.390  27.609  26.704  1.00  0.00    -0.461 OA
BRANCH   5   6
ATOM      6  C   UNL A   1      42.645  26.864  25.823  1.00  0.00     0.333 C 
ATOM      7  O   UNL A   1      41.988  27.406  24.930  1.00  0.00    -0.249 OA
BRANCH   6   8
ATOM      8  C   UNL A   1      42.779  25.224  25.910  1.00  0.00     0.223 C 
BRANCH   8   9
ATOM      9  N   UNL A   1      43.649  24.120  25.392  1.00  0.00    -0.337 N 
ATOM     10  C   UNL A   1      44.952  23.810  25.306  1.00  0.00     0.243 C 
ATOM     11  O   UNL A   1      45.320  22.705  24.894  1.00  0.00    -0.273 OA
ATOM     12  H   UNL A   1      43.099  23.407  24.995  1.00  0.00     0.164 HD
BRANCH  10  13
ATOM     13  C   UNL A   1      45.868  24.754  25.924  1.00  0.00     0.174 C 
BRANCH  13  14
ATOM     14  C   UNL A   1      45.385  24.700  27.476  1.00  0.00     0.015 C 
ATOM     15  C   UNL A   1      45.576  23.432  28.298  1.00  0.00     0.010 C 
ATOM     16  C   UNL A   1      45.772  25.888  28.433  1.00  0.00     0.010 C 
ENDBRANCH  13  14
BRANCH  13  17
ATOM     17  N   UNL A   1      45.762  25.879  24.967  1.00  0.00    -0.339 N 
ATOM     18  C   UNL A   1      46.652  26.969  24.682  1.00  0.00     0.268 C 
ATOM     19  H   UNL A   1      44.935  25.880  24.431  1.00  0.00     0.164 HD
ATOM     20  O   UNL A   1      45.994  28.019  24.581  1.00  0.00    -0.268 OA
BRANCH  18  21
ATOM     21  C   UNL A   1      48.115  27.003  24.163  1.00  0.00     0.107 A 
ATOM     22  C   UNL A   1      49.102  26.319  24.913  1.00  0.00     0.042 A 
ATOM     23  N   UNL A   1      48.916  27.513  23.099  1.00  0.00    -0.340 N 
ATOM     24  C   UNL A   1      50.423  26.609  24.475  1.00  0.00     0.002 A 
ATOM     25  C   UNL A   1      50.287  27.505  23.435  1.00  0.00     0.048 A 
ATOM     26  C   UNL A   1      48.619  27.754  21.697  1.00  0.00     0.150 C 
ATOM     27  C   UNL A   1      51.724  26.213  24.857  1.00  0.00     0.030 A 
ATOM     28  C   UNL A   1      51.421  28.118  22.836  1.00  0.00     0.028 A 
ATOM     29  C   UNL A   1      52.842  26.824  24.270  1.00  0.00     0.041 A 
ATOM     30  C   UNL A   1      52.695  27.816  23.315  1.00  0.00     0.023 A 
ATOM     31  Cl  UNL A   1      54.428  26.331  24.731  1.00  0.00    -0.084 Cl
ENDBRANCH  18  21
ENDBRANCH  13  17
ENDBRANCH  10  13
ENDBRANCH   8   9
BRANCH   8  32
ATOM     32  C   UNL A   1      41.351  24.493  26.123  1.00  0.00    -0.014 A 
ATOM     33  C   UNL A   1      40.782  25.170  27.112  1.00  0.00     0.006 A 
ATOM     34  C   UNL A   1      41.309  23.120  26.459  1.00  0.00     0.006 A 
ATOM     35  C   UNL A   1      41.441  24.864  28.266  1.00  0.00     0.000 A 
ATOM     36  C   UNL A   1      41.886  22.668  27.638  1.00  0.00     0.000 A 
ATOM     37  C   UNL A   1      42.113  23.654  28.543  1.00  0.00     0.000 A 
ENDBRANCH   8  32
ENDBRANCH   6   8
ENDBRANCH   5   6
ENDBRANCH   4   5
ENDBRANCH   3   4
ENDBRANCH   2   3
ENDBRANCH   1   2
BRANCH   1  38
ATOM     38  C   UNL A   1      47.099  31.670  26.923  1.00  0.00     0.188 C 
BRANCH  38  39
ATOM     39  O   UNL A   1      46.595  32.799  26.227  1.00  0.00    -0.376 OA
BRANCH  39  40
ATOM     40  C   UNL A   1      47.576  33.842  26.163  1.00  0.00     0.202 C 
BRANCH  40  41
ATOM     41  C   UNL A   1      48.300  34.240  27.488  1.00  0.00     0.261 C 
BRANCH  41  42
ATOM     42  O   UNL A   1      47.404  34.470  28.619  1.00  0.00    -0.460 OA
BRANCH  42  43
ATOM     43  C   UNL A   1      46.757  35.665  28.666  1.00  0.00     0.338 C 
ATOM     44  O   UNL A   1      47.177  36.693  28.149  1.00  0.00    -0.246 OA
BRANCH  43  45
ATOM     45  C   UNL A   1      45.339  35.562  29.212  1.00  0.00     0.060 A 
ATOM     46  C   UNL A   1      44.574  36.568  29.841  1.00  0.00     0.016 A 
ATOM     47  C   UNL A   1      44.804  34.280  29.228  1.00  0.00     0.016 A 
ATOM     48  C   UNL A   1      43.402  36.258  30.626  1.00  0.00     0.010 A 
ATOM     49  C   UNL A   1      43.629  33.996  29.950  1.00  0.00     0.010 A 
ATOM     50  C   UNL A   1      42.955  34.935  30.778  1.00  0.00    -0.014 A 
BRANCH  50  51
ATOM     51  C   UNL A   1      41.723  34.382  31.576  1.00  0.00     0.031 A 
ATOM     52  C   UNL A   1      42.195  34.437  32.944  1.00  0.00     0.074 A 
ATOM     53  C   UNL A   1      40.400  33.940  31.418  1.00  0.00     0.049 A 
ATOM     54  N   UNL A   1      42.946  33.486  33.388  1.00  0.00    -0.248 NA
ATOM     55  C   UNL A   1      42.150  35.636  33.783  1.00  0.00     0.031 C 
ATOM     56  C   UNL A   1      39.602  33.610  30.208  1.00  0.00     0.029 A 
ATOM     57  N   UNL A   1      39.344  33.886  32.351  1.00  0.00    -0.354 N 
ATOM     58  C   UNL A   1      42.975  33.756  34.720  1.00  0.00     0.074 A 
ATOM     59  C   UNL A   1      42.872  35.193  34.822  1.00  0.00     0.031 C 
ATOM     60  C   UNL A   1      38.280  33.792  30.375  1.00  0.00     0.029 A 
ATOM     61  C   UNL A   1      38.039  33.974  31.792  1.00  0.00     0.049 A 
ATOM     62  H   UNL A   1      39.499  33.795  33.319  1.00  0.00     0.167 HD
ATOM     63  C   UNL A   1      42.445  32.799  35.527  1.00  0.00     0.037 A 
ATOM     64  C   UNL A   1      36.809  33.585  32.233  1.00  0.00     0.037 A 
ATOM     65  C   UNL A   1      42.182  31.550  34.814  1.00  0.00     0.049 A 
ATOM     66  C   UNL A   1      37.007  32.280  32.896  1.00  0.00     0.074 A 
ATOM     67  C   UNL A   1      42.941  30.681  34.051  1.00  0.00     0.029 A 
ATOM     68  N   UNL A   1      40.869  31.300  34.485  1.00  0.00    -0.354 N 
ATOM     69  N   UNL A   1      37.436  31.203  32.290  1.00  0.00    -0.248 NA
ATOM     70  C   UNL A   1      37.133  32.289  34.345  1.00  0.00     0.031 C 
ATOM     71  C   UNL A   1      42.050  29.960  33.205  1.00  0.00     0.029 A 
ATOM     72  C   UNL A   1      40.747  30.348  33.493  1.00  0.00     0.049 A 
ATOM     73  H   UNL A   1      40.103  31.749  34.910  1.00  0.00     0.167 HD
ATOM     74  C   UNL A   1      38.316  30.658  33.208  1.00  0.00     0.074 A 
ATOM     75  C   UNL A   1      37.973  31.263  34.488  1.00  0.00     0.031 C 
ATOM     76  C   UNL A   1      39.491  30.096  32.804  1.00  0.00     0.037 A 
BRANCH  63  77
ATOM     77  C   UNL A   1      41.778  33.124  36.820  1.00  0.00     0.064 A 
ATOM     78  C   UNL A   1      42.325  32.583  37.988  1.00  0.00     0.173 A 
ATOM     79  C   UNL A   1      40.535  33.780  36.949  1.00  0.00     0.173 A 
ATOM     80  F   UNL A   1      43.469  31.886  37.937  1.00  0.00    -0.203 F 
ATOM     81  C   UNL A   1      41.670  32.697  39.210  1.00  0.00     0.198 A 
ATOM     82  C   UNL A   1      39.920  33.953  38.181  1.00  0.00     0.198 A 
ATOM     83  F   UNL A   1      39.818  34.174  35.890  1.00  0.00    -0.203 F 
ATOM     84  F   UNL A   1      42.177  32.086  40.288  1.00  0.00    -0.200 F 
ATOM     85  C   UNL A   1      40.478  33.396  39.310  1.00  0.00     0.200 A 
ATOM     86  F   UNL A   1      38.749  34.602  38.246  1.00  0.00    -0.200 F 
ATOM     87  F   UNL A   1      39.839  33.486  40.482  1.00  0.00    -0.200 F 
ENDBRANCH  63  77
BRANCH  64  88
ATOM     88  C   UNL A   1      35.480  34.214  31.951  1.00  0.00     0.064 A 
ATOM     89  C   UNL A   1      34.895  35.191  32.782  1.00  0.00     0.173 A 
ATOM     90  C   UNL A   1      34.841  34.016  30.708  1.00  0.00     0.173 A 
ATOM     91  F   UNL A   1      35.427  35.462  33.981  1.00  0.00    -0.203 F 
ATOM     92  C   UNL A   1      33.782  35.948  32.376  1.00  0.00     0.198 A 
ATOM     93  C   UNL A   1      33.731  34.771  30.303  1.00  0.00     0.198 A 
ATOM     94  F   UNL A   1      35.325  33.119  29.836  1.00  0.00    -0.203 F 
ATOM     95  F   UNL A   1      33.292  36.905  33.178  1.00  0.00    -0.200 F 
ATOM     96  C   UNL A   1      33.213  35.750  31.130  1.00  0.00     0.200 A 
ATOM     97  F   UNL A   1      33.200  34.578  29.087  1.00  0.00    -0.200 F 
ATOM     98  F   UNL A   1      32.191  36.516  30.717  1.00  0.00    -0.200 F 
ENDBRANCH  64  88
BRANCH  76  99
ATOM     99  C   UNL A   1      39.509  29.312  31.518  1.00  0.00     0.064 A 
ATOM    100  C   UNL A   1      39.020  28.013  31.369  1.00  0.00     0.173 A 
ATOM    101  C   UNL A   1      39.942  29.941  30.344  1.00  0.00     0.173 A 
ATOM    102  F   UNL A   1      38.538  27.359  32.414  1.00  0.00    -0.203 F 
ATOM    103  C   UNL A   1      38.963  27.359  30.139  1.00  0.00     0.198 A 
ATOM    104  C   UNL A   1      39.875  29.302  29.101  1.00  0.00     0.198 A 
ATOM    105  F   UNL A   1      40.397  31.203  30.394  1.00  0.00    -0.203 F 
ATOM    106  F   UNL A   1      38.460  26.118  30.062  1.00  0.00    -0.200 F 
ATOM    107  C   UNL A   1      39.390  28.008  28.999  1.00  0.00     0.200 A 
ATOM    108  F   UNL A   1      40.253  29.955  27.995  1.00  0.00    -0.200 F 
ATOM    109  F   UNL A   1      39.310  27.400  27.808  1.00  0.00    -0.200 F 
ENDBRANCH  76  99
ENDBRANCH  50  51
ENDBRANCH  43  45
ENDBRANCH  42  43
ENDBRANCH  41  42
ENDBRANCH  40  41
ENDBRANCH  39  40
ENDBRANCH  38  39
ENDBRANCH   1  38
TORSDOF 23
ENDMDL
