MODEL 1
REMARK VINA RESULT:     -11.9      0.000      0.000
REMARK SMILES Cn1c(SCC(=O)Nc2cccc(C(=O)OCCOCCOCCOC(=O)c3ccc(-c4c5nc(c(-c6c(F)c(F)c(F)c(F)c6F)c6ccc([nH]6)c(-c6c(F)c(F)c(F)c(F)c6F)c6nc(c(-c7c(F)c(F)c(F)c(F)c7F)c7ccc4[nH]7)C=C6)C=C5)cc3)c2)nnc1[C@@H]1CCCN1C(=O)c1ccccc1Cl
REMARK SMILES IDX 18 1 17 2 16 3 14 4 15 5 13 6 9 7 10 8 91 9 11 10 12 11 8 12
REMARK SMILES IDX 6 13 7 14 5 16 4 17 3 18 1 19 2 20 94 21 92 22 93 23 95 24
REMARK SMILES IDX 96 25 99 26 97 27 98 28 100 29 101 30 102 31 103 32 107 33
REMARK SMILES IDX 104 34 106 35 108 36 105 37 19 38 20 39 21 40 22 41 23 42
REMARK SMILES IDX 24 43 25 44 26 45 27 46 28 47 29 48 90 49 30 50 89 51 31 52
REMARK SMILES IDX 32 53 33 54 83 55 34 56 88 57 82 58 84 59 35 60 87 61 81 62
REMARK SMILES IDX 80 63 36 65 68 66 48 67 67 68 49 69 52 70 66 71 85 72 50 73
REMARK SMILES IDX 51 74 65 76 86 77 53 78 37 79 38 80 46 81 39 82 40 83 44 84
REMARK SMILES IDX 47 85 41 86 42 87 45 88 43 89 69 90 70 91 78 92 71 93 72 94
REMARK SMILES IDX 76 95 79 96 73 97 74 98 77 99 75 100 54 101 55 102 63 103
REMARK SMILES IDX 56 104 57 105 61 106 64 107 58 108 59 109 62 110 60 111
REMARK H PARENT 8 15 84 64 52 75
REMARK Flexibility Score: inf
ROOT
ATOM      1  C   UNL A   1      40.794  21.425  27.677  1.00  0.00     0.202 C 
ENDROOT
BRANCH   1   2
ATOM      2  C   UNL A   1      40.215  22.128  26.438  1.00  0.00     0.261 C 
BRANCH   2   3
ATOM      3  O   UNL A   1      38.789  22.092  26.317  1.00  0.00    -0.460 OA
BRANCH   3   4
ATOM      4  C   UNL A   1      38.270  21.224  25.414  1.00  0.00     0.338 C 
ATOM      5  O   UNL A   1      38.667  20.098  25.172  1.00  0.00    -0.246 OA
BRANCH   4   6
ATOM      6  C   UNL A   1      37.040  21.794  24.800  1.00  0.00     0.062 A 
ATOM      7  C   UNL A   1      34.694  21.584  24.238  1.00  0.00     0.042 A 
ATOM      8  C   UNL A   1      34.683  22.896  23.773  1.00  0.00     0.026 A 
ATOM      9  C   UNL A   1      35.900  21.017  24.621  1.00  0.00     0.041 A 
ATOM     10  C   UNL A   1      35.846  23.666  23.849  1.00  0.00     0.003 A 
ATOM     11  C   UNL A   1      37.011  23.131  24.406  1.00  0.00     0.016 A 
BRANCH   7  12
ATOM     12  N   UNL A   1      33.483  20.895  24.331  1.00  0.00    -0.325 N 
ATOM     13  C   UNL A   1      32.579  20.868  25.358  1.00  0.00     0.234 C 
ATOM     14  O   UNL A   1      31.539  20.226  25.164  1.00  0.00    -0.274 OA
ATOM     15  H   UNL A   1      33.244  20.352  23.545  1.00  0.00     0.169 HD
BRANCH  13  16
ATOM     16  C   UNL A   1      32.703  21.746  26.586  1.00  0.00     0.178 C 
BRANCH  16  17
ATOM     17  S   UNL A   1      31.508  23.032  26.882  1.00  0.00    -0.076 SA
BRANCH  17  18
ATOM     18  C   UNL A   1      32.094  24.581  26.402  1.00  0.00     0.191 A 
ATOM     19  C   UNL A   1      30.086  25.670  25.338  1.00  0.00     0.154 C 
ATOM     20  N   UNL A   1      31.490  25.446  25.532  1.00  0.00    -0.307 N 
ATOM     21  C   UNL A   1      32.520  26.109  24.902  1.00  0.00     0.156 A 
ATOM     22  N   UNL A   1      33.367  24.898  26.496  1.00  0.00    -0.123 NA
ATOM     23  N   UNL A   1      33.634  25.868  25.566  1.00  0.00    -0.132 NA
BRANCH  21  24
ATOM     24  C   UNL A   1      32.437  26.912  23.656  1.00  0.00     0.154 C 
ATOM     25  C   UNL A   1      33.655  26.732  22.742  1.00  0.00     0.035 C 
ATOM     26  N   UNL A   1      32.327  28.366  23.847  1.00  0.00    -0.328 N 
ATOM     27  C   UNL A   1      33.693  28.014  21.923  1.00  0.00     0.024 C 
ATOM     28  C   UNL A   1      33.095  29.074  22.834  1.00  0.00     0.120 C 
BRANCH  26  29
ATOM     29  C   UNL A   1      31.415  29.107  24.592  1.00  0.00     0.255 C 
ATOM     30  O   UNL A   1      31.524  29.263  25.808  1.00  0.00    -0.269 OA
BRANCH  29  31
ATOM     31  C   UNL A   1      30.190  29.645  23.980  1.00  0.00     0.058 A 
ATOM     32  C   UNL A   1      29.509  28.908  23.007  1.00  0.00     0.015 A 
ATOM     33  C   UNL A   1      29.804  30.965  24.252  1.00  0.00     0.053 A 
ATOM     34  C   UNL A   1      28.388  29.461  22.377  1.00  0.00     0.001 A 
ATOM     35  C   UNL A   1      28.687  31.512  23.614  1.00  0.00     0.021 A 
ATOM     36  Cl  UNL A   1      30.652  31.972  25.376  1.00  0.00    -0.083 Cl
ATOM     37  C   UNL A   1      27.964  30.751  22.697  1.00  0.00     0.002 A 
ENDBRANCH  29  31
ENDBRANCH  26  29
ENDBRANCH  21  24
ENDBRANCH  17  18
ENDBRANCH  16  17
ENDBRANCH  13  16
ENDBRANCH   7  12
ENDBRANCH   4   6
ENDBRANCH   3   4
ENDBRANCH   2   3
ENDBRANCH   1   2
BRANCH   1  38
ATOM     38  O   UNL A   1      40.943  20.012  27.717  1.00  0.00    -0.376 OA
BRANCH  38  39
ATOM     39  C   UNL A   1      42.138  19.406  27.251  1.00  0.00     0.188 C 
BRANCH  39  40
ATOM     40  C   UNL A   1      42.310  19.042  25.761  1.00  0.00     0.188 C 
BRANCH  40  41
ATOM     41  O   UNL A   1      43.073  19.936  25.002  1.00  0.00    -0.376 OA
BRANCH  41  42
ATOM     42  C   UNL A   1      44.399  20.250  25.375  1.00  0.00     0.202 C 
BRANCH  42  43
ATOM     43  C   UNL A   1      45.047  21.651  25.299  1.00  0.00     0.261 C 
BRANCH  43  44
ATOM     44  O   UNL A   1      44.474  22.721  26.057  1.00  0.00    -0.460 OA
BRANCH  44  45
ATOM     45  C   UNL A   1      44.332  23.911  25.419  1.00  0.00     0.338 C 
ATOM     46  O   UNL A   1      44.571  24.162  24.258  1.00  0.00    -0.246 OA
BRANCH  45  47
ATOM     47  C   UNL A   1      43.626  24.841  26.330  1.00  0.00     0.060 A 
ATOM     48  C   UNL A   1      44.012  26.190  26.351  1.00  0.00     0.016 A 
ATOM     49  C   UNL A   1      42.596  24.390  27.156  1.00  0.00     0.016 A 
ATOM     50  C   UNL A   1      43.380  27.088  27.212  1.00  0.00     0.010 A 
ATOM     51  C   UNL A   1      41.983  25.285  28.038  1.00  0.00     0.010 A 
ATOM     52  C   UNL A   1      42.392  26.630  28.091  1.00  0.00    -0.014 A 
BRANCH  52  53
ATOM     53  C   UNL A   1      41.920  27.508  29.191  1.00  0.00     0.031 A 
ATOM     54  C   UNL A   1      42.656  27.475  30.500  1.00  0.00     0.074 A 
ATOM     55  C   UNL A   1      40.865  28.326  29.036  1.00  0.00     0.049 A 
ATOM     56  N   UNL A   1      42.399  28.098  31.622  1.00  0.00    -0.248 NA
ATOM     57  C   UNL A   1      43.843  26.609  30.551  1.00  0.00     0.031 C 
ATOM     58  C   UNL A   1      40.086  28.476  27.811  1.00  0.00     0.029 A 
ATOM     59  N   UNL A   1      40.257  29.170  29.933  1.00  0.00    -0.354 N 
ATOM     60  C   UNL A   1      43.383  27.692  32.512  1.00  0.00     0.074 A 
ATOM     61  C   UNL A   1      44.219  26.740  31.813  1.00  0.00     0.031 C 
ATOM     62  C   UNL A   1      39.084  29.342  28.039  1.00  0.00     0.029 A 
ATOM     63  C   UNL A   1      39.132  29.779  29.434  1.00  0.00     0.049 A 
ATOM     64  H   UNL A   1      40.595  29.324  30.844  1.00  0.00     0.167 HD
ATOM     65  C   UNL A   1      43.578  28.081  33.796  1.00  0.00     0.037 A 
ATOM     66  C   UNL A   1      38.229  30.571  30.045  1.00  0.00     0.037 A 
ATOM     67  C   UNL A   1      42.733  29.014  34.495  1.00  0.00     0.049 A 
ATOM     68  C   UNL A   1      38.418  30.937  31.495  1.00  0.00     0.074 A 
ATOM     69  C   UNL A   1      42.859  29.493  35.787  1.00  0.00     0.029 A 
ATOM     70  N   UNL A   1      41.588  29.593  33.965  1.00  0.00    -0.354 N 
ATOM     71  N   UNL A   1      39.372  30.583  32.322  1.00  0.00    -0.248 NA
ATOM     72  C   UNL A   1      37.407  31.821  32.093  1.00  0.00     0.031 C 
ATOM     73  C   UNL A   1      41.754  30.308  36.061  1.00  0.00     0.029 A 
ATOM     74  C   UNL A   1      40.978  30.396  34.917  1.00  0.00     0.049 A 
ATOM     75  H   UNL A   1      41.258  29.455  33.048  1.00  0.00     0.167 HD
ATOM     76  C   UNL A   1      39.089  31.211  33.530  1.00  0.00     0.074 A 
ATOM     77  C   UNL A   1      37.883  31.987  33.319  1.00  0.00     0.031 C 
ATOM     78  C   UNL A   1      39.768  31.153  34.703  1.00  0.00     0.037 A 
BRANCH  65  79
ATOM     79  C   UNL A   1      44.727  27.452  34.533  1.00  0.00     0.064 A 
ATOM     80  C   UNL A   1      44.595  26.232  35.216  1.00  0.00     0.173 A 
ATOM     81  C   UNL A   1      45.978  28.089  34.574  1.00  0.00     0.173 A 
ATOM     82  F   UNL A   1      43.419  25.584  35.221  1.00  0.00    -0.203 F 
ATOM     83  C   UNL A   1      45.652  25.702  35.952  1.00  0.00     0.198 A 
ATOM     84  C   UNL A   1      47.043  27.537  35.279  1.00  0.00     0.198 A 
ATOM     85  F   UNL A   1      46.165  29.253  33.934  1.00  0.00    -0.203 F 
ATOM     86  F   UNL A   1      45.476  24.577  36.659  1.00  0.00    -0.200 F 
ATOM     87  C   UNL A   1      46.876  26.353  35.980  1.00  0.00     0.200 A 
ATOM     88  F   UNL A   1      48.231  28.159  35.291  1.00  0.00    -0.200 F 
ATOM     89  F   UNL A   1      47.890  25.846  36.694  1.00  0.00    -0.200 F 
ENDBRANCH  65  79
BRANCH  66  90
ATOM     90  C   UNL A   1      37.050  31.057  29.280  1.00  0.00     0.064 A 
ATOM     91  C   UNL A   1      36.996  32.364  28.780  1.00  0.00     0.173 A 
ATOM     92  C   UNL A   1      35.961  30.212  29.017  1.00  0.00     0.173 A 
ATOM     93  F   UNL A   1      38.001  33.218  29.029  1.00  0.00    -0.203 F 
ATOM     94  C   UNL A   1      35.896  32.810  28.048  1.00  0.00     0.198 A 
ATOM     95  C   UNL A   1      34.876  30.650  28.260  1.00  0.00     0.198 A 
ATOM     96  F   UNL A   1      35.962  28.953  29.478  1.00  0.00    -0.203 F 
ATOM     97  F   UNL A   1      35.856  34.076  27.610  1.00  0.00    -0.200 F 
ATOM     98  C   UNL A   1      34.843  31.950  27.780  1.00  0.00     0.200 A 
ATOM     99  F   UNL A   1      33.865  29.810  27.994  1.00  0.00    -0.200 F 
ATOM    100  F   UNL A   1      33.794  32.374  27.063  1.00  0.00    -0.200 F 
ENDBRANCH  66  90
BRANCH  78 101
ATOM    101  C   UNL A   1      39.236  31.969  35.852  1.00  0.00     0.064 A 
ATOM    102  C   UNL A   1      39.613  33.307  36.048  1.00  0.00     0.173 A 
ATOM    103  C   UNL A   1      38.309  31.415  36.749  1.00  0.00     0.173 A 
ATOM    104  F   UNL A   1      40.503  33.885  35.228  1.00  0.00    -0.203 F 
ATOM    105  C   UNL A   1      39.106  34.046  37.115  1.00  0.00     0.198 A 
ATOM    106  C   UNL A   1      37.778  32.167  37.793  1.00  0.00     0.198 A 
ATOM    107  F   UNL A   1      37.906  30.143  36.606  1.00  0.00    -0.203 F 
ATOM    108  F   UNL A   1      39.525  35.304  37.314  1.00  0.00    -0.200 F 
ATOM    109  C   UNL A   1      38.185  33.479  37.982  1.00  0.00     0.200 A 
ATOM    110  F   UNL A   1      36.874  31.622  38.618  1.00  0.00    -0.200 F 
ATOM    111  F   UNL A   1      37.694  34.194  39.004  1.00  0.00    -0.200 F 
ENDBRANCH  78 101
ENDBRANCH  52  53
ENDBRANCH  45  47
ENDBRANCH  44  45
ENDBRANCH  43  44
ENDBRANCH  42  43
ENDBRANCH  41  42
ENDBRANCH  40  41
ENDBRANCH  39  40
ENDBRANCH  38  39
ENDBRANCH   1  38
TORSDOF 24
ENDMDL
MODEL 2
REMARK VINA RESULT:     -11.1      1.229      2.060
REMARK SMILES Cn1c(SCC(=O)Nc2cccc(C(=O)OCCOCCOCCOC(=O)c3ccc(-c4c5nc(c(-c6c(F)c(F)c(F)c(F)c6F)c6ccc([nH]6)c(-c6c(F)c(F)c(F)c(F)c6F)c6nc(c(-c7c(F)c(F)c(F)c(F)c7F)c7ccc4[nH]7)C=C6)C=C5)cc3)c2)nnc1[C@@H]1CCCN1C(=O)c1ccccc1Cl
REMARK SMILES IDX 18 1 17 2 16 3 14 4 15 5 13 6 9 7 10 8 91 9 11 10 12 11 8 12
REMARK SMILES IDX 6 13 7 14 5 16 4 17 3 18 1 19 2 20 94 21 92 22 93 23 95 24
REMARK SMILES IDX 96 25 99 26 97 27 98 28 100 29 101 30 102 31 103 32 107 33
REMARK SMILES IDX 104 34 106 35 108 36 105 37 19 38 20 39 21 40 22 41 23 42
REMARK SMILES IDX 24 43 25 44 26 45 27 46 28 47 29 48 90 49 30 50 89 51 31 52
REMARK SMILES IDX 32 53 33 54 83 55 34 56 88 57 82 58 84 59 35 60 87 61 81 62
REMARK SMILES IDX 80 63 36 65 68 66 48 67 67 68 49 69 52 70 66 71 85 72 50 73
REMARK SMILES IDX 51 74 65 76 86 77 53 78 37 79 38 80 46 81 39 82 40 83 44 84
REMARK SMILES IDX 47 85 41 86 42 87 45 88 43 89 69 90 70 91 78 92 71 93 72 94
REMARK SMILES IDX 76 95 79 96 73 97 74 98 77 99 75 100 54 101 55 102 63 103
REMARK SMILES IDX 56 104 57 105 61 106 64 107 58 108 59 109 62 110 60 111
REMARK H PARENT 8 15 84 64 52 75
REMARK Flexibility Score: inf
ROOT
ATOM      1  C   UNL A   1      40.751  21.855  27.790  1.00  0.00     0.202 C 
ENDROOT
BRANCH   1   2
ATOM      2  C   UNL A   1      40.086  22.586  26.613  1.00  0.00     0.261 C 
BRANCH   2   3
ATOM      3  O   UNL A   1      38.695  22.305  26.416  1.00  0.00    -0.460 OA
BRANCH   3   4
ATOM      4  C   UNL A   1      38.385  21.339  25.518  1.00  0.00     0.338 C 
ATOM      5  O   UNL A   1      38.950  20.269  25.370  1.00  0.00    -0.246 OA
BRANCH   4   6
ATOM      6  C   UNL A   1      37.152  21.708  24.770  1.00  0.00     0.062 A 
ATOM      7  C   UNL A   1      34.838  21.270  24.208  1.00  0.00     0.042 A 
ATOM      8  C   UNL A   1      34.785  22.457  23.481  1.00  0.00     0.026 A 
ATOM      9  C   UNL A   1      36.054  20.855  24.729  1.00  0.00     0.041 A 
ATOM     10  C   UNL A   1      35.910  23.283  23.423  1.00  0.00     0.003 A 
ATOM     11  C   UNL A   1      37.078  22.933  24.107  1.00  0.00     0.016 A 
BRANCH   7  12
ATOM     12  N   UNL A   1      33.656  20.556  24.413  1.00  0.00    -0.325 N 
ATOM     13  C   UNL A   1      32.833  20.540  25.506  1.00  0.00     0.234 C 
ATOM     14  O   UNL A   1      31.798  19.867  25.410  1.00  0.00    -0.274 OA
ATOM     15  H   UNL A   1      33.373  19.982  23.664  1.00  0.00     0.169 HD
BRANCH  13  16
ATOM     16  C   UNL A   1      33.025  21.460  26.694  1.00  0.00     0.178 C 
BRANCH  16  17
ATOM     17  S   UNL A   1      32.012  22.915  26.863  1.00  0.00    -0.076 SA
BRANCH  17  18
ATOM     18  C   UNL A   1      32.153  23.960  25.499  1.00  0.00     0.191 A 
ATOM     19  C   UNL A   1      34.375  25.096  25.852  1.00  0.00     0.154 C 
ATOM     20  N   UNL A   1      33.031  24.999  25.358  1.00  0.00    -0.307 N 
ATOM     21  C   UNL A   1      32.372  25.932  24.588  1.00  0.00     0.156 A 
ATOM     22  N   UNL A   1      31.162  24.127  24.650  1.00  0.00    -0.123 NA
ATOM     23  N   UNL A   1      31.306  25.358  24.065  1.00  0.00    -0.132 NA
BRANCH  21  24
ATOM     24  C   UNL A   1      32.737  27.360  24.405  1.00  0.00     0.154 C 
ATOM     25  C   UNL A   1      33.188  28.036  25.706  1.00  0.00     0.035 C 
ATOM     26  N   UNL A   1      31.667  28.226  23.888  1.00  0.00    -0.328 N 
ATOM     27  C   UNL A   1      32.905  29.512  25.470  1.00  0.00     0.024 C 
ATOM     28  C   UNL A   1      31.713  29.532  24.525  1.00  0.00     0.120 C 
BRANCH  26  29
ATOM     29  C   UNL A   1      30.884  28.099  22.745  1.00  0.00     0.255 C 
ATOM     30  O   UNL A   1      31.208  27.385  21.795  1.00  0.00    -0.269 OA
BRANCH  29  31
ATOM     31  C   UNL A   1      29.676  28.915  22.555  1.00  0.00     0.058 A 
ATOM     32  C   UNL A   1      29.776  30.208  22.032  1.00  0.00     0.015 A 
ATOM     33  C   UNL A   1      28.447  28.459  23.055  1.00  0.00     0.053 A 
ATOM     34  C   UNL A   1      28.630  31.005  21.927  1.00  0.00     0.001 A 
ATOM     35  C   UNL A   1      27.309  29.263  22.951  1.00  0.00     0.021 A 
ATOM     36  Cl  UNL A   1      28.262  26.908  23.799  1.00  0.00    -0.083 Cl
ATOM     37  C   UNL A   1      27.394  30.524  22.364  1.00  0.00     0.002 A 
ENDBRANCH  29  31
ENDBRANCH  26  29
ENDBRANCH  21  24
ENDBRANCH  17  18
ENDBRANCH  16  17
ENDBRANCH  13  16
ENDBRANCH   7  12
ENDBRANCH   4   6
ENDBRANCH   3   4
ENDBRANCH   2   3
ENDBRANCH   1   2
BRANCH   1  38
ATOM     38  O   UNL A   1      40.929  20.445  27.772  1.00  0.00    -0.376 OA
BRANCH  38  39
ATOM     39  C   UNL A   1      42.171  19.887  27.375  1.00  0.00     0.188 C 
BRANCH  39  40
ATOM     40  C   UNL A   1      42.278  19.026  26.099  1.00  0.00     0.188 C 
BRANCH  40  41
ATOM     41  O   UNL A   1      42.954  19.615  25.024  1.00  0.00    -0.376 OA
BRANCH  41  42
ATOM     42  C   UNL A   1      44.296  20.038  25.162  1.00  0.00     0.202 C 
BRANCH  42  43
ATOM     43  C   UNL A   1      44.812  21.476  24.931  1.00  0.00     0.261 C 
BRANCH  43  44
ATOM     44  O   UNL A   1      44.303  22.534  25.750  1.00  0.00    -0.460 OA
BRANCH  44  45
ATOM     45  C   UNL A   1      45.210  23.219  26.492  1.00  0.00     0.338 C 
ATOM     46  O   UNL A   1      46.419  23.179  26.408  1.00  0.00    -0.246 OA
BRANCH  45  47
ATOM     47  C   UNL A   1      44.479  24.212  27.313  1.00  0.00     0.060 A 
ATOM     48  C   UNL A   1      44.795  25.572  27.169  1.00  0.00     0.016 A 
ATOM     49  C   UNL A   1      43.496  23.808  28.216  1.00  0.00     0.016 A 
ATOM     50  C   UNL A   1      44.139  26.530  27.941  1.00  0.00     0.010 A 
ATOM     51  C   UNL A   1      42.859  24.768  29.010  1.00  0.00     0.010 A 
ATOM     52  C   UNL A   1      43.198  26.129  28.897  1.00  0.00    -0.014 A 
BRANCH  52  53
ATOM     53  C   UNL A   1      42.708  27.104  29.904  1.00  0.00     0.031 A 
ATOM     54  C   UNL A   1      43.414  27.180  31.228  1.00  0.00     0.074 A 
ATOM     55  C   UNL A   1      41.665  27.912  29.653  1.00  0.00     0.049 A 
ATOM     56  N   UNL A   1      43.136  27.902  32.284  1.00  0.00    -0.248 NA
ATOM     57  C   UNL A   1      44.592  26.314  31.383  1.00  0.00     0.031 C 
ATOM     58  C   UNL A   1      40.916  27.959  28.401  1.00  0.00     0.029 A 
ATOM     59  N   UNL A   1      41.043  28.836  30.458  1.00  0.00    -0.354 N 
ATOM     60  C   UNL A   1      44.096  27.569  33.230  1.00  0.00     0.074 A 
ATOM     61  C   UNL A   1      44.940  26.554  32.637  1.00  0.00     0.031 C 
ATOM     62  C   UNL A   1      39.916  28.847  28.529  1.00  0.00     0.029 A 
ATOM     63  C   UNL A   1      39.936  29.405  29.881  1.00  0.00     0.049 A 
ATOM     64  H   UNL A   1      41.361  29.066  31.360  1.00  0.00     0.167 HD
ATOM     65  C   UNL A   1      44.265  28.068  34.479  1.00  0.00     0.037 A 
ATOM     66  C   UNL A   1      39.026  30.255  30.398  1.00  0.00     0.037 A 
ATOM     67  C   UNL A   1      43.411  29.064  35.074  1.00  0.00     0.049 A 
ATOM     68  C   UNL A   1      39.185  30.745  31.815  1.00  0.00     0.074 A 
ATOM     69  C   UNL A   1      43.512  29.654  36.321  1.00  0.00     0.029 A 
ATOM     70  N   UNL A   1      42.285  29.602  34.468  1.00  0.00    -0.354 N 
ATOM     71  N   UNL A   1      40.116  30.459  32.692  1.00  0.00    -0.248 NA
ATOM     72  C   UNL A   1      38.167  31.685  32.309  1.00  0.00     0.031 C 
ATOM     73  C   UNL A   1      42.408  30.497  36.496  1.00  0.00     0.029 A 
ATOM     74  C   UNL A   1      41.660  30.490  35.330  1.00  0.00     0.049 A 
ATOM     75  H   UNL A   1      41.975  29.386  33.558  1.00  0.00     0.167 HD
ATOM     76  C   UNL A   1      39.811  31.192  33.833  1.00  0.00     0.074 A 
ATOM     77  C   UNL A   1      38.616  31.955  33.526  1.00  0.00     0.031 C 
ATOM     78  C   UNL A   1      40.461  31.233  35.023  1.00  0.00     0.037 A 
BRANCH  65  79
ATOM     79  C   UNL A   1      45.391  27.498  35.296  1.00  0.00     0.064 A 
ATOM     80  C   UNL A   1      46.679  28.058  35.280  1.00  0.00     0.173 A 
ATOM     81  C   UNL A   1      45.185  26.362  36.093  1.00  0.00     0.173 A 
ATOM     82  F   UNL A   1      46.937  29.139  34.526  1.00  0.00    -0.203 F 
ATOM     83  C   UNL A   1      47.726  27.473  35.988  1.00  0.00     0.198 A 
ATOM     84  C   UNL A   1      46.225  25.802  36.830  1.00  0.00     0.198 A 
ATOM     85  F   UNL A   1      43.974  25.788  36.153  1.00  0.00    -0.203 F 
ATOM     86  F   UNL A   1      48.963  27.982  35.893  1.00  0.00    -0.200 F 
ATOM     87  C   UNL A   1      47.498  26.348  36.765  1.00  0.00     0.200 A 
ATOM     88  F   UNL A   1      45.999  24.724  37.594  1.00  0.00    -0.200 F 
ATOM     89  F   UNL A   1      48.507  25.782  37.440  1.00  0.00    -0.200 F 
ENDBRANCH  65  79
BRANCH  66  90
ATOM     90  C   UNL A   1      37.870  30.679  29.566  1.00  0.00     0.064 A 
ATOM     91  C   UNL A   1      36.801  29.812  29.308  1.00  0.00     0.173 A 
ATOM     92  C   UNL A   1      37.803  31.974  29.027  1.00  0.00     0.173 A 
ATOM     93  F   UNL A   1      36.831  28.555  29.778  1.00  0.00    -0.203 F 
ATOM     94  C   UNL A   1      35.710  30.220  28.541  1.00  0.00     0.198 A 
ATOM     95  C   UNL A   1      36.699  32.390  28.285  1.00  0.00     0.198 A 
ATOM     96  F   UNL A   1      38.803  32.841  29.240  1.00  0.00    -0.203 F 
ATOM     97  F   UNL A   1      34.717  29.359  28.283  1.00  0.00    -0.200 F 
ATOM     98  C   UNL A   1      35.656  31.511  28.040  1.00  0.00     0.200 A 
ATOM     99  F   UNL A   1      36.646  33.644  27.813  1.00  0.00    -0.200 F 
ATOM    100  F   UNL A   1      34.600  31.908  27.317  1.00  0.00    -0.200 F 
ENDBRANCH  66  90
BRANCH  78 101
ATOM    101  C   UNL A   1      39.911  32.150  36.083  1.00  0.00     0.064 A 
ATOM    102  C   UNL A   1      40.479  33.407  36.343  1.00  0.00     0.173 A 
ATOM    103  C   UNL A   1      38.776  31.781  36.823  1.00  0.00     0.173 A 
ATOM    104  F   UNL A   1      41.570  33.807  35.674  1.00  0.00    -0.203 F 
ATOM    105  C   UNL A   1      39.952  34.243  37.326  1.00  0.00     0.198 A 
ATOM    106  C   UNL A   1      38.231  32.634  37.778  1.00  0.00     0.198 A 
ATOM    107  F   UNL A   1      38.186  30.595  36.610  1.00  0.00    -0.203 F 
ATOM    108  F   UNL A   1      40.546  35.413  37.595  1.00  0.00    -0.200 F 
ATOM    109  C   UNL A   1      38.825  33.860  38.037  1.00  0.00     0.200 A 
ATOM    110  F   UNL A   1      37.131  32.269  38.452  1.00  0.00    -0.200 F 
ATOM    111  F   UNL A   1      38.316  34.668  38.977  1.00  0.00    -0.200 F 
ENDBRANCH  78 101
ENDBRANCH  52  53
ENDBRANCH  45  47
ENDBRANCH  44  45
ENDBRANCH  43  44
ENDBRANCH  42  43
ENDBRANCH  41  42
ENDBRANCH  40  41
ENDBRANCH  39  40
ENDBRANCH  38  39
ENDBRANCH   1  38
TORSDOF 24
ENDMDL
MODEL 3
REMARK VINA RESULT:     -10.8      5.187     10.879
REMARK SMILES Cn1c(SCC(=O)Nc2cccc(C(=O)OCCOCCOCCOC(=O)c3ccc(-c4c5nc(c(-c6c(F)c(F)c(F)c(F)c6F)c6ccc([nH]6)c(-c6c(F)c(F)c(F)c(F)c6F)c6nc(c(-c7c(F)c(F)c(F)c(F)c7F)c7ccc4[nH]7)C=C6)C=C5)cc3)c2)nnc1[C@@H]1CCCN1C(=O)c1ccccc1Cl
REMARK SMILES IDX 18 1 17 2 16 3 14 4 15 5 13 6 9 7 10 8 91 9 11 10 12 11 8 12
REMARK SMILES IDX 6 13 7 14 5 16 4 17 3 18 1 19 2 20 94 21 92 22 93 23 95 24
REMARK SMILES IDX 96 25 99 26 97 27 98 28 100 29 101 30 102 31 103 32 107 33
REMARK SMILES IDX 104 34 106 35 108 36 105 37 19 38 20 39 21 40 22 41 23 42
REMARK SMILES IDX 24 43 25 44 26 45 27 46 28 47 29 48 90 49 30 50 89 51 31 52
REMARK SMILES IDX 32 53 33 54 83 55 34 56 88 57 82 58 84 59 35 60 87 61 81 62
REMARK SMILES IDX 80 63 36 65 68 66 48 67 67 68 49 69 52 70 66 71 85 72 50 73
REMARK SMILES IDX 51 74 65 76 86 77 53 78 37 79 38 80 46 81 39 82 40 83 44 84
REMARK SMILES IDX 47 85 41 86 42 87 45 88 43 89 69 90 70 91 78 92 71 93 72 94
REMARK SMILES IDX 76 95 79 96 73 97 74 98 77 99 75 100 54 101 55 102 63 103
REMARK SMILES IDX 56 104 57 105 61 106 64 107 58 108 59 109 62 110 60 111
REMARK H PARENT 8 15 84 64 52 75
REMARK Flexibility Score: inf
ROOT
ATOM      1  C   UNL A   1      34.604  33.508  29.172  1.00  0.00     0.202 C 
ENDROOT
BRANCH   1   2
ATOM      2  C   UNL A   1      34.582  32.824  27.795  1.00  0.00     0.261 C 
BRANCH   2   3
ATOM      3  O   UNL A   1      33.617  31.778  27.639  1.00  0.00    -0.460 OA
BRANCH   3   4
ATOM      4  C   UNL A   1      34.094  30.524  27.451  1.00  0.00     0.338 C 
ATOM      5  O   UNL A   1      35.182  30.096  27.798  1.00  0.00    -0.246 OA
BRANCH   4   6
ATOM      6  C   UNL A   1      33.049  29.660  26.837  1.00  0.00     0.062 A 
ATOM      7  C   UNL A   1      31.513  29.209  25.021  1.00  0.00     0.042 A 
ATOM      8  C   UNL A   1      31.180  27.987  25.599  1.00  0.00     0.026 A 
ATOM      9  C   UNL A   1      32.340  30.078  25.715  1.00  0.00     0.041 A 
ATOM     10  C   UNL A   1      31.806  27.589  26.784  1.00  0.00     0.003 A 
ATOM     11  C   UNL A   1      32.775  28.404  27.377  1.00  0.00     0.016 A 
BRANCH   7  12
ATOM     12  N   UNL A   1      31.023  29.502  23.746  1.00  0.00    -0.325 N 
ATOM     13  C   UNL A   1      30.685  28.649  22.732  1.00  0.00     0.234 C 
ATOM     14  O   UNL A   1      30.206  29.163  21.712  1.00  0.00    -0.274 OA
ATOM     15  H   UNL A   1      30.904  30.460  23.549  1.00  0.00     0.169 HD
BRANCH  13  16
ATOM     16  C   UNL A   1      30.667  27.143  22.895  1.00  0.00     0.178 C 
BRANCH  16  17
ATOM     17  S   UNL A   1      31.748  26.130  21.909  1.00  0.00    -0.076 SA
BRANCH  17  18
ATOM     18  C   UNL A   1      33.204  25.737  22.744  1.00  0.00     0.191 A 
ATOM     19  C   UNL A   1      33.861  23.507  21.772  1.00  0.00     0.154 C 
ATOM     20  N   UNL A   1      33.808  24.511  22.796  1.00  0.00    -0.307 N 
ATOM     21  C   UNL A   1      34.408  24.451  24.034  1.00  0.00     0.156 A 
ATOM     22  N   UNL A   1      33.645  26.467  23.747  1.00  0.00    -0.123 NA
ATOM     23  N   UNL A   1      34.413  25.666  24.550  1.00  0.00    -0.132 NA
BRANCH  21  24
ATOM     24  C   UNL A   1      34.918  23.239  24.724  1.00  0.00     0.154 C 
ATOM     25  C   UNL A   1      36.381  22.928  24.389  1.00  0.00     0.035 C 
ATOM     26  N   UNL A   1      34.195  21.992  24.429  1.00  0.00    -0.328 N 
ATOM     27  C   UNL A   1      36.504  21.432  24.637  1.00  0.00     0.024 C 
ATOM     28  C   UNL A   1      35.121  20.875  24.340  1.00  0.00     0.120 C 
BRANCH  26  29
ATOM     29  C   UNL A   1      32.840  21.695  24.532  1.00  0.00     0.255 C 
ATOM     30  O   UNL A   1      32.330  20.722  23.978  1.00  0.00    -0.269 OA
BRANCH  29  31
ATOM     31  C   UNL A   1      31.911  22.608  25.216  1.00  0.00     0.058 A 
ATOM     32  C   UNL A   1      31.033  23.403  24.473  1.00  0.00     0.015 A 
ATOM     33  C   UNL A   1      32.025  22.801  26.600  1.00  0.00     0.053 A 
ATOM     34  C   UNL A   1      30.207  24.323  25.129  1.00  0.00     0.001 A 
ATOM     35  C   UNL A   1      31.200  23.726  27.247  1.00  0.00     0.021 A 
ATOM     36  Cl  UNL A   1      33.152  21.921  27.575  1.00  0.00    -0.083 Cl
ATOM     37  C   UNL A   1      30.273  24.467  26.516  1.00  0.00     0.002 A 
ENDBRANCH  29  31
ENDBRANCH  26  29
ENDBRANCH  21  24
ENDBRANCH  17  18
ENDBRANCH  16  17
ENDBRANCH  13  16
ENDBRANCH   7  12
ENDBRANCH   4   6
ENDBRANCH   3   4
ENDBRANCH   2   3
ENDBRANCH   1   2
BRANCH   1  38
ATOM     38  O   UNL A   1      34.419  34.911  29.297  1.00  0.00    -0.376 OA
BRANCH  38  39
ATOM     39  C   UNL A   1      33.153  35.435  29.663  1.00  0.00     0.188 C 
BRANCH  39  40
ATOM     40  C   UNL A   1      32.803  35.691  31.144  1.00  0.00     0.188 C 
BRANCH  40  41
ATOM     41  O   UNL A   1      33.871  35.599  32.045  1.00  0.00    -0.376 OA
BRANCH  41  42
ATOM     42  C   UNL A   1      33.968  34.506  32.937  1.00  0.00     0.202 C 
BRANCH  42  43
ATOM     43  C   UNL A   1      34.694  33.173  32.648  1.00  0.00     0.261 C 
BRANCH  43  44
ATOM     44  O   UNL A   1      35.972  32.936  33.246  1.00  0.00    -0.460 OA
BRANCH  44  45
ATOM     45  C   UNL A   1      36.988  33.745  32.848  1.00  0.00     0.338 C 
ATOM     46  O   UNL A   1      37.187  34.897  33.167  1.00  0.00    -0.246 OA
BRANCH  45  47
ATOM     47  C   UNL A   1      37.967  32.922  32.100  1.00  0.00     0.060 A 
ATOM     48  C   UNL A   1      38.949  32.222  32.816  1.00  0.00     0.016 A 
ATOM     49  C   UNL A   1      37.919  32.842  30.708  1.00  0.00     0.016 A 
ATOM     50  C   UNL A   1      39.897  31.453  32.141  1.00  0.00     0.010 A 
ATOM     51  C   UNL A   1      38.887  32.095  30.030  1.00  0.00     0.010 A 
ATOM     52  C   UNL A   1      39.898  31.421  30.741  1.00  0.00    -0.014 A 
BRANCH  52  53
ATOM     53  C   UNL A   1      41.057  30.842  30.017  1.00  0.00     0.031 A 
ATOM     54  C   UNL A   1      42.214  31.741  29.685  1.00  0.00     0.074 A 
ATOM     55  C   UNL A   1      41.092  29.546  29.665  1.00  0.00     0.049 A 
ATOM     56  N   UNL A   1      43.306  31.485  29.009  1.00  0.00    -0.248 NA
ATOM     57  C   UNL A   1      42.121  33.123  30.179  1.00  0.00     0.031 C 
ATOM     58  C   UNL A   1      40.052  28.565  29.955  1.00  0.00     0.029 A 
ATOM     59  N   UNL A   1      42.041  28.842  28.964  1.00  0.00    -0.354 N 
ATOM     60  C   UNL A   1      44.021  32.674  28.987  1.00  0.00     0.074 A 
ATOM     61  C   UNL A   1      43.224  33.661  29.683  1.00  0.00     0.031 C 
ATOM     62  C   UNL A   1      40.406  27.387  29.413  1.00  0.00     0.029 A 
ATOM     63  C   UNL A   1      41.679  27.543  28.710  1.00  0.00     0.049 A 
ATOM     64  H   UNL A   1      42.896  29.232  28.673  1.00  0.00     0.167 HD
ATOM     65  C   UNL A   1      45.237  32.923  28.441  1.00  0.00     0.037 A 
ATOM     66  C   UNL A   1      42.293  26.599  27.969  1.00  0.00     0.037 A 
ATOM     67  C   UNL A   1      46.019  31.944  27.731  1.00  0.00     0.049 A 
ATOM     68  C   UNL A   1      43.610  26.911  27.305  1.00  0.00     0.074 A 
ATOM     69  C   UNL A   1      47.272  32.086  27.163  1.00  0.00     0.029 A 
ATOM     70  N   UNL A   1      45.611  30.643  27.473  1.00  0.00    -0.354 N 
ATOM     71  N   UNL A   1      44.302  28.024  27.320  1.00  0.00    -0.248 NA
ATOM     72  C   UNL A   1      44.233  25.830  26.528  1.00  0.00     0.031 C 
ATOM     73  C   UNL A   1      47.592  30.895  26.503  1.00  0.00     0.029 A 
ATOM     74  C   UNL A   1      46.572  29.984  26.722  1.00  0.00     0.049 A 
ATOM     75  H   UNL A   1      44.763  30.246  27.779  1.00  0.00     0.167 HD
ATOM     76  C   UNL A   1      45.448  27.776  26.573  1.00  0.00     0.074 A 
ATOM     77  C   UNL A   1      45.366  26.396  26.136  1.00  0.00     0.031 C 
ATOM     78  C   UNL A   1      46.475  28.613  26.278  1.00  0.00     0.037 A 
BRANCH  65  79
ATOM     79  C   UNL A   1      45.762  34.327  28.554  1.00  0.00     0.064 A 
ATOM     80  C   UNL A   1      45.502  35.300  27.575  1.00  0.00     0.173 A 
ATOM     81  C   UNL A   1      46.556  34.701  29.649  1.00  0.00     0.173 A 
ATOM     82  F   UNL A   1      44.759  34.995  26.499  1.00  0.00    -0.203 F 
ATOM     83  C   UNL A   1      46.058  36.574  27.663  1.00  0.00     0.198 A 
ATOM     84  C   UNL A   1      47.078  35.987  29.753  1.00  0.00     0.198 A 
ATOM     85  F   UNL A   1      46.832  33.816  30.619  1.00  0.00    -0.203 F 
ATOM     86  F   UNL A   1      45.859  37.458  26.676  1.00  0.00    -0.200 F 
ATOM     87  C   UNL A   1      46.842  36.917  28.753  1.00  0.00     0.200 A 
ATOM     88  F   UNL A   1      47.822  36.323  30.816  1.00  0.00    -0.200 F 
ATOM     89  F   UNL A   1      47.382  38.141  28.833  1.00  0.00    -0.200 F 
ENDBRANCH  65  79
BRANCH  66  90
ATOM     90  C   UNL A   1      41.649  25.269  27.804  1.00  0.00     0.064 A 
ATOM     91  C   UNL A   1      40.551  25.092  26.953  1.00  0.00     0.173 A 
ATOM     92  C   UNL A   1      42.136  24.141  28.483  1.00  0.00     0.173 A 
ATOM     93  F   UNL A   1      40.032  26.145  26.303  1.00  0.00    -0.203 F 
ATOM     94  C   UNL A   1      39.961  23.840  26.789  1.00  0.00     0.198 A 
ATOM     95  C   UNL A   1      41.564  22.884  28.296  1.00  0.00     0.198 A 
ATOM     96  F   UNL A   1      43.181  24.257  29.314  1.00  0.00    -0.203 F 
ATOM     97  F   UNL A   1      38.891  23.706  25.994  1.00  0.00    -0.200 F 
ATOM     98  C   UNL A   1      40.474  22.736  27.451  1.00  0.00     0.200 A 
ATOM     99  F   UNL A   1      42.072  21.818  28.929  1.00  0.00    -0.200 F 
ATOM    100  F   UNL A   1      39.917  21.530  27.280  1.00  0.00    -0.200 F 
ENDBRANCH  66  90
BRANCH  78 101
ATOM    101  C   UNL A   1      47.610  28.057  25.461  1.00  0.00     0.064 A 
ATOM    102  C   UNL A   1      47.530  27.938  24.065  1.00  0.00     0.173 A 
ATOM    103  C   UNL A   1      48.811  27.671  26.080  1.00  0.00     0.173 A 
ATOM    104  F   UNL A   1      46.404  28.281  23.422  1.00  0.00    -0.203 F 
ATOM    105  C   UNL A   1      48.593  27.424  23.326  1.00  0.00     0.198 A 
ATOM    106  C   UNL A   1      49.884  27.193  25.334  1.00  0.00     0.198 A 
ATOM    107  F   UNL A   1      48.948  27.771  27.411  1.00  0.00    -0.203 F 
ATOM    108  F   UNL A   1      48.470  27.267  22.000  1.00  0.00    -0.200 F 
ATOM    109  C   UNL A   1      49.771  27.059  23.958  1.00  0.00     0.200 A 
ATOM    110  F   UNL A   1      51.028  26.857  25.947  1.00  0.00    -0.200 F 
ATOM    111  F   UNL A   1      50.795  26.571  23.245  1.00  0.00    -0.200 F 
ENDBRANCH  78 101
ENDBRANCH  52  53
ENDBRANCH  45  47
ENDBRANCH  44  45
ENDBRANCH  43  44
ENDBRANCH  42  43
ENDBRANCH  41  42
ENDBRANCH  40  41
ENDBRANCH  39  40
ENDBRANCH  38  39
ENDBRANCH   1  38
TORSDOF 24
ENDMDL
