MODEL 1
REMARK VINA RESULT:     -10.8      0.000      0.000
REMARK SMILES O=C(OCCOCCOCCOC(=O)c1cc(-c2ccoc2)n[nH]1)c1ccc(-c2c3nc(c(-c4c(F)c(F)c(F)c(F)c4F)c4ccc([nH]4)c(-c4c(F)c(F)c(F)c(F)c4F)c4nc(c(-c5c(F)c(F)c(F)c(F)c5F)c5ccc2[nH]5)C=C4)C=C3)cc1
REMARK SMILES IDX 7 1 6 2 5 3 4 4 3 5 2 6 1 7 25 8 26 9 87 10 27 11 86 12
REMARK SMILES IDX 28 13 29 14 30 15 80 16 31 17 85 18 79 19 81 20 32 21 84 22
REMARK SMILES IDX 78 23 77 24 33 26 65 27 45 28 64 29 46 30 49 31 63 32 82 33
REMARK SMILES IDX 47 34 48 35 62 37 83 38 50 39 34 40 35 41 43 42 36 43 37 44
REMARK SMILES IDX 41 45 44 46 38 47 39 48 42 49 40 50 66 51 67 52 75 53 68 54
REMARK SMILES IDX 69 55 73 56 76 57 70 58 71 59 74 60 72 61 51 62 52 63 60 64
REMARK SMILES IDX 53 65 54 66 58 67 61 68 55 69 56 70 59 71 57 72 8 73 9 74
REMARK SMILES IDX 10 75 11 76 12 77 13 78 14 79 15 80 16 81 24 82 17 83 23 84
REMARK SMILES IDX 18 86 19 87 22 88 20 89 21 90
REMARK H PARENT 81 25 49 36 24 85
REMARK Flexibility Score: inf
ROOT
ATOM      1  C   UNL A   1      31.862  29.588  26.691  1.00  0.00     0.188 C 
ENDROOT
BRANCH   1   2
ATOM      2  O   UNL A   1      31.516  30.641  25.775  1.00  0.00    -0.376 OA
BRANCH   2   3
ATOM      3  C   UNL A   1      31.243  31.889  26.427  1.00  0.00     0.202 C 
BRANCH   3   4
ATOM      4  C   UNL A   1      32.470  32.536  27.079  1.00  0.00     0.261 C 
BRANCH   4   5
ATOM      5  O   UNL A   1      32.177  33.857  27.558  1.00  0.00    -0.460 OA
BRANCH   5   6
ATOM      6  C   UNL A   1      32.904  34.607  28.421  1.00  0.00     0.338 C 
ATOM      7  O   UNL A   1      32.512  35.740  28.693  1.00  0.00    -0.246 OA
BRANCH   6   8
ATOM      8  C   UNL A   1      34.137  34.114  29.110  1.00  0.00     0.060 A 
ATOM      9  C   UNL A   1      35.446  34.424  28.735  1.00  0.00     0.016 A 
ATOM     10  C   UNL A   1      33.951  33.344  30.272  1.00  0.00     0.016 A 
ATOM     11  C   UNL A   1      36.540  33.895  29.423  1.00  0.00     0.010 A 
ATOM     12  C   UNL A   1      35.044  32.861  31.003  1.00  0.00     0.010 A 
ATOM     13  C   UNL A   1      36.348  33.110  30.562  1.00  0.00    -0.014 A 
BRANCH  13  14
ATOM     14  C   UNL A   1      37.522  32.523  31.249  1.00  0.00     0.031 A 
ATOM     15  C   UNL A   1      38.292  31.420  30.586  1.00  0.00     0.074 A 
ATOM     16  C   UNL A   1      37.929  33.017  32.433  1.00  0.00     0.049 A 
ATOM     17  N   UNL A   1      39.301  30.725  31.045  1.00  0.00    -0.248 NA
ATOM     18  C   UNL A   1      37.879  31.054  29.222  1.00  0.00     0.031 C 
ATOM     19  C   UNL A   1      37.286  34.112  33.156  1.00  0.00     0.029 A 
ATOM     20  N   UNL A   1      38.981  32.663  33.238  1.00  0.00    -0.354 N 
ATOM     21  C   UNL A   1      39.631  29.831  30.036  1.00  0.00     0.074 A 
ATOM     22  C   UNL A   1      38.712  30.063  28.943  1.00  0.00     0.031 C 
ATOM     23  C   UNL A   1      37.948  34.337  34.302  1.00  0.00     0.029 A 
ATOM     24  C   UNL A   1      39.034  33.375  34.411  1.00  0.00     0.049 A 
ATOM     25  H   UNL A   1      39.634  31.966  32.998  1.00  0.00     0.167 HD
ATOM     26  C   UNL A   1      40.616  28.904  30.028  1.00  0.00     0.037 A 
ATOM     27  C   UNL A   1      39.841  33.229  35.475  1.00  0.00     0.037 A 
ATOM     28  C   UNL A   1      41.531  28.682  31.114  1.00  0.00     0.049 A 
ATOM     29  C   UNL A   1      40.873  32.144  35.467  1.00  0.00     0.074 A 
ATOM     30  C   UNL A   1      42.579  27.783  31.196  1.00  0.00     0.029 A 
ATOM     31  N   UNL A   1      41.500  29.371  32.317  1.00  0.00    -0.354 N 
ATOM     32  N   UNL A   1      41.145  31.271  34.531  1.00  0.00    -0.248 NA
ATOM     33  C   UNL A   1      41.694  32.012  36.678  1.00  0.00     0.031 C 
ATOM     34  C   UNL A   1      43.161  27.903  32.464  1.00  0.00     0.029 A 
ATOM     35  C   UNL A   1      42.494  28.899  33.158  1.00  0.00     0.049 A 
ATOM     36  H   UNL A   1      40.866  30.091  32.541  1.00  0.00     0.167 HD
ATOM     37  C   UNL A   1      42.140  30.461  35.052  1.00  0.00     0.074 A 
ATOM     38  C   UNL A   1      42.453  30.969  36.371  1.00  0.00     0.031 C 
ATOM     39  C   UNL A   1      42.738  29.384  34.489  1.00  0.00     0.037 A 
BRANCH  26  40
ATOM     40  C   UNL A   1      40.731  28.035  28.814  1.00  0.00     0.064 A 
ATOM     41  C   UNL A   1      40.045  26.816  28.715  1.00  0.00     0.173 A 
ATOM     42  C   UNL A   1      41.519  28.440  27.727  1.00  0.00     0.173 A 
ATOM     43  F   UNL A   1      39.295  26.378  29.738  1.00  0.00    -0.203 F 
ATOM     44  C   UNL A   1      40.155  26.027  27.573  1.00  0.00     0.198 A 
ATOM     45  C   UNL A   1      41.614  27.657  26.581  1.00  0.00     0.198 A 
ATOM     46  F   UNL A   1      42.198  29.596  27.779  1.00  0.00    -0.203 F 
ATOM     47  F   UNL A   1      39.518  24.849  27.511  1.00  0.00    -0.200 F 
ATOM     48  C   UNL A   1      40.935  26.450  26.506  1.00  0.00     0.200 A 
ATOM     49  F   UNL A   1      42.365  28.067  25.550  1.00  0.00    -0.200 F 
ATOM     50  F   UNL A   1      41.038  25.689  25.408  1.00  0.00    -0.200 F 
ENDBRANCH  26  40
BRANCH  27  51
ATOM     51  C   UNL A   1      39.638  34.045  36.692  1.00  0.00     0.064 A 
ATOM     52  C   UNL A   1      40.295  35.267  36.873  1.00  0.00     0.173 A 
ATOM     53  C   UNL A   1      38.844  33.557  37.738  1.00  0.00     0.173 A 
ATOM     54  F   UNL A   1      41.092  35.750  35.909  1.00  0.00    -0.203 F 
ATOM     55  C   UNL A   1      40.174  35.970  38.069  1.00  0.00     0.198 A 
ATOM     56  C   UNL A   1      38.726  34.259  38.934  1.00  0.00     0.198 A 
ATOM     57  F   UNL A   1      38.223  32.375  37.611  1.00  0.00    -0.203 F 
ATOM     58  F   UNL A   1      40.841  37.119  38.240  1.00  0.00    -0.200 F 
ATOM     59  C   UNL A   1      39.392  35.465  39.098  1.00  0.00     0.200 A 
ATOM     60  F   UNL A   1      37.996  33.758  39.939  1.00  0.00    -0.200 F 
ATOM     61  F   UNL A   1      39.298  36.129  40.259  1.00  0.00    -0.200 F 
ENDBRANCH  27  51
BRANCH  39  62
ATOM     62  C   UNL A   1      43.746  28.670  35.329  1.00  0.00     0.064 A 
ATOM     63  C   UNL A   1      45.100  29.039  35.298  1.00  0.00     0.173 A 
ATOM     64  C   UNL A   1      43.364  27.613  36.165  1.00  0.00     0.173 A 
ATOM     65  F   UNL A   1      45.510  30.029  34.491  1.00  0.00    -0.203 F 
ATOM     66  C   UNL A   1      46.039  28.362  36.068  1.00  0.00     0.198 A 
ATOM     67  C   UNL A   1      44.303  26.950  36.947  1.00  0.00     0.198 A 
ATOM     68  F   UNL A   1      42.082  27.223  36.218  1.00  0.00    -0.203 F 
ATOM     69  F   UNL A   1      47.333  28.702  35.996  1.00  0.00    -0.200 F 
ATOM     70  C   UNL A   1      45.640  27.321  36.894  1.00  0.00     0.200 A 
ATOM     71  F   UNL A   1      43.918  25.945  37.744  1.00  0.00    -0.200 F 
ATOM     72  F   UNL A   1      46.546  26.666  37.632  1.00  0.00    -0.200 F 
ENDBRANCH  39  62
ENDBRANCH  13  14
ENDBRANCH   6   8
ENDBRANCH   5   6
ENDBRANCH   4   5
ENDBRANCH   3   4
ENDBRANCH   2   3
ENDBRANCH   1   2
BRANCH   1  73
ATOM     73  C   UNL A   1      33.166  28.909  26.255  1.00  0.00     0.188 C 
BRANCH  73  74
ATOM     74  O   UNL A   1      33.092  27.483  26.119  1.00  0.00    -0.376 OA
BRANCH  74  75
ATOM     75  C   UNL A   1      32.693  26.975  24.850  1.00  0.00     0.202 C 
BRANCH  75  76
ATOM     76  C   UNL A   1      31.510  26.005  24.871  1.00  0.00     0.261 C 
BRANCH  76  77
ATOM     77  O   UNL A   1      30.743  26.016  23.657  1.00  0.00    -0.459 OA
BRANCH  77  78
ATOM     78  C   UNL A   1      29.596  26.747  23.728  1.00  0.00     0.356 C 
ATOM     79  O   UNL A   1      28.573  26.404  24.303  1.00  0.00    -0.244 OA
BRANCH  78  80
ATOM     80  C   UNL A   1      29.721  27.971  22.993  1.00  0.00     0.144 A 
ATOM     81  C   UNL A   1      28.835  29.029  22.976  1.00  0.00     0.066 A 
ATOM     82  N   UNL A   1      30.745  28.355  22.173  1.00  0.00    -0.271 N 
ATOM     83  C   UNL A   1      29.398  29.986  22.114  1.00  0.00     0.096 A 
ATOM     84  N   UNL A   1      30.567  29.570  21.614  1.00  0.00    -0.175 NA
ATOM     85  H   UNL A   1      31.538  27.797  22.005  1.00  0.00     0.190 HD
BRANCH  83  86
ATOM     86  C   UNL A   1      28.759  31.252  21.779  1.00  0.00     0.040 A 
ATOM     87  C   UNL A   1      28.096  31.549  20.558  1.00  0.00     0.052 A 
ATOM     88  C   UNL A   1      28.684  32.394  22.543  1.00  0.00     0.205 A 
ATOM     89  C   UNL A   1      27.650  32.845  20.672  1.00  0.00     0.195 A 
ATOM     90  O   UNL A   1      28.017  33.370  21.869  1.00  0.00    -0.472 OA
ENDBRANCH  83  86
ENDBRANCH  78  80
ENDBRANCH  77  78
ENDBRANCH  76  77
ENDBRANCH  75  76
ENDBRANCH  74  75
ENDBRANCH  73  74
ENDBRANCH   1  73
TORSDOF 18
ENDMDL
MODEL 2
REMARK VINA RESULT:     -10.6      5.921     10.632
REMARK SMILES O=C(OCCOCCOCCOC(=O)c1cc(-c2ccoc2)n[nH]1)c1ccc(-c2c3nc(c(-c4c(F)c(F)c(F)c(F)c4F)c4ccc([nH]4)c(-c4c(F)c(F)c(F)c(F)c4F)c4nc(c(-c5c(F)c(F)c(F)c(F)c5F)c5ccc2[nH]5)C=C4)C=C3)cc1
REMARK SMILES IDX 7 1 6 2 5 3 4 4 3 5 2 6 1 7 25 8 26 9 87 10 27 11 86 12
REMARK SMILES IDX 28 13 29 14 30 15 80 16 31 17 85 18 79 19 81 20 32 21 84 22
REMARK SMILES IDX 78 23 77 24 33 26 65 27 45 28 64 29 46 30 49 31 63 32 82 33
REMARK SMILES IDX 47 34 48 35 62 37 83 38 50 39 34 40 35 41 43 42 36 43 37 44
REMARK SMILES IDX 41 45 44 46 38 47 39 48 42 49 40 50 66 51 67 52 75 53 68 54
REMARK SMILES IDX 69 55 73 56 76 57 70 58 71 59 74 60 72 61 51 62 52 63 60 64
REMARK SMILES IDX 53 65 54 66 58 67 61 68 55 69 56 70 59 71 57 72 8 73 9 74
REMARK SMILES IDX 10 75 11 76 12 77 13 78 14 79 15 80 16 81 24 82 17 83 23 84
REMARK SMILES IDX 18 86 19 87 22 88 20 89 21 90
REMARK H PARENT 81 25 49 36 24 85
REMARK Flexibility Score: inf
ROOT
ATOM      1  C   UNL A   1      42.962  18.454  26.676  1.00  0.00     0.188 C 
ENDROOT
BRANCH   1   2
ATOM      2  O   UNL A   1      41.996  19.345  27.261  1.00  0.00    -0.376 OA
BRANCH   2   3
ATOM      3  C   UNL A   1      41.378  20.215  26.303  1.00  0.00     0.202 C 
BRANCH   3   4
ATOM      4  C   UNL A   1      40.542  21.338  26.926  1.00  0.00     0.261 C 
BRANCH   4   5
ATOM      5  O   UNL A   1      39.706  21.977  25.950  1.00  0.00    -0.460 OA
BRANCH   5   6
ATOM      6  C   UNL A   1      38.920  23.069  26.116  1.00  0.00     0.338 C 
ATOM      7  O   UNL A   1      37.785  23.056  25.644  1.00  0.00    -0.246 OA
BRANCH   6   8
ATOM      8  C   UNL A   1      39.337  24.277  26.893  1.00  0.00     0.060 A 
ATOM      9  C   UNL A   1      39.073  24.493  28.248  1.00  0.00     0.016 A 
ATOM     10  C   UNL A   1      40.125  25.226  26.218  1.00  0.00     0.016 A 
ATOM     11  C   UNL A   1      39.479  25.666  28.885  1.00  0.00     0.010 A 
ATOM     12  C   UNL A   1      40.589  26.376  26.869  1.00  0.00     0.010 A 
ATOM     13  C   UNL A   1      40.240  26.617  28.202  1.00  0.00    -0.014 A 
BRANCH  13  14
ATOM     14  C   UNL A   1      40.621  27.875  28.886  1.00  0.00     0.031 A 
ATOM     15  C   UNL A   1      42.023  28.046  29.392  1.00  0.00     0.074 A 
ATOM     16  C   UNL A   1      39.732  28.879  28.999  1.00  0.00     0.049 A 
ATOM     17  N   UNL A   1      42.539  29.034  30.077  1.00  0.00    -0.248 NA
ATOM     18  C   UNL A   1      42.973  26.968  29.079  1.00  0.00     0.031 C 
ATOM     19  C   UNL A   1      38.354  28.844  28.514  1.00  0.00     0.029 A 
ATOM     20  N   UNL A   1      39.853  30.123  29.561  1.00  0.00    -0.354 N 
ATOM     21  C   UNL A   1      43.866  28.690  30.291  1.00  0.00     0.074 A 
ATOM     22  C   UNL A   1      44.077  27.399  29.673  1.00  0.00     0.031 C 
ATOM     23  C   UNL A   1      37.751  30.008  28.804  1.00  0.00     0.029 A 
ATOM     24  C   UNL A   1      38.689  30.851  29.531  1.00  0.00     0.049 A 
ATOM     25  H   UNL A   1      40.693  30.463  29.947  1.00  0.00     0.167 HD
ATOM     26  C   UNL A   1      44.819  29.393  30.945  1.00  0.00     0.037 A 
ATOM     27  C   UNL A   1      38.400  32.044  30.077  1.00  0.00     0.037 A 
ATOM     28  C   UNL A   1      44.606  30.679  31.551  1.00  0.00     0.049 A 
ATOM     29  C   UNL A   1      39.455  32.764  30.859  1.00  0.00     0.074 A 
ATOM     30  C   UNL A   1      45.512  31.484  32.217  1.00  0.00     0.029 A 
ATOM     31  N   UNL A   1      43.390  31.345  31.568  1.00  0.00    -0.354 N 
ATOM     32  N   UNL A   1      40.691  32.409  31.100  1.00  0.00    -0.248 NA
ATOM     33  C   UNL A   1      39.062  34.043  31.465  1.00  0.00     0.031 C 
ATOM     34  C   UNL A   1      44.835  32.624  32.669  1.00  0.00     0.029 A 
ATOM     35  C   UNL A   1      43.515  32.540  32.256  1.00  0.00     0.049 A 
ATOM     36  H   UNL A   1      42.560  31.017  31.152  1.00  0.00     0.167 HD
ATOM     37  C   UNL A   1      41.213  33.398  31.916  1.00  0.00     0.074 A 
ATOM     38  C   UNL A   1      40.173  34.389  32.099  1.00  0.00     0.031 C 
ATOM     39  C   UNL A   1      42.445  33.474  32.473  1.00  0.00     0.037 A 
BRANCH  26  40
ATOM     40  C   UNL A   1      46.173  28.767  31.065  1.00  0.00     0.064 A 
ATOM     41  C   UNL A   1      47.218  29.102  30.191  1.00  0.00     0.173 A 
ATOM     42  C   UNL A   1      46.435  27.839  32.083  1.00  0.00     0.173 A 
ATOM     43  F   UNL A   1      47.008  29.970  29.189  1.00  0.00    -0.203 F 
ATOM     44  C   UNL A   1      48.475  28.517  30.325  1.00  0.00     0.198 A 
ATOM     45  C   UNL A   1      47.698  27.270  32.224  1.00  0.00     0.198 A 
ATOM     46  F   UNL A   1      45.466  27.485  32.939  1.00  0.00    -0.203 F 
ATOM     47  F   UNL A   1      49.451  28.825  29.459  1.00  0.00    -0.200 F 
ATOM     48  C   UNL A   1      48.714  27.606  31.344  1.00  0.00     0.200 A 
ATOM     49  F   UNL A   1      47.929  26.392  33.210  1.00  0.00    -0.200 F 
ATOM     50  F   UNL A   1      49.925  27.047  31.472  1.00  0.00    -0.200 F 
ENDBRANCH  26  40
BRANCH  27  51
ATOM     51  C   UNL A   1      37.026  32.588  30.016  1.00  0.00     0.064 A 
ATOM     52  C   UNL A   1      36.626  33.455  28.993  1.00  0.00     0.173 A 
ATOM     53  C   UNL A   1      36.117  32.313  31.047  1.00  0.00     0.173 A 
ATOM     54  F   UNL A   1      37.480  33.770  28.009  1.00  0.00    -0.203 F 
ATOM     55  C   UNL A   1      35.363  34.040  29.010  1.00  0.00     0.198 A 
ATOM     56  C   UNL A   1      34.855  32.901  31.063  1.00  0.00     0.198 A 
ATOM     57  F   UNL A   1      36.477  31.510  32.058  1.00  0.00    -0.203 F 
ATOM     58  F   UNL A   1      35.010  34.898  28.043  1.00  0.00    -0.200 F 
ATOM     59  C   UNL A   1      34.480  33.765  30.045  1.00  0.00     0.200 A 
ATOM     60  F   UNL A   1      34.014  32.659  32.077  1.00  0.00    -0.200 F 
ATOM     61  F   UNL A   1      33.274  34.350  30.074  1.00  0.00    -0.200 F 
ENDBRANCH  27  51
BRANCH  39  62
ATOM     62  C   UNL A   1      42.698  34.646  33.365  1.00  0.00     0.064 A 
ATOM     63  C   UNL A   1      43.192  35.853  32.846  1.00  0.00     0.173 A 
ATOM     64  C   UNL A   1      42.452  34.566  34.742  1.00  0.00     0.173 A 
ATOM     65  F   UNL A   1      43.465  35.962  31.537  1.00  0.00    -0.203 F 
ATOM     66  C   UNL A   1      43.443  36.936  33.681  1.00  0.00     0.198 A 
ATOM     67  C   UNL A   1      42.687  35.657  35.571  1.00  0.00     0.198 A 
ATOM     68  F   UNL A   1      41.988  33.429  35.280  1.00  0.00    -0.203 F 
ATOM     69  F   UNL A   1      43.951  38.068  33.174  1.00  0.00    -0.200 F 
ATOM     70  C   UNL A   1      43.187  36.839  35.041  1.00  0.00     0.200 A 
ATOM     71  F   UNL A   1      42.441  35.564  36.884  1.00  0.00    -0.200 F 
ATOM     72  F   UNL A   1      43.433  37.882  35.845  1.00  0.00    -0.200 F 
ENDBRANCH  39  62
ENDBRANCH  13  14
ENDBRANCH   6   8
ENDBRANCH   5   6
ENDBRANCH   4   5
ENDBRANCH   3   4
ENDBRANCH   2   3
ENDBRANCH   1   2
BRANCH   1  73
ATOM     73  C   UNL A   1      43.412  18.978  25.307  1.00  0.00     0.188 C 
BRANCH  73  74
ATOM     74  O   UNL A   1      44.663  18.458  24.839  1.00  0.00    -0.376 OA
BRANCH  74  75
ATOM     75  C   UNL A   1      45.828  19.229  25.118  1.00  0.00     0.202 C 
BRANCH  75  76
ATOM     76  C   UNL A   1      45.579  20.700  25.457  1.00  0.00     0.261 C 
BRANCH  76  77
ATOM     77  O   UNL A   1      45.437  21.535  24.297  1.00  0.00    -0.459 OA
BRANCH  77  78
ATOM     78  C   UNL A   1      44.447  22.465  24.398  1.00  0.00     0.356 C 
ATOM     79  O   UNL A   1      43.257  22.254  24.216  1.00  0.00    -0.244 OA
BRANCH  78  80
ATOM     80  C   UNL A   1      44.986  23.758  24.703  1.00  0.00     0.144 A 
ATOM     81  C   UNL A   1      44.304  24.854  25.189  1.00  0.00     0.066 A 
ATOM     82  N   UNL A   1      46.286  24.170  24.596  1.00  0.00    -0.271 N 
ATOM     83  C   UNL A   1      45.262  25.872  25.326  1.00  0.00     0.096 A 
ATOM     84  N   UNL A   1      46.478  25.456  24.955  1.00  0.00    -0.175 NA
ATOM     85  H   UNL A   1      47.012  23.583  24.286  1.00  0.00     0.190 HD
BRANCH  83  86
ATOM     86  C   UNL A   1      44.953  27.223  25.776  1.00  0.00     0.040 A 
ATOM     87  C   UNL A   1      45.850  28.100  26.445  1.00  0.00     0.052 A 
ATOM     88  C   UNL A   1      43.763  27.904  25.667  1.00  0.00     0.205 A 
ATOM     89  C   UNL A   1      45.146  29.257  26.681  1.00  0.00     0.195 A 
ATOM     90  O   UNL A   1      43.873  29.140  26.225  1.00  0.00    -0.472 OA
ENDBRANCH  83  86
ENDBRANCH  78  80
ENDBRANCH  77  78
ENDBRANCH  76  77
ENDBRANCH  75  76
ENDBRANCH  74  75
ENDBRANCH  73  74
ENDBRANCH   1  73
TORSDOF 18
ENDMDL
MODEL 3
REMARK VINA RESULT:     -10.5      2.565      4.404
REMARK SMILES O=C(OCCOCCOCCOC(=O)c1cc(-c2ccoc2)n[nH]1)c1ccc(-c2c3nc(c(-c4c(F)c(F)c(F)c(F)c4F)c4ccc([nH]4)c(-c4c(F)c(F)c(F)c(F)c4F)c4nc(c(-c5c(F)c(F)c(F)c(F)c5F)c5ccc2[nH]5)C=C4)C=C3)cc1
REMARK SMILES IDX 7 1 6 2 5 3 4 4 3 5 2 6 1 7 25 8 26 9 87 10 27 11 86 12
REMARK SMILES IDX 28 13 29 14 30 15 80 16 31 17 85 18 79 19 81 20 32 21 84 22
REMARK SMILES IDX 78 23 77 24 33 26 65 27 45 28 64 29 46 30 49 31 63 32 82 33
REMARK SMILES IDX 47 34 48 35 62 37 83 38 50 39 34 40 35 41 43 42 36 43 37 44
REMARK SMILES IDX 41 45 44 46 38 47 39 48 42 49 40 50 66 51 67 52 75 53 68 54
REMARK SMILES IDX 69 55 73 56 76 57 70 58 71 59 74 60 72 61 51 62 52 63 60 64
REMARK SMILES IDX 53 65 54 66 58 67 61 68 55 69 56 70 59 71 57 72 8 73 9 74
REMARK SMILES IDX 10 75 11 76 12 77 13 78 14 79 15 80 16 81 24 82 17 83 23 84
REMARK SMILES IDX 18 86 19 87 22 88 20 89 21 90
REMARK H PARENT 81 25 49 36 24 85
REMARK Flexibility Score: inf
ROOT
ATOM      1  C   UNL A   1      32.187  29.771  26.259  1.00  0.00     0.188 C 
ENDROOT
BRANCH   1   2
ATOM      2  O   UNL A   1      31.427  30.796  25.595  1.00  0.00    -0.376 OA
BRANCH   2   3
ATOM      3  C   UNL A   1      31.158  31.929  26.431  1.00  0.00     0.202 C 
BRANCH   3   4
ATOM      4  C   UNL A   1      32.396  32.492  27.139  1.00  0.00     0.261 C 
BRANCH   4   5
ATOM      5  O   UNL A   1      32.206  33.862  27.522  1.00  0.00    -0.460 OA
BRANCH   5   6
ATOM      6  C   UNL A   1      32.952  34.593  28.386  1.00  0.00     0.338 C 
ATOM      7  O   UNL A   1      32.579  35.730  28.672  1.00  0.00    -0.246 OA
BRANCH   6   8
ATOM      8  C   UNL A   1      34.183  34.075  29.060  1.00  0.00     0.060 A 
ATOM      9  C   UNL A   1      35.493  34.415  28.712  1.00  0.00     0.016 A 
ATOM     10  C   UNL A   1      33.994  33.246  30.178  1.00  0.00     0.016 A 
ATOM     11  C   UNL A   1      36.585  33.861  29.382  1.00  0.00     0.010 A 
ATOM     12  C   UNL A   1      35.085  32.735  30.894  1.00  0.00     0.010 A 
ATOM     13  C   UNL A   1      36.391  33.017  30.477  1.00  0.00    -0.014 A 
BRANCH  13  14
ATOM     14  C   UNL A   1      37.564  32.405  31.144  1.00  0.00     0.031 A 
ATOM     15  C   UNL A   1      38.330  31.322  30.445  1.00  0.00     0.074 A 
ATOM     16  C   UNL A   1      37.974  32.860  32.342  1.00  0.00     0.049 A 
ATOM     17  N   UNL A   1      39.338  30.610  30.879  1.00  0.00    -0.248 NA
ATOM     18  C   UNL A   1      37.914  31.002  29.070  1.00  0.00     0.031 C 
ATOM     19  C   UNL A   1      37.334  33.932  33.101  1.00  0.00     0.029 A 
ATOM     20  N   UNL A   1      39.025  32.477  33.134  1.00  0.00    -0.354 N 
ATOM     21  C   UNL A   1      39.665  29.749  29.842  1.00  0.00     0.074 A 
ATOM     22  C   UNL A   1      38.745  30.018  28.758  1.00  0.00     0.031 C 
ATOM     23  C   UNL A   1      37.998  34.119  34.254  1.00  0.00     0.029 A 
ATOM     24  C   UNL A   1      39.082  33.151  34.329  1.00  0.00     0.049 A 
ATOM     25  H   UNL A   1      39.676  31.786  32.871  1.00  0.00     0.167 HD
ATOM     26  C   UNL A   1      40.647  28.819  29.803  1.00  0.00     0.037 A 
ATOM     27  C   UNL A   1      39.889  32.969  35.387  1.00  0.00     0.037 A 
ATOM     28  C   UNL A   1      41.563  28.561  30.880  1.00  0.00     0.049 A 
ATOM     29  C   UNL A   1      40.919  31.881  35.343  1.00  0.00     0.074 A 
ATOM     30  C   UNL A   1      42.609  27.657  30.931  1.00  0.00     0.029 A 
ATOM     31  N   UNL A   1      41.535  29.211  32.105  1.00  0.00    -0.354 N 
ATOM     32  N   UNL A   1      41.188  31.038  34.379  1.00  0.00    -0.248 NA
ATOM     33  C   UNL A   1      41.741  31.709  36.548  1.00  0.00     0.031 C 
ATOM     34  C   UNL A   1      43.192  27.734  32.202  1.00  0.00     0.029 A 
ATOM     35  C   UNL A   1      42.529  28.709  32.929  1.00  0.00     0.049 A 
ATOM     36  H   UNL A   1      40.903  29.924  32.352  1.00  0.00     0.167 HD
ATOM     37  C   UNL A   1      42.181  30.209  34.872  1.00  0.00     0.074 A 
ATOM     38  C   UNL A   1      42.496  30.674  36.207  1.00  0.00     0.031 C 
ATOM     39  C   UNL A   1      42.775  29.150  34.274  1.00  0.00     0.037 A 
BRANCH  26  40
ATOM     40  C   UNL A   1      40.759  27.990  28.561  1.00  0.00     0.064 A 
ATOM     41  C   UNL A   1      40.086  26.766  28.432  1.00  0.00     0.173 A 
ATOM     42  C   UNL A   1      41.529  28.438  27.479  1.00  0.00     0.173 A 
ATOM     43  F   UNL A   1      39.354  26.288  29.449  1.00  0.00    -0.203 F 
ATOM     44  C   UNL A   1      40.193  26.014  27.265  1.00  0.00     0.198 A 
ATOM     45  C   UNL A   1      41.620  27.691  26.308  1.00  0.00     0.198 A 
ATOM     46  F   UNL A   1      42.195  29.600  27.559  1.00  0.00    -0.203 F 
ATOM     47  F   UNL A   1      39.569  24.831  27.173  1.00  0.00    -0.200 F 
ATOM     48  C   UNL A   1      40.955  26.479  26.203  1.00  0.00     0.200 A 
ATOM     49  F   UNL A   1      42.354  28.143  25.282  1.00  0.00    -0.200 F 
ATOM     50  F   UNL A   1      41.054  25.754  25.081  1.00  0.00    -0.200 F 
ENDBRANCH  26  40
BRANCH  27  51
ATOM     51  C   UNL A   1      39.690  33.745  36.631  1.00  0.00     0.064 A 
ATOM     52  C   UNL A   1      38.842  33.295  37.648  1.00  0.00     0.173 A 
ATOM     53  C   UNL A   1      40.285  35.007  36.771  1.00  0.00     0.173 A 
ATOM     54  F   UNL A   1      38.226  32.109  37.533  1.00  0.00    -0.203 F 
ATOM     55  C   UNL A   1      38.585  34.088  38.763  1.00  0.00     0.198 A 
ATOM     56  C   UNL A   1      40.025  35.799  37.885  1.00  0.00     0.198 A 
ATOM     57  F   UNL A   1      41.080  35.482  35.802  1.00  0.00    -0.203 F 
ATOM     58  F   UNL A   1      37.740  33.658  39.710  1.00  0.00    -0.200 F 
ATOM     59  C   UNL A   1      39.174  35.339  38.880  1.00  0.00     0.200 A 
ATOM     60  F   UNL A   1      40.569  37.019  37.985  1.00  0.00    -0.200 F 
ATOM     61  F   UNL A   1      38.905  36.113  39.941  1.00  0.00    -0.200 F 
ENDBRANCH  27  51
BRANCH  39  62
ATOM     62  C   UNL A   1      43.783  28.407  35.089  1.00  0.00     0.064 A 
ATOM     63  C   UNL A   1      45.130  28.798  35.100  1.00  0.00     0.173 A 
ATOM     64  C   UNL A   1      43.406  27.299  35.860  1.00  0.00     0.173 A 
ATOM     65  F   UNL A   1      45.536  29.838  34.356  1.00  0.00    -0.203 F 
ATOM     66  C   UNL A   1      46.069  28.094  35.847  1.00  0.00     0.198 A 
ATOM     67  C   UNL A   1      44.344  26.609  36.619  1.00  0.00     0.198 A 
ATOM     68  F   UNL A   1      42.130  26.887  35.871  1.00  0.00    -0.203 F 
ATOM     69  F   UNL A   1      47.358  28.459  35.814  1.00  0.00    -0.200 F 
ATOM     70  C   UNL A   1      45.675  27.003  36.608  1.00  0.00     0.200 A 
ATOM     71  F   UNL A   1      43.965  25.555  37.353  1.00  0.00    -0.200 F 
ATOM     72  F   UNL A   1      46.581  26.323  37.323  1.00  0.00    -0.200 F 
ENDBRANCH  39  62
ENDBRANCH  13  14
ENDBRANCH   6   8
ENDBRANCH   5   6
ENDBRANCH   4   5
ENDBRANCH   3   4
ENDBRANCH   2   3
ENDBRANCH   1   2
BRANCH   1  73
ATOM     73  C   UNL A   1      32.604  28.685  25.259  1.00  0.00     0.188 C 
BRANCH  73  74
ATOM     74  O   UNL A   1      32.045  27.388  25.504  1.00  0.00    -0.376 OA
BRANCH  74  75
ATOM     75  C   UNL A   1      32.798  26.506  26.332  1.00  0.00     0.202 C 
BRANCH  75  76
ATOM     76  C   UNL A   1      32.588  25.014  26.066  1.00  0.00     0.261 C 
BRANCH  76  77
ATOM     77  O   UNL A   1      32.653  24.669  24.674  1.00  0.00    -0.459 OA
BRANCH  77  78
ATOM     78  C   UNL A   1      31.606  23.915  24.237  1.00  0.00     0.356 C 
ATOM     79  O   UNL A   1      30.578  24.352  23.740  1.00  0.00    -0.244 OA
BRANCH  78  80
ATOM     80  C   UNL A   1      31.841  22.522  24.478  1.00  0.00     0.144 A 
ATOM     81  C   UNL A   1      32.288  21.581  23.573  1.00  0.00     0.066 A 
ATOM     82  N   UNL A   1      31.691  21.838  25.653  1.00  0.00    -0.271 N 
ATOM     83  C   UNL A   1      32.359  20.370  24.283  1.00  0.00     0.096 A 
ATOM     84  N   UNL A   1      31.986  20.525  25.558  1.00  0.00    -0.175 NA
ATOM     85  H   UNL A   1      31.395  22.264  26.490  1.00  0.00     0.190 HD
BRANCH  83  86
ATOM     86  C   UNL A   1      32.752  19.100  23.686  1.00  0.00     0.040 A 
ATOM     87  C   UNL A   1      33.705  18.192  24.220  1.00  0.00     0.052 A 
ATOM     88  C   UNL A   1      32.309  18.542  22.509  1.00  0.00     0.205 A 
ATOM     89  C   UNL A   1      33.762  17.139  23.338  1.00  0.00     0.195 A 
ATOM     90  O   UNL A   1      32.929  17.351  22.288  1.00  0.00    -0.472 OA
ENDBRANCH  83  86
ENDBRANCH  78  80
ENDBRANCH  77  78
ENDBRANCH  76  77
ENDBRANCH  75  76
ENDBRANCH  74  75
ENDBRANCH  73  74
ENDBRANCH   1  73
TORSDOF 18
ENDMDL
