MODEL 1
REMARK VINA RESULT:     -11.3      0.000      0.000
REMARK SMILES O=C(C[C@H]1SC[C@@H](C(=O)OCCOCCOCCOC(=O)c2ccc(-c3c4nc(c(-c5c(F)c(F)c(F)c(F)c5F)c5ccc([nH]5)c(-c5c(F)c(F)c(F)c(F)c5F)c5nc(c(-c6c(F)c(F)c(F)c(F)c6F)c6ccc3[nH]6)C=C5)C=C4)cc2)NC1=O)Nc1cccc(Cl)c1
REMARK SMILES IDX 14 1 13 2 12 3 11 4 10 5 8 6 9 7 7 8 4 9 5 10 86 11 6 12
REMARK SMILES IDX 85 13 87 14 3 16 2 17 1 18 88 19 89 21 90 22 95 23 91 24
REMARK SMILES IDX 93 25 92 26 94 27 15 28 16 29 17 30 18 31 19 32 20 33 21 34
REMARK SMILES IDX 22 35 23 36 84 37 24 38 83 39 25 40 26 41 27 42 77 43 28 44
REMARK SMILES IDX 82 45 76 46 78 47 29 48 81 49 75 50 74 51 30 53 62 54 42 55
REMARK SMILES IDX 61 56 43 57 46 58 60 59 79 60 44 61 45 62 59 64 80 65 47 66
REMARK SMILES IDX 31 67 32 68 40 69 33 70 34 71 38 72 41 73 35 74 36 75 39 76
REMARK SMILES IDX 37 77 63 78 64 79 72 80 65 81 66 82 70 83 73 84 67 85 68 86
REMARK SMILES IDX 71 87 69 88 48 89 49 90 57 91 50 92 51 93 55 94 58 95 52 96
REMARK SMILES IDX 53 97 56 98 54 99
REMARK H PARENT 85 15 88 20 78 52 46 63
REMARK Flexibility Score: inf
ROOT
ATOM      1  C   UNL A   1      42.682  18.757  26.188  1.00  0.00     0.188 C 
ENDROOT
BRANCH   1   2
ATOM      2  O   UNL A   1      41.566  19.442  25.626  1.00  0.00    -0.376 OA
BRANCH   2   3
ATOM      3  C   UNL A   1      40.829  20.284  26.512  1.00  0.00     0.202 C 
BRANCH   3   4
ATOM      4  C   UNL A   1      39.648  21.049  25.897  1.00  0.00     0.261 C 
BRANCH   4   5
ATOM      5  O   UNL A   1      38.724  20.242  25.123  1.00  0.00    -0.462 OA
BRANCH   5   6
ATOM      6  C   UNL A   1      37.422  20.610  25.228  1.00  0.00     0.329 C 
ATOM      7  O   UNL A   1      36.476  19.880  24.933  1.00  0.00    -0.250 OA
BRANCH   6   8
ATOM      8  C   UNL A   1      37.167  22.066  25.676  1.00  0.00     0.202 C 
ATOM      9  C   UNL A   1      35.104  23.750  24.058  1.00  0.00     0.145 C 
ATOM     10  S   UNL A   1      34.419  22.886  25.514  1.00  0.00    -0.145 SA
ATOM     11  C   UNL A   1      36.418  23.167  23.561  1.00  0.00     0.234 C 
ATOM     12  C   UNL A   1      35.912  22.433  26.457  1.00  0.00     0.107 C 
ATOM     13  N   UNL A   1      37.389  22.873  24.473  1.00  0.00    -0.341 N 
ATOM     14  O   UNL A   1      36.716  23.112  22.372  1.00  0.00    -0.274 OA
ATOM     15  H   UNL A   1      38.294  23.225  24.313  1.00  0.00     0.164 HD
BRANCH   9  16
ATOM     16  C   UNL A   1      34.006  23.743  22.979  1.00  0.00     0.124 C 
BRANCH  16  17
ATOM     17  C   UNL A   1      33.427  25.108  22.639  1.00  0.00     0.226 C 
ATOM     18  O   UNL A   1      33.864  25.768  21.703  1.00  0.00    -0.275 OA
ATOM     19  N   UNL A   1      32.394  25.478  23.478  1.00  0.00    -0.326 N 
ATOM     20  H   UNL A   1      32.034  24.790  24.083  1.00  0.00     0.169 HD
BRANCH  19  21
ATOM     21  C   UNL A   1      31.815  26.757  23.538  1.00  0.00     0.042 A 
ATOM     22  C   UNL A   1      30.820  27.025  22.591  1.00  0.00     0.026 A 
ATOM     23  C   UNL A   1      32.144  27.721  24.492  1.00  0.00     0.046 A 
ATOM     24  C   UNL A   1      30.107  28.220  22.633  1.00  0.00     0.004 A 
ATOM     25  C   UNL A   1      31.455  28.934  24.498  1.00  0.00     0.043 A 
ATOM     26  C   UNL A   1      30.428  29.179  23.588  1.00  0.00     0.020 A 
ATOM     27  Cl  UNL A   1      31.855  30.162  25.628  1.00  0.00    -0.084 Cl
ENDBRANCH  19  21
ENDBRANCH  16  17
ENDBRANCH   9  16
ENDBRANCH   6   8
ENDBRANCH   5   6
ENDBRANCH   4   5
ENDBRANCH   3   4
ENDBRANCH   2   3
ENDBRANCH   1   2
BRANCH   1  28
ATOM     28  C   UNL A   1      43.990  18.918  25.412  1.00  0.00     0.188 C 
BRANCH  28  29
ATOM     29  O   UNL A   1      44.037  20.034  24.543  1.00  0.00    -0.376 OA
BRANCH  29  30
ATOM     30  C   UNL A   1      45.116  20.954  24.701  1.00  0.00     0.202 C 
BRANCH  30  31
ATOM     31  C   UNL A   1      45.086  22.356  24.039  1.00  0.00     0.261 C 
BRANCH  31  32
ATOM     32  O   UNL A   1      44.642  23.474  24.839  1.00  0.00    -0.460 OA
BRANCH  32  33
ATOM     33  C   UNL A   1      43.308  23.591  25.052  1.00  0.00     0.338 C 
ATOM     34  O   UNL A   1      42.449  22.878  24.582  1.00  0.00    -0.246 OA
BRANCH  33  35
ATOM     35  C   UNL A   1      43.070  24.562  26.168  1.00  0.00     0.060 A 
ATOM     36  C   UNL A   1      42.313  24.102  27.252  1.00  0.00     0.016 A 
ATOM     37  C   UNL A   1      43.582  25.864  26.201  1.00  0.00     0.016 A 
ATOM     38  C   UNL A   1      42.054  24.928  28.351  1.00  0.00     0.010 A 
ATOM     39  C   UNL A   1      43.294  26.707  27.296  1.00  0.00     0.010 A 
ATOM     40  C   UNL A   1      42.516  26.248  28.375  1.00  0.00    -0.014 A 
BRANCH  40  41
ATOM     41  C   UNL A   1      42.009  27.163  29.439  1.00  0.00     0.031 A 
ATOM     42  C   UNL A   1      42.773  27.260  30.731  1.00  0.00     0.074 A 
ATOM     43  C   UNL A   1      40.955  27.982  29.249  1.00  0.00     0.049 A 
ATOM     44  N   UNL A   1      42.530  27.978  31.799  1.00  0.00    -0.248 NA
ATOM     45  C   UNL A   1      43.990  26.440  30.822  1.00  0.00     0.031 C 
ATOM     46  C   UNL A   1      40.181  28.081  28.018  1.00  0.00     0.029 A 
ATOM     47  N   UNL A   1      40.369  28.903  30.090  1.00  0.00    -0.354 N 
ATOM     48  C   UNL A   1      43.549  27.684  32.693  1.00  0.00     0.074 A 
ATOM     49  C   UNL A   1      44.414  26.721  32.044  1.00  0.00     0.031 C 
ATOM     50  C   UNL A   1      39.228  29.017  28.178  1.00  0.00     0.029 A 
ATOM     51  C   UNL A   1      39.288  29.550  29.539  1.00  0.00     0.049 A 
ATOM     52  H   UNL A   1      40.694  29.081  31.003  1.00  0.00     0.167 HD
ATOM     53  C   UNL A   1      43.744  28.162  33.946  1.00  0.00     0.037 A 
ATOM     54  C   UNL A   1      38.431  30.449  30.071  1.00  0.00     0.037 A 
ATOM     55  C   UNL A   1      42.886  29.113  34.605  1.00  0.00     0.049 A 
ATOM     56  C   UNL A   1      38.614  30.888  31.508  1.00  0.00     0.074 A 
ATOM     57  C   UNL A   1      42.997  29.628  35.886  1.00  0.00     0.029 A 
ATOM     58  N   UNL A   1      41.757  29.687  34.042  1.00  0.00    -0.354 N 
ATOM     59  N   UNL A   1      39.574  30.597  32.352  1.00  0.00    -0.248 NA
ATOM     60  C   UNL A   1      37.583  31.775  32.071  1.00  0.00     0.031 C 
ATOM     61  C   UNL A   1      41.899  30.462  36.120  1.00  0.00     0.029 A 
ATOM     62  C   UNL A   1      41.143  30.524  34.962  1.00  0.00     0.049 A 
ATOM     63  H   UNL A   1      41.438  29.525  33.125  1.00  0.00     0.167 HD
ATOM     64  C   UNL A   1      39.279  31.283  33.525  1.00  0.00     0.074 A 
ATOM     65  C   UNL A   1      38.067  32.033  33.277  1.00  0.00     0.031 C 
ATOM     66  C   UNL A   1      39.945  31.283  34.708  1.00  0.00     0.037 A 
BRANCH  53  67
ATOM     67  C   UNL A   1      44.902  27.600  34.718  1.00  0.00     0.064 A 
ATOM     68  C   UNL A   1      46.121  28.283  34.837  1.00  0.00     0.173 A 
ATOM     69  C   UNL A   1      44.780  26.357  35.357  1.00  0.00     0.173 A 
ATOM     70  F   UNL A   1      46.295  29.465  34.227  1.00  0.00    -0.203 F 
ATOM     71  C   UNL A   1      47.186  27.726  35.540  1.00  0.00     0.198 A 
ATOM     72  C   UNL A   1      45.835  25.818  36.087  1.00  0.00     0.198 A 
ATOM     73  F   UNL A   1      43.634  25.663  35.277  1.00  0.00    -0.203 F 
ATOM     74  F   UNL A   1      48.361  28.368  35.591  1.00  0.00    -0.200 F 
ATOM     75  C   UNL A   1      47.041  26.498  36.169  1.00  0.00     0.200 A 
ATOM     76  F   UNL A   1      45.688  24.638  36.705  1.00  0.00    -0.200 F 
ATOM     77  F   UNL A   1      48.067  25.965  36.846  1.00  0.00    -0.200 F 
ENDBRANCH  53  67
BRANCH  54  78
ATOM     78  C   UNL A   1      37.286  30.979  29.269  1.00  0.00     0.064 A 
ATOM     79  C   UNL A   1      37.254  32.314  28.840  1.00  0.00     0.173 A 
ATOM     80  C   UNL A   1      36.162  30.188  28.984  1.00  0.00     0.173 A 
ATOM     81  F   UNL A   1      38.269  33.135  29.148  1.00  0.00    -0.203 F 
ATOM     82  C   UNL A   1      36.141  32.840  28.180  1.00  0.00     0.198 A 
ATOM     83  C   UNL A   1      35.073  30.700  28.279  1.00  0.00     0.198 A 
ATOM     84  F   UNL A   1      36.107  28.918  29.410  1.00  0.00    -0.203 F 
ATOM     85  F   UNL A   1      36.089  34.144  27.879  1.00  0.00    -0.200 F 
ATOM     86  C   UNL A   1      35.059  32.027  27.884  1.00  0.00     0.200 A 
ATOM     87  F   UNL A   1      34.021  29.913  28.014  1.00  0.00    -0.200 F 
ATOM     88  F   UNL A   1      33.989  32.532  27.256  1.00  0.00    -0.200 F 
ENDBRANCH  54  78
BRANCH  66  89
ATOM     89  C   UNL A   1      39.406  32.150  35.815  1.00  0.00     0.064 A 
ATOM     90  C   UNL A   1      38.462  31.673  36.737  1.00  0.00     0.173 A 
ATOM     91  C   UNL A   1      39.867  33.467  35.978  1.00  0.00     0.173 A 
ATOM     92  F   UNL A   1      37.980  30.426  36.627  1.00  0.00    -0.203 F 
ATOM     93  C   UNL A   1      37.975  32.491  37.755  1.00  0.00     0.198 A 
ATOM     94  C   UNL A   1      39.406  34.268  37.018  1.00  0.00     0.198 A 
ATOM     95  F   UNL A   1      40.780  33.973  35.135  1.00  0.00    -0.203 F 
ATOM     96  F   UNL A   1      37.031  32.030  38.589  1.00  0.00    -0.200 F 
ATOM     97  C   UNL A   1      38.452  33.784  37.900  1.00  0.00     0.200 A 
ATOM     98  F   UNL A   1      39.884  35.512  37.168  1.00  0.00    -0.200 F 
ATOM     99  F   UNL A   1      37.989  34.566  38.885  1.00  0.00    -0.200 F 
ENDBRANCH  66  89
ENDBRANCH  40  41
ENDBRANCH  33  35
ENDBRANCH  32  33
ENDBRANCH  31  32
ENDBRANCH  30  31
ENDBRANCH  29  30
ENDBRANCH  28  29
ENDBRANCH   1  28
TORSDOF 20
ENDMDL
MODEL 2
REMARK VINA RESULT:     -11.1      5.684     12.156
REMARK SMILES O=C(C[C@H]1SC[C@@H](C(=O)OCCOCCOCCOC(=O)c2ccc(-c3c4nc(c(-c5c(F)c(F)c(F)c(F)c5F)c5ccc([nH]5)c(-c5c(F)c(F)c(F)c(F)c5F)c5nc(c(-c6c(F)c(F)c(F)c(F)c6F)c6ccc3[nH]6)C=C5)C=C4)cc2)NC1=O)Nc1cccc(Cl)c1
REMARK SMILES IDX 14 1 13 2 12 3 11 4 10 5 8 6 9 7 7 8 4 9 5 10 86 11 6 12
REMARK SMILES IDX 85 13 87 14 3 16 2 17 1 18 88 19 89 21 90 22 95 23 91 24
REMARK SMILES IDX 93 25 92 26 94 27 15 28 16 29 17 30 18 31 19 32 20 33 21 34
REMARK SMILES IDX 22 35 23 36 84 37 24 38 83 39 25 40 26 41 27 42 77 43 28 44
REMARK SMILES IDX 82 45 76 46 78 47 29 48 81 49 75 50 74 51 30 53 62 54 42 55
REMARK SMILES IDX 61 56 43 57 46 58 60 59 79 60 44 61 45 62 59 64 80 65 47 66
REMARK SMILES IDX 31 67 32 68 40 69 33 70 34 71 38 72 41 73 35 74 36 75 39 76
REMARK SMILES IDX 37 77 63 78 64 79 72 80 65 81 66 82 70 83 73 84 67 85 68 86
REMARK SMILES IDX 71 87 69 88 48 89 49 90 57 91 50 92 51 93 55 94 58 95 52 96
REMARK SMILES IDX 53 97 56 98 54 99
REMARK H PARENT 85 15 88 20 78 52 46 63
REMARK Flexibility Score: inf
ROOT
ATOM      1  C   UNL A   1      33.393  36.726  29.332  1.00  0.00     0.188 C 
ENDROOT
BRANCH   1   2
ATOM      2  O   UNL A   1      32.586  36.687  30.507  1.00  0.00    -0.376 OA
BRANCH   2   3
ATOM      3  C   UNL A   1      33.073  37.416  31.632  1.00  0.00     0.202 C 
BRANCH   3   4
ATOM      4  C   UNL A   1      33.904  36.620  32.650  1.00  0.00     0.261 C 
BRANCH   4   5
ATOM      5  O   UNL A   1      33.347  35.336  33.033  1.00  0.00    -0.462 OA
BRANCH   5   6
ATOM      6  C   UNL A   1      34.162  34.274  32.809  1.00  0.00     0.329 C 
ATOM      7  O   UNL A   1      33.802  33.101  32.899  1.00  0.00    -0.250 OA
BRANCH   6   8
ATOM      8  C   UNL A   1      35.637  34.610  32.500  1.00  0.00     0.202 C 
ATOM      9  C   UNL A   1      37.781  32.421  33.065  1.00  0.00     0.145 C 
ATOM     10  S   UNL A   1      37.128  32.435  31.360  1.00  0.00    -0.145 SA
ATOM     11  C   UNL A   1      36.879  33.117  34.073  1.00  0.00     0.234 C 
ATOM     12  C   UNL A   1      36.316  34.065  31.250  1.00  0.00     0.107 C 
ATOM     13  N   UNL A   1      36.354  34.333  33.747  1.00  0.00    -0.341 N 
ATOM     14  O   UNL A   1      36.744  32.727  35.229  1.00  0.00    -0.274 OA
ATOM     15  H   UNL A   1      36.463  35.070  34.391  1.00  0.00     0.164 HD
BRANCH   9  16
ATOM     16  C   UNL A   1      38.046  30.947  33.426  1.00  0.00     0.124 C 
BRANCH  16  17
ATOM     17  C   UNL A   1      39.407  30.671  34.049  1.00  0.00     0.226 C 
ATOM     18  O   UNL A   1      40.122  31.586  34.443  1.00  0.00    -0.275 OA
ATOM     19  N   UNL A   1      39.707  29.325  34.112  1.00  0.00    -0.326 N 
ATOM     20  H   UNL A   1      38.981  28.690  33.913  1.00  0.00     0.169 HD
BRANCH  19  21
ATOM     21  C   UNL A   1      40.962  28.787  34.438  1.00  0.00     0.042 A 
ATOM     22  C   UNL A   1      41.400  29.003  35.750  1.00  0.00     0.026 A 
ATOM     23  C   UNL A   1      41.745  28.037  33.560  1.00  0.00     0.046 A 
ATOM     24  C   UNL A   1      42.579  28.420  36.208  1.00  0.00     0.004 A 
ATOM     25  C   UNL A   1      42.947  27.494  34.015  1.00  0.00     0.043 A 
ATOM     26  C   UNL A   1      43.356  27.665  35.336  1.00  0.00     0.020 A 
ATOM     27  Cl  UNL A   1      43.958  26.599  32.956  1.00  0.00    -0.084 Cl
ENDBRANCH  19  21
ENDBRANCH  16  17
ENDBRANCH   9  16
ENDBRANCH   6   8
ENDBRANCH   5   6
ENDBRANCH   4   5
ENDBRANCH   3   4
ENDBRANCH   2   3
ENDBRANCH   1   2
BRANCH   1  28
ATOM     28  C   UNL A   1      33.773  35.356  28.770  1.00  0.00     0.188 C 
BRANCH  28  29
ATOM     29  O   UNL A   1      32.681  34.499  28.492  1.00  0.00    -0.376 OA
BRANCH  29  30
ATOM     30  C   UNL A   1      32.955  33.267  27.826  1.00  0.00     0.202 C 
BRANCH  30  31
ATOM     31  C   UNL A   1      34.041  32.291  28.345  1.00  0.00     0.261 C 
BRANCH  31  32
ATOM     32  O   UNL A   1      34.589  31.330  27.415  1.00  0.00    -0.460 OA
BRANCH  32  33
ATOM     33  C   UNL A   1      34.678  30.045  27.835  1.00  0.00     0.338 C 
ATOM     34  O   UNL A   1      33.835  29.187  27.679  1.00  0.00    -0.246 OA
BRANCH  33  35
ATOM     35  C   UNL A   1      36.081  29.766  28.277  1.00  0.00     0.060 A 
ATOM     36  C   UNL A   1      37.095  30.001  27.342  1.00  0.00     0.016 A 
ATOM     37  C   UNL A   1      36.429  29.325  29.559  1.00  0.00     0.016 A 
ATOM     38  C   UNL A   1      38.439  29.789  27.668  1.00  0.00     0.010 A 
ATOM     39  C   UNL A   1      37.782  29.081  29.877  1.00  0.00     0.010 A 
ATOM     40  C   UNL A   1      38.798  29.300  28.928  1.00  0.00    -0.014 A 
BRANCH  40  41
ATOM     41  C   UNL A   1      40.205  28.853  29.148  1.00  0.00     0.031 A 
ATOM     42  C   UNL A   1      41.107  29.705  29.999  1.00  0.00     0.074 A 
ATOM     43  C   UNL A   1      40.667  27.669  28.700  1.00  0.00     0.049 A 
ATOM     44  N   UNL A   1      42.362  29.528  30.329  1.00  0.00    -0.248 NA
ATOM     45  C   UNL A   1      40.500  30.917  30.568  1.00  0.00     0.031 C 
ATOM     46  C   UNL A   1      39.885  26.690  27.956  1.00  0.00     0.029 A 
ATOM     47  N   UNL A   1      41.907  27.082  28.829  1.00  0.00    -0.354 N 
ATOM     48  C   UNL A   1      42.701  30.612  31.125  1.00  0.00     0.074 A 
ATOM     49  C   UNL A   1      41.519  31.443  31.229  1.00  0.00     0.031 C 
ATOM     50  C   UNL A   1      40.657  25.619  27.702  1.00  0.00     0.029 A 
ATOM     51  C   UNL A   1      42.005  25.852  28.218  1.00  0.00     0.049 A 
ATOM     52  H   UNL A   1      42.654  27.502  29.312  1.00  0.00     0.167 HD
ATOM     53  C   UNL A   1      43.889  30.899  31.710  1.00  0.00     0.037 A 
ATOM     54  C   UNL A   1      43.060  25.022  28.071  1.00  0.00     0.037 A 
ATOM     55  C   UNL A   1      45.072  30.085  31.606  1.00  0.00     0.049 A 
ATOM     56  C   UNL A   1      44.403  25.417  28.647  1.00  0.00     0.074 A 
ATOM     57  C   UNL A   1      46.327  30.319  32.145  1.00  0.00     0.029 A 
ATOM     58  N   UNL A   1      45.154  28.887  30.914  1.00  0.00    -0.354 N 
ATOM     59  N   UNL A   1      44.718  26.451  29.391  1.00  0.00    -0.248 NA
ATOM     60  C   UNL A   1      45.542  24.533  28.353  1.00  0.00     0.031 C 
ATOM     61  C   UNL A   1      47.183  29.296  31.725  1.00  0.00     0.029 A 
ATOM     62  C   UNL A   1      46.447  28.387  30.984  1.00  0.00     0.049 A 
ATOM     63  H   UNL A   1      44.406  28.454  30.444  1.00  0.00     0.167 HD
ATOM     64  C   UNL A   1      46.074  26.323  29.673  1.00  0.00     0.074 A 
ATOM     65  C   UNL A   1      46.518  25.096  29.050  1.00  0.00     0.031 C 
ATOM     66  C   UNL A   1      46.883  27.156  30.376  1.00  0.00     0.037 A 
BRANCH  53  67
ATOM     67  C   UNL A   1      43.985  32.196  32.459  1.00  0.00     0.064 A 
ATOM     68  C   UNL A   1      43.770  32.276  33.842  1.00  0.00     0.173 A 
ATOM     69  C   UNL A   1      44.309  33.378  31.774  1.00  0.00     0.173 A 
ATOM     70  F   UNL A   1      43.438  31.179  34.539  1.00  0.00    -0.203 F 
ATOM     71  C   UNL A   1      43.843  33.498  34.506  1.00  0.00     0.198 A 
ATOM     72  C   UNL A   1      44.413  34.591  32.447  1.00  0.00     0.198 A 
ATOM     73  F   UNL A   1      44.526  33.355  30.450  1.00  0.00    -0.203 F 
ATOM     74  F   UNL A   1      43.575  33.562  35.818  1.00  0.00    -0.200 F 
ATOM     75  C   UNL A   1      44.170  34.653  33.811  1.00  0.00     0.200 A 
ATOM     76  F   UNL A   1      44.743  35.702  31.774  1.00  0.00    -0.200 F 
ATOM     77  F   UNL A   1      44.241  35.826  34.452  1.00  0.00    -0.200 F 
ENDBRANCH  53  67
BRANCH  54  78
ATOM     78  C   UNL A   1      42.923  23.742  27.311  1.00  0.00     0.064 A 
ATOM     79  C   UNL A   1      42.435  22.578  27.926  1.00  0.00     0.173 A 
ATOM     80  C   UNL A   1      43.351  23.629  25.979  1.00  0.00     0.173 A 
ATOM     81  F   UNL A   1      42.079  22.611  29.219  1.00  0.00    -0.203 F 
ATOM     82  C   UNL A   1      42.401  21.357  27.250  1.00  0.00     0.198 A 
ATOM     83  C   UNL A   1      43.269  22.420  25.288  1.00  0.00     0.198 A 
ATOM     84  F   UNL A   1      43.875  24.690  25.349  1.00  0.00    -0.203 F 
ATOM     85  F   UNL A   1      42.037  20.240  27.893  1.00  0.00    -0.200 F 
ATOM     86  C   UNL A   1      42.801  21.283  25.926  1.00  0.00     0.200 A 
ATOM     87  F   UNL A   1      43.677  22.351  24.014  1.00  0.00    -0.200 F 
ATOM     88  F   UNL A   1      42.775  20.111  25.278  1.00  0.00    -0.200 F 
ENDBRANCH  54  78
BRANCH  66  89
ATOM     89  C   UNL A   1      48.323  26.752  30.549  1.00  0.00     0.064 A 
ATOM     90  C   UNL A   1      49.315  27.131  29.630  1.00  0.00     0.173 A 
ATOM     91  C   UNL A   1      48.726  26.005  31.668  1.00  0.00     0.173 A 
ATOM     92  F   UNL A   1      48.989  27.838  28.537  1.00  0.00    -0.203 F 
ATOM     93  C   UNL A   1      50.643  26.747  29.806  1.00  0.00     0.198 A 
ATOM     94  C   UNL A   1      50.059  25.655  31.860  1.00  0.00     0.198 A 
ATOM     95  F   UNL A   1      47.825  25.626  32.587  1.00  0.00    -0.203 F 
ATOM     96  F   UNL A   1      51.560  27.072  28.884  1.00  0.00    -0.200 F 
ATOM     97  C   UNL A   1      51.016  26.016  30.923  1.00  0.00     0.200 A 
ATOM     98  F   UNL A   1      50.421  24.967  32.952  1.00  0.00    -0.200 F 
ATOM     99  F   UNL A   1      52.295  25.656  31.096  1.00  0.00    -0.200 F 
ENDBRANCH  66  89
ENDBRANCH  40  41
ENDBRANCH  33  35
ENDBRANCH  32  33
ENDBRANCH  31  32
ENDBRANCH  30  31
ENDBRANCH  29  30
ENDBRANCH  28  29
ENDBRANCH   1  28
TORSDOF 20
ENDMDL
MODEL 3
REMARK VINA RESULT:     -10.7      4.179      9.816
REMARK SMILES O=C(C[C@H]1SC[C@@H](C(=O)OCCOCCOCCOC(=O)c2ccc(-c3c4nc(c(-c5c(F)c(F)c(F)c(F)c5F)c5ccc([nH]5)c(-c5c(F)c(F)c(F)c(F)c5F)c5nc(c(-c6c(F)c(F)c(F)c(F)c6F)c6ccc3[nH]6)C=C5)C=C4)cc2)NC1=O)Nc1cccc(Cl)c1
REMARK SMILES IDX 14 1 13 2 12 3 11 4 10 5 8 6 9 7 7 8 4 9 5 10 86 11 6 12
REMARK SMILES IDX 85 13 87 14 3 16 2 17 1 18 88 19 89 21 90 22 95 23 91 24
REMARK SMILES IDX 93 25 92 26 94 27 15 28 16 29 17 30 18 31 19 32 20 33 21 34
REMARK SMILES IDX 22 35 23 36 84 37 24 38 83 39 25 40 26 41 27 42 77 43 28 44
REMARK SMILES IDX 82 45 76 46 78 47 29 48 81 49 75 50 74 51 30 53 62 54 42 55
REMARK SMILES IDX 61 56 43 57 46 58 60 59 79 60 44 61 45 62 59 64 80 65 47 66
REMARK SMILES IDX 31 67 32 68 40 69 33 70 34 71 38 72 41 73 35 74 36 75 39 76
REMARK SMILES IDX 37 77 63 78 64 79 72 80 65 81 66 82 70 83 73 84 67 85 68 86
REMARK SMILES IDX 71 87 69 88 48 89 49 90 57 91 50 92 51 93 55 94 58 95 52 96
REMARK SMILES IDX 53 97 56 98 54 99
REMARK H PARENT 85 15 88 20 78 52 46 63
REMARK Flexibility Score: inf
ROOT
ATOM      1  C   UNL A   1      33.417  31.773  27.522  1.00  0.00     0.188 C 
ENDROOT
BRANCH   1   2
ATOM      2  O   UNL A   1      34.103  30.535  27.693  1.00  0.00    -0.376 OA
BRANCH   2   3
ATOM      3  C   UNL A   1      33.638  29.442  26.903  1.00  0.00     0.202 C 
BRANCH   3   4
ATOM      4  C   UNL A   1      32.882  29.806  25.615  1.00  0.00     0.261 C 
BRANCH   4   5
ATOM      5  O   UNL A   1      32.086  28.738  25.042  1.00  0.00    -0.462 OA
BRANCH   5   6
ATOM      6  C   UNL A   1      32.394  28.428  23.757  1.00  0.00     0.329 C 
ATOM      7  O   UNL A   1      33.262  29.002  23.100  1.00  0.00    -0.250 OA
BRANCH   6   8
ATOM      8  C   UNL A   1      31.522  27.335  23.100  1.00  0.00     0.202 C 
ATOM      9  C   UNL A   1      31.792  24.419  24.162  1.00  0.00     0.145 C 
ATOM     10  S   UNL A   1      30.466  25.401  24.943  1.00  0.00    -0.145 SA
ATOM     11  C   UNL A   1      32.862  25.261  23.485  1.00  0.00     0.234 C 
ATOM     12  C   UNL A   1      30.275  26.807  23.797  1.00  0.00     0.107 C 
ATOM     13  N   UNL A   1      32.470  26.297  22.688  1.00  0.00    -0.341 N 
ATOM     14  O   UNL A   1      34.050  24.950  23.475  1.00  0.00    -0.274 OA
ATOM     15  H   UNL A   1      32.848  26.350  21.781  1.00  0.00     0.164 HD
BRANCH   9  16
ATOM     16  C   UNL A   1      32.366  23.499  25.257  1.00  0.00     0.124 C 
BRANCH  16  17
ATOM     17  C   UNL A   1      32.093  22.015  25.060  1.00  0.00     0.226 C 
ATOM     18  O   UNL A   1      31.204  21.446  25.684  1.00  0.00    -0.275 OA
ATOM     19  N   UNL A   1      32.930  21.433  24.130  1.00  0.00    -0.326 N 
ATOM     20  H   UNL A   1      33.489  22.033  23.585  1.00  0.00     0.169 HD
BRANCH  19  21
ATOM     21  C   UNL A   1      33.052  20.052  23.898  1.00  0.00     0.042 A 
ATOM     22  C   UNL A   1      32.201  19.518  22.924  1.00  0.00     0.026 A 
ATOM     23  C   UNL A   1      33.977  19.229  24.540  1.00  0.00     0.046 A 
ATOM     24  C   UNL A   1      32.315  18.184  22.540  1.00  0.00     0.004 A 
ATOM     25  C   UNL A   1      34.054  17.884  24.180  1.00  0.00     0.043 A 
ATOM     26  C   UNL A   1      33.243  17.364  23.172  1.00  0.00     0.020 A 
ATOM     27  Cl  UNL A   1      35.150  16.827  24.972  1.00  0.00    -0.084 Cl
ENDBRANCH  19  21
ENDBRANCH  16  17
ENDBRANCH   9  16
ENDBRANCH   6   8
ENDBRANCH   5   6
ENDBRANCH   4   5
ENDBRANCH   3   4
ENDBRANCH   2   3
ENDBRANCH   1   2
BRANCH   1  28
ATOM     28  C   UNL A   1      33.919  32.911  28.410  1.00  0.00     0.188 C 
BRANCH  28  29
ATOM     29  O   UNL A   1      33.759  34.209  27.868  1.00  0.00    -0.376 OA
BRANCH  29  30
ATOM     30  C   UNL A   1      34.031  35.323  28.716  1.00  0.00     0.202 C 
BRANCH  30  31
ATOM     31  C   UNL A   1      32.896  36.061  29.472  1.00  0.00     0.261 C 
BRANCH  31  32
ATOM     32  O   UNL A   1      32.296  35.398  30.607  1.00  0.00    -0.460 OA
BRANCH  32  33
ATOM     33  C   UNL A   1      32.648  35.840  31.839  1.00  0.00     0.338 C 
ATOM     34  O   UNL A   1      32.010  36.606  32.528  1.00  0.00    -0.246 OA
BRANCH  33  35
ATOM     35  C   UNL A   1      33.805  35.032  32.340  1.00  0.00     0.060 A 
ATOM     36  C   UNL A   1      35.070  35.626  32.260  1.00  0.00     0.016 A 
ATOM     37  C   UNL A   1      33.689  33.757  32.905  1.00  0.00     0.016 A 
ATOM     38  C   UNL A   1      36.210  34.959  32.721  1.00  0.00     0.010 A 
ATOM     39  C   UNL A   1      34.843  33.072  33.342  1.00  0.00     0.010 A 
ATOM     40  C   UNL A   1      36.116  33.664  33.241  1.00  0.00    -0.014 A 
BRANCH  40  41
ATOM     41  C   UNL A   1      37.373  32.899  33.486  1.00  0.00     0.031 A 
ATOM     42  C   UNL A   1      38.099  33.101  34.788  1.00  0.00     0.074 A 
ATOM     43  C   UNL A   1      37.829  31.961  32.632  1.00  0.00     0.049 A 
ATOM     44  N   UNL A   1      39.205  32.555  35.226  1.00  0.00    -0.248 NA
ATOM     45  C   UNL A   1      37.476  34.040  35.733  1.00  0.00     0.031 C 
ATOM     46  C   UNL A   1      37.180  31.576  31.385  1.00  0.00     0.029 A 
ATOM     47  N   UNL A   1      38.936  31.144  32.701  1.00  0.00    -0.354 N 
ATOM     48  C   UNL A   1      39.423  33.097  36.485  1.00  0.00     0.074 A 
ATOM     49  C   UNL A   1      38.333  34.016  36.742  1.00  0.00     0.031 C 
ATOM     50  C   UNL A   1      37.894  30.592  30.809  1.00  0.00     0.029 A 
ATOM     51  C   UNL A   1      39.079  30.308  31.617  1.00  0.00     0.049 A 
ATOM     52  H   UNL A   1      39.568  31.157  33.456  1.00  0.00     0.167 HD
ATOM     53  C   UNL A   1      40.442  32.863  37.347  1.00  0.00     0.037 A 
ATOM     54  C   UNL A   1      40.058  29.434  31.300  1.00  0.00     0.037 A 
ATOM     55  C   UNL A   1      41.535  31.958  37.099  1.00  0.00     0.049 A 
ATOM     56  C   UNL A   1      41.237  29.268  32.235  1.00  0.00     0.074 A 
ATOM     57  C   UNL A   1      42.624  31.684  37.909  1.00  0.00     0.029 A 
ATOM     58  N   UNL A   1      41.685  31.188  35.956  1.00  0.00    -0.354 N 
ATOM     59  N   UNL A   1      41.441  29.792  33.419  1.00  0.00    -0.248 NA
ATOM     60  C   UNL A   1      42.331  28.393  31.781  1.00  0.00     0.031 C 
ATOM     61  C   UNL A   1      43.466  30.798  37.229  1.00  0.00     0.029 A 
ATOM     62  C   UNL A   1      42.866  30.464  36.025  1.00  0.00     0.049 A 
ATOM     63  H   UNL A   1      41.047  31.159  35.207  1.00  0.00     0.167 HD
ATOM     64  C   UNL A   1      42.662  29.290  33.859  1.00  0.00     0.074 A 
ATOM     65  C   UNL A   1      43.140  28.394  32.830  1.00  0.00     0.031 C 
ATOM     66  C   UNL A   1      43.334  29.559  35.007  1.00  0.00     0.037 A 
BRANCH  53  67
ATOM     67  C   UNL A   1      40.456  33.659  38.619  1.00  0.00     0.064 A 
ATOM     68  C   UNL A   1      39.689  33.297  39.735  1.00  0.00     0.173 A 
ATOM     69  C   UNL A   1      41.265  34.802  38.719  1.00  0.00     0.173 A 
ATOM     70  F   UNL A   1      38.885  32.225  39.683  1.00  0.00    -0.203 F 
ATOM     71  C   UNL A   1      39.705  34.070  40.893  1.00  0.00     0.198 A 
ATOM     72  C   UNL A   1      41.304  35.553  39.890  1.00  0.00     0.198 A 
ATOM     73  F   UNL A   1      42.020  35.191  37.680  1.00  0.00    -0.203 F 
ATOM     74  F   UNL A   1      38.919  33.739  41.927  1.00  0.00    -0.200 F 
ATOM     75  C   UNL A   1      40.516  35.192  40.973  1.00  0.00     0.200 A 
ATOM     76  F   UNL A   1      42.098  36.629  39.968  1.00  0.00    -0.200 F 
ATOM     77  F   UNL A   1      40.531  35.933  42.089  1.00  0.00    -0.200 F 
ENDBRANCH  53  67
BRANCH  54  78
ATOM     78  C   UNL A   1      40.008  28.665  30.019  1.00  0.00     0.064 A 
ATOM     79  C   UNL A   1      39.416  27.394  29.955  1.00  0.00     0.173 A 
ATOM     80  C   UNL A   1      40.621  29.143  28.851  1.00  0.00     0.173 A 
ATOM     81  F   UNL A   1      38.878  26.857  31.061  1.00  0.00    -0.203 F 
ATOM     82  C   UNL A   1      39.456  26.630  28.788  1.00  0.00     0.198 A 
ATOM     83  C   UNL A   1      40.617  28.400  27.670  1.00  0.00     0.198 A 
ATOM     84  F   UNL A   1      41.250  30.327  28.858  1.00  0.00    -0.203 F 
ATOM     85  F   UNL A   1      38.983  25.377  28.785  1.00  0.00    -0.200 F 
ATOM     86  C   UNL A   1      40.042  27.141  27.641  1.00  0.00     0.200 A 
ATOM     87  F   UNL A   1      41.202  28.893  26.570  1.00  0.00    -0.200 F 
ATOM     88  F   UNL A   1      40.086  26.406  26.522  1.00  0.00    -0.200 F 
ENDBRANCH  54  78
BRANCH  66  89
ATOM     89  C   UNL A   1      44.639  28.845  35.237  1.00  0.00     0.064 A 
ATOM     90  C   UNL A   1      45.868  29.404  34.851  1.00  0.00     0.173 A 
ATOM     91  C   UNL A   1      44.667  27.600  35.885  1.00  0.00     0.173 A 
ATOM     92  F   UNL A   1      45.903  30.588  34.221  1.00  0.00    -0.203 F 
ATOM     93  C   UNL A   1      47.067  28.728  35.072  1.00  0.00     0.198 A 
ATOM     94  C   UNL A   1      45.869  26.945  36.138  1.00  0.00     0.198 A 
ATOM     95  F   UNL A   1      43.525  27.022  36.290  1.00  0.00    -0.203 F 
ATOM     96  F   UNL A   1      48.221  29.257  34.643  1.00  0.00    -0.200 F 
ATOM     97  C   UNL A   1      47.067  27.504  35.722  1.00  0.00     0.200 A 
ATOM     98  F   UNL A   1      45.869  25.771  36.785  1.00  0.00    -0.200 F 
ATOM     99  F   UNL A   1      48.222  26.859  35.941  1.00  0.00    -0.200 F 
ENDBRANCH  66  89
ENDBRANCH  40  41
ENDBRANCH  33  35
ENDBRANCH  32  33
ENDBRANCH  31  32
ENDBRANCH  30  31
ENDBRANCH  29  30
ENDBRANCH  28  29
ENDBRANCH   1  28
TORSDOF 20
ENDMDL
