MODEL 1
REMARK VINA RESULT:     -11.0      0.000      0.000
REMARK SMILES [NH3+]C1CC[NH+](CC(=O)Nc2cc(Cl)ccc2C(=O)OCCOCCOCCOC(=O)c2ccc(-c3c4nc(c(-c5c(F)c(F)c(F)c(F)c5F)c5ccc([nH]5)c(-c5c(F)c(F)c(F)c(F)c5F)c5nc(c(-c6c(F)c(F)c(F)c(F)c6F)c6ccc3[nH]6)C=C5)C=C4)cc2)CC1
REMARK SMILES IDX 23 1 22 2 21 3 20 4 19 5 17 6 18 7 16 8 10 9 11 10 12 11
REMARK SMILES IDX 15 12 13 13 14 14 9 15 7 16 8 17 6 19 5 20 2 21 3 22 95 23
REMARK SMILES IDX 4 24 94 25 1 27 24 31 25 32 26 33 27 34 28 35 29 36 30 37
REMARK SMILES IDX 31 38 32 39 93 40 33 41 92 42 34 43 35 44 36 45 86 46 37 47
REMARK SMILES IDX 91 48 85 49 87 50 38 51 90 52 84 53 83 54 39 56 71 57 51 58
REMARK SMILES IDX 70 59 52 60 55 61 69 62 88 63 53 64 54 65 68 67 89 68 56 69
REMARK SMILES IDX 40 70 41 71 49 72 42 73 43 74 47 75 50 76 44 77 45 78 48 79
REMARK SMILES IDX 46 80 72 81 73 82 81 83 74 84 75 85 79 86 82 87 76 88 77 89
REMARK SMILES IDX 80 90 78 91 57 92 58 93 66 94 59 95 60 96 64 97 67 98 61 99
REMARK SMILES IDX 62 100 65 101 63 102
REMARK H PARENT 9 18 5 26 1 28 1 29 1 30 87 55 55 66
REMARK Flexibility Score: inf
ROOT
ATOM      1  C   UNL A   1      39.304  21.790  26.159  1.00  0.00     0.188 C 
ENDROOT
BRANCH   1   2
ATOM      2  O   UNL A   1      38.540  20.935  25.342  1.00  0.00    -0.376 OA
BRANCH   2   3
ATOM      3  C   UNL A   1      37.377  21.380  24.664  1.00  0.00     0.202 C 
BRANCH   3   4
ATOM      4  C   UNL A   1      35.994  21.526  25.318  1.00  0.00     0.261 C 
BRANCH   4   5
ATOM      5  O   UNL A   1      35.791  22.722  26.070  1.00  0.00    -0.460 OA
BRANCH   5   6
ATOM      6  C   UNL A   1      34.975  23.653  25.505  1.00  0.00     0.340 C 
ATOM      7  O   UNL A   1      35.308  24.548  24.760  1.00  0.00    -0.246 OA
BRANCH   6   8
ATOM      8  C   UNL A   1      33.552  23.288  25.769  1.00  0.00     0.083 A 
ATOM      9  C   UNL A   1      32.566  23.085  24.766  1.00  0.00     0.057 A 
ATOM     10  C   UNL A   1      31.251  22.890  25.196  1.00  0.00     0.047 A 
ATOM     11  C   UNL A   1      30.932  22.819  26.558  1.00  0.00     0.043 A 
ATOM     12  C   UNL A   1      33.215  23.231  27.137  1.00  0.00     0.019 A 
ATOM     13  Cl  UNL A   1      29.303  22.527  27.035  1.00  0.00    -0.084 Cl
ATOM     14  C   UNL A   1      31.906  22.985  27.531  1.00  0.00     0.021 A 
BRANCH   9  15
ATOM     15  N   UNL A   1      32.959  23.123  23.405  1.00  0.00    -0.320 N 
ATOM     16  C   UNL A   1      32.925  23.995  22.359  1.00  0.00     0.279 C 
ATOM     17  O   UNL A   1      33.363  23.557  21.284  1.00  0.00    -0.268 OA
ATOM     18  H   UNL A   1      33.380  22.273  23.139  1.00  0.00     0.170 HD
BRANCH  16  19
ATOM     19  C   UNL A   1      32.383  25.416  22.416  1.00  0.00     0.363 C 
BRANCH  19  20
ATOM     20  N   UNL A   1      33.170  26.386  23.197  1.00  0.00    -0.327 N 
ATOM     21  C   UNL A   1      32.160  29.092  23.942  1.00  0.00     0.192 C 
ATOM     22  C   UNL A   1      32.733  28.798  22.548  1.00  0.00     0.126 C 
ATOM     23  C   UNL A   1      31.665  27.807  24.601  1.00  0.00     0.126 C 
ATOM     24  C   UNL A   1      33.645  27.568  22.479  1.00  0.00     0.268 C 
ATOM     25  C   UNL A   1      32.714  26.698  24.543  1.00  0.00     0.268 C 
ATOM     26  H   UNL A   1      33.996  25.807  23.350  1.00  0.00     0.348 HD
BRANCH  21  27
ATOM     27  N   UNL A   1      33.112  29.765  24.829  1.00  0.00    -0.355 N 
ATOM     28  H   UNL A   1      34.050  29.407  24.656  1.00  0.00     0.344 HD
ATOM     29  H   UNL A   1      32.855  29.588  25.801  1.00  0.00     0.344 HD
ATOM     30  H   UNL A   1      33.092  30.769  24.650  1.00  0.00     0.344 HD
ENDBRANCH  21  27
ENDBRANCH  19  20
ENDBRANCH  16  19
ENDBRANCH   9  15
ENDBRANCH   6   8
ENDBRANCH   5   6
ENDBRANCH   4   5
ENDBRANCH   3   4
ENDBRANCH   2   3
ENDBRANCH   1   2
BRANCH   1  31
ATOM     31  C   UNL A   1      40.838  21.834  26.034  1.00  0.00     0.188 C 
BRANCH  31  32
ATOM     32  O   UNL A   1      41.591  20.665  25.798  1.00  0.00    -0.376 OA
BRANCH  32  33
ATOM     33  C   UNL A   1      42.979  20.690  26.088  1.00  0.00     0.202 C 
BRANCH  33  34
ATOM     34  C   UNL A   1      43.905  21.649  25.325  1.00  0.00     0.261 C 
BRANCH  34  35
ATOM     35  O   UNL A   1      44.406  22.743  26.115  1.00  0.00    -0.460 OA
BRANCH  35  36
ATOM     36  C   UNL A   1      44.359  23.961  25.516  1.00  0.00     0.338 C 
ATOM     37  O   UNL A   1      44.728  24.251  24.391  1.00  0.00    -0.246 OA
BRANCH  36  38
ATOM     38  C   UNL A   1      43.578  24.891  26.356  1.00  0.00     0.060 A 
ATOM     39  C   UNL A   1      43.677  26.269  26.102  1.00  0.00     0.016 A 
ATOM     40  C   UNL A   1      42.796  24.421  27.410  1.00  0.00     0.016 A 
ATOM     41  C   UNL A   1      43.014  27.185  26.921  1.00  0.00     0.010 A 
ATOM     42  C   UNL A   1      42.159  25.339  28.249  1.00  0.00     0.010 A 
ATOM     43  C   UNL A   1      42.291  26.724  28.026  1.00  0.00    -0.014 A 
BRANCH  43  44
ATOM     44  C   UNL A   1      41.855  27.668  29.084  1.00  0.00     0.031 A 
ATOM     45  C   UNL A   1      42.616  27.674  30.381  1.00  0.00     0.074 A 
ATOM     46  C   UNL A   1      40.800  28.483  28.915  1.00  0.00     0.049 A 
ATOM     47  N   UNL A   1      42.345  28.286  31.505  1.00  0.00    -0.248 NA
ATOM     48  C   UNL A   1      43.852  26.873  30.412  1.00  0.00     0.031 C 
ATOM     49  C   UNL A   1      40.020  28.619  27.688  1.00  0.00     0.029 A 
ATOM     50  N   UNL A   1      40.191  29.338  29.802  1.00  0.00    -0.354 N 
ATOM     51  C   UNL A   1      43.367  27.937  32.377  1.00  0.00     0.074 A 
ATOM     52  C   UNL A   1      44.253  27.043  31.662  1.00  0.00     0.031 C 
ATOM     53  C   UNL A   1      39.015  29.487  27.908  1.00  0.00     0.029 A 
ATOM     54  C   UNL A   1      39.059  29.932  29.300  1.00  0.00     0.049 A 
ATOM     55  H   UNL A   1      40.533  29.508  30.709  1.00  0.00     0.167 HD
ATOM     56  C   UNL A   1      43.554  28.328  33.659  1.00  0.00     0.037 A 
ATOM     57  C   UNL A   1      38.148  30.715  29.912  1.00  0.00     0.037 A 
ATOM     58  C   UNL A   1      42.665  29.202  34.376  1.00  0.00     0.049 A 
ATOM     59  C   UNL A   1      38.318  31.050  31.374  1.00  0.00     0.074 A 
ATOM     60  C   UNL A   1      42.755  29.643  35.683  1.00  0.00     0.029 A 
ATOM     61  N   UNL A   1      41.517  29.767  33.839  1.00  0.00    -0.354 N 
ATOM     62  N   UNL A   1      39.284  30.717  32.196  1.00  0.00    -0.248 NA
ATOM     63  C   UNL A   1      37.265  31.870  31.995  1.00  0.00     0.031 C 
ATOM     64  C   UNL A   1      41.638  30.440  35.953  1.00  0.00     0.029 A 
ATOM     65  C   UNL A   1      40.882  30.539  34.796  1.00  0.00     0.049 A 
ATOM     66  H   UNL A   1      41.202  29.637  32.915  1.00  0.00     0.167 HD
ATOM     67  C   UNL A   1      38.977  31.316  33.412  1.00  0.00     0.074 A 
ATOM     68  C   UNL A   1      37.736  32.036  33.223  1.00  0.00     0.031 C 
ATOM     69  C   UNL A   1      39.663  31.276  34.581  1.00  0.00     0.037 A 
BRANCH  56  70
ATOM     70  C   UNL A   1      44.752  27.785  34.378  1.00  0.00     0.064 A 
ATOM     71  C   UNL A   1      45.966  28.487  34.414  1.00  0.00     0.173 A 
ATOM     72  C   UNL A   1      44.679  26.561  35.057  1.00  0.00     0.173 A 
ATOM     73  F   UNL A   1      46.090  29.654  33.764  1.00  0.00    -0.203 F 
ATOM     74  C   UNL A   1      47.071  27.973  35.087  1.00  0.00     0.198 A 
ATOM     75  C   UNL A   1      45.777  26.062  35.754  1.00  0.00     0.198 A 
ATOM     76  F   UNL A   1      43.541  25.850  35.053  1.00  0.00    -0.203 F 
ATOM     77  F   UNL A   1      48.234  28.638  35.070  1.00  0.00    -0.200 F 
ATOM     78  C   UNL A   1      46.974  26.764  35.762  1.00  0.00     0.200 A 
ATOM     79  F   UNL A   1      45.679  24.899  36.413  1.00  0.00    -0.200 F 
ATOM     80  F   UNL A   1      48.036  26.272  36.414  1.00  0.00    -0.200 F 
ENDBRANCH  56  70
BRANCH  57  81
ATOM     81  C   UNL A   1      36.967  31.220  29.163  1.00  0.00     0.064 A 
ATOM     82  C   UNL A   1      36.889  32.561  28.759  1.00  0.00     0.173 A 
ATOM     83  C   UNL A   1      35.871  30.390  28.879  1.00  0.00     0.173 A 
ATOM     84  F   UNL A   1      37.898  33.401  29.035  1.00  0.00    -0.203 F 
ATOM     85  C   UNL A   1      35.753  33.059  28.124  1.00  0.00     0.198 A 
ATOM     86  C   UNL A   1      34.748  30.882  28.217  1.00  0.00     0.198 A 
ATOM     87  F   UNL A   1      35.890  29.102  29.249  1.00  0.00    -0.203 F 
ATOM     88  F   UNL A   1      35.683  34.357  27.802  1.00  0.00    -0.200 F 
ATOM     89  C   UNL A   1      34.685  32.217  27.849  1.00  0.00     0.200 A 
ATOM     90  F   UNL A   1      33.721  30.064  27.947  1.00  0.00    -0.200 F 
ATOM     91  F   UNL A   1      33.591  32.698  27.243  1.00  0.00    -0.200 F 
ENDBRANCH  57  81
BRANCH  69  92
ATOM     92  C   UNL A   1      39.132  32.083  35.731  1.00  0.00     0.064 A 
ATOM     93  C   UNL A   1      38.267  31.532  36.686  1.00  0.00     0.173 A 
ATOM     94  C   UNL A   1      39.552  33.410  35.912  1.00  0.00     0.173 A 
ATOM     95  F   UNL A   1      37.827  30.271  36.551  1.00  0.00    -0.203 F 
ATOM     96  C   UNL A   1      37.827  32.285  37.772  1.00  0.00     0.198 A 
ATOM     97  C   UNL A   1      39.134  34.151  37.014  1.00  0.00     0.198 A 
ATOM     98  F   UNL A   1      40.387  33.982  35.032  1.00  0.00    -0.203 F 
ATOM     99  F   UNL A   1      36.970  31.750  38.653  1.00  0.00    -0.200 F 
ATOM    100  C   UNL A   1      38.267  33.590  37.939  1.00  0.00     0.200 A 
ATOM    101  F   UNL A   1      39.572  35.406  37.182  1.00  0.00    -0.200 F 
ATOM    102  F   UNL A   1      37.854  34.309  38.993  1.00  0.00    -0.200 F 
ENDBRANCH  69  92
ENDBRANCH  43  44
ENDBRANCH  36  38
ENDBRANCH  35  36
ENDBRANCH  34  35
ENDBRANCH  33  34
ENDBRANCH  32  33
ENDBRANCH  31  32
ENDBRANCH   1  31
TORSDOF 21
ENDMDL
MODEL 2
REMARK VINA RESULT:     -10.8      3.695      9.041
REMARK SMILES [NH3+]C1CC[NH+](CC(=O)Nc2cc(Cl)ccc2C(=O)OCCOCCOCCOC(=O)c2ccc(-c3c4nc(c(-c5c(F)c(F)c(F)c(F)c5F)c5ccc([nH]5)c(-c5c(F)c(F)c(F)c(F)c5F)c5nc(c(-c6c(F)c(F)c(F)c(F)c6F)c6ccc3[nH]6)C=C5)C=C4)cc2)CC1
REMARK SMILES IDX 23 1 22 2 21 3 20 4 19 5 17 6 18 7 16 8 10 9 11 10 12 11
REMARK SMILES IDX 15 12 13 13 14 14 9 15 7 16 8 17 6 19 5 20 2 21 3 22 95 23
REMARK SMILES IDX 4 24 94 25 1 27 24 31 25 32 26 33 27 34 28 35 29 36 30 37
REMARK SMILES IDX 31 38 32 39 93 40 33 41 92 42 34 43 35 44 36 45 86 46 37 47
REMARK SMILES IDX 91 48 85 49 87 50 38 51 90 52 84 53 83 54 39 56 71 57 51 58
REMARK SMILES IDX 70 59 52 60 55 61 69 62 88 63 53 64 54 65 68 67 89 68 56 69
REMARK SMILES IDX 40 70 41 71 49 72 42 73 43 74 47 75 50 76 44 77 45 78 48 79
REMARK SMILES IDX 46 80 72 81 73 82 81 83 74 84 75 85 79 86 82 87 76 88 77 89
REMARK SMILES IDX 80 90 78 91 57 92 58 93 66 94 59 95 60 96 64 97 67 98 61 99
REMARK SMILES IDX 62 100 65 101 63 102
REMARK H PARENT 9 18 5 26 1 28 1 29 1 30 87 55 55 66
REMARK Flexibility Score: inf
ROOT
ATOM      1  C   UNL A   1      35.929  31.749  27.998  1.00  0.00     0.188 C 
ENDROOT
BRANCH   1   2
ATOM      2  O   UNL A   1      34.836  30.983  27.547  1.00  0.00    -0.376 OA
BRANCH   2   3
ATOM      3  C   UNL A   1      34.823  29.567  27.628  1.00  0.00     0.202 C 
BRANCH   3   4
ATOM      4  C   UNL A   1      33.942  28.657  26.757  1.00  0.00     0.261 C 
BRANCH   4   5
ATOM      5  O   UNL A   1      33.396  29.265  25.587  1.00  0.00    -0.460 OA
BRANCH   5   6
ATOM      6  C   UNL A   1      33.179  28.439  24.529  1.00  0.00     0.340 C 
ATOM      7  O   UNL A   1      33.840  27.471  24.222  1.00  0.00    -0.246 OA
BRANCH   6   8
ATOM      8  C   UNL A   1      31.866  28.771  23.901  1.00  0.00     0.083 A 
ATOM      9  C   UNL A   1      31.417  28.276  22.648  1.00  0.00     0.057 A 
ATOM     10  C   UNL A   1      30.224  28.802  22.145  1.00  0.00     0.047 A 
ATOM     11  C   UNL A   1      29.464  29.719  22.882  1.00  0.00     0.043 A 
ATOM     12  C   UNL A   1      31.101  29.707  24.626  1.00  0.00     0.019 A 
ATOM     13  Cl  UNL A   1      27.976  30.300  22.240  1.00  0.00    -0.084 Cl
ATOM     14  C   UNL A   1      29.893  30.172  24.121  1.00  0.00     0.021 A 
BRANCH   9  15
ATOM     15  N   UNL A   1      32.208  27.314  21.971  1.00  0.00    -0.320 N 
ATOM     16  C   UNL A   1      32.410  25.967  21.989  1.00  0.00     0.279 C 
ATOM     17  O   UNL A   1      33.280  25.547  21.210  1.00  0.00    -0.268 OA
ATOM     18  H   UNL A   1      32.773  27.743  21.289  1.00  0.00     0.170 HD
BRANCH  16  19
ATOM     19  C   UNL A   1      31.680  24.979  22.887  1.00  0.00     0.363 C 
BRANCH  19  20
ATOM     20  N   UNL A   1      32.283  24.724  24.207  1.00  0.00    -0.327 N 
ATOM     21  C   UNL A   1      31.284  22.636  26.088  1.00  0.00     0.192 C 
ATOM     22  C   UNL A   1      30.602  24.006  25.965  1.00  0.00     0.126 C 
ATOM     23  C   UNL A   1      32.066  22.309  24.818  1.00  0.00     0.126 C 
ATOM     24  C   UNL A   1      31.486  25.108  25.372  1.00  0.00     0.268 C 
ATOM     25  C   UNL A   1      32.978  23.461  24.400  1.00  0.00     0.268 C 
ATOM     26  H   UNL A   1      33.037  25.409  24.152  1.00  0.00     0.348 HD
BRANCH  21  27
ATOM     27  N   UNL A   1      32.169  22.532  27.250  1.00  0.00    -0.355 N 
ATOM     28  H   UNL A   1      32.015  23.329  27.867  1.00  0.00     0.344 HD
ATOM     29  H   UNL A   1      33.140  22.525  26.939  1.00  0.00     0.344 HD
ATOM     30  H   UNL A   1      31.967  21.668  27.754  1.00  0.00     0.344 HD
ENDBRANCH  21  27
ENDBRANCH  19  20
ENDBRANCH  16  19
ENDBRANCH   9  15
ENDBRANCH   6   8
ENDBRANCH   5   6
ENDBRANCH   4   5
ENDBRANCH   3   4
ENDBRANCH   2   3
ENDBRANCH   1   2
BRANCH   1  31
ATOM     31  C   UNL A   1      35.857  33.287  28.017  1.00  0.00     0.188 C 
BRANCH  31  32
ATOM     32  O   UNL A   1      35.027  33.973  28.928  1.00  0.00    -0.376 OA
BRANCH  32  33
ATOM     33  C   UNL A   1      33.854  34.596  28.429  1.00  0.00     0.202 C 
BRANCH  33  34
ATOM     34  C   UNL A   1      33.118  35.639  29.281  1.00  0.00     0.261 C 
BRANCH  34  35
ATOM     35  O   UNL A   1      32.467  35.102  30.447  1.00  0.00    -0.460 OA
BRANCH  35  36
ATOM     36  C   UNL A   1      32.751  35.735  31.614  1.00  0.00     0.338 C 
ATOM     37  O   UNL A   1      32.119  36.633  32.146  1.00  0.00    -0.246 OA
BRANCH  36  38
ATOM     38  C   UNL A   1      33.853  35.031  32.300  1.00  0.00     0.060 A 
ATOM     39  C   UNL A   1      35.127  35.622  32.304  1.00  0.00     0.016 A 
ATOM     40  C   UNL A   1      33.650  33.784  32.888  1.00  0.00     0.016 A 
ATOM     41  C   UNL A   1      36.211  34.953  32.875  1.00  0.00     0.010 A 
ATOM     42  C   UNL A   1      34.742  33.101  33.431  1.00  0.00     0.010 A 
ATOM     43  C   UNL A   1      36.030  33.668  33.399  1.00  0.00    -0.014 A 
BRANCH  43  44
ATOM     44  C   UNL A   1      37.202  32.814  33.711  1.00  0.00     0.031 A 
ATOM     45  C   UNL A   1      37.928  33.057  35.005  1.00  0.00     0.074 A 
ATOM     46  C   UNL A   1      37.630  31.863  32.864  1.00  0.00     0.049 A 
ATOM     47  N   UNL A   1      39.058  32.558  35.435  1.00  0.00    -0.248 NA
ATOM     48  C   UNL A   1      37.289  33.999  35.940  1.00  0.00     0.031 C 
ATOM     49  C   UNL A   1      36.981  31.485  31.612  1.00  0.00     0.029 A 
ATOM     50  N   UNL A   1      38.740  31.055  32.928  1.00  0.00    -0.354 N 
ATOM     51  C   UNL A   1      39.271  33.132  36.681  1.00  0.00     0.074 A 
ATOM     52  C   UNL A   1      38.166  34.032  36.932  1.00  0.00     0.031 C 
ATOM     53  C   UNL A   1      37.720  30.535  31.009  1.00  0.00     0.029 A 
ATOM     54  C   UNL A   1      38.912  30.271  31.813  1.00  0.00     0.049 A 
ATOM     55  H   UNL A   1      39.352  31.039  33.698  1.00  0.00     0.167 HD
ATOM     56  C   UNL A   1      40.294  32.925  37.543  1.00  0.00     0.037 A 
ATOM     57  C   UNL A   1      39.937  29.465  31.471  1.00  0.00     0.037 A 
ATOM     58  C   UNL A   1      41.401  32.044  37.287  1.00  0.00     0.049 A 
ATOM     59  C   UNL A   1      41.121  29.333  32.399  1.00  0.00     0.074 A 
ATOM     60  C   UNL A   1      42.498  31.779  38.087  1.00  0.00     0.029 A 
ATOM     61  N   UNL A   1      41.550  31.284  36.136  1.00  0.00    -0.354 N 
ATOM     62  N   UNL A   1      41.320  29.877  33.575  1.00  0.00    -0.248 NA
ATOM     63  C   UNL A   1      42.227  28.474  31.947  1.00  0.00     0.031 C 
ATOM     64  C   UNL A   1      43.334  30.892  37.402  1.00  0.00     0.029 A 
ATOM     65  C   UNL A   1      42.730  30.563  36.199  1.00  0.00     0.049 A 
ATOM     66  H   UNL A   1      40.912  31.261  35.387  1.00  0.00     0.167 HD
ATOM     67  C   UNL A   1      42.547  29.398  34.018  1.00  0.00     0.074 A 
ATOM     68  C   UNL A   1      43.048  28.516  32.986  1.00  0.00     0.031 C 
ATOM     69  C   UNL A   1      43.199  29.663  35.176  1.00  0.00     0.037 A 
BRANCH  56  70
ATOM     70  C   UNL A   1      40.277  33.692  38.830  1.00  0.00     0.064 A 
ATOM     71  C   UNL A   1      41.025  34.868  38.993  1.00  0.00     0.173 A 
ATOM     72  C   UNL A   1      39.486  33.261  39.904  1.00  0.00     0.173 A 
ATOM     73  F   UNL A   1      41.811  35.311  38.001  1.00  0.00    -0.203 F 
ATOM     74  C   UNL A   1      40.997  35.573  40.193  1.00  0.00     0.198 A 
ATOM     75  C   UNL A   1      39.438  33.984  41.094  1.00  0.00     0.198 A 
ATOM     76  F   UNL A   1      38.752  32.143  39.799  1.00  0.00    -0.203 F 
ATOM     77  F   UNL A   1      41.755  36.668  40.343  1.00  0.00    -0.200 F 
ATOM     78  C   UNL A   1      40.199  35.134  41.240  1.00  0.00     0.200 A 
ATOM     79  F   UNL A   1      38.659  33.564  42.100  1.00  0.00    -0.200 F 
ATOM     80  F   UNL A   1      40.169  35.816  42.393  1.00  0.00    -0.200 F 
ENDBRANCH  56  70
BRANCH  57  81
ATOM     81  C   UNL A   1      39.918  28.733  30.176  1.00  0.00     0.064 A 
ATOM     82  C   UNL A   1      39.342  27.459  30.077  1.00  0.00     0.173 A 
ATOM     83  C   UNL A   1      40.518  29.268  29.025  1.00  0.00     0.173 A 
ATOM     84  F   UNL A   1      38.783  26.893  31.158  1.00  0.00    -0.203 F 
ATOM     85  C   UNL A   1      39.388  26.737  28.887  1.00  0.00     0.198 A 
ATOM     86  C   UNL A   1      40.537  28.557  27.827  1.00  0.00     0.198 A 
ATOM     87  F   UNL A   1      41.090  30.479  29.067  1.00  0.00    -0.203 F 
ATOM     88  F   UNL A   1      38.880  25.498  28.837  1.00  0.00    -0.200 F 
ATOM     89  C   UNL A   1      39.981  27.288  27.761  1.00  0.00     0.200 A 
ATOM     90  F   UNL A   1      41.106  29.096  26.740  1.00  0.00    -0.200 F 
ATOM     91  F   UNL A   1      40.030  26.591  26.617  1.00  0.00    -0.200 F 
ENDBRANCH  57  81
BRANCH  69  92
ATOM     92  C   UNL A   1      44.493  28.944  35.430  1.00  0.00     0.064 A 
ATOM     93  C   UNL A   1      45.730  29.498  35.077  1.00  0.00     0.173 A 
ATOM     94  C   UNL A   1      44.492  27.709  36.098  1.00  0.00     0.173 A 
ATOM     95  F   UNL A   1      45.784  30.671  34.426  1.00  0.00    -0.203 F 
ATOM     96  C   UNL A   1      46.921  28.835  35.367  1.00  0.00     0.198 A 
ATOM     97  C   UNL A   1      45.684  27.063  36.412  1.00  0.00     0.198 A 
ATOM     98  F   UNL A   1      43.335  27.139  36.465  1.00  0.00    -0.203 F 
ATOM     99  F   UNL A   1      48.091  29.366  34.987  1.00  0.00    -0.200 F 
ATOM    100  C   UNL A   1      46.897  27.623  36.042  1.00  0.00     0.200 A 
ATOM    101  F   UNL A   1      45.659  25.899  37.078  1.00  0.00    -0.200 F 
ATOM    102  F   UNL A   1      48.043  26.993  36.333  1.00  0.00    -0.200 F 
ENDBRANCH  69  92
ENDBRANCH  43  44
ENDBRANCH  36  38
ENDBRANCH  35  36
ENDBRANCH  34  35
ENDBRANCH  33  34
ENDBRANCH  32  33
ENDBRANCH  31  32
ENDBRANCH   1  31
TORSDOF 21
ENDMDL
MODEL 3
REMARK VINA RESULT:     -10.8      3.832      9.076
REMARK SMILES [NH3+]C1CC[NH+](CC(=O)Nc2cc(Cl)ccc2C(=O)OCCOCCOCCOC(=O)c2ccc(-c3c4nc(c(-c5c(F)c(F)c(F)c(F)c5F)c5ccc([nH]5)c(-c5c(F)c(F)c(F)c(F)c5F)c5nc(c(-c6c(F)c(F)c(F)c(F)c6F)c6ccc3[nH]6)C=C5)C=C4)cc2)CC1
REMARK SMILES IDX 23 1 22 2 21 3 20 4 19 5 17 6 18 7 16 8 10 9 11 10 12 11
REMARK SMILES IDX 15 12 13 13 14 14 9 15 7 16 8 17 6 19 5 20 2 21 3 22 95 23
REMARK SMILES IDX 4 24 94 25 1 27 24 31 25 32 26 33 27 34 28 35 29 36 30 37
REMARK SMILES IDX 31 38 32 39 93 40 33 41 92 42 34 43 35 44 36 45 86 46 37 47
REMARK SMILES IDX 91 48 85 49 87 50 38 51 90 52 84 53 83 54 39 56 71 57 51 58
REMARK SMILES IDX 70 59 52 60 55 61 69 62 88 63 53 64 54 65 68 67 89 68 56 69
REMARK SMILES IDX 40 70 41 71 49 72 42 73 43 74 47 75 50 76 44 77 45 78 48 79
REMARK SMILES IDX 46 80 72 81 73 82 81 83 74 84 75 85 79 86 82 87 76 88 77 89
REMARK SMILES IDX 80 90 78 91 57 92 58 93 66 94 59 95 60 96 64 97 67 98 61 99
REMARK SMILES IDX 62 100 65 101 63 102
REMARK H PARENT 9 18 5 26 1 28 1 29 1 30 87 55 55 66
REMARK Flexibility Score: inf
ROOT
ATOM      1  C   UNL A   1      35.397  31.578  28.003  1.00  0.00     0.188 C 
ENDROOT
BRANCH   1   2
ATOM      2  O   UNL A   1      34.792  30.443  27.429  1.00  0.00    -0.376 OA
BRANCH   2   3
ATOM      3  C   UNL A   1      33.393  30.362  27.214  1.00  0.00     0.202 C 
BRANCH   3   4
ATOM      4  C   UNL A   1      32.743  29.837  25.923  1.00  0.00     0.261 C 
BRANCH   4   5
ATOM      5  O   UNL A   1      33.116  28.514  25.539  1.00  0.00    -0.460 OA
BRANCH   5   6
ATOM      6  C   UNL A   1      32.127  27.581  25.569  1.00  0.00     0.340 C 
ATOM      7  O   UNL A   1      31.198  27.539  26.345  1.00  0.00    -0.246 OA
BRANCH   6   8
ATOM      8  C   UNL A   1      32.228  26.713  24.359  1.00  0.00     0.083 A 
ATOM      9  C   UNL A   1      31.710  25.394  24.261  1.00  0.00     0.057 A 
ATOM     10  C   UNL A   1      32.019  24.672  23.105  1.00  0.00     0.047 A 
ATOM     11  C   UNL A   1      32.741  25.253  22.054  1.00  0.00     0.043 A 
ATOM     12  C   UNL A   1      32.967  27.280  23.302  1.00  0.00     0.019 A 
ATOM     13  Cl  UNL A   1      33.053  24.338  20.630  1.00  0.00    -0.084 Cl
ATOM     14  C   UNL A   1      33.214  26.553  22.144  1.00  0.00     0.021 A 
BRANCH   9  15
ATOM     15  N   UNL A   1      30.948  24.877  25.339  1.00  0.00    -0.320 N 
ATOM     16  C   UNL A   1      31.137  24.090  26.434  1.00  0.00     0.279 C 
ATOM     17  O   UNL A   1      30.118  23.853  27.103  1.00  0.00    -0.268 OA
ATOM     18  H   UNL A   1      30.011  25.175  25.279  1.00  0.00     0.170 HD
BRANCH  16  19
ATOM     19  C   UNL A   1      32.465  23.485  26.865  1.00  0.00     0.363 C 
BRANCH  19  20
ATOM     20  N   UNL A   1      32.607  22.029  26.694  1.00  0.00    -0.327 N 
ATOM     21  C   UNL A   1      34.616  20.782  24.875  1.00  0.00     0.192 C 
ATOM     22  C   UNL A   1      33.289  21.348  24.348  1.00  0.00     0.126 C 
ATOM     23  C   UNL A   1      34.986  21.432  26.206  1.00  0.00     0.126 C 
ATOM     24  C   UNL A   1      32.187  21.480  25.405  1.00  0.00     0.268 C 
ATOM     25  C   UNL A   1      33.823  21.405  27.195  1.00  0.00     0.268 C 
ATOM     26  H   UNL A   1      31.893  21.738  27.362  1.00  0.00     0.348 HD
BRANCH  21  27
ATOM     27  N   UNL A   1      34.605  19.325  25.026  1.00  0.00    -0.355 N 
ATOM     28  H   UNL A   1      33.738  19.036  25.478  1.00  0.00     0.344 HD
ATOM     29  H   UNL A   1      35.399  19.036  25.597  1.00  0.00     0.344 HD
ATOM     30  H   UNL A   1      34.671  18.889  24.106  1.00  0.00     0.344 HD
ENDBRANCH  21  27
ENDBRANCH  19  20
ENDBRANCH  16  19
ENDBRANCH   9  15
ENDBRANCH   6   8
ENDBRANCH   5   6
ENDBRANCH   4   5
ENDBRANCH   3   4
ENDBRANCH   2   3
ENDBRANCH   1   2
BRANCH   1  31
ATOM     31  C   UNL A   1      34.621  32.469  28.989  1.00  0.00     0.188 C 
BRANCH  31  32
ATOM     32  O   UNL A   1      34.896  33.848  29.108  1.00  0.00    -0.376 OA
BRANCH  32  33
ATOM     33  C   UNL A   1      34.017  34.765  28.477  1.00  0.00     0.202 C 
BRANCH  33  34
ATOM     34  C   UNL A   1      33.183  35.736  29.324  1.00  0.00     0.261 C 
BRANCH  34  35
ATOM     35  O   UNL A   1      32.482  35.118  30.418  1.00  0.00    -0.460 OA
BRANCH  35  36
ATOM     36  C   UNL A   1      32.682  35.690  31.634  1.00  0.00     0.338 C 
ATOM     37  O   UNL A   1      31.979  36.516  32.191  1.00  0.00    -0.246 OA
BRANCH  36  38
ATOM     38  C   UNL A   1      33.793  35.004  32.323  1.00  0.00     0.060 A 
ATOM     39  C   UNL A   1      35.061  35.607  32.316  1.00  0.00     0.016 A 
ATOM     40  C   UNL A   1      33.605  33.761  32.926  1.00  0.00     0.016 A 
ATOM     41  C   UNL A   1      36.154  34.955  32.890  1.00  0.00     0.010 A 
ATOM     42  C   UNL A   1      34.705  33.095  33.472  1.00  0.00     0.010 A 
ATOM     43  C   UNL A   1      35.988  33.675  33.429  1.00  0.00    -0.014 A 
BRANCH  43  44
ATOM     44  C   UNL A   1      37.169  32.836  33.745  1.00  0.00     0.031 A 
ATOM     45  C   UNL A   1      37.897  33.100  35.034  1.00  0.00     0.074 A 
ATOM     46  C   UNL A   1      37.604  31.880  32.907  1.00  0.00     0.049 A 
ATOM     47  N   UNL A   1      39.034  32.617  35.465  1.00  0.00    -0.248 NA
ATOM     48  C   UNL A   1      37.252  34.045  35.961  1.00  0.00     0.031 C 
ATOM     49  C   UNL A   1      36.954  31.483  31.661  1.00  0.00     0.029 A 
ATOM     50  N   UNL A   1      38.722  31.084  32.975  1.00  0.00    -0.354 N 
ATOM     51  C   UNL A   1      39.245  33.205  36.705  1.00  0.00     0.074 A 
ATOM     52  C   UNL A   1      38.132  34.097  36.950  1.00  0.00     0.031 C 
ATOM     53  C   UNL A   1      37.701  30.534  31.066  1.00  0.00     0.029 A 
ATOM     54  C   UNL A   1      38.899  30.291  31.868  1.00  0.00     0.049 A 
ATOM     55  H   UNL A   1      39.337  31.082  33.743  1.00  0.00     0.167 HD
ATOM     56  C   UNL A   1      40.273  33.018  37.565  1.00  0.00     0.037 A 
ATOM     57  C   UNL A   1      39.930  29.491  31.531  1.00  0.00     0.037 A 
ATOM     58  C   UNL A   1      41.387  32.145  37.315  1.00  0.00     0.049 A 
ATOM     59  C   UNL A   1      41.119  29.380  32.456  1.00  0.00     0.074 A 
ATOM     60  C   UNL A   1      42.490  31.900  38.113  1.00  0.00     0.029 A 
ATOM     61  N   UNL A   1      41.540  31.374  36.171  1.00  0.00    -0.354 N 
ATOM     62  N   UNL A   1      41.316  29.940  33.626  1.00  0.00    -0.248 NA
ATOM     63  C   UNL A   1      42.232  28.528  32.009  1.00  0.00     0.031 C 
ATOM     64  C   UNL A   1      43.332  31.014  37.435  1.00  0.00     0.029 A 
ATOM     65  C   UNL A   1      42.728  30.666  36.238  1.00  0.00     0.049 A 
ATOM     66  H   UNL A   1      40.900  31.337  35.424  1.00  0.00     0.167 HD
ATOM     67  C   UNL A   1      42.549  29.477  34.069  1.00  0.00     0.074 A 
ATOM     68  C   UNL A   1      43.056  28.590  33.045  1.00  0.00     0.031 C 
ATOM     69  C   UNL A   1      43.203  29.761  35.222  1.00  0.00     0.037 A 
BRANCH  56  70
ATOM     70  C   UNL A   1      40.252  33.798  38.844  1.00  0.00     0.064 A 
ATOM     71  C   UNL A   1      40.892  35.042  38.956  1.00  0.00     0.173 A 
ATOM     72  C   UNL A   1      39.565  33.310  39.965  1.00  0.00     0.173 A 
ATOM     73  F   UNL A   1      41.578  35.543  37.917  1.00  0.00    -0.203 F 
ATOM     74  C   UNL A   1      40.863  35.758  40.149  1.00  0.00     0.198 A 
ATOM     75  C   UNL A   1      39.513  34.041  41.148  1.00  0.00     0.198 A 
ATOM     76  F   UNL A   1      38.936  32.126  39.910  1.00  0.00    -0.203 F 
ATOM     77  F   UNL A   1      41.520  36.922  40.247  1.00  0.00    -0.200 F 
ATOM     78  C   UNL A   1      40.168  35.260  41.242  1.00  0.00     0.200 A 
ATOM     79  F   UNL A   1      38.833  33.564  42.200  1.00  0.00    -0.200 F 
ATOM     80  F   UNL A   1      40.136  35.952  42.389  1.00  0.00    -0.200 F 
ENDBRANCH  56  70
BRANCH  57  81
ATOM     81  C   UNL A   1      39.915  28.746  30.244  1.00  0.00     0.064 A 
ATOM     82  C   UNL A   1      39.353  27.464  30.161  1.00  0.00     0.173 A 
ATOM     83  C   UNL A   1      40.503  29.275  29.085  1.00  0.00     0.173 A 
ATOM     84  F   UNL A   1      38.806  26.903  31.249  1.00  0.00    -0.203 F 
ATOM     85  C   UNL A   1      39.402  26.730  28.977  1.00  0.00     0.198 A 
ATOM     86  C   UNL A   1      40.525  28.552  27.894  1.00  0.00     0.198 A 
ATOM     87  F   UNL A   1      41.061  30.494  29.112  1.00  0.00    -0.203 F 
ATOM     88  F   UNL A   1      38.909  25.485  28.943  1.00  0.00    -0.200 F 
ATOM     89  C   UNL A   1      39.985  27.277  27.844  1.00  0.00     0.200 A 
ATOM     90  F   UNL A   1      41.083  29.087  26.799  1.00  0.00    -0.200 F 
ATOM     91  F   UNL A   1      40.036  26.569  26.707  1.00  0.00    -0.200 F 
ENDBRANCH  57  81
BRANCH  69  92
ATOM     92  C   UNL A   1      44.504  29.057  35.480  1.00  0.00     0.064 A 
ATOM     93  C   UNL A   1      44.562  27.825  36.144  1.00  0.00     0.173 A 
ATOM     94  C   UNL A   1      45.705  29.599  34.994  1.00  0.00     0.173 A 
ATOM     95  F   UNL A   1      43.443  27.272  36.639  1.00  0.00    -0.203 F 
ATOM     96  C   UNL A   1      45.776  27.167  36.328  1.00  0.00     0.198 A 
ATOM     97  C   UNL A   1      46.912  28.925  35.153  1.00  0.00     0.198 A 
ATOM     98  F   UNL A   1      45.704  30.772  34.343  1.00  0.00    -0.203 F 
ATOM     99  F   UNL A   1      45.812  26.007  36.999  1.00  0.00    -0.200 F 
ATOM    100  C   UNL A   1      46.947  27.713  35.825  1.00  0.00     0.200 A 
ATOM    101  F   UNL A   1      48.041  29.447  34.653  1.00  0.00    -0.200 F 
ATOM    102  F   UNL A   1      48.113  27.071  35.991  1.00  0.00    -0.200 F 
ENDBRANCH  69  92
ENDBRANCH  43  44
ENDBRANCH  36  38
ENDBRANCH  35  36
ENDBRANCH  34  35
ENDBRANCH  33  34
ENDBRANCH  32  33
ENDBRANCH  31  32
ENDBRANCH   1  31
TORSDOF 21
ENDMDL
