MODEL 1
REMARK VINA RESULT:     -12.6      0.000      0.000
REMARK SMILES CSCC[C@H](NC(=O)Nc1cccc(-c2nc3ccccc3o2)c1)C(=O)OCCOCCOCCOC(=O)c1ccc(-c2c3nc(c(-c4c(F)c(F)c(F)c(F)c4F)c4ccc([nH]4)c(-c4c(F)c(F)c(F)c(F)c4F)c4nc(c(-c5c(F)c(F)c(F)c(F)c5F)c5ccc2[nH]5)C=C4)C=C3)cc1
REMARK SMILES IDX 31 1 30 2 29 3 28 4 27 5 25 6 26 7 5 8 4 9 3 10 2 11 1 12
REMARK SMILES IDX 6 13 7 14 8 16 9 17 10 19 11 20 24 21 12 22 14 23 13 24
REMARK SMILES IDX 15 25 16 26 23 27 17 28 22 29 18 30 21 31 19 32 20 33 32 34
REMARK SMILES IDX 33 35 34 36 35 37 36 38 37 39 38 40 39 41 40 42 101 43 41 44
REMARK SMILES IDX 100 45 42 46 43 47 44 48 94 49 45 50 99 51 93 52 95 53 46 54
REMARK SMILES IDX 98 55 92 56 91 57 47 59 79 60 59 61 78 62 60 63 63 64 77 65
REMARK SMILES IDX 96 66 61 67 62 68 76 70 97 71 64 72 48 73 49 74 57 75 50 76
REMARK SMILES IDX 51 77 55 78 58 79 52 80 53 81 56 82 54 83 80 84 81 85 89 86
REMARK SMILES IDX 82 87 83 88 87 89 90 90 84 91 85 92 88 93 86 94 65 95 66 96
REMARK SMILES IDX 74 97 67 98 68 99 72 100 75 101 69 102 70 103 73 104 71 105
REMARK H PARENT 6 15 9 18 95 58 63 69
REMARK Flexibility Score: inf
ROOT
ATOM      1  C   UNL A   1      38.463  22.539  26.097  1.00  0.00     0.188 C 
ENDROOT
BRANCH   1   2
ATOM      2  O   UNL A   1      37.980  21.357  25.436  1.00  0.00    -0.376 OA
BRANCH   2   3
ATOM      3  C   UNL A   1      37.008  21.495  24.382  1.00  0.00     0.202 C 
BRANCH   3   4
ATOM      4  C   UNL A   1      36.775  23.003  23.897  1.00  0.00     0.261 C 
BRANCH   4   5
ATOM      5  O   UNL A   1      35.564  24.012  24.644  1.00  0.00    -0.462 OA
BRANCH   5   6
ATOM      6  C   UNL A   1      33.866  24.832  24.676  1.00  0.00     0.328 C 
ATOM      7  O   UNL A   1      33.464  25.578  25.619  1.00  0.00    -0.250 OA
BRANCH   6   8
ATOM      8  C   UNL A   1      32.676  24.839  23.455  1.00  0.00     0.194 C 
BRANCH   8   9
ATOM      9  C   UNL A   1      31.385  24.385  24.200  1.00  0.00     0.048 C 
BRANCH   9  10
ATOM     10  C   UNL A   1      31.382  22.882  24.511  1.00  0.00     0.072 C 
BRANCH  10  11
ATOM     11  S   UNL A   1      30.606  22.520  26.124  1.00  0.00    -0.165 SA
ATOM     12  C   UNL A   1      30.463  24.187  26.808  1.00  0.00     0.085 C 
ENDBRANCH  10  11
ENDBRANCH   9  10
ENDBRANCH   8   9
BRANCH   8  13
ATOM     13  N   UNL A   1      32.574  24.446  22.034  1.00  0.00    -0.324 N 
ATOM     14  C   UNL A   1      33.018  25.152  20.960  1.00  0.00     0.319 C 
ATOM     15  H   UNL A   1      32.139  23.582  21.845  1.00  0.00     0.166 HD
ATOM     16  O   UNL A   1      33.227  24.612  19.881  1.00  0.00    -0.248 OA
ATOM     17  N   UNL A   1      33.240  26.471  21.183  1.00  0.00    -0.308 N 
ATOM     18  H   UNL A   1      33.741  27.010  20.529  1.00  0.00     0.171 HD
BRANCH  17  19
ATOM     19  C   UNL A   1      32.753  27.052  22.340  1.00  0.00     0.043 A 
ATOM     20  C   UNL A   1      33.961  27.840  23.452  1.00  0.00     0.026 A 
ATOM     21  C   UNL A   1      31.033  27.411  22.523  1.00  0.00     0.040 A 
ATOM     22  C   UNL A   1      33.412  28.919  24.828  1.00  0.00     0.003 A 
ATOM     23  C   UNL A   1      30.456  28.499  23.845  1.00  0.00     0.039 A 
ATOM     24  C   UNL A   1      31.627  29.192  25.057  1.00  0.00     0.014 A 
BRANCH  23  25
ATOM     25  C   UNL A   1      29.306  29.301  23.357  1.00  0.00     0.227 A 
ATOM     26  N   UNL A   1      28.751  29.126  22.163  1.00  0.00    -0.209 NA
ATOM     27  O   UNL A   1      29.195  30.585  23.842  1.00  0.00    -0.436 OA
ATOM     28  C   UNL A   1      28.440  30.394  21.754  1.00  0.00     0.110 A 
ATOM     29  C   UNL A   1      28.678  31.291  22.783  1.00  0.00     0.155 A 
ATOM     30  C   UNL A   1      28.002  30.875  20.510  1.00  0.00     0.032 A 
ATOM     31  C   UNL A   1      28.475  32.664  22.680  1.00  0.00     0.049 A 
ATOM     32  C   UNL A   1      27.795  32.253  20.366  1.00  0.00     0.003 A 
ATOM     33  C   UNL A   1      28.018  33.128  21.436  1.00  0.00     0.004 A 
ENDBRANCH  23  25
ENDBRANCH  17  19
ENDBRANCH   8  13
ENDBRANCH   6   8
ENDBRANCH   5   6
ENDBRANCH   4   5
ENDBRANCH   3   4
ENDBRANCH   2   3
ENDBRANCH   1   2
BRANCH   1  34
ATOM     34  C   UNL A   1      39.894  22.360  26.666  1.00  0.00     0.188 C 
BRANCH  34  35
ATOM     35  O   UNL A   1      40.613  21.168  26.351  1.00  0.00    -0.376 OA
BRANCH  35  36
ATOM     36  C   UNL A   1      41.933  21.303  25.845  1.00  0.00     0.202 C 
BRANCH  36  37
ATOM     37  C   UNL A   1      42.370  22.725  25.477  1.00  0.00     0.261 C 
BRANCH  37  38
ATOM     38  O   UNL A   1      43.787  22.890  25.333  1.00  0.00    -0.460 OA
BRANCH  38  39
ATOM     39  C   UNL A   1      44.468  23.117  26.491  1.00  0.00     0.338 C 
ATOM     40  O   UNL A   1      45.528  22.626  26.837  1.00  0.00    -0.246 OA
BRANCH  39  41
ATOM     41  C   UNL A   1      43.805  24.249  27.190  1.00  0.00     0.060 A 
ATOM     42  C   UNL A   1      44.058  25.562  26.752  1.00  0.00     0.016 A 
ATOM     43  C   UNL A   1      42.834  24.008  28.165  1.00  0.00     0.016 A 
ATOM     44  C   UNL A   1      43.373  26.640  27.322  1.00  0.00     0.010 A 
ATOM     45  C   UNL A   1      42.179  25.084  28.759  1.00  0.00     0.010 A 
ATOM     46  C   UNL A   1      42.477  26.404  28.372  1.00  0.00    -0.014 A 
BRANCH  46  47
ATOM     47  C   UNL A   1      42.113  27.484  29.318  1.00  0.00     0.031 A 
ATOM     48  C   UNL A   1      42.895  27.530  30.601  1.00  0.00     0.074 A 
ATOM     49  C   UNL A   1      41.086  28.326  29.107  1.00  0.00     0.049 A 
ATOM     50  N   UNL A   1      42.639  28.160  31.716  1.00  0.00    -0.248 NA
ATOM     51  C   UNL A   1      44.128  26.724  30.633  1.00  0.00     0.031 C 
ATOM     52  C   UNL A   1      40.303  28.426  27.880  1.00  0.00     0.029 A 
ATOM     53  N   UNL A   1      40.508  29.239  29.955  1.00  0.00    -0.354 N 
ATOM     54  C   UNL A   1      43.663  27.804  32.584  1.00  0.00     0.074 A 
ATOM     55  C   UNL A   1      44.531  26.889  31.881  1.00  0.00     0.031 C 
ATOM     56  C   UNL A   1      39.322  29.330  28.065  1.00  0.00     0.029 A 
ATOM     57  C   UNL A   1      39.376  29.824  29.441  1.00  0.00     0.049 A 
ATOM     58  H   UNL A   1      40.868  29.452  30.846  1.00  0.00     0.167 HD
ATOM     59  C   UNL A   1      43.860  28.203  33.860  1.00  0.00     0.037 A 
ATOM     60  C   UNL A   1      38.472  30.628  30.038  1.00  0.00     0.037 A 
ATOM     61  C   UNL A   1      42.983  29.101  34.555  1.00  0.00     0.049 A 
ATOM     62  C   UNL A   1      38.655  30.983  31.497  1.00  0.00     0.074 A 
ATOM     63  C   UNL A   1      43.071  29.561  35.855  1.00  0.00     0.029 A 
ATOM     64  N   UNL A   1      41.847  29.672  33.998  1.00  0.00    -0.354 N 
ATOM     65  N   UNL A   1      39.614  30.636  32.323  1.00  0.00    -0.248 NA
ATOM     66  C   UNL A   1      37.624  31.834  32.110  1.00  0.00     0.031 C 
ATOM     67  C   UNL A   1      41.960  30.373  36.102  1.00  0.00     0.029 A 
ATOM     68  C   UNL A   1      41.218  30.472  34.934  1.00  0.00     0.049 A 
ATOM     69  H   UNL A   1      41.536  29.528  33.075  1.00  0.00     0.167 HD
ATOM     70  C   UNL A   1      39.330  31.266  33.529  1.00  0.00     0.074 A 
ATOM     71  C   UNL A   1      38.105  32.011  33.333  1.00  0.00     0.031 C 
ATOM     72  C   UNL A   1      40.023  31.239  34.695  1.00  0.00     0.037 A 
BRANCH  59  73
ATOM     73  C   UNL A   1      45.046  27.640  34.585  1.00  0.00     0.064 A 
ATOM     74  C   UNL A   1      46.286  28.295  34.589  1.00  0.00     0.173 A 
ATOM     75  C   UNL A   1      44.937  26.434  35.291  1.00  0.00     0.173 A 
ATOM     76  F   UNL A   1      46.450  29.438  33.907  1.00  0.00    -0.203 F 
ATOM     77  C   UNL A   1      47.382  27.749  35.253  1.00  0.00     0.198 A 
ATOM     78  C   UNL A   1      46.025  25.908  35.983  1.00  0.00     0.198 A 
ATOM     79  F   UNL A   1      43.775  25.764  35.314  1.00  0.00    -0.203 F 
ATOM     80  F   UNL A   1      48.571  28.363  35.198  1.00  0.00    -0.200 F 
ATOM     81  C   UNL A   1      47.247  26.562  35.958  1.00  0.00     0.200 A 
ATOM     82  F   UNL A   1      45.890  24.766  36.672  1.00  0.00    -0.200 F 
ATOM     83  F   UNL A   1      48.300  26.041  36.604  1.00  0.00    -0.200 F 
ENDBRANCH  59  73
BRANCH  60  84
ATOM     84  C   UNL A   1      37.294  31.136  29.283  1.00  0.00     0.064 A 
ATOM     85  C   UNL A   1      37.221  32.479  28.882  1.00  0.00     0.173 A 
ATOM     86  C   UNL A   1      36.198  30.311  28.985  1.00  0.00     0.173 A 
ATOM     87  F   UNL A   1      38.229  33.317  29.167  1.00  0.00    -0.203 F 
ATOM     88  C   UNL A   1      36.091  32.982  28.239  1.00  0.00     0.198 A 
ATOM     89  C   UNL A   1      35.083  30.808  28.314  1.00  0.00     0.198 A 
ATOM     90  F   UNL A   1      36.210  29.021  29.349  1.00  0.00    -0.203 F 
ATOM     91  F   UNL A   1      36.026  34.282  27.922  1.00  0.00    -0.200 F 
ATOM     92  C   UNL A   1      35.024  32.145  27.951  1.00  0.00     0.200 A 
ATOM     93  F   UNL A   1      34.058  29.992  28.027  1.00  0.00    -0.200 F 
ATOM     94  F   UNL A   1      33.936  32.628  27.335  1.00  0.00    -0.200 F 
ENDBRANCH  60  84
BRANCH  72  95
ATOM     95  C   UNL A   1      39.538  32.102  35.823  1.00  0.00     0.064 A 
ATOM     96  C   UNL A   1      39.988  33.417  36.003  1.00  0.00     0.173 A 
ATOM     97  C   UNL A   1      38.528  31.629  36.677  1.00  0.00     0.173 A 
ATOM     98  F   UNL A   1      40.958  33.911  35.218  1.00  0.00    -0.203 F 
ATOM     99  C   UNL A   1      39.456  34.222  37.006  1.00  0.00     0.198 A 
ATOM    100  C   UNL A   1      37.976  32.448  37.657  1.00  0.00     0.198 A 
ATOM    101  F   UNL A   1      38.055  30.381  36.539  1.00  0.00    -0.203 F 
ATOM    102  F   UNL A   1      39.922  35.467  37.181  1.00  0.00    -0.200 F 
ATOM    103  C   UNL A   1      38.442  33.742  37.822  1.00  0.00     0.200 A 
ATOM    104  F   UNL A   1      36.983  31.987  38.432  1.00  0.00    -0.200 F 
ATOM    105  F   UNL A   1      37.914  34.528  38.771  1.00  0.00    -0.200 F 
ENDBRANCH  72  95
ENDBRANCH  46  47
ENDBRANCH  39  41
ENDBRANCH  38  39
ENDBRANCH  37  38
ENDBRANCH  36  37
ENDBRANCH  35  36
ENDBRANCH  34  35
ENDBRANCH   1  34
TORSDOF 23
ENDMDL
MODEL 2
REMARK VINA RESULT:     -11.3      6.393     12.858
REMARK SMILES CSCC[C@H](NC(=O)Nc1cccc(-c2nc3ccccc3o2)c1)C(=O)OCCOCCOCCOC(=O)c1ccc(-c2c3nc(c(-c4c(F)c(F)c(F)c(F)c4F)c4ccc([nH]4)c(-c4c(F)c(F)c(F)c(F)c4F)c4nc(c(-c5c(F)c(F)c(F)c(F)c5F)c5ccc2[nH]5)C=C4)C=C3)cc1
REMARK SMILES IDX 31 1 30 2 29 3 28 4 27 5 25 6 26 7 5 8 4 9 3 10 2 11 1 12
REMARK SMILES IDX 6 13 7 14 8 16 9 17 10 19 11 20 24 21 12 22 14 23 13 24
REMARK SMILES IDX 15 25 16 26 23 27 17 28 22 29 18 30 21 31 19 32 20 33 32 34
REMARK SMILES IDX 33 35 34 36 35 37 36 38 37 39 38 40 39 41 40 42 101 43 41 44
REMARK SMILES IDX 100 45 42 46 43 47 44 48 94 49 45 50 99 51 93 52 95 53 46 54
REMARK SMILES IDX 98 55 92 56 91 57 47 59 79 60 59 61 78 62 60 63 63 64 77 65
REMARK SMILES IDX 96 66 61 67 62 68 76 70 97 71 64 72 48 73 49 74 57 75 50 76
REMARK SMILES IDX 51 77 55 78 58 79 52 80 53 81 56 82 54 83 80 84 81 85 89 86
REMARK SMILES IDX 82 87 83 88 87 89 90 90 84 91 85 92 88 93 86 94 65 95 66 96
REMARK SMILES IDX 74 97 67 98 68 99 72 100 75 101 69 102 70 103 73 104 71 105
REMARK H PARENT 6 15 9 18 95 58 63 69
REMARK Flexibility Score: inf
ROOT
ATOM      1  C   UNL A   1      39.194  32.957  39.463  1.00  0.00     0.188 C 
ENDROOT
BRANCH   1   2
ATOM      2  O   UNL A   1      38.027  32.134  39.292  1.00  0.00    -0.376 OA
BRANCH   2   3
ATOM      3  C   UNL A   1      37.558  31.860  37.958  1.00  0.00     0.202 C 
BRANCH   3   4
ATOM      4  C   UNL A   1      38.201  32.795  36.830  1.00  0.00     0.261 C 
BRANCH   4   5
ATOM      5  O   UNL A   1      37.705  32.664  35.162  1.00  0.00    -0.462 OA
BRANCH   5   6
ATOM      6  C   UNL A   1      36.428  32.834  33.784  1.00  0.00     0.328 C 
ATOM      7  O   UNL A   1      35.201  33.078  33.989  1.00  0.00    -0.250 OA
BRANCH   6   8
ATOM      8  C   UNL A   1      36.690  32.832  32.100  1.00  0.00     0.194 C 
BRANCH   8   9
ATOM      9  C   UNL A   1      38.000  33.660  31.932  1.00  0.00     0.048 C 
BRANCH   9  10
ATOM     10  C   UNL A   1      37.912  34.676  30.785  1.00  0.00     0.072 C 
BRANCH  10  11
ATOM     11  S   UNL A   1      39.348  34.564  29.663  1.00  0.00    -0.165 SA
ATOM     12  C   UNL A   1      40.570  33.805  30.758  1.00  0.00     0.085 C 
ENDBRANCH  10  11
ENDBRANCH   9  10
ENDBRANCH   8   9
BRANCH   8  13
ATOM     13  N   UNL A   1      35.878  32.966  30.872  1.00  0.00    -0.324 N 
ATOM     14  C   UNL A   1      35.344  31.955  30.134  1.00  0.00     0.319 C 
ATOM     15  H   UNL A   1      35.705  33.882  30.555  1.00  0.00     0.166 HD
ATOM     16  O   UNL A   1      34.405  32.146  29.372  1.00  0.00    -0.248 OA
ATOM     17  N   UNL A   1      35.901  30.734  30.333  1.00  0.00    -0.308 N 
ATOM     18  H   UNL A   1      35.456  29.924  29.996  1.00  0.00     0.171 HD
BRANCH  17  19
ATOM     19  C   UNL A   1      37.102  30.642  31.013  1.00  0.00     0.043 A 
ATOM     20  C   UNL A   1      37.041  30.074  32.742  1.00  0.00     0.026 A 
ATOM     21  C   UNL A   1      38.640  30.637  30.145  1.00  0.00     0.040 A 
ATOM     22  C   UNL A   1      38.570  29.596  33.631  1.00  0.00     0.003 A 
ATOM     23  C   UNL A   1      40.164  30.137  30.977  1.00  0.00     0.039 A 
ATOM     24  C   UNL A   1      40.157  29.696  32.745  1.00  0.00     0.014 A 
BRANCH  23  25
ATOM     25  C   UNL A   1      41.035  29.413  30.018  1.00  0.00     0.227 A 
ATOM     26  N   UNL A   1      41.866  30.027  29.183  1.00  0.00    -0.209 NA
ATOM     27  O   UNL A   1      40.576  28.199  29.558  1.00  0.00    -0.436 OA
ATOM     28  C   UNL A   1      41.793  29.282  28.037  1.00  0.00     0.110 A 
ATOM     29  C   UNL A   1      41.032  28.147  28.263  1.00  0.00     0.155 A 
ATOM     30  C   UNL A   1      42.298  29.528  26.751  1.00  0.00     0.032 A 
ATOM     31  C   UNL A   1      40.756  27.191  27.290  1.00  0.00     0.049 A 
ATOM     32  C   UNL A   1      42.032  28.592  25.743  1.00  0.00     0.003 A 
ATOM     33  C   UNL A   1      41.284  27.440  26.013  1.00  0.00     0.004 A 
ENDBRANCH  23  25
ENDBRANCH  17  19
ENDBRANCH   8  13
ENDBRANCH   6   8
ENDBRANCH   5   6
ENDBRANCH   4   5
ENDBRANCH   3   4
ENDBRANCH   2   3
ENDBRANCH   1   2
BRANCH   1  34
ATOM     34  C   UNL A   1      38.877  34.298  40.172  1.00  0.00     0.188 C 
BRANCH  34  35
ATOM     35  O   UNL A   1      38.952  35.507  39.418  1.00  0.00    -0.376 OA
BRANCH  35  36
ATOM     36  C   UNL A   1      39.983  36.430  39.742  1.00  0.00     0.202 C 
BRANCH  36  37
ATOM     37  C   UNL A   1      40.650  37.135  38.555  1.00  0.00     0.261 C 
BRANCH  37  38
ATOM     38  O   UNL A   1      41.369  36.261  37.676  1.00  0.00    -0.460 OA
BRANCH  38  39
ATOM     39  C   UNL A   1      40.820  36.096  36.439  1.00  0.00     0.338 C 
ATOM     40  O   UNL A   1      40.025  36.827  35.877  1.00  0.00    -0.246 OA
BRANCH  39  41
ATOM     41  C   UNL A   1      41.525  34.965  35.779  1.00  0.00     0.060 A 
ATOM     42  C   UNL A   1      42.854  34.684  36.146  1.00  0.00     0.016 A 
ATOM     43  C   UNL A   1      40.835  34.104  34.923  1.00  0.00     0.016 A 
ATOM     44  C   UNL A   1      43.510  33.568  35.619  1.00  0.00     0.010 A 
ATOM     45  C   UNL A   1      41.500  33.013  34.367  1.00  0.00     0.010 A 
ATOM     46  C   UNL A   1      42.850  32.767  34.678  1.00  0.00    -0.014 A 
BRANCH  46  47
ATOM     47  C   UNL A   1      43.613  31.907  33.743  1.00  0.00     0.031 A 
ATOM     48  C   UNL A   1      43.977  32.529  32.423  1.00  0.00     0.074 A 
ATOM     49  C   UNL A   1      43.891  30.617  33.996  1.00  0.00     0.049 A 
ATOM     50  N   UNL A   1      44.385  31.967  31.317  1.00  0.00    -0.248 NA
ATOM     51  C   UNL A   1      43.830  33.992  32.338  1.00  0.00     0.031 C 
ATOM     52  C   UNL A   1      43.654  29.925  35.259  1.00  0.00     0.029 A 
ATOM     53  N   UNL A   1      44.409  29.650  33.170  1.00  0.00    -0.354 N 
ATOM     54  C   UNL A   1      44.517  33.005  30.403  1.00  0.00     0.074 A 
ATOM     55  C   UNL A   1      44.126  34.224  31.071  1.00  0.00     0.031 C 
ATOM     56  C   UNL A   1      43.997  28.631  35.114  1.00  0.00     0.029 A 
ATOM     57  C   UNL A   1      44.421  28.397  33.733  1.00  0.00     0.049 A 
ATOM     58  H   UNL A   1      44.739  29.835  32.261  1.00  0.00     0.167 HD
ATOM     59  C   UNL A   1      44.924  32.945  29.117  1.00  0.00     0.037 A 
ATOM     60  C   UNL A   1      44.699  27.201  33.174  1.00  0.00     0.037 A 
ATOM     61  C   UNL A   1      45.295  31.726  28.458  1.00  0.00     0.049 A 
ATOM     62  C   UNL A   1      45.056  27.141  31.706  1.00  0.00     0.074 A 
ATOM     63  C   UNL A   1      45.706  31.540  27.152  1.00  0.00     0.029 A 
ATOM     64  N   UNL A   1      45.294  30.478  29.064  1.00  0.00    -0.354 N 
ATOM     65  N   UNL A   1      45.167  28.119  30.837  1.00  0.00    -0.248 NA
ATOM     66  C   UNL A   1      45.317  25.810  31.136  1.00  0.00     0.031 C 
ATOM     67  C   UNL A   1      45.906  30.171  26.952  1.00  0.00     0.029 A 
ATOM     68  C   UNL A   1      45.686  29.514  28.154  1.00  0.00     0.049 A 
ATOM     69  H   UNL A   1      45.050  30.304  30.002  1.00  0.00     0.167 HD
ATOM     70  C   UNL A   1      45.560  27.529  29.641  1.00  0.00     0.074 A 
ATOM     71  C   UNL A   1      45.660  26.107  29.890  1.00  0.00     0.031 C 
ATOM     72  C   UNL A   1      45.821  28.110  28.444  1.00  0.00     0.037 A 
BRANCH  59  73
ATOM     73  C   UNL A   1      44.951  34.227  28.339  1.00  0.00     0.064 A 
ATOM     74  C   UNL A   1      46.131  34.970  28.184  1.00  0.00     0.173 A 
ATOM     75  C   UNL A   1      43.783  34.715  27.737  1.00  0.00     0.173 A 
ATOM     76  F   UNL A   1      47.269  34.560  28.762  1.00  0.00    -0.203 F 
ATOM     77  C   UNL A   1      46.134  36.168  27.473  1.00  0.00     0.198 A 
ATOM     78  C   UNL A   1      43.797  35.895  26.998  1.00  0.00     0.198 A 
ATOM     79  F   UNL A   1      42.626  34.046  27.861  1.00  0.00    -0.203 F 
ATOM     80  F   UNL A   1      47.260  36.889  27.384  1.00  0.00    -0.200 F 
ATOM     81  C   UNL A   1      44.970  36.624  26.873  1.00  0.00     0.200 A 
ATOM     82  F   UNL A   1      42.673  36.329  26.410  1.00  0.00    -0.200 F 
ATOM     83  F   UNL A   1      44.975  37.772  26.183  1.00  0.00    -0.200 F 
ENDBRANCH  59  73
BRANCH  60  84
ATOM     84  C   UNL A   1      44.628  25.952  33.981  1.00  0.00     0.064 A 
ATOM     85  C   UNL A   1      45.796  25.274  34.363  1.00  0.00     0.173 A 
ATOM     86  C   UNL A   1      43.400  25.382  34.350  1.00  0.00     0.173 A 
ATOM     87  F   UNL A   1      46.995  25.761  34.012  1.00  0.00    -0.203 F 
ATOM     88  C   UNL A   1      45.739  24.066  35.055  1.00  0.00     0.198 A 
ATOM     89  C   UNL A   1      43.344  24.190  35.071  1.00  0.00     0.198 A 
ATOM     90  F   UNL A   1      42.251  25.982  34.008  1.00  0.00    -0.203 F 
ATOM     91  F   UNL A   1      46.870  23.412  35.354  1.00  0.00    -0.200 F 
ATOM     92  C   UNL A   1      44.513  23.527  35.413  1.00  0.00     0.200 A 
ATOM     93  F   UNL A   1      42.156  23.678  35.424  1.00  0.00    -0.200 F 
ATOM     94  F   UNL A   1      44.456  22.364  36.077  1.00  0.00    -0.200 F 
ENDBRANCH  60  84
BRANCH  72  95
ATOM     95  C   UNL A   1      46.330  27.237  27.334  1.00  0.00     0.064 A 
ATOM     96  C   UNL A   1      45.470  26.495  26.514  1.00  0.00     0.173 A 
ATOM     97  C   UNL A   1      47.702  27.228  27.029  1.00  0.00     0.173 A 
ATOM     98  F   UNL A   1      44.153  26.464  26.770  1.00  0.00    -0.203 F 
ATOM     99  C   UNL A   1      45.964  25.764  25.437  1.00  0.00     0.198 A 
ATOM    100  C   UNL A   1      48.188  26.523  25.933  1.00  0.00     0.198 A 
ATOM    101  F   UNL A   1      48.565  27.932  27.776  1.00  0.00    -0.203 F 
ATOM    102  F   UNL A   1      45.128  25.035  24.684  1.00  0.00    -0.200 F 
ATOM    103  C   UNL A   1      47.320  25.789  25.140  1.00  0.00     0.200 A 
ATOM    104  F   UNL A   1      49.495  26.565  25.637  1.00  0.00    -0.200 F 
ATOM    105  F   UNL A   1      47.790  25.103  24.089  1.00  0.00    -0.200 F 
ENDBRANCH  72  95
ENDBRANCH  46  47
ENDBRANCH  39  41
ENDBRANCH  38  39
ENDBRANCH  37  38
ENDBRANCH  36  37
ENDBRANCH  35  36
ENDBRANCH  34  35
ENDBRANCH   1  34
TORSDOF 23
ENDMDL
MODEL 3
REMARK VINA RESULT:     -11.2      5.719     10.020
REMARK SMILES CSCC[C@H](NC(=O)Nc1cccc(-c2nc3ccccc3o2)c1)C(=O)OCCOCCOCCOC(=O)c1ccc(-c2c3nc(c(-c4c(F)c(F)c(F)c(F)c4F)c4ccc([nH]4)c(-c4c(F)c(F)c(F)c(F)c4F)c4nc(c(-c5c(F)c(F)c(F)c(F)c5F)c5ccc2[nH]5)C=C4)C=C3)cc1
REMARK SMILES IDX 31 1 30 2 29 3 28 4 27 5 25 6 26 7 5 8 4 9 3 10 2 11 1 12
REMARK SMILES IDX 6 13 7 14 8 16 9 17 10 19 11 20 24 21 12 22 14 23 13 24
REMARK SMILES IDX 15 25 16 26 23 27 17 28 22 29 18 30 21 31 19 32 20 33 32 34
REMARK SMILES IDX 33 35 34 36 35 37 36 38 37 39 38 40 39 41 40 42 101 43 41 44
REMARK SMILES IDX 100 45 42 46 43 47 44 48 94 49 45 50 99 51 93 52 95 53 46 54
REMARK SMILES IDX 98 55 92 56 91 57 47 59 79 60 59 61 78 62 60 63 63 64 77 65
REMARK SMILES IDX 96 66 61 67 62 68 76 70 97 71 64 72 48 73 49 74 57 75 50 76
REMARK SMILES IDX 51 77 55 78 58 79 52 80 53 81 56 82 54 83 80 84 81 85 89 86
REMARK SMILES IDX 82 87 83 88 87 89 90 90 84 91 85 92 88 93 86 94 65 95 66 96
REMARK SMILES IDX 74 97 67 98 68 99 72 100 75 101 69 102 70 103 73 104 71 105
REMARK H PARENT 6 15 9 18 95 58 63 69
REMARK Flexibility Score: inf
ROOT
ATOM      1  C   UNL A   1      45.107  23.979  26.627  1.00  0.00     0.188 C 
ENDROOT
BRANCH   1   2
ATOM      2  O   UNL A   1      45.542  24.216  27.977  1.00  0.00    -0.376 OA
BRANCH   2   3
ATOM      3  C   UNL A   1      44.911  23.491  29.049  1.00  0.00     0.202 C 
BRANCH   3   4
ATOM      4  C   UNL A   1      43.777  24.316  29.821  1.00  0.00     0.261 C 
BRANCH   4   5
ATOM      5  O   UNL A   1      44.194  25.508  31.025  1.00  0.00    -0.462 OA
BRANCH   5   6
ATOM      6  C   UNL A   1      43.768  26.960  32.151  1.00  0.00     0.328 C 
ATOM      7  O   UNL A   1      43.477  28.118  31.724  1.00  0.00    -0.250 OA
BRANCH   6   8
ATOM      8  C   UNL A   1      43.570  26.957  33.844  1.00  0.00     0.194 C 
BRANCH   8   9
ATOM      9  C   UNL A   1      44.599  28.019  34.335  1.00  0.00     0.048 C 
BRANCH   9  10
ATOM     10  C   UNL A   1      45.649  27.426  35.285  1.00  0.00     0.072 C 
BRANCH  10  11
ATOM     11  S   UNL A   1      47.142  26.872  34.392  1.00  0.00    -0.165 SA
ATOM     12  C   UNL A   1      47.257  25.162  34.962  1.00  0.00     0.085 C 
ENDBRANCH  10  11
ENDBRANCH   9  10
ENDBRANCH   8   9
BRANCH   8  13
ATOM     13  N   UNL A   1      43.364  25.958  34.913  1.00  0.00    -0.324 N 
ATOM     14  C   UNL A   1      42.172  25.518  35.398  1.00  0.00     0.319 C 
ATOM     15  H   UNL A   1      44.174  25.570  35.317  1.00  0.00     0.166 HD
ATOM     16  O   UNL A   1      42.078  24.455  35.999  1.00  0.00    -0.248 OA
ATOM     17  N   UNL A   1      41.108  26.318  35.138  1.00  0.00    -0.308 N 
ATOM     18  H   UNL A   1      40.191  25.987  35.276  1.00  0.00     0.171 HD
BRANCH  17  19
ATOM     19  C   UNL A   1      41.325  27.604  34.676  1.00  0.00     0.043 A 
ATOM     20  C   UNL A   1      40.628  28.037  33.051  1.00  0.00     0.026 A 
ATOM     21  C   UNL A   1      41.853  28.885  35.771  1.00  0.00     0.040 A 
ATOM     22  C   UNL A   1      40.562  29.780  32.489  1.00  0.00     0.003 A 
ATOM     23  C   UNL A   1      41.769  30.617  35.267  1.00  0.00     0.039 A 
ATOM     24  C   UNL A   1      41.205  31.074  33.596  1.00  0.00     0.014 A 
BRANCH  23  25
ATOM     25  C   UNL A   1      41.419  31.457  36.442  1.00  0.00     0.227 A 
ATOM     26  N   UNL A   1      40.176  31.610  36.882  1.00  0.00    -0.209 NA
ATOM     27  O   UNL A   1      42.242  32.529  36.704  1.00  0.00    -0.436 OA
ATOM     28  C   UNL A   1      40.123  32.921  37.271  1.00  0.00     0.110 A 
ATOM     29  C   UNL A   1      41.386  33.484  37.195  1.00  0.00     0.155 A 
ATOM     30  C   UNL A   1      39.034  33.721  37.649  1.00  0.00     0.032 A 
ATOM     31  C   UNL A   1      41.665  34.812  37.510  1.00  0.00     0.049 A 
ATOM     32  C   UNL A   1      39.274  35.065  37.964  1.00  0.00     0.003 A 
ATOM     33  C   UNL A   1      40.569  35.595  37.906  1.00  0.00     0.004 A 
ENDBRANCH  23  25
ENDBRANCH  17  19
ENDBRANCH   8  13
ENDBRANCH   6   8
ENDBRANCH   5   6
ENDBRANCH   4   5
ENDBRANCH   3   4
ENDBRANCH   2   3
ENDBRANCH   1   2
BRANCH   1  34
ATOM     34  C   UNL A   1      45.541  22.588  26.097  1.00  0.00     0.188 C 
BRANCH  34  35
ATOM     35  O   UNL A   1      44.534  21.677  25.659  1.00  0.00    -0.376 OA
BRANCH  35  36
ATOM     36  C   UNL A   1      43.489  21.354  26.565  1.00  0.00     0.202 C 
BRANCH  36  37
ATOM     37  C   UNL A   1      42.124  21.049  25.937  1.00  0.00     0.261 C 
BRANCH  37  38
ATOM     38  O   UNL A   1      41.297  22.202  25.732  1.00  0.00    -0.460 OA
BRANCH  38  39
ATOM     39  C   UNL A   1      40.326  22.396  26.669  1.00  0.00     0.338 C 
ATOM     40  O   UNL A   1      39.673  21.547  27.247  1.00  0.00    -0.246 OA
BRANCH  39  41
ATOM     41  C   UNL A   1      40.339  23.836  27.039  1.00  0.00     0.060 A 
ATOM     42  C   UNL A   1      40.166  24.801  26.030  1.00  0.00     0.016 A 
ATOM     43  C   UNL A   1      40.371  24.221  28.382  1.00  0.00     0.016 A 
ATOM     44  C   UNL A   1      40.073  26.157  26.359  1.00  0.00     0.010 A 
ATOM     45  C   UNL A   1      40.316  25.574  28.708  1.00  0.00     0.010 A 
ATOM     46  C   UNL A   1      40.211  26.548  27.697  1.00  0.00    -0.014 A 
BRANCH  46  47
ATOM     47  C   UNL A   1      40.610  27.931  28.047  1.00  0.00     0.031 A 
ATOM     48  C   UNL A   1      42.088  28.183  28.161  1.00  0.00     0.074 A 
ATOM     49  C   UNL A   1      39.723  28.896  28.344  1.00  0.00     0.049 A 
ATOM     50  N   UNL A   1      42.729  29.183  28.706  1.00  0.00    -0.248 NA
ATOM     51  C   UNL A   1      42.964  27.139  27.601  1.00  0.00     0.031 C 
ATOM     52  C   UNL A   1      38.274  28.795  28.204  1.00  0.00     0.029 A 
ATOM     53  N   UNL A   1      39.928  30.150  28.865  1.00  0.00    -0.354 N 
ATOM     54  C   UNL A   1      44.076  28.872  28.576  1.00  0.00     0.074 A 
ATOM     55  C   UNL A   1      44.165  27.587  27.924  1.00  0.00     0.031 C 
ATOM     56  C   UNL A   1      37.715  29.932  28.660  1.00  0.00     0.029 A 
ATOM     57  C   UNL A   1      38.764  30.812  29.176  1.00  0.00     0.049 A 
ATOM     58  H   UNL A   1      40.822  30.538  29.004  1.00  0.00     0.167 HD
ATOM     59  C   UNL A   1      45.147  29.595  28.971  1.00  0.00     0.037 A 
ATOM     60  C   UNL A   1      38.581  31.970  29.842  1.00  0.00     0.037 A 
ATOM     61  C   UNL A   1      45.047  30.864  29.634  1.00  0.00     0.049 A 
ATOM     62  C   UNL A   1      39.788  32.716  30.366  1.00  0.00     0.074 A 
ATOM     63  C   UNL A   1      46.061  31.679  30.097  1.00  0.00     0.029 A 
ATOM     64  N   UNL A   1      43.849  31.499  29.929  1.00  0.00    -0.354 N 
ATOM     65  N   UNL A   1      41.061  32.418  30.256  1.00  0.00    -0.248 NA
ATOM     66  C   UNL A   1      39.532  33.956  31.114  1.00  0.00     0.031 C 
ATOM     67  C   UNL A   1      45.477  32.786  30.718  1.00  0.00     0.029 A 
ATOM     68  C   UNL A   1      44.100  32.693  30.581  1.00  0.00     0.049 A 
ATOM     69  H   UNL A   1      42.954  31.152  29.708  1.00  0.00     0.167 HD
ATOM     70  C   UNL A   1      41.754  33.453  30.872  1.00  0.00     0.074 A 
ATOM     71  C   UNL A   1      40.761  34.386  31.362  1.00  0.00     0.031 C 
ATOM     72  C   UNL A   1      43.091  33.624  31.016  1.00  0.00     0.037 A 
BRANCH  59  73
ATOM     73  C   UNL A   1      46.505  29.008  28.728  1.00  0.00     0.064 A 
ATOM     74  C   UNL A   1      47.128  28.177  29.671  1.00  0.00     0.173 A 
ATOM     75  C   UNL A   1      47.190  29.275  27.534  1.00  0.00     0.173 A 
ATOM     76  F   UNL A   1      46.527  27.912  30.841  1.00  0.00    -0.203 F 
ATOM     77  C   UNL A   1      48.397  27.654  29.437  1.00  0.00     0.198 A 
ATOM     78  C   UNL A   1      48.444  28.723  27.288  1.00  0.00     0.198 A 
ATOM     79  F   UNL A   1      46.641  30.069  26.602  1.00  0.00    -0.203 F 
ATOM     80  F   UNL A   1      48.996  26.908  30.375  1.00  0.00    -0.200 F 
ATOM     81  C   UNL A   1      49.049  27.920  28.242  1.00  0.00     0.200 A 
ATOM     82  F   UNL A   1      49.068  28.972  26.129  1.00  0.00    -0.200 F 
ATOM     83  F   UNL A   1      50.267  27.410  28.014  1.00  0.00    -0.200 F 
ENDBRANCH  59  73
BRANCH  60  84
ATOM     84  C   UNL A   1      37.209  32.496  30.085  1.00  0.00     0.064 A 
ATOM     85  C   UNL A   1      36.577  33.321  29.143  1.00  0.00     0.173 A 
ATOM     86  C   UNL A   1      36.518  32.227  31.277  1.00  0.00     0.173 A 
ATOM     87  F   UNL A   1      37.205  33.632  27.999  1.00  0.00    -0.203 F 
ATOM     88  C   UNL A   1      35.324  33.877  29.393  1.00  0.00     0.198 A 
ATOM     89  C   UNL A   1      35.251  32.757  31.512  1.00  0.00     0.198 A 
ATOM     90  F   UNL A   1      37.075  31.449  32.216  1.00  0.00    -0.203 F 
ATOM     91  F   UNL A   1      34.771  34.709  28.499  1.00  0.00    -0.200 F 
ATOM     92  C   UNL A   1      34.659  33.591  30.575  1.00  0.00     0.200 A 
ATOM     93  F   UNL A   1      34.607  32.469  32.652  1.00  0.00    -0.200 F 
ATOM     94  F   UNL A   1      33.454  34.127  30.818  1.00  0.00    -0.200 F 
ENDBRANCH  60  84
BRANCH  72  95
ATOM     95  C   UNL A   1      43.576  34.900  31.642  1.00  0.00     0.064 A 
ATOM     96  C   UNL A   1      43.788  36.064  30.893  1.00  0.00     0.173 A 
ATOM     97  C   UNL A   1      43.732  34.975  33.036  1.00  0.00     0.173 A 
ATOM     98  F   UNL A   1      43.660  36.041  29.558  1.00  0.00    -0.203 F 
ATOM     99  C   UNL A   1      44.153  37.255  31.514  1.00  0.00     0.198 A 
ATOM    100  C   UNL A   1      44.065  36.175  33.656  1.00  0.00     0.198 A 
ATOM    101  F   UNL A   1      43.529  33.890  33.799  1.00  0.00    -0.203 F 
ATOM    102  F   UNL A   1      44.382  38.351  30.776  1.00  0.00    -0.200 F 
ATOM    103  C   UNL A   1      44.278  37.313  32.895  1.00  0.00     0.200 A 
ATOM    104  F   UNL A   1      44.166  36.231  34.992  1.00  0.00    -0.200 F 
ATOM    105  F   UNL A   1      44.607  38.467  33.493  1.00  0.00    -0.200 F 
ENDBRANCH  72  95
ENDBRANCH  46  47
ENDBRANCH  39  41
ENDBRANCH  38  39
ENDBRANCH  37  38
ENDBRANCH  36  37
ENDBRANCH  35  36
ENDBRANCH  34  35
ENDBRANCH   1  34
TORSDOF 23
ENDMDL
