MODEL 1
REMARK VINA RESULT:      -9.4      0.000      0.000
REMARK SMILES C[C@@H](Oc1ccc(/C=N/NC(=O)c2ccc(I)c(O)c2)cc1)C(=O)OCCOCCOCCOC(=O)c1ccc(-c2c3nc(c(-c4c(F)c(F)c(F)c(F)c4F)c4ccc([nH]4)c(-c4c(F)c(F)c(F)c(F)c4F)c4nc(c(-c5c(F)c(F)c(F)c(F)c5F)c5ccc2[nH]5)C=C4)C=C3)cc1
REMARK SMILES IDX 27 1 26 2 25 3 23 4 24 5 2 6 1 7 3 8 4 9 5 10 22 11 6 12
REMARK SMILES IDX 21 13 7 14 8 15 9 16 10 17 11 18 12 20 13 21 14 22 20 23
REMARK SMILES IDX 15 24 18 25 16 26 17 27 19 28 28 30 29 31 30 32 31 33 32 34
REMARK SMILES IDX 33 35 34 36 35 37 36 38 37 39 38 40 99 41 39 42 98 43 40 44
REMARK SMILES IDX 41 45 42 46 92 47 43 48 97 49 91 50 93 51 44 52 96 53 90 54
REMARK SMILES IDX 89 55 45 57 77 58 57 59 76 60 58 61 61 62 75 63 94 64 59 65
REMARK SMILES IDX 60 66 74 68 95 69 62 70 46 71 47 72 55 73 48 74 49 75 53 76
REMARK SMILES IDX 56 77 50 78 51 79 54 80 52 81 78 82 79 83 87 84 80 85 81 86
REMARK SMILES IDX 85 87 88 88 82 89 83 90 86 91 84 92 63 93 64 94 72 95 65 96
REMARK SMILES IDX 66 97 70 98 73 99 67 100 68 101 71 102 69 103
REMARK H PARENT 10 19 19 29 93 56 61 67
REMARK Flexibility Score: inf
ROOT
ATOM      1  C   UNL A   1      39.900  27.713  29.321  1.00  0.00     0.202 C 
ENDROOT
BRANCH   1   2
ATOM      2  C   UNL A   1      38.860  27.938  30.428  1.00  0.00     0.261 C 
BRANCH   2   3
ATOM      3  O   UNL A   1      38.848  29.276  30.959  1.00  0.00    -0.461 OA
BRANCH   3   4
ATOM      4  C   UNL A   1      38.375  30.250  30.129  1.00  0.00     0.347 C 
ATOM      5  O   UNL A   1      39.075  31.076  29.552  1.00  0.00    -0.248 OA
BRANCH   4   6
ATOM      6  C   UNL A   1      36.855  30.202  29.956  1.00  0.00     0.279 C 
ATOM      7  C   UNL A   1      36.067  30.752  31.144  1.00  0.00     0.066 C 
BRANCH   6   8
ATOM      8  O   UNL A   1      36.572  30.948  28.762  1.00  0.00    -0.479 OA
BRANCH   8   9
ATOM      9  C   UNL A   1      35.384  30.575  28.201  1.00  0.00     0.120 A 
ATOM     10  C   UNL A   1      35.239  29.276  27.711  1.00  0.00     0.047 A 
ATOM     11  C   UNL A   1      34.373  31.517  28.035  1.00  0.00     0.047 A 
ATOM     12  C   UNL A   1      34.064  28.916  27.044  1.00  0.00     0.013 A 
ATOM     13  C   UNL A   1      33.177  31.144  27.437  1.00  0.00     0.013 A 
ATOM     14  C   UNL A   1      33.040  29.856  26.917  1.00  0.00    -0.005 A 
BRANCH  14  15
ATOM     15  C   UNL A   1      31.835  29.590  26.124  1.00  0.00     0.141 C 
ATOM     16  N   UNL A   1      31.893  28.822  25.085  1.00  0.00    -0.180 NA
BRANCH  16  17
ATOM     17  N   UNL A   1      30.800  28.785  24.265  1.00  0.00    -0.243 N 
ATOM     18  C   UNL A   1      30.107  27.691  23.772  1.00  0.00     0.271 C 
ATOM     19  H   UNL A   1      30.455  29.664  23.983  1.00  0.00     0.194 HD
ATOM     20  O   UNL A   1      29.167  27.839  22.992  1.00  0.00    -0.267 OA
BRANCH  18  21
ATOM     21  C   UNL A   1      30.479  26.312  24.170  1.00  0.00     0.045 A 
ATOM     22  C   UNL A   1      30.887  25.426  23.168  1.00  0.00     0.015 A 
ATOM     23  C   UNL A   1      30.450  25.900  25.508  1.00  0.00     0.061 A 
ATOM     24  C   UNL A   1      31.341  24.150  23.506  1.00  0.00     0.019 A 
ATOM     25  C   UNL A   1      30.915  24.626  25.843  1.00  0.00     0.129 A 
ATOM     26  C   UNL A   1      31.372  23.754  24.847  1.00  0.00     0.055 A 
ATOM     27  I   UNL A   1      32.163  21.873  25.302  1.00  0.00    -0.040 I 
BRANCH  25  28
ATOM     28  O   UNL A   1      30.979  24.260  27.160  1.00  0.00    -0.507 OA
ATOM     29  H   UNL A   1      30.215  24.311  27.698  1.00  0.00     0.293 HD
ENDBRANCH  25  28
ENDBRANCH  18  21
ENDBRANCH  16  17
ENDBRANCH  14  15
ENDBRANCH   8   9
ENDBRANCH   6   8
ENDBRANCH   4   6
ENDBRANCH   3   4
ENDBRANCH   2   3
ENDBRANCH   1   2
BRANCH   1  30
ATOM     30  O   UNL A   1      39.415  27.706  27.979  1.00  0.00    -0.376 OA
BRANCH  30  31
ATOM     31  C   UNL A   1      40.379  27.879  26.950  1.00  0.00     0.188 C 
BRANCH  31  32
ATOM     32  C   UNL A   1      41.119  26.626  26.482  1.00  0.00     0.188 C 
BRANCH  32  33
ATOM     33  O   UNL A   1      40.292  25.508  26.180  1.00  0.00    -0.376 OA
BRANCH  33  34
ATOM     34  C   UNL A   1      40.314  24.438  27.133  1.00  0.00     0.202 C 
BRANCH  34  35
ATOM     35  C   UNL A   1      40.809  23.067  26.628  1.00  0.00     0.261 C 
BRANCH  35  36
ATOM     36  O   UNL A   1      42.150  22.722  27.041  1.00  0.00    -0.460 OA
BRANCH  36  37
ATOM     37  C   UNL A   1      43.128  22.774  26.105  1.00  0.00     0.338 C 
ATOM     38  O   UNL A   1      43.275  22.009  25.166  1.00  0.00    -0.246 OA
BRANCH  37  39
ATOM     39  C   UNL A   1      43.835  24.078  26.238  1.00  0.00     0.060 A 
ATOM     40  C   UNL A   1      43.968  24.876  25.091  1.00  0.00     0.016 A 
ATOM     41  C   UNL A   1      44.279  24.561  27.473  1.00  0.00     0.016 A 
ATOM     42  C   UNL A   1      44.570  26.137  25.172  1.00  0.00     0.010 A 
ATOM     43  C   UNL A   1      44.892  25.818  27.551  1.00  0.00     0.010 A 
ATOM     44  C   UNL A   1      45.065  26.605  26.397  1.00  0.00    -0.014 A 
BRANCH  44  45
ATOM     45  C   UNL A   1      45.908  27.828  26.442  1.00  0.00     0.031 A 
ATOM     46  C   UNL A   1      47.394  27.682  26.247  1.00  0.00     0.074 A 
ATOM     47  C   UNL A   1      45.382  29.053  26.630  1.00  0.00     0.049 A 
ATOM     48  N   UNL A   1      48.333  28.593  26.283  1.00  0.00    -0.248 NA
ATOM     49  C   UNL A   1      47.885  26.322  25.971  1.00  0.00     0.031 C 
ATOM     50  C   UNL A   1      43.962  29.350  26.793  1.00  0.00     0.029 A 
ATOM     51  N   UNL A   1      45.997  30.280  26.725  1.00  0.00    -0.354 N 
ATOM     52  C   UNL A   1      49.522  27.919  26.037  1.00  0.00     0.074 A 
ATOM     53  C   UNL A   1      49.191  26.519  25.879  1.00  0.00     0.031 C 
ATOM     54  C   UNL A   1      43.814  30.675  26.982  1.00  0.00     0.029 A 
ATOM     55  C   UNL A   1      45.130  31.314  26.986  1.00  0.00     0.049 A 
ATOM     56  H   UNL A   1      46.967  30.406  26.616  1.00  0.00     0.167 HD
ATOM     57  C   UNL A   1      50.776  28.419  25.942  1.00  0.00     0.037 A 
ATOM     58  C   UNL A   1      45.374  32.619  27.227  1.00  0.00     0.037 A 
ATOM     59  C   UNL A   1      51.119  29.808  26.097  1.00  0.00     0.049 A 
ATOM     60  C   UNL A   1      46.794  33.136  27.201  1.00  0.00     0.074 A 
ATOM     61  C   UNL A   1      52.364  30.403  25.991  1.00  0.00     0.029 A 
ATOM     62  N   UNL A   1      50.218  30.815  26.400  1.00  0.00    -0.354 N 
ATOM     63  N   UNL A   1      47.906  32.497  26.930  1.00  0.00    -0.248 NA
ATOM     64  C   UNL A   1      46.990  34.560  27.517  1.00  0.00     0.031 C 
ATOM     65  C   UNL A   1      52.226  31.763  26.286  1.00  0.00     0.029 A 
ATOM     66  C   UNL A   1      50.887  32.024  26.518  1.00  0.00     0.049 A 
ATOM     67  H   UNL A   1      49.249  30.692  26.515  1.00  0.00     0.167 HD
ATOM     68  C   UNL A   1      48.922  33.443  27.013  1.00  0.00     0.074 A 
ATOM     69  C   UNL A   1      48.296  34.704  27.344  1.00  0.00     0.031 C 
ATOM     70  C   UNL A   1      50.256  33.279  26.835  1.00  0.00     0.037 A 
BRANCH  57  71
ATOM     71  C   UNL A   1      51.891  27.451  25.681  1.00  0.00     0.064 A 
ATOM     72  C   UNL A   1      52.575  26.816  26.727  1.00  0.00     0.173 A 
ATOM     73  C   UNL A   1      52.236  27.108  24.365  1.00  0.00     0.173 A 
ATOM     74  F   UNL A   1      52.292  27.122  28.003  1.00  0.00    -0.203 F 
ATOM     75  C   UNL A   1      53.573  25.882  26.465  1.00  0.00     0.198 A 
ATOM     76  C   UNL A   1      53.216  26.155  24.107  1.00  0.00     0.198 A 
ATOM     77  F   UNL A   1      51.609  27.687  23.329  1.00  0.00    -0.203 F 
ATOM     78  F   UNL A   1      54.237  25.312  27.479  1.00  0.00    -0.200 F 
ATOM     79  C   UNL A   1      53.885  25.545  25.156  1.00  0.00     0.200 A 
ATOM     80  F   UNL A   1      53.507  25.822  22.842  1.00  0.00    -0.200 F 
ATOM     81  F   UNL A   1      54.837  24.634  24.906  1.00  0.00    -0.200 F 
ENDBRANCH  57  71
BRANCH  58  82
ATOM     82  C   UNL A   1      44.256  33.547  27.552  1.00  0.00     0.064 A 
ATOM     83  C   UNL A   1      43.771  34.461  26.605  1.00  0.00     0.173 A 
ATOM     84  C   UNL A   1      43.698  33.585  28.839  1.00  0.00     0.173 A 
ATOM     85  F   UNL A   1      44.296  34.490  25.372  1.00  0.00    -0.203 F 
ATOM     86  C   UNL A   1      42.793  35.396  26.941  1.00  0.00     0.198 A 
ATOM     87  C   UNL A   1      42.698  34.499  29.165  1.00  0.00     0.198 A 
ATOM     88  F   UNL A   1      44.134  32.741  29.784  1.00  0.00    -0.203 F 
ATOM     89  F   UNL A   1      42.397  36.302  26.037  1.00  0.00    -0.200 F 
ATOM     90  C   UNL A   1      42.254  35.411  28.220  1.00  0.00     0.200 A 
ATOM     91  F   UNL A   1      42.177  34.506  30.398  1.00  0.00    -0.200 F 
ATOM     92  F   UNL A   1      41.321  36.316  28.545  1.00  0.00    -0.200 F 
ENDBRANCH  58  82
BRANCH  70  93
ATOM     93  C   UNL A   1      51.132  34.495  26.953  1.00  0.00     0.064 A 
ATOM     94  C   UNL A   1      51.779  34.825  28.154  1.00  0.00     0.173 A 
ATOM     95  C   UNL A   1      51.367  35.313  25.836  1.00  0.00     0.173 A 
ATOM     96  F   UNL A   1      51.579  34.084  29.253  1.00  0.00    -0.203 F 
ATOM     97  C   UNL A   1      52.605  35.943  28.239  1.00  0.00     0.198 A 
ATOM     98  C   UNL A   1      52.219  36.412  25.917  1.00  0.00     0.198 A 
ATOM     99  F   UNL A   1      50.783  35.037  24.661  1.00  0.00    -0.203 F 
ATOM    100  F   UNL A   1      53.174  36.266  29.409  1.00  0.00    -0.200 F 
ATOM    101  C   UNL A   1      52.830  36.731  27.119  1.00  0.00     0.200 A 
ATOM    102  F   UNL A   1      52.449  37.161  24.830  1.00  0.00    -0.200 F 
ATOM    103  F   UNL A   1      53.634  37.801  27.201  1.00  0.00    -0.200 F 
ENDBRANCH  70  93
ENDBRANCH  44  45
ENDBRANCH  37  39
ENDBRANCH  36  37
ENDBRANCH  35  36
ENDBRANCH  34  35
ENDBRANCH  33  34
ENDBRANCH  32  33
ENDBRANCH  31  32
ENDBRANCH  30  31
ENDBRANCH   1  30
TORSDOF 23
ENDMDL
MODEL 2
REMARK VINA RESULT:      -9.4      5.808     10.576
REMARK SMILES C[C@@H](Oc1ccc(/C=N/NC(=O)c2ccc(I)c(O)c2)cc1)C(=O)OCCOCCOCCOC(=O)c1ccc(-c2c3nc(c(-c4c(F)c(F)c(F)c(F)c4F)c4ccc([nH]4)c(-c4c(F)c(F)c(F)c(F)c4F)c4nc(c(-c5c(F)c(F)c(F)c(F)c5F)c5ccc2[nH]5)C=C4)C=C3)cc1
REMARK SMILES IDX 27 1 26 2 25 3 23 4 24 5 2 6 1 7 3 8 4 9 5 10 22 11 6 12
REMARK SMILES IDX 21 13 7 14 8 15 9 16 10 17 11 18 12 20 13 21 14 22 20 23
REMARK SMILES IDX 15 24 18 25 16 26 17 27 19 28 28 30 29 31 30 32 31 33 32 34
REMARK SMILES IDX 33 35 34 36 35 37 36 38 37 39 38 40 99 41 39 42 98 43 40 44
REMARK SMILES IDX 41 45 42 46 92 47 43 48 97 49 91 50 93 51 44 52 96 53 90 54
REMARK SMILES IDX 89 55 45 57 77 58 57 59 76 60 58 61 61 62 75 63 94 64 59 65
REMARK SMILES IDX 60 66 74 68 95 69 62 70 46 71 47 72 55 73 48 74 49 75 53 76
REMARK SMILES IDX 56 77 50 78 51 79 54 80 52 81 78 82 79 83 87 84 80 85 81 86
REMARK SMILES IDX 85 87 88 88 82 89 83 90 86 91 84 92 63 93 64 94 72 95 65 96
REMARK SMILES IDX 66 97 70 98 73 99 67 100 68 101 71 102 69 103
REMARK H PARENT 10 19 19 29 93 56 61 67
REMARK Flexibility Score: inf
ROOT
ATOM      1  C   UNL A   1      43.421  21.727  26.134  1.00  0.00     0.202 C 
ENDROOT
BRANCH   1   2
ATOM      2  C   UNL A   1      42.496  22.731  25.432  1.00  0.00     0.261 C 
BRANCH   2   3
ATOM      3  O   UNL A   1      41.570  23.393  26.313  1.00  0.00    -0.461 OA
BRANCH   3   4
ATOM      4  C   UNL A   1      41.783  24.724  26.522  1.00  0.00     0.347 C 
ATOM      5  O   UNL A   1      42.070  25.533  25.645  1.00  0.00    -0.248 OA
BRANCH   4   6
ATOM      6  C   UNL A   1      41.601  25.135  27.985  1.00  0.00     0.279 C 
ATOM      7  C   UNL A   1      42.688  24.619  28.926  1.00  0.00     0.066 C 
BRANCH   6   8
ATOM      8  O   UNL A   1      41.558  26.571  27.988  1.00  0.00    -0.479 OA
BRANCH   8   9
ATOM      9  C   UNL A   1      40.851  27.055  29.052  1.00  0.00     0.120 A 
ATOM     10  C   UNL A   1      39.517  26.680  29.213  1.00  0.00     0.047 A 
ATOM     11  C   UNL A   1      41.437  27.991  29.900  1.00  0.00     0.047 A 
ATOM     12  C   UNL A   1      38.758  27.250  30.240  1.00  0.00     0.013 A 
ATOM     13  C   UNL A   1      40.709  28.505  30.964  1.00  0.00     0.013 A 
ATOM     14  C   UNL A   1      39.365  28.157  31.110  1.00  0.00    -0.005 A 
BRANCH  14  15
ATOM     15  C   UNL A   1      38.601  28.886  32.129  1.00  0.00     0.141 C 
ATOM     16  N   UNL A   1      38.708  30.171  32.229  1.00  0.00    -0.180 NA
BRANCH  16  17
ATOM     17  N   UNL A   1      38.151  30.766  33.326  1.00  0.00    -0.243 N 
ATOM     18  C   UNL A   1      37.225  31.796  33.392  1.00  0.00     0.271 C 
ATOM     19  H   UNL A   1      38.450  30.413  34.195  1.00  0.00     0.194 HD
ATOM     20  O   UNL A   1      36.868  32.253  34.477  1.00  0.00    -0.267 OA
BRANCH  18  21
ATOM     21  C   UNL A   1      36.642  32.375  32.159  1.00  0.00     0.045 A 
ATOM     22  C   UNL A   1      35.290  32.130  31.892  1.00  0.00     0.015 A 
ATOM     23  C   UNL A   1      37.401  33.165  31.287  1.00  0.00     0.061 A 
ATOM     24  C   UNL A   1      34.674  32.736  30.795  1.00  0.00     0.019 A 
ATOM     25  C   UNL A   1      36.777  33.778  30.197  1.00  0.00     0.129 A 
ATOM     26  C   UNL A   1      35.413  33.575  29.956  1.00  0.00     0.055 A 
ATOM     27  I   UNL A   1      34.411  34.539  28.395  1.00  0.00    -0.040 I 
BRANCH  25  28
ATOM     28  O   UNL A   1      37.496  34.628  29.403  1.00  0.00    -0.507 OA
ATOM     29  H   UNL A   1      38.431  34.644  29.460  1.00  0.00     0.293 HD
ENDBRANCH  25  28
ENDBRANCH  18  21
ENDBRANCH  16  17
ENDBRANCH  14  15
ENDBRANCH   8   9
ENDBRANCH   6   8
ENDBRANCH   4   6
ENDBRANCH   3   4
ENDBRANCH   2   3
ENDBRANCH   1   2
BRANCH   1  30
ATOM     30  O   UNL A   1      44.819  22.012  26.099  1.00  0.00    -0.376 OA
BRANCH  30  31
ATOM     31  C   UNL A   1      45.294  22.994  27.009  1.00  0.00     0.188 C 
BRANCH  31  32
ATOM     32  C   UNL A   1      45.478  24.410  26.461  1.00  0.00     0.188 C 
BRANCH  32  33
ATOM     33  O   UNL A   1      45.671  24.497  25.054  1.00  0.00    -0.376 OA
BRANCH  33  34
ATOM     34  C   UNL A   1      46.947  24.058  24.569  1.00  0.00     0.202 C 
BRANCH  34  35
ATOM     35  C   UNL A   1      47.838  25.122  23.896  1.00  0.00     0.261 C 
BRANCH  35  36
ATOM     36  O   UNL A   1      47.227  26.425  23.766  1.00  0.00    -0.460 OA
BRANCH  36  37
ATOM     37  C   UNL A   1      47.949  27.499  24.163  1.00  0.00     0.338 C 
ATOM     38  O   UNL A   1      48.806  28.077  23.515  1.00  0.00    -0.246 OA
BRANCH  37  39
ATOM     39  C   UNL A   1      47.340  28.037  25.411  1.00  0.00     0.060 A 
ATOM     40  C   UNL A   1      45.940  28.034  25.516  1.00  0.00     0.016 A 
ATOM     41  C   UNL A   1      48.114  28.452  26.498  1.00  0.00     0.016 A 
ATOM     42  C   UNL A   1      45.318  28.471  26.690  1.00  0.00     0.010 A 
ATOM     43  C   UNL A   1      47.490  28.901  27.669  1.00  0.00     0.010 A 
ATOM     44  C   UNL A   1      46.087  28.938  27.765  1.00  0.00    -0.014 A 
BRANCH  44  45
ATOM     45  C   UNL A   1      45.429  29.619  28.911  1.00  0.00     0.031 A 
ATOM     46  C   UNL A   1      45.147  31.094  28.802  1.00  0.00     0.074 A 
ATOM     47  C   UNL A   1      45.066  28.955  30.024  1.00  0.00     0.049 A 
ATOM     48  N   UNL A   1      44.620  31.909  29.681  1.00  0.00    -0.248 NA
ATOM     49  C   UNL A   1      45.504  31.734  27.526  1.00  0.00     0.031 C 
ATOM     50  C   UNL A   1      45.241  27.524  30.254  1.00  0.00     0.029 A 
ATOM     51  N   UNL A   1      44.479  29.414  31.182  1.00  0.00    -0.354 N 
ATOM     52  C   UNL A   1      44.585  33.154  29.066  1.00  0.00     0.074 A 
ATOM     53  C   UNL A   1      45.166  32.994  27.751  1.00  0.00     0.031 C 
ATOM     54  C   UNL A   1      44.782  27.221  31.483  1.00  0.00     0.029 A 
ATOM     55  C   UNL A   1      44.313  28.442  32.139  1.00  0.00     0.049 A 
ATOM     56  H   UNL A   1      44.204  30.349  31.311  1.00  0.00     0.167 HD
ATOM     57  C   UNL A   1      44.106  34.324  29.549  1.00  0.00     0.037 A 
ATOM     58  C   UNL A   1      43.861  28.534  33.408  1.00  0.00     0.037 A 
ATOM     59  C   UNL A   1      43.526  34.496  30.855  1.00  0.00     0.049 A 
ATOM     60  C   UNL A   1      43.412  29.871  33.951  1.00  0.00     0.074 A 
ATOM     61  C   UNL A   1      42.992  35.645  31.413  1.00  0.00     0.029 A 
ATOM     62  N   UNL A   1      43.414  33.498  31.808  1.00  0.00    -0.354 N 
ATOM     63  N   UNL A   1      43.348  31.033  33.349  1.00  0.00    -0.248 NA
ATOM     64  C   UNL A   1      42.974  29.905  35.356  1.00  0.00     0.031 C 
ATOM     65  C   UNL A   1      42.608  35.356  32.726  1.00  0.00     0.029 A 
ATOM     66  C   UNL A   1      42.849  34.013  32.965  1.00  0.00     0.049 A 
ATOM     67  H   UNL A   1      43.694  32.563  31.684  1.00  0.00     0.167 HD
ATOM     68  C   UNL A   1      42.837  31.924  34.287  1.00  0.00     0.074 A 
ATOM     69  C   UNL A   1      42.592  31.166  35.495  1.00  0.00     0.031 C 
ATOM     70  C   UNL A   1      42.596  33.251  34.160  1.00  0.00     0.037 A 
BRANCH  57  71
ATOM     71  C   UNL A   1      44.208  35.533  28.667  1.00  0.00     0.064 A 
ATOM     72  C   UNL A   1      43.123  35.975  27.897  1.00  0.00     0.173 A 
ATOM     73  C   UNL A   1      45.387  36.293  28.644  1.00  0.00     0.173 A 
ATOM     74  F   UNL A   1      41.980  35.274  27.875  1.00  0.00    -0.203 F 
ATOM     75  C   UNL A   1      43.221  37.129  27.124  1.00  0.00     0.198 A 
ATOM     76  C   UNL A   1      45.472  37.459  27.890  1.00  0.00     0.198 A 
ATOM     77  F   UNL A   1      46.452  35.911  29.366  1.00  0.00    -0.203 F 
ATOM     78  F   UNL A   1      42.183  37.516  26.369  1.00  0.00    -0.200 F 
ATOM     79  C   UNL A   1      44.390  37.875  27.129  1.00  0.00     0.200 A 
ATOM     80  F   UNL A   1      46.598  38.185  27.906  1.00  0.00    -0.200 F 
ATOM     81  F   UNL A   1      44.476  38.993  26.395  1.00  0.00    -0.200 F 
ENDBRANCH  57  71
BRANCH  58  82
ATOM     82  C   UNL A   1      43.834  27.332  34.286  1.00  0.00     0.064 A 
ATOM     83  C   UNL A   1      44.999  26.859  34.908  1.00  0.00     0.173 A 
ATOM     84  C   UNL A   1      42.656  26.592  34.462  1.00  0.00     0.173 A 
ATOM     85  F   UNL A   1      46.159  27.510  34.740  1.00  0.00    -0.203 F 
ATOM     86  C   UNL A   1      44.992  25.678  35.648  1.00  0.00     0.198 A 
ATOM     87  C   UNL A   1      42.643  25.428  35.229  1.00  0.00     0.198 A 
ATOM     88  F   UNL A   1      41.517  26.993  33.880  1.00  0.00    -0.203 F 
ATOM     89  F   UNL A   1      46.133  25.213  36.174  1.00  0.00    -0.200 F 
ATOM     90  C   UNL A   1      43.813  24.965  35.812  1.00  0.00     0.200 A 
ATOM     91  F   UNL A   1      41.501  24.747  35.388  1.00  0.00    -0.200 F 
ATOM     92  F   UNL A   1      43.809  23.825  36.515  1.00  0.00    -0.200 F 
ENDBRANCH  58  82
BRANCH  70  93
ATOM     93  C   UNL A   1      42.002  33.971  35.338  1.00  0.00     0.064 A 
ATOM     94  C   UNL A   1      40.614  34.066  35.523  1.00  0.00     0.173 A 
ATOM     95  C   UNL A   1      42.833  34.533  36.321  1.00  0.00     0.173 A 
ATOM     96  F   UNL A   1      39.776  33.557  34.609  1.00  0.00    -0.203 F 
ATOM     97  C   UNL A   1      40.082  34.718  36.633  1.00  0.00     0.198 A 
ATOM     98  C   UNL A   1      42.297  35.157  37.445  1.00  0.00     0.198 A 
ATOM     99  F   UNL A   1      44.167  34.462  36.200  1.00  0.00    -0.203 F 
ATOM    100  F   UNL A   1      38.753  34.837  36.763  1.00  0.00    -0.200 F 
ATOM    101  C   UNL A   1      40.923  35.256  37.596  1.00  0.00     0.200 A 
ATOM    102  F   UNL A   1      43.112  35.661  38.382  1.00  0.00    -0.200 F 
ATOM    103  F   UNL A   1      40.408  35.875  38.667  1.00  0.00    -0.200 F 
ENDBRANCH  70  93
ENDBRANCH  44  45
ENDBRANCH  37  39
ENDBRANCH  36  37
ENDBRANCH  35  36
ENDBRANCH  34  35
ENDBRANCH  33  34
ENDBRANCH  32  33
ENDBRANCH  31  32
ENDBRANCH  30  31
ENDBRANCH   1  30
TORSDOF 23
ENDMDL
MODEL 3
REMARK VINA RESULT:      -9.1      6.719     12.313
REMARK SMILES C[C@@H](Oc1ccc(/C=N/NC(=O)c2ccc(I)c(O)c2)cc1)C(=O)OCCOCCOCCOC(=O)c1ccc(-c2c3nc(c(-c4c(F)c(F)c(F)c(F)c4F)c4ccc([nH]4)c(-c4c(F)c(F)c(F)c(F)c4F)c4nc(c(-c5c(F)c(F)c(F)c(F)c5F)c5ccc2[nH]5)C=C4)C=C3)cc1
REMARK SMILES IDX 27 1 26 2 25 3 23 4 24 5 2 6 1 7 3 8 4 9 5 10 22 11 6 12
REMARK SMILES IDX 21 13 7 14 8 15 9 16 10 17 11 18 12 20 13 21 14 22 20 23
REMARK SMILES IDX 15 24 18 25 16 26 17 27 19 28 28 30 29 31 30 32 31 33 32 34
REMARK SMILES IDX 33 35 34 36 35 37 36 38 37 39 38 40 99 41 39 42 98 43 40 44
REMARK SMILES IDX 41 45 42 46 92 47 43 48 97 49 91 50 93 51 44 52 96 53 90 54
REMARK SMILES IDX 89 55 45 57 77 58 57 59 76 60 58 61 61 62 75 63 94 64 59 65
REMARK SMILES IDX 60 66 74 68 95 69 62 70 46 71 47 72 55 73 48 74 49 75 53 76
REMARK SMILES IDX 56 77 50 78 51 79 54 80 52 81 78 82 79 83 87 84 80 85 81 86
REMARK SMILES IDX 85 87 88 88 82 89 83 90 86 91 84 92 63 93 64 94 72 95 65 96
REMARK SMILES IDX 66 97 70 98 73 99 67 100 68 101 71 102 69 103
REMARK H PARENT 10 19 19 29 93 56 61 67
REMARK Flexibility Score: inf
ROOT
ATOM      1  C   UNL A   1      41.341  33.166  40.958  1.00  0.00     0.202 C 
ENDROOT
BRANCH   1   2
ATOM      2  C   UNL A   1      40.091  33.617  40.189  1.00  0.00     0.261 C 
BRANCH   2   3
ATOM      3  O   UNL A   1      39.261  32.534  39.730  1.00  0.00    -0.461 OA
BRANCH   3   4
ATOM      4  C   UNL A   1      37.914  32.710  39.860  1.00  0.00     0.347 C 
ATOM      5  O   UNL A   1      37.382  33.476  40.657  1.00  0.00    -0.248 OA
BRANCH   4   6
ATOM      6  C   UNL A   1      37.104  31.862  38.876  1.00  0.00     0.279 C 
ATOM      7  C   UNL A   1      35.910  31.141  39.499  1.00  0.00     0.066 C 
BRANCH   6   8
ATOM      8  O   UNL A   1      36.678  32.761  37.840  1.00  0.00    -0.479 OA
BRANCH   8   9
ATOM      9  C   UNL A   1      37.412  32.603  36.699  1.00  0.00     0.120 A 
ATOM     10  C   UNL A   1      37.226  33.492  35.640  1.00  0.00     0.047 A 
ATOM     11  C   UNL A   1      38.257  31.505  36.569  1.00  0.00     0.047 A 
ATOM     12  C   UNL A   1      37.897  33.278  34.431  1.00  0.00     0.013 A 
ATOM     13  C   UNL A   1      38.980  31.328  35.397  1.00  0.00     0.013 A 
ATOM     14  C   UNL A   1      38.773  32.196  34.324  1.00  0.00    -0.005 A 
BRANCH  14  15
ATOM     15  C   UNL A   1      39.413  31.839  33.053  1.00  0.00     0.141 C 
ATOM     16  N   UNL A   1      39.264  30.653  32.558  1.00  0.00    -0.180 NA
BRANCH  16  17
ATOM     17  N   UNL A   1      40.054  30.309  31.497  1.00  0.00    -0.243 N 
ATOM     18  C   UNL A   1      39.832  30.491  30.140  1.00  0.00     0.271 C 
ATOM     19  H   UNL A   1      40.903  29.868  31.729  1.00  0.00     0.194 HD
ATOM     20  O   UNL A   1      40.633  30.066  29.308  1.00  0.00    -0.267 OA
BRANCH  18  21
ATOM     21  C   UNL A   1      38.624  31.200  29.655  1.00  0.00     0.045 A 
ATOM     22  C   UNL A   1      37.489  30.437  29.357  1.00  0.00     0.015 A 
ATOM     23  C   UNL A   1      38.595  32.593  29.515  1.00  0.00     0.061 A 
ATOM     24  C   UNL A   1      36.299  31.070  28.992  1.00  0.00     0.019 A 
ATOM     25  C   UNL A   1      37.400  33.221  29.160  1.00  0.00     0.129 A 
ATOM     26  C   UNL A   1      36.248  32.465  28.910  1.00  0.00     0.055 A 
ATOM     27  I   UNL A   1      34.412  33.360  28.466  1.00  0.00    -0.040 I 
BRANCH  25  28
ATOM     28  O   UNL A   1      37.346  34.588  29.120  1.00  0.00    -0.507 OA
ATOM     29  H   UNL A   1      36.765  35.051  29.691  1.00  0.00     0.293 HD
ENDBRANCH  25  28
ENDBRANCH  18  21
ENDBRANCH  16  17
ENDBRANCH  14  15
ENDBRANCH   8   9
ENDBRANCH   6   8
ENDBRANCH   4   6
ENDBRANCH   3   4
ENDBRANCH   2   3
ENDBRANCH   1   2
BRANCH   1  30
ATOM     30  O   UNL A   1      41.261  33.193  42.383  1.00  0.00    -0.376 OA
BRANCH  30  31
ATOM     31  C   UNL A   1      40.244  34.008  42.950  1.00  0.00     0.188 C 
BRANCH  31  32
ATOM     32  C   UNL A   1      40.630  35.445  43.302  1.00  0.00     0.188 C 
BRANCH  32  33
ATOM     33  O   UNL A   1      42.027  35.718  43.300  1.00  0.00    -0.376 OA
BRANCH  33  34
ATOM     34  C   UNL A   1      42.476  36.675  42.332  1.00  0.00     0.202 C 
BRANCH  34  35
ATOM     35  C   UNL A   1      41.458  37.103  41.255  1.00  0.00     0.261 C 
BRANCH  35  36
ATOM     36  O   UNL A   1      41.844  36.782  39.900  1.00  0.00    -0.460 OA
BRANCH  36  37
ATOM     37  C   UNL A   1      40.888  36.853  38.943  1.00  0.00     0.338 C 
ATOM     38  O   UNL A   1      39.929  37.607  38.929  1.00  0.00    -0.246 OA
BRANCH  37  39
ATOM     39  C   UNL A   1      41.342  36.058  37.769  1.00  0.00     0.060 A 
ATOM     40  C   UNL A   1      40.370  35.610  36.859  1.00  0.00     0.016 A 
ATOM     41  C   UNL A   1      42.695  35.828  37.503  1.00  0.00     0.016 A 
ATOM     42  C   UNL A   1      40.747  34.912  35.707  1.00  0.00     0.010 A 
ATOM     43  C   UNL A   1      43.070  35.119  36.355  1.00  0.00     0.010 A 
ATOM     44  C   UNL A   1      42.098  34.633  35.461  1.00  0.00    -0.014 A 
BRANCH  44  45
ATOM     45  C   UNL A   1      42.480  33.695  34.373  1.00  0.00     0.031 A 
ATOM     46  C   UNL A   1      42.747  34.259  33.003  1.00  0.00     0.074 A 
ATOM     47  C   UNL A   1      42.611  32.372  34.582  1.00  0.00     0.049 A 
ATOM     48  N   UNL A   1      43.055  33.638  31.891  1.00  0.00    -0.248 NA
ATOM     49  C   UNL A   1      42.657  35.722  32.869  1.00  0.00     0.031 C 
ATOM     50  C   UNL A   1      42.423  31.693  35.861  1.00  0.00     0.029 A 
ATOM     51  N   UNL A   1      42.927  31.360  33.705  1.00  0.00    -0.354 N 
ATOM     52  C   UNL A   1      43.193  34.632  30.931  1.00  0.00     0.074 A 
ATOM     53  C   UNL A   1      42.911  35.893  31.582  1.00  0.00     0.031 C 
ATOM     54  C   UNL A   1      42.615  30.372  35.684  1.00  0.00     0.029 A 
ATOM     55  C   UNL A   1      42.905  30.109  34.274  1.00  0.00     0.049 A 
ATOM     56  H   UNL A   1      43.148  31.517  32.759  1.00  0.00     0.167 HD
ATOM     57  C   UNL A   1      43.532  34.508  29.626  1.00  0.00     0.037 A 
ATOM     58  C   UNL A   1      43.073  28.892  33.716  1.00  0.00     0.037 A 
ATOM     59  C   UNL A   1      43.815  33.261  28.968  1.00  0.00     0.049 A 
ATOM     60  C   UNL A   1      43.366  28.777  32.238  1.00  0.00     0.074 A 
ATOM     61  C   UNL A   1      44.192  33.049  27.652  1.00  0.00     0.029 A 
ATOM     62  N   UNL A   1      43.743  32.015  29.569  1.00  0.00    -0.354 N 
ATOM     63  N   UNL A   1      43.532  29.725  31.347  1.00  0.00    -0.248 NA
ATOM     64  C   UNL A   1      43.492  27.418  31.688  1.00  0.00     0.031 C 
ATOM     65  C   UNL A   1      44.293  31.671  27.442  1.00  0.00     0.029 A 
ATOM     66  C   UNL A   1      44.035  31.027  28.640  1.00  0.00     0.049 A 
ATOM     67  H   UNL A   1      43.516  31.855  30.513  1.00  0.00     0.167 HD
ATOM     68  C   UNL A   1      43.810  29.079  30.147  1.00  0.00     0.074 A 
ATOM     69  C   UNL A   1      43.808  27.659  30.424  1.00  0.00     0.031 C 
ATOM     70  C   UNL A   1      44.044  29.615  28.925  1.00  0.00     0.037 A 
BRANCH  57  71
ATOM     71  C   UNL A   1      43.594  35.760  28.804  1.00  0.00     0.064 A 
ATOM     72  C   UNL A   1      44.798  36.452  28.606  1.00  0.00     0.173 A 
ATOM     73  C   UNL A   1      42.446  36.236  28.153  1.00  0.00     0.173 A 
ATOM     74  F   UNL A   1      45.920  36.044  29.218  1.00  0.00    -0.203 F 
ATOM     75  C   UNL A   1      44.846  37.584  27.797  1.00  0.00     0.198 A 
ATOM     76  C   UNL A   1      42.504  37.353  27.325  1.00  0.00     0.198 A 
ATOM     77  F   UNL A   1      41.271  35.608  28.310  1.00  0.00    -0.203 F 
ATOM     78  F   UNL A   1      46.000  38.249  27.649  1.00  0.00    -0.200 F 
ATOM     79  C   UNL A   1      43.703  38.027  27.150  1.00  0.00     0.200 A 
ATOM     80  F   UNL A   1      41.400  37.772  26.691  1.00  0.00    -0.200 F 
ATOM     81  F   UNL A   1      43.755  39.108  26.359  1.00  0.00    -0.200 F 
ENDBRANCH  57  71
BRANCH  58  82
ATOM     82  C   UNL A   1      42.939  27.660  34.541  1.00  0.00     0.064 A 
ATOM     83  C   UNL A   1      44.051  27.081  35.170  1.00  0.00     0.173 A 
ATOM     84  C   UNL A   1      41.707  26.998  34.658  1.00  0.00     0.173 A 
ATOM     85  F   UNL A   1      45.257  27.654  35.057  1.00  0.00    -0.203 F 
ATOM     86  C   UNL A   1      43.942  25.874  35.858  1.00  0.00     0.198 A 
ATOM     87  C   UNL A   1      41.593  25.808  35.374  1.00  0.00     0.198 A 
ATOM     88  F   UNL A   1      40.615  27.503  34.066  1.00  0.00    -0.203 F 
ATOM     89  F   UNL A   1      45.034  25.308  36.391  1.00  0.00    -0.200 F 
ATOM     90  C   UNL A   1      42.712  25.240  35.963  1.00  0.00     0.200 A 
ATOM     91  F   UNL A   1      40.402  25.203  35.476  1.00  0.00    -0.200 F 
ATOM     92  F   UNL A   1      42.609  24.075  36.617  1.00  0.00    -0.200 F 
ENDBRANCH  58  82
BRANCH  70  93
ATOM     93  C   UNL A   1      44.356  28.674  27.795  1.00  0.00     0.064 A 
ATOM     94  C   UNL A   1      43.381  28.293  26.861  1.00  0.00     0.173 A 
ATOM     95  C   UNL A   1      45.660  28.185  27.617  1.00  0.00     0.173 A 
ATOM     96  F   UNL A   1      42.117  28.722  26.992  1.00  0.00    -0.203 F 
ATOM     97  C   UNL A   1      43.694  27.438  25.807  1.00  0.00     0.198 A 
ATOM     98  C   UNL A   1      45.976  27.355  26.544  1.00  0.00     0.198 A 
ATOM     99  F   UNL A   1      46.633  28.526  28.474  1.00  0.00    -0.203 F 
ATOM    100  F   UNL A   1      42.735  27.049  24.955  1.00  0.00    -0.200 F 
ATOM    101  C   UNL A   1      44.991  26.975  25.645  1.00  0.00     0.200 A 
ATOM    102  F   UNL A   1      47.234  26.924  26.380  1.00  0.00    -0.200 F 
ATOM    103  F   UNL A   1      45.292  26.160  24.625  1.00  0.00    -0.200 F 
ENDBRANCH  70  93
ENDBRANCH  44  45
ENDBRANCH  37  39
ENDBRANCH  36  37
ENDBRANCH  35  36
ENDBRANCH  34  35
ENDBRANCH  33  34
ENDBRANCH  32  33
ENDBRANCH  31  32
ENDBRANCH  30  31
ENDBRANCH   1  30
TORSDOF 23
ENDMDL
