MODEL 1
REMARK VINA RESULT:     -12.3      0.000      0.000
REMARK SMILES COc1cccc(-c2nn(-c3cc4c(cc3C(N)=O)OCO4)cc2C(=O)OCCOCCOCCOC(=O)c2ccc(-c3c4nc(c(-c5c(F)c(F)c(F)c(F)c5F)c5ccc([nH]5)c(-c5c(F)c(F)c(F)c(F)c5F)c5nc(c(-c6c(F)c(F)c(F)c(F)c6F)c6ccc3[nH]6)C=C5)C=C4)cc2)c1
REMARK SMILES IDX 31 1 30 2 29 3 28 4 27 5 25 6 26 7 24 8 8 9 9 10 10 11 23 12
REMARK SMILES IDX 7 13 3 14 4 15 102 16 5 17 6 18 2 19 1 20 11 21 12 22 16 23
REMARK SMILES IDX 13 24 15 25 14 26 22 27 20 28 21 29 17 30 18 31 19 32 32 35
REMARK SMILES IDX 33 36 34 37 35 38 36 39 37 40 38 41 39 42 40 43 101 44 41 45
REMARK SMILES IDX 100 46 42 47 43 48 44 49 94 50 45 51 99 52 93 53 95 54 46 55
REMARK SMILES IDX 98 56 92 57 91 58 47 60 79 61 59 62 78 63 60 64 63 65 77 66
REMARK SMILES IDX 96 67 61 68 62 69 76 71 97 72 64 73 48 74 49 75 57 76 50 77
REMARK SMILES IDX 51 78 55 79 58 80 52 81 53 82 56 83 54 84 80 85 81 86 89 87
REMARK SMILES IDX 82 88 83 89 87 90 90 91 84 92 85 93 88 94 86 95 65 96 66 97
REMARK SMILES IDX 74 98 67 99 68 100 72 101 75 102 69 103 70 104 73 105 71 106
REMARK H PARENT 18 33 18 34 95 59 63 70
REMARK Flexibility Score: inf
ROOT
ATOM      1  C   UNL A   1      40.397  21.465  26.971  1.00  0.00     0.188 C 
ENDROOT
BRANCH   1   2
ATOM      2  O   UNL A   1      39.292  21.341  26.104  1.00  0.00    -0.376 OA
BRANCH   2   3
ATOM      3  C   UNL A   1      38.278  22.330  26.167  1.00  0.00     0.202 C 
BRANCH   3   4
ATOM      4  C   UNL A   1      37.123  22.405  25.146  1.00  0.00     0.261 C 
BRANCH   4   5
ATOM      5  O   UNL A   1      36.649  23.697  24.761  1.00  0.00    -0.460 OA
BRANCH   5   6
ATOM      6  C   UNL A   1      35.753  23.766  23.736  1.00  0.00     0.342 C 
ATOM      7  O   UNL A   1      35.949  23.299  22.618  1.00  0.00    -0.246 OA
BRANCH   6   8
ATOM      8  C   UNL A   1      34.501  24.355  24.156  1.00  0.00     0.106 A 
ATOM      9  C   UNL A   1      33.274  23.735  24.530  1.00  0.00     0.107 A 
ATOM     10  N   UNL A   1      32.334  24.651  24.830  1.00  0.00    -0.167 NA
ATOM     11  N   UNL A   1      32.908  25.825  24.463  1.00  0.00    -0.239 N 
ATOM     12  C   UNL A   1      34.272  25.697  24.387  1.00  0.00     0.131 A 
BRANCH   9  13
ATOM     13  C   UNL A   1      33.039  22.308  24.698  1.00  0.00     0.007 A 
ATOM     14  C   UNL A   1      32.532  20.140  23.749  1.00  0.00     0.119 A 
ATOM     15  C   UNL A   1      32.757  19.550  24.996  1.00  0.00     0.046 A 
ATOM     16  C   UNL A   1      32.675  21.522  23.600  1.00  0.00     0.056 A 
ATOM     17  C   UNL A   1      33.109  20.329  26.097  1.00  0.00     0.005 A 
ATOM     18  C   UNL A   1      33.230  21.709  25.952  1.00  0.00     0.011 A 
BRANCH  14  19
ATOM     19  O   UNL A   1      32.141  19.271  22.768  1.00  0.00    -0.497 OA
ATOM     20  C   UNL A   1      32.561  17.921  22.924  1.00  0.00     0.278 C 
ENDBRANCH  14  19
ENDBRANCH   9  13
BRANCH  11  21
ATOM     21  C   UNL A   1      32.158  27.010  24.253  1.00  0.00     0.081 A 
ATOM     22  C   UNL A   1      31.504  27.171  23.013  1.00  0.00     0.079 A 
ATOM     23  C   UNL A   1      32.063  28.016  25.263  1.00  0.00     0.069 A 
ATOM     24  C   UNL A   1      30.716  28.290  22.849  1.00  0.00     0.167 A 
ATOM     25  C   UNL A   1      31.149  29.069  25.089  1.00  0.00     0.066 A 
ATOM     26  C   UNL A   1      30.520  29.188  23.870  1.00  0.00     0.166 A 
ATOM     27  O   UNL A   1      30.062  28.665  21.716  1.00  0.00    -0.454 OA
ATOM     28  O   UNL A   1      29.721  30.229  23.510  1.00  0.00    -0.454 OA
ATOM     29  C   UNL A   1      29.618  29.987  22.092  1.00  0.00     0.468 C 
BRANCH  23  30
ATOM     30  C   UNL A   1      33.090  28.142  26.365  1.00  0.00     0.251 C 
ATOM     31  N   UNL A   1      32.695  28.007  27.667  1.00  0.00    -0.366 N 
ATOM     32  O   UNL A   1      34.258  28.457  26.178  1.00  0.00    -0.269 OA
ATOM     33  H   UNL A   1      31.766  27.755  27.875  1.00  0.00     0.159 HD
ATOM     34  H   UNL A   1      33.340  28.163  28.395  1.00  0.00     0.159 HD
ENDBRANCH  23  30
ENDBRANCH  11  21
ENDBRANCH   6   8
ENDBRANCH   5   6
ENDBRANCH   4   5
ENDBRANCH   3   4
ENDBRANCH   2   3
ENDBRANCH   1   2
BRANCH   1  35
ATOM     35  C   UNL A   1      41.128  20.129  27.223  1.00  0.00     0.188 C 
BRANCH  35  36
ATOM     36  O   UNL A   1      42.478  19.924  26.828  1.00  0.00    -0.376 OA
BRANCH  36  37
ATOM     37  C   UNL A   1      42.811  19.010  25.797  1.00  0.00     0.202 C 
BRANCH  37  38
ATOM     38  C   UNL A   1      44.270  18.665  25.513  1.00  0.00     0.261 C 
BRANCH  38  39
ATOM     39  O   UNL A   1      45.124  19.774  25.307  1.00  0.00    -0.460 OA
BRANCH  39  40
ATOM     40  C   UNL A   1      44.818  20.507  24.217  1.00  0.00     0.338 C 
ATOM     41  O   UNL A   1      44.512  20.109  23.107  1.00  0.00    -0.246 OA
BRANCH  40  42
ATOM     42  C   UNL A   1      45.034  21.916  24.544  1.00  0.00     0.060 A 
ATOM     43  C   UNL A   1      45.977  22.210  25.531  1.00  0.00     0.016 A 
ATOM     44  C   UNL A   1      44.088  22.852  24.107  1.00  0.00     0.016 A 
ATOM     45  C   UNL A   1      45.827  23.381  26.240  1.00  0.00     0.010 A 
ATOM     46  C   UNL A   1      43.914  23.995  24.840  1.00  0.00     0.010 A 
ATOM     47  C   UNL A   1      44.735  24.203  25.943  1.00  0.00    -0.014 A 
BRANCH  47  48
ATOM     48  C   UNL A   1      44.511  25.376  26.757  1.00  0.00     0.031 A 
ATOM     49  C   UNL A   1      45.563  26.391  26.560  1.00  0.00     0.074 A 
ATOM     50  C   UNL A   1      43.393  25.526  27.495  1.00  0.00     0.049 A 
ATOM     51  N   UNL A   1      46.473  26.743  27.402  1.00  0.00    -0.248 NA
ATOM     52  C   UNL A   1      45.759  26.936  25.205  1.00  0.00     0.031 C 
ATOM     53  C   UNL A   1      42.201  24.672  27.482  1.00  0.00     0.029 A 
ATOM     54  N   UNL A   1      43.041  26.534  28.343  1.00  0.00    -0.354 N 
ATOM     55  C   UNL A   1      47.205  27.734  26.756  1.00  0.00     0.074 A 
ATOM     56  C   UNL A   1      46.888  27.627  25.361  1.00  0.00     0.031 C 
ATOM     57  C   UNL A   1      41.186  25.311  28.108  1.00  0.00     0.029 A 
ATOM     58  C   UNL A   1      41.690  26.551  28.674  1.00  0.00     0.049 A 
ATOM     59  H   UNL A   1      43.686  27.192  28.691  1.00  0.00     0.167 HD
ATOM     60  C   UNL A   1      47.712  28.771  27.474  1.00  0.00     0.037 A 
ATOM     61  C   UNL A   1      41.036  27.547  29.321  1.00  0.00     0.037 A 
ATOM     62  C   UNL A   1      47.719  28.444  28.878  1.00  0.00     0.049 A 
ATOM     63  C   UNL A   1      42.053  28.363  30.025  1.00  0.00     0.074 A 
ATOM     64  C   UNL A   1      48.455  27.631  29.711  1.00  0.00     0.029 A 
ATOM     65  N   UNL A   1      46.541  28.729  29.516  1.00  0.00    -0.354 N 
ATOM     66  N   UNL A   1      42.728  27.936  31.054  1.00  0.00    -0.248 NA
ATOM     67  C   UNL A   1      42.594  29.551  29.372  1.00  0.00     0.031 C 
ATOM     68  C   UNL A   1      47.606  27.318  30.814  1.00  0.00     0.029 A 
ATOM     69  C   UNL A   1      46.389  27.978  30.648  1.00  0.00     0.049 A 
ATOM     70  H   UNL A   1      45.886  29.391  29.200  1.00  0.00     0.167 HD
ATOM     71  C   UNL A   1      43.975  28.510  30.903  1.00  0.00     0.074 A 
ATOM     72  C   UNL A   1      43.781  29.620  29.980  1.00  0.00     0.031 C 
ATOM     73  C   UNL A   1      45.095  27.825  31.270  1.00  0.00     0.037 A 
BRANCH  60  74
ATOM     74  C   UNL A   1      47.686  30.221  27.021  1.00  0.00     0.064 A 
ATOM     75  C   UNL A   1      48.848  30.999  27.215  1.00  0.00     0.173 A 
ATOM     76  C   UNL A   1      46.518  30.956  26.719  1.00  0.00     0.173 A 
ATOM     77  F   UNL A   1      50.020  30.417  27.513  1.00  0.00    -0.203 F 
ATOM     78  C   UNL A   1      48.817  32.397  27.203  1.00  0.00     0.198 A 
ATOM     79  C   UNL A   1      46.501  32.349  26.661  1.00  0.00     0.198 A 
ATOM     80  F   UNL A   1      45.318  30.388  26.573  1.00  0.00    -0.203 F 
ATOM     81  F   UNL A   1      49.918  33.090  27.522  1.00  0.00    -0.200 F 
ATOM     82  C   UNL A   1      47.641  33.071  26.937  1.00  0.00     0.200 A 
ATOM     83  F   UNL A   1      45.345  32.983  26.420  1.00  0.00    -0.200 F 
ATOM     84  F   UNL A   1      47.592  34.409  26.988  1.00  0.00    -0.200 F 
ENDBRANCH  60  74
BRANCH  61  85
ATOM     85  C   UNL A   1      39.627  27.991  29.210  1.00  0.00     0.064 A 
ATOM     86  C   UNL A   1      38.802  28.077  30.345  1.00  0.00     0.173 A 
ATOM     87  C   UNL A   1      39.152  28.619  28.043  1.00  0.00     0.173 A 
ATOM     88  F   UNL A   1      39.194  27.536  31.508  1.00  0.00    -0.203 F 
ATOM     89  C   UNL A   1      37.596  28.787  30.326  1.00  0.00     0.198 A 
ATOM     90  C   UNL A   1      37.947  29.323  28.024  1.00  0.00     0.198 A 
ATOM     91  F   UNL A   1      39.898  28.648  26.929  1.00  0.00    -0.203 F 
ATOM     92  F   UNL A   1      36.873  28.909  31.449  1.00  0.00    -0.200 F 
ATOM     93  C   UNL A   1      37.178  29.422  29.169  1.00  0.00     0.200 A 
ATOM     94  F   UNL A   1      37.570  29.962  26.907  1.00  0.00    -0.200 F 
ATOM     95  F   UNL A   1      36.061  30.162  29.168  1.00  0.00    -0.200 F 
ENDBRANCH  61  85
BRANCH  73  96
ATOM     96  C   UNL A   1      44.924  26.736  32.282  1.00  0.00     0.064 A 
ATOM     97  C   UNL A   1      44.858  26.941  33.669  1.00  0.00     0.173 A 
ATOM     98  C   UNL A   1      44.745  25.431  31.805  1.00  0.00     0.173 A 
ATOM     99  F   UNL A   1      44.943  28.172  34.191  1.00  0.00    -0.203 F 
ATOM    100  C   UNL A   1      44.661  25.870  34.541  1.00  0.00     0.198 A 
ATOM    101  C   UNL A   1      44.510  24.373  32.673  1.00  0.00     0.198 A 
ATOM    102  F   UNL A   1      44.762  25.191  30.485  1.00  0.00    -0.203 F 
ATOM    103  F   UNL A   1      44.624  26.080  35.864  1.00  0.00    -0.200 F 
ATOM    104  C   UNL A   1      44.480  24.590  34.041  1.00  0.00     0.200 A 
ATOM    105  F   UNL A   1      44.292  23.146  32.182  1.00  0.00    -0.200 F 
ATOM    106  F   UNL A   1      44.255  23.567  34.877  1.00  0.00    -0.200 F 
ENDBRANCH  73  96
ENDBRANCH  47  48
ENDBRANCH  40  42
ENDBRANCH  39  40
ENDBRANCH  38  39
ENDBRANCH  37  38
ENDBRANCH  36  37
ENDBRANCH  35  36
ENDBRANCH   1  35
TORSDOF 21
ENDMDL
MODEL 2
REMARK VINA RESULT:     -12.2      4.468     10.296
REMARK SMILES COc1cccc(-c2nn(-c3cc4c(cc3C(N)=O)OCO4)cc2C(=O)OCCOCCOCCOC(=O)c2ccc(-c3c4nc(c(-c5c(F)c(F)c(F)c(F)c5F)c5ccc([nH]5)c(-c5c(F)c(F)c(F)c(F)c5F)c5nc(c(-c6c(F)c(F)c(F)c(F)c6F)c6ccc3[nH]6)C=C5)C=C4)cc2)c1
REMARK SMILES IDX 31 1 30 2 29 3 28 4 27 5 25 6 26 7 24 8 8 9 9 10 10 11 23 12
REMARK SMILES IDX 7 13 3 14 4 15 102 16 5 17 6 18 2 19 1 20 11 21 12 22 16 23
REMARK SMILES IDX 13 24 15 25 14 26 22 27 20 28 21 29 17 30 18 31 19 32 32 35
REMARK SMILES IDX 33 36 34 37 35 38 36 39 37 40 38 41 39 42 40 43 101 44 41 45
REMARK SMILES IDX 100 46 42 47 43 48 44 49 94 50 45 51 99 52 93 53 95 54 46 55
REMARK SMILES IDX 98 56 92 57 91 58 47 60 79 61 59 62 78 63 60 64 63 65 77 66
REMARK SMILES IDX 96 67 61 68 62 69 76 71 97 72 64 73 48 74 49 75 57 76 50 77
REMARK SMILES IDX 51 78 55 79 58 80 52 81 53 82 56 83 54 84 80 85 81 86 89 87
REMARK SMILES IDX 82 88 83 89 87 90 90 91 84 92 85 93 88 94 86 95 65 96 66 97
REMARK SMILES IDX 74 98 67 99 68 100 72 101 75 102 69 103 70 104 73 105 71 106
REMARK H PARENT 18 33 18 34 95 59 63 70
REMARK Flexibility Score: inf
ROOT
ATOM      1  C   UNL A   1      34.224  31.357  27.696  1.00  0.00     0.188 C 
ENDROOT
BRANCH   1   2
ATOM      2  O   UNL A   1      32.950  30.983  27.221  1.00  0.00    -0.376 OA
BRANCH   2   3
ATOM      3  C   UNL A   1      32.594  29.612  27.268  1.00  0.00     0.202 C 
BRANCH   3   4
ATOM      4  C   UNL A   1      32.659  28.691  26.031  1.00  0.00     0.261 C 
BRANCH   4   5
ATOM      5  O   UNL A   1      32.374  29.264  24.753  1.00  0.00    -0.460 OA
BRANCH   5   6
ATOM      6  C   UNL A   1      32.778  28.577  23.646  1.00  0.00     0.342 C 
ATOM      7  O   UNL A   1      33.694  28.933  22.911  1.00  0.00    -0.246 OA
BRANCH   6   8
ATOM      8  C   UNL A   1      32.072  27.322  23.507  1.00  0.00     0.106 A 
ATOM      9  C   UNL A   1      30.687  27.067  23.288  1.00  0.00     0.107 A 
ATOM     10  N   UNL A   1      30.433  25.745  23.247  1.00  0.00    -0.167 NA
ATOM     11  N   UNL A   1      31.610  25.186  23.626  1.00  0.00    -0.239 N 
ATOM     12  C   UNL A   1      32.646  26.068  23.454  1.00  0.00     0.131 A 
BRANCH   9  13
ATOM     13  C   UNL A   1      29.654  28.058  23.021  1.00  0.00     0.007 A 
ATOM     14  C   UNL A   1      28.911  30.059  21.881  1.00  0.00     0.119 A 
ATOM     15  C   UNL A   1      27.621  29.854  22.379  1.00  0.00     0.046 A 
ATOM     16  C   UNL A   1      29.929  29.157  22.202  1.00  0.00     0.056 A 
ATOM     17  C   UNL A   1      27.343  28.767  23.205  1.00  0.00     0.005 A 
ATOM     18  C   UNL A   1      28.363  27.882  23.542  1.00  0.00     0.011 A 
BRANCH  14  19
ATOM     19  O   UNL A   1      29.060  31.191  21.127  1.00  0.00    -0.497 OA
ATOM     20  C   UNL A   1      28.315  32.326  21.549  1.00  0.00     0.278 C 
ENDBRANCH  14  19
ENDBRANCH   9  13
BRANCH  11  21
ATOM     21  C   UNL A   1      31.709  23.845  24.079  1.00  0.00     0.081 A 
ATOM     22  C   UNL A   1      32.014  22.846  23.132  1.00  0.00     0.079 A 
ATOM     23  C   UNL A   1      31.506  23.510  25.454  1.00  0.00     0.069 A 
ATOM     24  C   UNL A   1      32.183  21.559  23.597  1.00  0.00     0.167 A 
ATOM     25  C   UNL A   1      31.814  22.210  25.887  1.00  0.00     0.066 A 
ATOM     26  C   UNL A   1      32.119  21.263  24.936  1.00  0.00     0.166 A 
ATOM     27  O   UNL A   1      32.411  20.447  22.846  1.00  0.00    -0.454 OA
ATOM     28  O   UNL A   1      32.302  19.939  25.193  1.00  0.00    -0.454 OA
ATOM     29  C   UNL A   1      32.273  19.417  23.849  1.00  0.00     0.468 C 
BRANCH  23  30
ATOM     30  C   UNL A   1      30.723  24.404  26.387  1.00  0.00     0.251 C 
ATOM     31  N   UNL A   1      29.536  23.959  26.900  1.00  0.00    -0.366 N 
ATOM     32  O   UNL A   1      31.031  25.559  26.647  1.00  0.00    -0.269 OA
ATOM     33  H   UNL A   1      29.238  23.038  26.722  1.00  0.00     0.159 HD
ATOM     34  H   UNL A   1      28.981  24.561  27.447  1.00  0.00     0.159 HD
ENDBRANCH  23  30
ENDBRANCH  11  21
ENDBRANCH   6   8
ENDBRANCH   5   6
ENDBRANCH   4   5
ENDBRANCH   3   4
ENDBRANCH   2   3
ENDBRANCH   1   2
BRANCH   1  35
ATOM     35  C   UNL A   1      34.234  32.730  28.400  1.00  0.00     0.188 C 
BRANCH  35  36
ATOM     36  O   UNL A   1      33.232  33.708  28.156  1.00  0.00    -0.376 OA
BRANCH  36  37
ATOM     37  C   UNL A   1      33.018  34.782  29.057  1.00  0.00     0.202 C 
BRANCH  37  38
ATOM     38  C   UNL A   1      34.150  35.272  29.956  1.00  0.00     0.261 C 
BRANCH  38  39
ATOM     39  O   UNL A   1      33.740  35.928  31.140  1.00  0.00    -0.460 OA
BRANCH  39  40
ATOM     40  C   UNL A   1      33.344  35.092  32.121  1.00  0.00     0.338 C 
ATOM     41  O   UNL A   1      32.239  34.997  32.625  1.00  0.00    -0.246 OA
BRANCH  40  42
ATOM     42  C   UNL A   1      34.520  34.364  32.597  1.00  0.00     0.060 A 
ATOM     43  C   UNL A   1      35.697  35.093  32.784  1.00  0.00     0.016 A 
ATOM     44  C   UNL A   1      34.507  32.964  32.531  1.00  0.00     0.016 A 
ATOM     45  C   UNL A   1      36.895  34.423  32.683  1.00  0.00     0.010 A 
ATOM     46  C   UNL A   1      35.698  32.306  32.388  1.00  0.00     0.010 A 
ATOM     47  C   UNL A   1      36.871  33.056  32.387  1.00  0.00    -0.014 A 
BRANCH  47  48
ATOM     48  C   UNL A   1      38.125  32.371  32.171  1.00  0.00     0.031 A 
ATOM     49  C   UNL A   1      38.895  32.229  33.421  1.00  0.00     0.074 A 
ATOM     50  C   UNL A   1      38.447  31.837  30.977  1.00  0.00     0.049 A 
ATOM     51  N   UNL A   1      39.992  32.833  33.733  1.00  0.00    -0.248 NA
ATOM     52  C   UNL A   1      38.281  31.490  34.537  1.00  0.00     0.031 C 
ATOM     53  C   UNL A   1      37.579  31.706  29.801  1.00  0.00     0.029 A 
ATOM     54  N   UNL A   1      39.590  31.203  30.588  1.00  0.00    -0.354 N 
ATOM     55  C   UNL A   1      40.324  32.355  34.996  1.00  0.00     0.074 A 
ATOM     56  C   UNL A   1      39.136  31.748  35.526  1.00  0.00     0.031 C 
ATOM     57  C   UNL A   1      38.146  30.849  28.920  1.00  0.00     0.029 A 
ATOM     58  C   UNL A   1      39.463  30.478  29.407  1.00  0.00     0.049 A 
ATOM     59  H   UNL A   1      40.431  31.255  31.097  1.00  0.00     0.167 HD
ATOM     60  C   UNL A   1      41.631  32.183  35.326  1.00  0.00     0.037 A 
ATOM     61  C   UNL A   1      40.366  29.597  28.908  1.00  0.00     0.037 A 
ATOM     62  C   UNL A   1      42.474  32.909  34.409  1.00  0.00     0.049 A 
ATOM     63  C   UNL A   1      41.671  29.889  29.543  1.00  0.00     0.074 A 
ATOM     64  C   UNL A   1      42.802  34.227  34.183  1.00  0.00     0.029 A 
ATOM     65  N   UNL A   1      42.786  32.207  33.274  1.00  0.00    -0.354 N 
ATOM     66  N   UNL A   1      42.364  30.966  29.298  1.00  0.00    -0.248 NA
ATOM     67  C   UNL A   1      42.066  29.152  30.740  1.00  0.00     0.031 C 
ATOM     68  C   UNL A   1      43.188  34.312  32.812  1.00  0.00     0.029 A 
ATOM     69  C   UNL A   1      43.124  33.040  32.245  1.00  0.00     0.049 A 
ATOM     70  H   UNL A   1      42.771  31.225  33.209  1.00  0.00     0.167 HD
ATOM     71  C   UNL A   1      42.954  31.271  30.508  1.00  0.00     0.074 A 
ATOM     72  C   UNL A   1      42.893  30.044  31.290  1.00  0.00     0.031 C 
ATOM     73  C   UNL A   1      43.125  32.572  30.879  1.00  0.00     0.037 A 
BRANCH  60  74
ATOM     74  C   UNL A   1      42.173  30.981  36.082  1.00  0.00     0.064 A 
ATOM     75  C   UNL A   1      43.146  31.207  37.080  1.00  0.00     0.173 A 
ATOM     76  C   UNL A   1      42.040  29.636  35.673  1.00  0.00     0.173 A 
ATOM     77  F   UNL A   1      43.370  32.445  37.550  1.00  0.00    -0.203 F 
ATOM     78  C   UNL A   1      43.977  30.187  37.553  1.00  0.00     0.198 A 
ATOM     79  C   UNL A   1      42.839  28.613  36.182  1.00  0.00     0.198 A 
ATOM     80  F   UNL A   1      41.218  29.253  34.692  1.00  0.00    -0.203 F 
ATOM     81  F   UNL A   1      44.971  30.479  38.403  1.00  0.00    -0.200 F 
ATOM     82  C   UNL A   1      43.830  28.893  37.095  1.00  0.00     0.200 A 
ATOM     83  F   UNL A   1      42.691  27.367  35.708  1.00  0.00    -0.200 F 
ATOM     84  F   UNL A   1      44.665  27.926  37.496  1.00  0.00    -0.200 F 
ENDBRANCH  60  74
BRANCH  61  85
ATOM     85  C   UNL A   1      40.156  28.379  28.091  1.00  0.00     0.064 A 
ATOM     86  C   UNL A   1      40.836  28.196  26.874  1.00  0.00     0.173 A 
ATOM     87  C   UNL A   1      39.516  27.246  28.626  1.00  0.00     0.173 A 
ATOM     88  F   UNL A   1      41.500  29.216  26.311  1.00  0.00    -0.203 F 
ATOM     89  C   UNL A   1      40.910  26.944  26.254  1.00  0.00     0.198 A 
ATOM     90  C   UNL A   1      39.587  25.998  28.004  1.00  0.00     0.198 A 
ATOM     91  F   UNL A   1      38.899  27.305  29.815  1.00  0.00    -0.203 F 
ATOM     92  F   UNL A   1      41.630  26.794  25.133  1.00  0.00    -0.200 F 
ATOM     93  C   UNL A   1      40.297  25.843  26.828  1.00  0.00     0.200 A 
ATOM     94  F   UNL A   1      39.020  24.932  28.588  1.00  0.00    -0.200 F 
ATOM     95  F   UNL A   1      40.428  24.629  26.275  1.00  0.00    -0.200 F 
ENDBRANCH  61  85
BRANCH  73  96
ATOM     96  C   UNL A   1      43.161  33.592  29.785  1.00  0.00     0.064 A 
ATOM     97  C   UNL A   1      42.053  34.339  29.356  1.00  0.00     0.173 A 
ATOM     98  C   UNL A   1      44.404  33.871  29.201  1.00  0.00     0.173 A 
ATOM     99  F   UNL A   1      40.850  34.180  29.923  1.00  0.00    -0.203 F 
ATOM    100  C   UNL A   1      42.184  35.297  28.351  1.00  0.00     0.198 A 
ATOM    101  C   UNL A   1      44.537  34.854  28.229  1.00  0.00     0.198 A 
ATOM    102  F   UNL A   1      45.499  33.210  29.606  1.00  0.00    -0.203 F 
ATOM    103  F   UNL A   1      41.111  35.985  27.936  1.00  0.00    -0.200 F 
ATOM    104  C   UNL A   1      43.426  35.558  27.796  1.00  0.00     0.200 A 
ATOM    105  F   UNL A   1      45.748  35.132  27.728  1.00  0.00    -0.200 F 
ATOM    106  F   UNL A   1      43.559  36.505  26.856  1.00  0.00    -0.200 F 
ENDBRANCH  73  96
ENDBRANCH  47  48
ENDBRANCH  40  42
ENDBRANCH  39  40
ENDBRANCH  38  39
ENDBRANCH  37  38
ENDBRANCH  36  37
ENDBRANCH  35  36
ENDBRANCH   1  35
TORSDOF 21
ENDMDL
MODEL 3
REMARK VINA RESULT:     -11.4      2.911      9.287
REMARK SMILES COc1cccc(-c2nn(-c3cc4c(cc3C(N)=O)OCO4)cc2C(=O)OCCOCCOCCOC(=O)c2ccc(-c3c4nc(c(-c5c(F)c(F)c(F)c(F)c5F)c5ccc([nH]5)c(-c5c(F)c(F)c(F)c(F)c5F)c5nc(c(-c6c(F)c(F)c(F)c(F)c6F)c6ccc3[nH]6)C=C5)C=C4)cc2)c1
REMARK SMILES IDX 31 1 30 2 29 3 28 4 27 5 25 6 26 7 24 8 8 9 9 10 10 11 23 12
REMARK SMILES IDX 7 13 3 14 4 15 102 16 5 17 6 18 2 19 1 20 11 21 12 22 16 23
REMARK SMILES IDX 13 24 15 25 14 26 22 27 20 28 21 29 17 30 18 31 19 32 32 35
REMARK SMILES IDX 33 36 34 37 35 38 36 39 37 40 38 41 39 42 40 43 101 44 41 45
REMARK SMILES IDX 100 46 42 47 43 48 44 49 94 50 45 51 99 52 93 53 95 54 46 55
REMARK SMILES IDX 98 56 92 57 91 58 47 60 79 61 59 62 78 63 60 64 63 65 77 66
REMARK SMILES IDX 96 67 61 68 62 69 76 71 97 72 64 73 48 74 49 75 57 76 50 77
REMARK SMILES IDX 51 78 55 79 58 80 52 81 53 82 56 83 54 84 80 85 81 86 89 87
REMARK SMILES IDX 82 88 83 89 87 90 90 91 84 92 85 93 88 94 86 95 65 96 66 97
REMARK SMILES IDX 74 98 67 99 68 100 72 101 75 102 69 103 70 104 73 105 71 106
REMARK H PARENT 18 33 18 34 95 59 63 70
REMARK Flexibility Score: inf
ROOT
ATOM      1  C   UNL A   1      33.820  28.907  27.102  1.00  0.00     0.188 C 
ENDROOT
BRANCH   1   2
ATOM      2  O   UNL A   1      32.415  29.006  27.023  1.00  0.00    -0.376 OA
BRANCH   2   3
ATOM      3  C   UNL A   1      31.638  27.950  27.564  1.00  0.00     0.202 C 
BRANCH   3   4
ATOM      4  C   UNL A   1      31.072  26.804  26.698  1.00  0.00     0.261 C 
BRANCH   4   5
ATOM      5  O   UNL A   1      31.642  25.503  26.852  1.00  0.00    -0.460 OA
BRANCH   5   6
ATOM      6  C   UNL A   1      31.164  24.503  26.057  1.00  0.00     0.342 C 
ATOM      7  O   UNL A   1      29.992  24.401  25.709  1.00  0.00    -0.246 OA
BRANCH   6   8
ATOM      8  C   UNL A   1      32.225  23.642  25.582  1.00  0.00     0.106 A 
ATOM      9  C   UNL A   1      33.175  23.846  24.540  1.00  0.00     0.107 A 
ATOM     10  N   UNL A   1      33.982  22.777  24.397  1.00  0.00    -0.167 NA
ATOM     11  N   UNL A   1      33.418  21.846  25.209  1.00  0.00    -0.239 N 
ATOM     12  C   UNL A   1      32.608  22.441  26.142  1.00  0.00     0.131 A 
BRANCH   9  13
ATOM     13  C   UNL A   1      33.374  25.067  23.773  1.00  0.00     0.007 A 
ATOM     14  C   UNL A   1      33.268  26.266  21.674  1.00  0.00     0.119 A 
ATOM     15  C   UNL A   1      33.593  27.451  22.343  1.00  0.00     0.046 A 
ATOM     16  C   UNL A   1      33.158  25.073  22.391  1.00  0.00     0.056 A 
ATOM     17  C   UNL A   1      33.821  27.450  23.718  1.00  0.00     0.005 A 
ATOM     18  C   UNL A   1      33.732  26.255  24.428  1.00  0.00     0.011 A 
BRANCH  14  19
ATOM     19  O   UNL A   1      33.123  26.397  20.320  1.00  0.00    -0.497 OA
ATOM     20  C   UNL A   1      32.584  25.273  19.637  1.00  0.00     0.278 C 
ENDBRANCH  14  19
ENDBRANCH   9  13
BRANCH  11  21
ATOM     21  C   UNL A   1      33.707  20.461  25.100  1.00  0.00     0.081 A 
ATOM     22  C   UNL A   1      32.635  19.551  25.198  1.00  0.00     0.079 A 
ATOM     23  C   UNL A   1      35.042  19.996  24.894  1.00  0.00     0.069 A 
ATOM     24  C   UNL A   1      32.916  18.213  25.014  1.00  0.00     0.167 A 
ATOM     25  C   UNL A   1      35.249  18.641  24.590  1.00  0.00     0.066 A 
ATOM     26  C   UNL A   1      34.178  17.783  24.685  1.00  0.00     0.166 A 
ATOM     27  O   UNL A   1      32.045  17.175  25.136  1.00  0.00    -0.454 OA
ATOM     28  O   UNL A   1      34.255  16.430  24.557  1.00  0.00    -0.454 OA
ATOM     29  C   UNL A   1      32.953  16.055  25.051  1.00  0.00     0.468 C 
BRANCH  23  30
ATOM     30  C   UNL A   1      36.245  20.834  25.262  1.00  0.00     0.251 C 
ATOM     31  N   UNL A   1      36.174  21.670  26.341  1.00  0.00    -0.366 N 
ATOM     32  O   UNL A   1      37.269  20.891  24.594  1.00  0.00    -0.269 OA
ATOM     33  H   UNL A   1      35.374  21.666  26.914  1.00  0.00     0.159 HD
ATOM     34  H   UNL A   1      36.924  22.275  26.545  1.00  0.00     0.159 HD
ENDBRANCH  23  30
ENDBRANCH  11  21
ENDBRANCH   6   8
ENDBRANCH   5   6
ENDBRANCH   4   5
ENDBRANCH   3   4
ENDBRANCH   2   3
ENDBRANCH   1   2
BRANCH   1  35
ATOM     35  C   UNL A   1      34.515  30.265  27.332  1.00  0.00     0.188 C 
BRANCH  35  36
ATOM     36  O   UNL A   1      33.909  31.302  28.092  1.00  0.00    -0.376 OA
BRANCH  36  37
ATOM     37  C   UNL A   1      34.461  32.607  28.126  1.00  0.00     0.202 C 
BRANCH  37  38
ATOM     38  C   UNL A   1      34.347  33.460  29.386  1.00  0.00     0.261 C 
BRANCH  38  39
ATOM     39  O   UNL A   1      35.470  33.422  30.246  1.00  0.00    -0.460 OA
BRANCH  39  40
ATOM     40  C   UNL A   1      35.606  32.261  30.919  1.00  0.00     0.338 C 
ATOM     41  O   UNL A   1      35.049  31.920  31.947  1.00  0.00    -0.246 OA
BRANCH  40  42
ATOM     42  C   UNL A   1      36.660  31.482  30.268  1.00  0.00     0.060 A 
ATOM     43  C   UNL A   1      36.611  30.093  30.404  1.00  0.00     0.016 A 
ATOM     44  C   UNL A   1      37.809  32.154  29.832  1.00  0.00     0.016 A 
ATOM     45  C   UNL A   1      37.793  29.393  30.314  1.00  0.00     0.010 A 
ATOM     46  C   UNL A   1      38.990  31.463  29.786  1.00  0.00     0.010 A 
ATOM     47  C   UNL A   1      38.976  30.109  30.104  1.00  0.00    -0.014 A 
BRANCH  47  48
ATOM     48  C   UNL A   1      40.231  29.392  30.119  1.00  0.00     0.031 A 
ATOM     49  C   UNL A   1      40.784  29.281  31.482  1.00  0.00     0.074 A 
ATOM     50  C   UNL A   1      40.729  28.809  29.012  1.00  0.00     0.049 A 
ATOM     51  N   UNL A   1      41.829  29.873  31.950  1.00  0.00    -0.248 NA
ATOM     52  C   UNL A   1      39.977  28.595  32.506  1.00  0.00     0.031 C 
ATOM     53  C   UNL A   1      40.062  28.652  27.715  1.00  0.00     0.029 A 
ATOM     54  N   UNL A   1      41.904  28.139  28.836  1.00  0.00    -0.354 N 
ATOM     55  C   UNL A   1      41.939  29.435  33.265  1.00  0.00     0.074 A 
ATOM     56  C   UNL A   1      40.666  28.872  33.613  1.00  0.00     0.031 C 
ATOM     57  C   UNL A   1      40.742  27.753  26.967  1.00  0.00     0.029 A 
ATOM     58  C   UNL A   1      41.953  27.374  27.675  1.00  0.00     0.049 A 
ATOM     59  H   UNL A   1      42.652  28.192  29.474  1.00  0.00     0.167 HD
ATOM     60  C   UNL A   1      43.171  29.249  33.810  1.00  0.00     0.037 A 
ATOM     61  C   UNL A   1      42.902  26.458  27.359  1.00  0.00     0.037 A 
ATOM     62  C   UNL A   1      44.170  29.925  33.019  1.00  0.00     0.049 A 
ATOM     63  C   UNL A   1      44.094  26.747  28.189  1.00  0.00     0.074 A 
ATOM     64  C   UNL A   1      44.564  31.227  32.808  1.00  0.00     0.029 A 
ATOM     65  N   UNL A   1      44.645  29.176  31.975  1.00  0.00    -0.354 N 
ATOM     66  N   UNL A   1      44.844  27.800  28.026  1.00  0.00    -0.248 NA
ATOM     67  C   UNL A   1      44.269  26.046  29.458  1.00  0.00     0.031 C 
ATOM     68  C   UNL A   1      45.169  31.255  31.517  1.00  0.00     0.029 A 
ATOM     69  C   UNL A   1      45.166  29.965  30.988  1.00  0.00     0.049 A 
ATOM     70  H   UNL A   1      44.615  28.193  31.940  1.00  0.00     0.167 HD
ATOM     71  C   UNL A   1      45.237  28.137  29.306  1.00  0.00     0.074 A 
ATOM     72  C   UNL A   1      45.018  26.941  30.107  1.00  0.00     0.031 C 
ATOM     73  C   UNL A   1      45.378  29.447  29.657  1.00  0.00     0.037 A 
BRANCH  60  74
ATOM     74  C   UNL A   1      43.551  28.066  34.683  1.00  0.00     0.064 A 
ATOM     75  C   UNL A   1      43.367  26.767  34.160  1.00  0.00     0.173 A 
ATOM     76  C   UNL A   1      43.769  28.122  36.078  1.00  0.00     0.173 A 
ATOM     77  F   UNL A   1      43.146  26.582  32.849  1.00  0.00    -0.203 F 
ATOM     78  C   UNL A   1      43.309  25.636  34.981  1.00  0.00     0.198 A 
ATOM     79  C   UNL A   1      43.759  26.986  36.886  1.00  0.00     0.198 A 
ATOM     80  F   UNL A   1      43.894  29.270  36.748  1.00  0.00    -0.203 F 
ATOM     81  F   UNL A   1      43.002  24.445  34.451  1.00  0.00    -0.200 F 
ATOM     82  C   UNL A   1      43.495  25.748  36.344  1.00  0.00     0.200 A 
ATOM     83  F   UNL A   1      43.922  27.121  38.210  1.00  0.00    -0.200 F 
ATOM     84  F   UNL A   1      43.377  24.678  37.141  1.00  0.00    -0.200 F 
ENDBRANCH  60  74
BRANCH  61  85
ATOM     85  C   UNL A   1      42.797  25.215  26.558  1.00  0.00     0.064 A 
ATOM     86  C   UNL A   1      43.646  24.986  25.462  1.00  0.00     0.173 A 
ATOM     87  C   UNL A   1      42.069  24.107  27.029  1.00  0.00     0.173 A 
ATOM     88  F   UNL A   1      44.400  25.980  24.971  1.00  0.00    -0.203 F 
ATOM     89  C   UNL A   1      43.792  23.713  24.899  1.00  0.00     0.198 A 
ATOM     90  C   UNL A   1      42.213  22.838  26.464  1.00  0.00     0.198 A 
ATOM     91  F   UNL A   1      41.285  24.211  28.111  1.00  0.00    -0.203 F 
ATOM     92  F   UNL A   1      44.667  23.519  23.901  1.00  0.00    -0.200 F 
ATOM     93  C   UNL A   1      43.086  22.638  25.411  1.00  0.00     0.200 A 
ATOM     94  F   UNL A   1      41.551  21.798  26.991  1.00  0.00    -0.200 F 
ATOM     95  F   UNL A   1      43.279  21.405  24.921  1.00  0.00    -0.200 F 
ENDBRANCH  61  85
BRANCH  73  96
ATOM     96  C   UNL A   1      45.618  30.426  28.551  1.00  0.00     0.064 A 
ATOM     97  C   UNL A   1      44.605  31.062  27.817  1.00  0.00     0.173 A 
ATOM     98  C   UNL A   1      46.945  30.785  28.281  1.00  0.00     0.173 A 
ATOM     99  F   UNL A   1      43.311  30.825  28.074  1.00  0.00    -0.203 F 
ATOM    100  C   UNL A   1      44.917  31.991  26.825  1.00  0.00     0.198 A 
ATOM    101  C   UNL A   1      47.250  31.739  27.319  1.00  0.00     0.198 A 
ATOM    102  F   UNL A   1      47.946  30.232  28.983  1.00  0.00    -0.203 F 
ATOM    103  F   UNL A   1      43.939  32.572  26.116  1.00  0.00    -0.200 F 
ATOM    104  C   UNL A   1      46.238  32.333  26.583  1.00  0.00     0.200 A 
ATOM    105  F   UNL A   1      48.526  32.098  27.121  1.00  0.00    -0.200 F 
ATOM    106  F   UNL A   1      46.537  33.252  25.654  1.00  0.00    -0.200 F 
ENDBRANCH  73  96
ENDBRANCH  47  48
ENDBRANCH  40  42
ENDBRANCH  39  40
ENDBRANCH  38  39
ENDBRANCH  37  38
ENDBRANCH  36  37
ENDBRANCH  35  36
ENDBRANCH   1  35
TORSDOF 21
ENDMDL
