MODEL 1
REMARK VINA RESULT:     -10.3      0.000      0.000
REMARK SMILES CO[C@H](C)[C@@H](NC(=O)OCc1ccccc1)C(=O)OCCOCCOCCOC(=O)c1ccc(-c2c3nc(c(-c4c(F)c(F)c(F)c(F)c4F)c4ccc([nH]4)c(-c4c(F)c(F)c(F)c(F)c4F)c4nc(c(-c5c(F)c(F)c(F)c(F)c5F)c5ccc2[nH]5)C=C4)C=C3)cc1
REMARK SMILES IDX 23 1 22 2 21 3 20 4 19 5 17 6 18 7 5 8 3 9 4 10 2 11 1 12
REMARK SMILES IDX 6 13 7 14 8 16 9 17 10 18 11 19 12 20 16 21 13 22 15 23
REMARK SMILES IDX 14 24 24 25 25 26 26 27 27 28 28 29 29 30 30 31 31 32 32 33
REMARK SMILES IDX 93 34 33 35 92 36 34 37 35 38 36 39 86 40 37 41 91 42 85 43
REMARK SMILES IDX 87 44 38 45 90 46 84 47 83 48 39 50 71 51 51 52 70 53 52 54
REMARK SMILES IDX 55 55 69 56 88 57 53 58 54 59 68 61 89 62 56 63 40 64 41 65
REMARK SMILES IDX 49 66 42 67 43 68 47 69 50 70 44 71 45 72 48 73 46 74 72 75
REMARK SMILES IDX 73 76 81 77 74 78 75 79 79 80 82 81 76 82 77 83 80 84 78 85
REMARK SMILES IDX 57 86 58 87 66 88 59 89 60 90 64 91 67 92 61 93 62 94 65 95
REMARK SMILES IDX 63 96
REMARK H PARENT 6 15 87 49 55 60
REMARK Flexibility Score: inf
ROOT
ATOM      1  C   UNL A   1      39.312  21.620  26.125  1.00  0.00     0.188 C 
ENDROOT
BRANCH   1   2
ATOM      2  O   UNL A   1      38.343  21.187  25.182  1.00  0.00    -0.376 OA
BRANCH   2   3
ATOM      3  C   UNL A   1      37.092  21.865  25.120  1.00  0.00     0.202 C 
BRANCH   3   4
ATOM      4  C   UNL A   1      35.788  21.053  25.192  1.00  0.00     0.261 C 
BRANCH   4   5
ATOM      5  O   UNL A   1      34.833  21.403  26.228  1.00  0.00    -0.462 OA
BRANCH   5   6
ATOM      6  C   UNL A   1      34.494  22.725  26.326  1.00  0.00     0.331 C 
ATOM      7  O   UNL A   1      35.107  23.530  27.027  1.00  0.00    -0.250 OA
BRANCH   6   8
ATOM      8  C   UNL A   1      33.165  23.117  25.628  1.00  0.00     0.224 C 
BRANCH   8   9
ATOM      9  C   UNL A   1      32.117  24.059  26.299  1.00  0.00     0.148 C 
ATOM     10  C   UNL A   1      31.051  24.451  25.254  1.00  0.00     0.041 C 
BRANCH   9  11
ATOM     11  O   UNL A   1      31.383  23.377  27.329  1.00  0.00    -0.379 OA
ATOM     12  C   UNL A   1      30.079  22.953  26.927  1.00  0.00     0.195 C 
ENDBRANCH   9  11
ENDBRANCH   8   9
BRANCH   8  13
ATOM     13  N   UNL A   1      33.399  23.434  24.202  1.00  0.00    -0.305 N 
ATOM     14  C   UNL A   1      33.049  22.687  23.118  1.00  0.00     0.408 C 
ATOM     15  H   UNL A   1      33.863  24.282  24.016  1.00  0.00     0.168 HD
ATOM     16  O   UNL A   1      33.465  22.950  21.992  1.00  0.00    -0.225 OA
BRANCH  14  17
ATOM     17  O   UNL A   1      32.157  21.726  23.414  1.00  0.00    -0.445 OA
BRANCH  17  18
ATOM     18  C   UNL A   1      32.153  20.535  22.621  1.00  0.00     0.270 C 
BRANCH  18  19
ATOM     19  C   UNL A   1      32.537  19.285  23.382  1.00  0.00    -0.011 A 
ATOM     20  C   UNL A   1      32.869  18.077  22.751  1.00  0.00     0.007 A 
ATOM     21  C   UNL A   1      32.528  19.327  24.783  1.00  0.00     0.007 A 
ATOM     22  C   UNL A   1      33.252  16.963  23.500  1.00  0.00     0.000 A 
ATOM     23  C   UNL A   1      32.903  18.211  25.531  1.00  0.00     0.000 A 
ATOM     24  C   UNL A   1      33.280  17.034  24.890  1.00  0.00     0.000 A 
ENDBRANCH  18  19
ENDBRANCH  17  18
ENDBRANCH  14  17
ENDBRANCH   8  13
ENDBRANCH   6   8
ENDBRANCH   5   6
ENDBRANCH   4   5
ENDBRANCH   3   4
ENDBRANCH   2   3
ENDBRANCH   1   2
BRANCH   1  25
ATOM     25  C   UNL A   1      40.371  20.616  26.572  1.00  0.00     0.188 C 
BRANCH  25  26
ATOM     26  O   UNL A   1      41.403  20.370  25.646  1.00  0.00    -0.376 OA
BRANCH  26  27
ATOM     27  C   UNL A   1      42.682  20.012  26.134  1.00  0.00     0.202 C 
BRANCH  27  28
ATOM     28  C   UNL A   1      43.925  20.829  25.740  1.00  0.00     0.261 C 
BRANCH  28  29
ATOM     29  O   UNL A   1      44.002  22.189  26.207  1.00  0.00    -0.460 OA
BRANCH  29  30
ATOM     30  C   UNL A   1      43.447  23.160  25.441  1.00  0.00     0.338 C 
ATOM     31  O   UNL A   1      43.197  23.098  24.251  1.00  0.00    -0.246 OA
BRANCH  30  32
ATOM     32  C   UNL A   1      42.945  24.218  26.360  1.00  0.00     0.060 A 
ATOM     33  C   UNL A   1      43.503  25.507  26.295  1.00  0.00     0.016 A 
ATOM     34  C   UNL A   1      41.892  23.960  27.240  1.00  0.00     0.016 A 
ATOM     35  C   UNL A   1      43.028  26.527  27.124  1.00  0.00     0.010 A 
ATOM     36  C   UNL A   1      41.438  24.974  28.089  1.00  0.00     0.010 A 
ATOM     37  C   UNL A   1      42.019  26.256  28.056  1.00  0.00    -0.014 A 
BRANCH  37  38
ATOM     38  C   UNL A   1      41.680  27.242  29.114  1.00  0.00     0.031 A 
ATOM     39  C   UNL A   1      42.484  27.230  30.387  1.00  0.00     0.074 A 
ATOM     40  C   UNL A   1      40.671  28.118  28.968  1.00  0.00     0.049 A 
ATOM     41  N   UNL A   1      42.300  27.892  31.499  1.00  0.00    -0.248 NA
ATOM     42  C   UNL A   1      43.654  26.337  30.403  1.00  0.00     0.031 C 
ATOM     43  C   UNL A   1      39.849  28.268  27.770  1.00  0.00     0.029 A 
ATOM     44  N   UNL A   1      40.151  29.034  29.851  1.00  0.00    -0.354 N 
ATOM     45  C   UNL A   1      43.316  27.484  32.354  1.00  0.00     0.074 A 
ATOM     46  C   UNL A   1      44.099  26.498  31.640  1.00  0.00     0.031 C 
ATOM     47  C   UNL A   1      38.911  29.204  28.001  1.00  0.00     0.029 A 
ATOM     48  C   UNL A   1      39.039  29.685  29.376  1.00  0.00     0.049 A 
ATOM     49  H   UNL A   1      40.540  29.208  30.739  1.00  0.00     0.167 HD
ATOM     50  C   UNL A   1      43.574  27.895  33.618  1.00  0.00     0.037 A 
ATOM     51  C   UNL A   1      38.200  30.541  29.995  1.00  0.00     0.037 A 
ATOM     52  C   UNL A   1      42.790  28.875  34.325  1.00  0.00     0.049 A 
ATOM     53  C   UNL A   1      38.457  30.920  31.433  1.00  0.00     0.074 A 
ATOM     54  C   UNL A   1      42.982  29.378  35.599  1.00  0.00     0.029 A 
ATOM     55  N   UNL A   1      41.655  29.493  33.819  1.00  0.00    -0.354 N 
ATOM     56  N   UNL A   1      39.430  30.548  32.230  1.00  0.00    -0.248 NA
ATOM     57  C   UNL A   1      37.496  31.841  32.058  1.00  0.00     0.031 C 
ATOM     58  C   UNL A   1      41.926  30.246  35.890  1.00  0.00     0.029 A 
ATOM     59  C   UNL A   1      41.116  30.345  34.771  1.00  0.00     0.049 A 
ATOM     60  H   UNL A   1      41.287  29.348  32.917  1.00  0.00     0.167 HD
ATOM     61  C   UNL A   1      39.216  31.209  33.434  1.00  0.00     0.074 A 
ATOM     62  C   UNL A   1      38.030  32.020  33.257  1.00  0.00     0.031 C 
ATOM     63  C   UNL A   1      39.936  31.150  34.582  1.00  0.00     0.037 A 
BRANCH  50  64
ATOM     64  C   UNL A   1      44.730  27.258  34.336  1.00  0.00     0.064 A 
ATOM     65  C   UNL A   1      44.578  26.096  35.106  1.00  0.00     0.173 A 
ATOM     66  C   UNL A   1      46.019  27.803  34.224  1.00  0.00     0.173 A 
ATOM     67  F   UNL A   1      43.366  25.540  35.258  1.00  0.00    -0.203 F 
ATOM     68  C   UNL A   1      45.664  25.520  35.759  1.00  0.00     0.198 A 
ATOM     69  C   UNL A   1      47.110  27.205  34.850  1.00  0.00     0.198 A 
ATOM     70  F   UNL A   1      46.224  28.912  33.497  1.00  0.00    -0.203 F 
ATOM     71  F   UNL A   1      45.484  24.440  36.533  1.00  0.00    -0.200 F 
ATOM     72  C   UNL A   1      46.930  26.071  35.625  1.00  0.00     0.200 A 
ATOM     73  F   UNL A   1      48.334  27.731  34.704  1.00  0.00    -0.200 F 
ATOM     74  F   UNL A   1      47.977  25.510  36.246  1.00  0.00    -0.200 F 
ENDBRANCH  50  64
BRANCH  51  75
ATOM     75  C   UNL A   1      37.018  31.081  29.269  1.00  0.00     0.064 A 
ATOM     76  C   UNL A   1      35.904  30.274  28.998  1.00  0.00     0.173 A 
ATOM     77  C   UNL A   1      36.987  32.406  28.808  1.00  0.00     0.173 A 
ATOM     78  F   UNL A   1      35.896  28.990  29.388  1.00  0.00    -0.203 F 
ATOM     79  C   UNL A   1      34.816  30.764  28.278  1.00  0.00     0.198 A 
ATOM     80  C   UNL A   1      35.884  32.905  28.118  1.00  0.00     0.198 A 
ATOM     81  F   UNL A   1      38.030  33.219  29.030  1.00  0.00    -0.203 F 
ATOM     82  F   UNL A   1      33.790  29.954  27.985  1.00  0.00    -0.200 F 
ATOM     83  C   UNL A   1      34.803  32.081  27.846  1.00  0.00     0.200 A 
ATOM     84  F   UNL A   1      35.873  34.181  27.711  1.00  0.00    -0.200 F 
ATOM     85  F   UNL A   1      33.756  32.552  27.156  1.00  0.00    -0.200 F 
ENDBRANCH  51  75
BRANCH  63  86
ATOM     86  C   UNL A   1      39.487  32.015  35.728  1.00  0.00     0.064 A 
ATOM     87  C   UNL A   1      39.987  33.311  35.921  1.00  0.00     0.173 A 
ATOM     88  C   UNL A   1      38.511  31.552  36.625  1.00  0.00     0.173 A 
ATOM     89  F   UNL A   1      40.930  33.798  35.100  1.00  0.00    -0.203 F 
ATOM     90  C   UNL A   1      39.552  34.097  36.984  1.00  0.00     0.198 A 
ATOM     91  C   UNL A   1      38.050  32.355  37.665  1.00  0.00     0.198 A 
ATOM     92  F   UNL A   1      37.989  30.323  36.485  1.00  0.00    -0.203 F 
ATOM     93  F   UNL A   1      40.085  35.311  37.179  1.00  0.00    -0.200 F 
ATOM     94  C   UNL A   1      38.578  33.623  37.850  1.00  0.00     0.200 A 
ATOM     95  F   UNL A   1      37.095  31.900  38.489  1.00  0.00    -0.200 F 
ATOM     96  F   UNL A   1      38.154  34.385  38.867  1.00  0.00    -0.200 F 
ENDBRANCH  63  86
ENDBRANCH  37  38
ENDBRANCH  30  32
ENDBRANCH  29  30
ENDBRANCH  28  29
ENDBRANCH  27  28
ENDBRANCH  26  27
ENDBRANCH  25  26
ENDBRANCH   1  25
TORSDOF 23
ENDMDL
MODEL 2
REMARK VINA RESULT:     -10.1      4.121      9.578
REMARK SMILES CO[C@H](C)[C@@H](NC(=O)OCc1ccccc1)C(=O)OCCOCCOCCOC(=O)c1ccc(-c2c3nc(c(-c4c(F)c(F)c(F)c(F)c4F)c4ccc([nH]4)c(-c4c(F)c(F)c(F)c(F)c4F)c4nc(c(-c5c(F)c(F)c(F)c(F)c5F)c5ccc2[nH]5)C=C4)C=C3)cc1
REMARK SMILES IDX 23 1 22 2 21 3 20 4 19 5 17 6 18 7 5 8 3 9 4 10 2 11 1 12
REMARK SMILES IDX 6 13 7 14 8 16 9 17 10 18 11 19 12 20 16 21 13 22 15 23
REMARK SMILES IDX 14 24 24 25 25 26 26 27 27 28 28 29 29 30 30 31 31 32 32 33
REMARK SMILES IDX 93 34 33 35 92 36 34 37 35 38 36 39 86 40 37 41 91 42 85 43
REMARK SMILES IDX 87 44 38 45 90 46 84 47 83 48 39 50 71 51 51 52 70 53 52 54
REMARK SMILES IDX 55 55 69 56 88 57 53 58 54 59 68 61 89 62 56 63 40 64 41 65
REMARK SMILES IDX 49 66 42 67 43 68 47 69 50 70 44 71 45 72 48 73 46 74 72 75
REMARK SMILES IDX 73 76 81 77 74 78 75 79 79 80 82 81 76 82 77 83 80 84 78 85
REMARK SMILES IDX 57 86 58 87 66 88 59 89 60 90 64 91 67 92 61 93 62 94 65 95
REMARK SMILES IDX 63 96
REMARK H PARENT 6 15 87 49 55 60
REMARK Flexibility Score: inf
ROOT
ATOM      1  C   UNL A   1      35.125  31.895  28.574  1.00  0.00     0.188 C 
ENDROOT
BRANCH   1   2
ATOM      2  O   UNL A   1      34.952  31.083  27.422  1.00  0.00    -0.376 OA
BRANCH   2   3
ATOM      3  C   UNL A   1      33.864  30.165  27.385  1.00  0.00     0.202 C 
BRANCH   3   4
ATOM      4  C   UNL A   1      33.260  29.763  26.029  1.00  0.00     0.261 C 
BRANCH   4   5
ATOM      5  O   UNL A   1      33.658  28.484  25.469  1.00  0.00    -0.462 OA
BRANCH   5   6
ATOM      6  C   UNL A   1      33.309  28.252  24.166  1.00  0.00     0.331 C 
ATOM      7  O   UNL A   1      33.293  29.131  23.304  1.00  0.00    -0.250 OA
BRANCH   6   8
ATOM      8  C   UNL A   1      32.757  26.831  23.875  1.00  0.00     0.224 C 
BRANCH   8   9
ATOM      9  C   UNL A   1      33.614  25.733  23.171  1.00  0.00     0.148 C 
ATOM     10  C   UNL A   1      32.845  24.395  23.208  1.00  0.00     0.041 C 
BRANCH   9  11
ATOM     11  O   UNL A   1      33.782  26.016  21.772  1.00  0.00    -0.379 OA
ATOM     12  C   UNL A   1      32.680  25.605  20.960  1.00  0.00     0.195 C 
ENDBRANCH   9  11
ENDBRANCH   8   9
BRANCH   8  13
ATOM     13  N   UNL A   1      32.000  26.319  25.037  1.00  0.00    -0.305 N 
ATOM     14  C   UNL A   1      30.655  26.124  25.130  1.00  0.00     0.408 C 
ATOM     15  H   UNL A   1      32.530  26.094  25.836  1.00  0.00     0.168 HD
ATOM     16  O   UNL A   1      30.111  25.881  26.205  1.00  0.00    -0.225 OA
BRANCH  14  17
ATOM     17  O   UNL A   1      30.043  26.141  23.934  1.00  0.00    -0.445 OA
BRANCH  17  18
ATOM     18  C   UNL A   1      28.758  26.764  23.837  1.00  0.00     0.270 C 
BRANCH  18  19
ATOM     19  C   UNL A   1      28.772  28.100  23.128  1.00  0.00    -0.011 A 
ATOM     20  C   UNL A   1      29.918  28.629  22.514  1.00  0.00     0.007 A 
ATOM     21  C   UNL A   1      27.594  28.860  23.112  1.00  0.00     0.007 A 
ATOM     22  C   UNL A   1      29.866  29.851  21.840  1.00  0.00     0.000 A 
ATOM     23  C   UNL A   1      27.545  30.084  22.446  1.00  0.00     0.000 A 
ATOM     24  C   UNL A   1      28.676  30.573  21.797  1.00  0.00     0.000 A 
ENDBRANCH  18  19
ENDBRANCH  17  18
ENDBRANCH  14  17
ENDBRANCH   8  13
ENDBRANCH   6   8
ENDBRANCH   5   6
ENDBRANCH   4   5
ENDBRANCH   3   4
ENDBRANCH   2   3
ENDBRANCH   1   2
BRANCH   1  25
ATOM     25  C   UNL A   1      34.225  33.118  28.726  1.00  0.00     0.188 C 
BRANCH  25  26
ATOM     26  O   UNL A   1      34.891  34.355  28.816  1.00  0.00    -0.376 OA
BRANCH  26  27
ATOM     27  C   UNL A   1      34.130  35.544  28.730  1.00  0.00     0.202 C 
BRANCH  27  28
ATOM     28  C   UNL A   1      32.890  35.742  29.621  1.00  0.00     0.261 C 
BRANCH  28  29
ATOM     29  O   UNL A   1      33.086  36.357  30.907  1.00  0.00    -0.460 OA
BRANCH  29  30
ATOM     30  C   UNL A   1      32.701  35.670  32.010  1.00  0.00     0.338 C 
ATOM     31  O   UNL A   1      31.561  35.498  32.403  1.00  0.00    -0.246 OA
BRANCH  30  32
ATOM     32  C   UNL A   1      33.892  34.931  32.511  1.00  0.00     0.060 A 
ATOM     33  C   UNL A   1      35.164  35.522  32.403  1.00  0.00     0.016 A 
ATOM     34  C   UNL A   1      33.754  33.690  33.135  1.00  0.00     0.016 A 
ATOM     35  C   UNL A   1      36.295  34.864  32.895  1.00  0.00     0.010 A 
ATOM     36  C   UNL A   1      34.891  33.020  33.601  1.00  0.00     0.010 A 
ATOM     37  C   UNL A   1      36.170  33.590  33.460  1.00  0.00    -0.014 A 
BRANCH  37  38
ATOM     38  C   UNL A   1      37.373  32.768  33.751  1.00  0.00     0.031 A 
ATOM     39  C   UNL A   1      38.127  33.032  35.027  1.00  0.00     0.074 A 
ATOM     40  C   UNL A   1      37.807  31.822  32.901  1.00  0.00     0.049 A 
ATOM     41  N   UNL A   1      39.269  32.547  35.440  1.00  0.00    -0.248 NA
ATOM     42  C   UNL A   1      37.503  33.983  35.961  1.00  0.00     0.031 C 
ATOM     43  C   UNL A   1      37.144  31.434  31.659  1.00  0.00     0.029 A 
ATOM     44  N   UNL A   1      38.930  31.031  32.945  1.00  0.00    -0.354 N 
ATOM     45  C   UNL A   1      39.511  33.147  36.669  1.00  0.00     0.074 A 
ATOM     46  C   UNL A   1      38.408  34.049  36.925  1.00  0.00     0.031 C 
ATOM     47  C   UNL A   1      37.886  30.494  31.045  1.00  0.00     0.029 A 
ATOM     48  C   UNL A   1      39.096  30.248  31.829  1.00  0.00     0.049 A 
ATOM     49  H   UNL A   1      39.556  31.025  33.705  1.00  0.00     0.167 HD
ATOM     50  C   UNL A   1      40.556  32.960  37.510  1.00  0.00     0.037 A 
ATOM     51  C   UNL A   1      40.125  29.455  31.466  1.00  0.00     0.037 A 
ATOM     52  C   UNL A   1      41.652  32.062  37.250  1.00  0.00     0.049 A 
ATOM     53  C   UNL A   1      41.320  29.328  32.378  1.00  0.00     0.074 A 
ATOM     54  C   UNL A   1      42.747  31.783  38.049  1.00  0.00     0.029 A 
ATOM     55  N   UNL A   1      41.796  31.306  36.096  1.00  0.00    -0.354 N 
ATOM     56  N   UNL A   1      41.535  29.880  33.549  1.00  0.00    -0.248 NA
ATOM     57  C   UNL A   1      42.417  28.464  31.917  1.00  0.00     0.031 C 
ATOM     58  C   UNL A   1      43.587  30.912  37.349  1.00  0.00     0.029 A 
ATOM     59  C   UNL A   1      42.982  30.588  36.146  1.00  0.00     0.049 A 
ATOM     60  H   UNL A   1      41.152  31.282  35.351  1.00  0.00     0.167 HD
ATOM     61  C   UNL A   1      42.771  29.410  33.975  1.00  0.00     0.074 A 
ATOM     62  C   UNL A   1      43.252  28.512  32.945  1.00  0.00     0.031 C 
ATOM     63  C   UNL A   1      43.448  29.695  35.116  1.00  0.00     0.037 A 
BRANCH  50  64
ATOM     64  C   UNL A   1      40.587  33.771  38.775  1.00  0.00     0.064 A 
ATOM     65  C   UNL A   1      39.916  33.362  39.937  1.00  0.00     0.173 A 
ATOM     66  C   UNL A   1      41.329  34.962  38.833  1.00  0.00     0.173 A 
ATOM     67  F   UNL A   1      39.181  32.239  39.933  1.00  0.00    -0.203 F 
ATOM     68  C   UNL A   1      39.962  34.127  41.099  1.00  0.00     0.198 A 
ATOM     69  C   UNL A   1      41.401  35.706  40.008  1.00  0.00     0.198 A 
ATOM     70  F   UNL A   1      41.993  35.398  37.754  1.00  0.00    -0.203 F 
ATOM     71  F   UNL A   1      39.269  33.743  42.181  1.00  0.00    -0.200 F 
ATOM     72  C   UNL A   1      40.711  35.294  41.136  1.00  0.00     0.200 A 
ATOM     73  F   UNL A   1      42.139  36.825  40.044  1.00  0.00    -0.200 F 
ATOM     74  F   UNL A   1      40.762  36.025  42.259  1.00  0.00    -0.200 F 
ENDBRANCH  50  64
BRANCH  51  75
ATOM     75  C   UNL A   1      40.088  28.738  30.162  1.00  0.00     0.064 A 
ATOM     76  C   UNL A   1      39.474  27.483  30.043  1.00  0.00     0.173 A 
ATOM     77  C   UNL A   1      40.689  29.277  29.014  1.00  0.00     0.173 A 
ATOM     78  F   UNL A   1      38.913  26.907  31.118  1.00  0.00    -0.203 F 
ATOM     79  C   UNL A   1      39.480  26.788  28.834  1.00  0.00     0.198 A 
ATOM     80  C   UNL A   1      40.664  28.598  27.798  1.00  0.00     0.198 A 
ATOM     81  F   UNL A   1      41.300  30.470  29.074  1.00  0.00    -0.203 F 
ATOM     82  F   UNL A   1      38.934  25.566  28.764  1.00  0.00    -0.200 F 
ATOM     83  C   UNL A   1      40.066  27.350  27.711  1.00  0.00     0.200 A 
ATOM     84  F   UNL A   1      41.225  29.149  26.714  1.00  0.00    -0.200 F 
ATOM     85  F   UNL A   1      40.069  26.683  26.550  1.00  0.00    -0.200 F 
ENDBRANCH  51  75
BRANCH  63  86
ATOM     86  C   UNL A   1      44.765  29.001  35.334  1.00  0.00     0.064 A 
ATOM     87  C   UNL A   1      44.850  27.751  35.964  1.00  0.00     0.173 A 
ATOM     88  C   UNL A   1      45.956  29.579  34.867  1.00  0.00     0.173 A 
ATOM     89  F   UNL A   1      43.744  27.159  36.440  1.00  0.00    -0.203 F 
ATOM     90  C   UNL A   1      46.079  27.123  36.149  1.00  0.00     0.198 A 
ATOM     91  C   UNL A   1      47.179  28.930  35.019  1.00  0.00     0.198 A 
ATOM     92  F   UNL A   1      45.935  30.769  34.247  1.00  0.00    -0.203 F 
ATOM     93  F   UNL A   1      46.140  25.955  36.804  1.00  0.00    -0.200 F 
ATOM     94  C   UNL A   1      47.241  27.708  35.669  1.00  0.00     0.200 A 
ATOM     95  F   UNL A   1      48.298  29.490  34.537  1.00  0.00    -0.200 F 
ATOM     96  F   UNL A   1      48.421  27.097  35.839  1.00  0.00    -0.200 F 
ENDBRANCH  63  86
ENDBRANCH  37  38
ENDBRANCH  30  32
ENDBRANCH  29  30
ENDBRANCH  28  29
ENDBRANCH  27  28
ENDBRANCH  26  27
ENDBRANCH  25  26
ENDBRANCH   1  25
TORSDOF 23
ENDMDL
MODEL 3
REMARK VINA RESULT:     -10.0      5.118      7.769
REMARK SMILES CO[C@H](C)[C@@H](NC(=O)OCc1ccccc1)C(=O)OCCOCCOCCOC(=O)c1ccc(-c2c3nc(c(-c4c(F)c(F)c(F)c(F)c4F)c4ccc([nH]4)c(-c4c(F)c(F)c(F)c(F)c4F)c4nc(c(-c5c(F)c(F)c(F)c(F)c5F)c5ccc2[nH]5)C=C4)C=C3)cc1
REMARK SMILES IDX 23 1 22 2 21 3 20 4 19 5 17 6 18 7 5 8 3 9 4 10 2 11 1 12
REMARK SMILES IDX 6 13 7 14 8 16 9 17 10 18 11 19 12 20 16 21 13 22 15 23
REMARK SMILES IDX 14 24 24 25 25 26 26 27 27 28 28 29 29 30 30 31 31 32 32 33
REMARK SMILES IDX 93 34 33 35 92 36 34 37 35 38 36 39 86 40 37 41 91 42 85 43
REMARK SMILES IDX 87 44 38 45 90 46 84 47 83 48 39 50 71 51 51 52 70 53 52 54
REMARK SMILES IDX 55 55 69 56 88 57 53 58 54 59 68 61 89 62 56 63 40 64 41 65
REMARK SMILES IDX 49 66 42 67 43 68 47 69 50 70 44 71 45 72 48 73 46 74 72 75
REMARK SMILES IDX 73 76 81 77 74 78 75 79 79 80 82 81 76 82 77 83 80 84 78 85
REMARK SMILES IDX 57 86 58 87 66 88 59 89 60 90 64 91 67 92 61 93 62 94 65 95
REMARK SMILES IDX 63 96
REMARK H PARENT 6 15 87 49 55 60
REMARK Flexibility Score: inf
ROOT
ATOM      1  C   UNL A   1      39.782  22.158  26.648  1.00  0.00     0.188 C 
ENDROOT
BRANCH   1   2
ATOM      2  O   UNL A   1      38.635  21.751  25.918  1.00  0.00    -0.376 OA
BRANCH   2   3
ATOM      3  C   UNL A   1      37.569  22.679  25.740  1.00  0.00     0.202 C 
BRANCH   3   4
ATOM      4  C   UNL A   1      36.229  22.189  25.167  1.00  0.00     0.261 C 
BRANCH   4   5
ATOM      5  O   UNL A   1      35.031  22.926  25.530  1.00  0.00    -0.462 OA
BRANCH   5   6
ATOM      6  C   UNL A   1      34.059  22.226  26.191  1.00  0.00     0.331 C 
ATOM      7  O   UNL A   1      34.264  21.605  27.234  1.00  0.00    -0.250 OA
BRANCH   6   8
ATOM      8  C   UNL A   1      32.704  22.115  25.443  1.00  0.00     0.224 C 
BRANCH   8   9
ATOM      9  C   UNL A   1      32.465  21.078  24.302  1.00  0.00     0.148 C 
ATOM     10  C   UNL A   1      32.532  21.802  22.941  1.00  0.00     0.041 C 
BRANCH   9  11
ATOM     11  O   UNL A   1      33.522  20.106  24.247  1.00  0.00    -0.379 OA
ATOM     12  C   UNL A   1      33.109  18.779  24.580  1.00  0.00     0.195 C 
ENDBRANCH   9  11
ENDBRANCH   8   9
BRANCH   8  13
ATOM     13  N   UNL A   1      31.576  22.200  26.395  1.00  0.00    -0.305 N 
ATOM     14  C   UNL A   1      30.810  23.291  26.678  1.00  0.00     0.408 C 
ATOM     15  H   UNL A   1      31.353  21.373  26.880  1.00  0.00     0.168 HD
ATOM     16  O   UNL A   1      30.027  23.301  27.626  1.00  0.00    -0.225 OA
BRANCH  14  17
ATOM     17  O   UNL A   1      30.949  24.274  25.773  1.00  0.00    -0.445 OA
BRANCH  17  18
ATOM     18  C   UNL A   1      29.918  25.262  25.679  1.00  0.00     0.270 C 
BRANCH  18  19
ATOM     19  C   UNL A   1      30.356  26.550  25.017  1.00  0.00    -0.011 A 
ATOM     20  C   UNL A   1      31.398  27.349  25.512  1.00  0.00     0.007 A 
ATOM     21  C   UNL A   1      29.667  26.983  23.876  1.00  0.00     0.007 A 
ATOM     22  C   UNL A   1      31.786  28.511  24.841  1.00  0.00     0.000 A 
ATOM     23  C   UNL A   1      30.050  28.147  23.210  1.00  0.00     0.000 A 
ATOM     24  C   UNL A   1      31.119  28.903  23.684  1.00  0.00     0.000 A 
ENDBRANCH  18  19
ENDBRANCH  17  18
ENDBRANCH  14  17
ENDBRANCH   8  13
ENDBRANCH   6   8
ENDBRANCH   5   6
ENDBRANCH   4   5
ENDBRANCH   3   4
ENDBRANCH   2   3
ENDBRANCH   1   2
BRANCH   1  25
ATOM     25  C   UNL A   1      40.740  21.073  27.135  1.00  0.00     0.188 C 
BRANCH  25  26
ATOM     26  O   UNL A   1      41.556  20.495  26.144  1.00  0.00    -0.376 OA
BRANCH  26  27
ATOM     27  C   UNL A   1      42.278  19.321  26.461  1.00  0.00     0.202 C 
BRANCH  27  28
ATOM     28  C   UNL A   1      42.997  18.526  25.356  1.00  0.00     0.261 C 
BRANCH  28  29
ATOM     29  O   UNL A   1      44.437  18.552  25.348  1.00  0.00    -0.460 OA
BRANCH  29  30
ATOM     30  C   UNL A   1      45.058  19.288  24.394  1.00  0.00     0.338 C 
ATOM     31  O   UNL A   1      45.419  18.904  23.296  1.00  0.00    -0.246 OA
BRANCH  30  32
ATOM     32  C   UNL A   1      44.979  20.714  24.812  1.00  0.00     0.060 A 
ATOM     33  C   UNL A   1      44.542  21.679  23.887  1.00  0.00     0.016 A 
ATOM     34  C   UNL A   1      45.277  21.092  26.123  1.00  0.00     0.016 A 
ATOM     35  C   UNL A   1      44.427  23.020  24.264  1.00  0.00     0.010 A 
ATOM     36  C   UNL A   1      45.189  22.440  26.489  1.00  0.00     0.010 A 
ATOM     37  C   UNL A   1      44.790  23.415  25.556  1.00  0.00    -0.014 A 
BRANCH  37  38
ATOM     38  C   UNL A   1      44.923  24.855  25.900  1.00  0.00     0.031 A 
ATOM     39  C   UNL A   1      46.276  25.500  25.761  1.00  0.00     0.074 A 
ATOM     40  C   UNL A   1      43.880  25.576  26.345  1.00  0.00     0.049 A 
ATOM     41  N   UNL A   1      46.675  26.693  26.120  1.00  0.00    -0.248 NA
ATOM     42  C   UNL A   1      47.323  24.677  25.134  1.00  0.00     0.031 C 
ATOM     43  C   UNL A   1      42.510  25.087  26.478  1.00  0.00     0.029 A 
ATOM     44  N   UNL A   1      43.819  26.874  26.792  1.00  0.00    -0.354 N 
ATOM     45  C   UNL A   1      48.021  26.757  25.783  1.00  0.00     0.074 A 
ATOM     46  C   UNL A   1      48.377  25.476  25.213  1.00  0.00     0.031 C 
ATOM     47  C   UNL A   1      41.747  26.066  26.997  1.00  0.00     0.029 A 
ATOM     48  C   UNL A   1      42.584  27.233  27.274  1.00  0.00     0.049 A 
ATOM     49  H   UNL A   1      44.588  27.489  26.769  1.00  0.00     0.167 HD
ATOM     50  C   UNL A   1      48.881  27.793  25.933  1.00  0.00     0.037 A 
ATOM     51  C   UNL A   1      42.187  28.359  27.900  1.00  0.00     0.037 A 
ATOM     52  C   UNL A   1      48.522  29.066  26.503  1.00  0.00     0.049 A 
ATOM     53  C   UNL A   1      43.184  29.468  28.135  1.00  0.00     0.074 A 
ATOM     54  C   UNL A   1      49.314  30.187  26.677  1.00  0.00     0.029 A 
ATOM     55  N   UNL A   1      47.267  29.381  27.003  1.00  0.00    -0.354 N 
ATOM     56  N   UNL A   1      44.449  29.532  27.796  1.00  0.00    -0.248 NA
ATOM     57  C   UNL A   1      42.695  30.661  28.841  1.00  0.00     0.031 C 
ATOM     58  C   UNL A   1      48.558  31.156  27.344  1.00  0.00     0.029 A 
ATOM     59  C   UNL A   1      47.273  30.668  27.519  1.00  0.00     0.049 A 
ATOM     60  H   UNL A   1      46.486  28.781  26.992  1.00  0.00     0.167 HD
ATOM     61  C   UNL A   1      44.897  30.779  28.218  1.00  0.00     0.074 A 
ATOM     62  C   UNL A   1      43.763  31.445  28.823  1.00  0.00     0.031 C 
ATOM     63  C   UNL A   1      46.136  31.322  28.116  1.00  0.00     0.037 A 
BRANCH  50  64
ATOM     64  C   UNL A   1      50.307  27.581  25.510  1.00  0.00     0.064 A 
ATOM     65  C   UNL A   1      50.715  27.718  24.175  1.00  0.00     0.173 A 
ATOM     66  C   UNL A   1      51.288  27.266  26.464  1.00  0.00     0.173 A 
ATOM     67  F   UNL A   1      49.817  28.005  23.220  1.00  0.00    -0.203 F 
ATOM     68  C   UNL A   1      52.044  27.522  23.807  1.00  0.00     0.198 A 
ATOM     69  C   UNL A   1      52.622  27.104  26.097  1.00  0.00     0.198 A 
ATOM     70  F   UNL A   1      50.955  27.126  27.755  1.00  0.00    -0.203 F 
ATOM     71  F   UNL A   1      52.400  27.606  22.517  1.00  0.00    -0.200 F 
ATOM     72  C   UNL A   1      52.997  27.222  24.769  1.00  0.00     0.200 A 
ATOM     73  F   UNL A   1      53.542  26.831  27.032  1.00  0.00    -0.200 F 
ATOM     74  F   UNL A   1      54.277  27.042  24.414  1.00  0.00    -0.200 F 
ENDBRANCH  50  64
BRANCH  51  75
ATOM     75  C   UNL A   1      40.783  28.490  28.379  1.00  0.00     0.064 A 
ATOM     76  C   UNL A   1      39.773  28.970  27.535  1.00  0.00     0.173 A 
ATOM     77  C   UNL A   1      40.428  28.163  29.697  1.00  0.00     0.173 A 
ATOM     78  F   UNL A   1      40.065  29.328  26.275  1.00  0.00    -0.203 F 
ATOM     79  C   UNL A   1      38.467  29.138  27.995  1.00  0.00     0.198 A 
ATOM     80  C   UNL A   1      39.116  28.298  30.145  1.00  0.00     0.198 A 
ATOM     81  F   UNL A   1      41.357  27.709  30.550  1.00  0.00    -0.203 F 
ATOM     82  F   UNL A   1      37.534  29.652  27.183  1.00  0.00    -0.200 F 
ATOM     83  C   UNL A   1      38.138  28.794  29.297  1.00  0.00     0.200 A 
ATOM     84  F   UNL A   1      38.801  27.956  31.402  1.00  0.00    -0.200 F 
ATOM     85  F   UNL A   1      36.883  28.952  29.738  1.00  0.00    -0.200 F 
ENDBRANCH  51  75
BRANCH  63  86
ATOM     86  C   UNL A   1      46.324  32.723  28.632  1.00  0.00     0.064 A 
ATOM     87  C   UNL A   1      46.118  33.847  27.820  1.00  0.00     0.173 A 
ATOM     88  C   UNL A   1      46.679  32.942  29.973  1.00  0.00     0.173 A 
ATOM     89  F   UNL A   1      45.791  33.695  26.527  1.00  0.00    -0.203 F 
ATOM     90  C   UNL A   1      46.291  35.135  28.320  1.00  0.00     0.198 A 
ATOM     91  C   UNL A   1      46.813  34.232  30.480  1.00  0.00     0.198 A 
ATOM     92  F   UNL A   1      46.879  31.904  30.799  1.00  0.00    -0.203 F 
ATOM     93  F   UNL A   1      46.142  36.192  27.510  1.00  0.00    -0.200 F 
ATOM     94  C   UNL A   1      46.629  35.327  29.652  1.00  0.00     0.200 A 
ATOM     95  F   UNL A   1      47.122  34.414  31.772  1.00  0.00    -0.200 F 
ATOM     96  F   UNL A   1      46.786  36.567  30.133  1.00  0.00    -0.200 F 
ENDBRANCH  63  86
ENDBRANCH  37  38
ENDBRANCH  30  32
ENDBRANCH  29  30
ENDBRANCH  28  29
ENDBRANCH  27  28
ENDBRANCH  26  27
ENDBRANCH  25  26
ENDBRANCH   1  25
TORSDOF 23
ENDMDL
