MODEL 1
REMARK VINA RESULT:     -12.2      0.000      0.000
REMARK SMILES Cc1ccc(-c2c(C(=O)OCCOCCOCCOC(=O)c3ccc(-c4c5nc(c(-c6c(F)c(F)c(F)c(F)c6F)c6ccc([nH]6)c(-c6c(F)c(F)c(F)c(F)c6F)c6nc(c(-c7c(F)c(F)c(F)c(F)c7F)c7ccc4[nH]7)C=C6)C=C5)cc3)nnn2Cc2c(F)cccc2Cl)cc1
REMARK SMILES IDX 14 1 13 2 12 3 11 4 10 5 8 6 9 7 7 8 6 9 87 10 85 11 86 12
REMARK SMILES IDX 5 13 1 14 2 15 3 16 98 17 4 18 97 19 88 20 89 21 90 22 95 23
REMARK SMILES IDX 91 24 92 25 94 26 96 27 93 28 15 29 16 30 17 31 18 32 19 33
REMARK SMILES IDX 20 34 21 35 22 36 23 37 84 38 24 39 83 40 25 41 26 42 27 43
REMARK SMILES IDX 77 44 28 45 82 46 76 47 78 48 29 49 81 50 75 51 74 52 30 54
REMARK SMILES IDX 62 55 42 56 61 57 43 58 46 59 60 60 79 61 44 62 45 63 59 65
REMARK SMILES IDX 80 66 47 67 31 68 32 69 40 70 33 71 34 72 38 73 41 74 35 75
REMARK SMILES IDX 36 76 39 77 37 78 63 79 64 80 72 81 65 82 66 83 70 84 73 85
REMARK SMILES IDX 67 86 68 87 71 88 69 89 48 90 49 91 57 92 50 93 51 94 55 95
REMARK SMILES IDX 58 96 52 97 53 98 56 99 54 100
REMARK H PARENT 78 53 46 64
REMARK Flexibility Score: inf
ROOT
ATOM      1  C   UNL A   1      34.263  33.889  28.301  1.00  0.00     0.188 C 
ENDROOT
BRANCH   1   2
ATOM      2  O   UNL A   1      35.037  32.846  27.719  1.00  0.00    -0.376 OA
BRANCH   2   3
ATOM      3  C   UNL A   1      34.783  31.467  27.950  1.00  0.00     0.202 C 
BRANCH   3   4
ATOM      4  C   UNL A   1      33.379  31.074  27.394  1.00  0.00     0.261 C 
BRANCH   4   5
ATOM      5  O   UNL A   1      33.370  29.980  26.408  1.00  0.00    -0.458 OA
BRANCH   5   6
ATOM      6  C   UNL A   1      32.204  29.231  26.418  1.00  0.00     0.361 C 
ATOM      7  O   UNL A   1      31.536  29.095  27.434  1.00  0.00    -0.244 OA
BRANCH   6   8
ATOM      8  C   UNL A   1      31.773  28.555  25.181  1.00  0.00     0.198 A 
ATOM      9  C   UNL A   1      31.865  27.178  25.003  1.00  0.00     0.104 A 
ATOM     10  N   UNL A   1      30.901  26.888  24.076  1.00  0.00    -0.239 N 
ATOM     11  N   UNL A   1      30.907  29.047  24.234  1.00  0.00    -0.122 NA
ATOM     12  N   UNL A   1      30.425  28.027  23.527  1.00  0.00    -0.066 NA
BRANCH   9  13
ATOM     13  C   UNL A   1      32.707  26.284  25.767  1.00  0.00     0.002 A 
ATOM     14  C   UNL A   1      34.408  22.403  26.206  1.00  0.00     0.044 C 
ATOM     15  C   UNL A   1      33.883  23.806  26.204  1.00  0.00    -0.051 A 
ATOM     16  C   UNL A   1      34.564  24.784  25.476  1.00  0.00     0.004 A 
ATOM     17  C   UNL A   1      32.681  24.132  26.843  1.00  0.00     0.004 A 
ATOM     18  C   UNL A   1      33.999  26.039  25.298  1.00  0.00     0.011 A 
ATOM     19  C   UNL A   1      32.086  25.372  26.620  1.00  0.00     0.011 A 
ENDBRANCH   9  13
BRANCH  10  20
ATOM     20  C   UNL A   1      30.317  25.602  23.706  1.00  0.00     0.187 C 
BRANCH  20  21
ATOM     21  C   UNL A   1      31.333  24.579  23.251  1.00  0.00     0.028 A 
ATOM     22  C   UNL A   1      31.283  23.289  23.794  1.00  0.00     0.129 A 
ATOM     23  C   UNL A   1      32.343  24.841  22.313  1.00  0.00     0.049 A 
ATOM     24  F   UNL A   1      30.373  22.999  24.734  1.00  0.00    -0.207 F 
ATOM     25  C   UNL A   1      32.161  22.281  23.394  1.00  0.00     0.040 A 
ATOM     26  C   UNL A   1      33.216  23.829  21.890  1.00  0.00     0.021 A 
ATOM     27  Cl  UNL A   1      32.594  26.415  21.656  1.00  0.00    -0.084 Cl
ATOM     28  C   UNL A   1      33.123  22.546  22.426  1.00  0.00     0.005 A 
ENDBRANCH  20  21
ENDBRANCH  10  20
ENDBRANCH   6   8
ENDBRANCH   5   6
ENDBRANCH   4   5
ENDBRANCH   3   4
ENDBRANCH   2   3
ENDBRANCH   1   2
BRANCH   1  29
ATOM     29  C   UNL A   1      34.610  35.374  28.093  1.00  0.00     0.188 C 
BRANCH  29  30
ATOM     30  O   UNL A   1      33.741  36.234  28.805  1.00  0.00    -0.376 OA
BRANCH  30  31
ATOM     31  C   UNL A   1      32.853  35.602  29.723  1.00  0.00     0.202 C 
BRANCH  31  32
ATOM     32  C   UNL A   1      32.923  36.244  31.119  1.00  0.00     0.261 C 
BRANCH  32  33
ATOM     33  O   UNL A   1      33.159  35.219  32.104  1.00  0.00    -0.460 OA
BRANCH  33  34
ATOM     34  C   UNL A   1      34.304  35.357  32.835  1.00  0.00     0.338 C 
ATOM     35  O   UNL A   1      34.706  36.402  33.310  1.00  0.00    -0.246 OA
BRANCH  34  36
ATOM     36  C   UNL A   1      35.114  34.101  32.762  1.00  0.00     0.060 A 
ATOM     37  C   UNL A   1      35.461  33.338  33.890  1.00  0.00     0.016 A 
ATOM     38  C   UNL A   1      35.733  33.794  31.572  1.00  0.00     0.016 A 
ATOM     39  C   UNL A   1      36.514  32.379  33.826  1.00  0.00     0.010 A 
ATOM     40  C   UNL A   1      36.800  32.914  31.568  1.00  0.00     0.010 A 
ATOM     41  C   UNL A   1      37.263  32.228  32.667  1.00  0.00    -0.014 A 
BRANCH  41  42
ATOM     42  C   UNL A   1      38.609  31.656  32.409  1.00  0.00     0.031 A 
ATOM     43  C   UNL A   1      38.810  30.399  31.628  1.00  0.00     0.074 A 
ATOM     44  C   UNL A   1      39.687  32.457  32.546  1.00  0.00     0.049 A 
ATOM     45  N   UNL A   1      39.537  30.258  30.557  1.00  0.00    -0.248 NA
ATOM     46  C   UNL A   1      38.199  29.160  32.103  1.00  0.00     0.031 C 
ATOM     47  C   UNL A   1      41.048  32.230  32.060  1.00  0.00     0.029 A 
ATOM     48  N   UNL A   1      39.822  33.525  33.441  1.00  0.00    -0.354 N 
ATOM     49  C   UNL A   1      39.528  28.917  30.206  1.00  0.00     0.074 A 
ATOM     50  C   UNL A   1      38.656  28.284  31.204  1.00  0.00     0.031 C 
ATOM     51  C   UNL A   1      41.900  32.806  32.922  1.00  0.00     0.029 A 
ATOM     52  C   UNL A   1      41.097  33.317  34.019  1.00  0.00     0.049 A 
ATOM     53  H   UNL A   1      39.181  34.250  33.625  1.00  0.00     0.167 HD
ATOM     54  C   UNL A   1      40.682  28.277  29.861  1.00  0.00     0.037 A 
ATOM     55  C   UNL A   1      41.165  32.894  35.315  1.00  0.00     0.037 A 
ATOM     56  C   UNL A   1      41.790  28.578  30.730  1.00  0.00     0.049 A 
ATOM     57  C   UNL A   1      41.793  31.526  35.480  1.00  0.00     0.074 A 
ATOM     58  C   UNL A   1      42.953  29.317  30.631  1.00  0.00     0.029 A 
ATOM     59  N   UNL A   1      41.694  28.162  32.044  1.00  0.00    -0.354 N 
ATOM     60  N   UNL A   1      41.983  30.673  34.510  1.00  0.00    -0.248 NA
ATOM     61  C   UNL A   1      42.230  31.001  36.769  1.00  0.00     0.031 C 
ATOM     62  C   UNL A   1      43.516  29.405  31.933  1.00  0.00     0.029 A 
ATOM     63  C   UNL A   1      42.704  28.696  32.802  1.00  0.00     0.049 A 
ATOM     64  H   UNL A   1      40.993  27.563  32.390  1.00  0.00     0.167 HD
ATOM     65  C   UNL A   1      42.512  29.512  35.016  1.00  0.00     0.074 A 
ATOM     66  C   UNL A   1      42.672  29.778  36.431  1.00  0.00     0.031 C 
ATOM     67  C   UNL A   1      42.747  28.423  34.226  1.00  0.00     0.037 A 
BRANCH  54  68
ATOM     68  C   UNL A   1      40.749  27.584  28.526  1.00  0.00     0.064 A 
ATOM     69  C   UNL A   1      40.090  26.363  28.276  1.00  0.00     0.173 A 
ATOM     70  C   UNL A   1      41.470  28.116  27.437  1.00  0.00     0.173 A 
ATOM     71  F   UNL A   1      39.348  25.764  29.217  1.00  0.00    -0.203 F 
ATOM     72  C   UNL A   1      40.169  25.714  27.038  1.00  0.00     0.198 A 
ATOM     73  C   UNL A   1      41.554  27.464  26.205  1.00  0.00     0.198 A 
ATOM     74  F   UNL A   1      42.084  29.304  27.534  1.00  0.00    -0.203 F 
ATOM     75  F   UNL A   1      39.522  24.556  26.847  1.00  0.00    -0.200 F 
ATOM     76  C   UNL A   1      40.906  26.261  26.004  1.00  0.00     0.200 A 
ATOM     77  F   UNL A   1      42.256  28.013  25.203  1.00  0.00    -0.200 F 
ATOM     78  F   UNL A   1      40.977  25.644  24.818  1.00  0.00    -0.200 F 
ENDBRANCH  54  68
BRANCH  55  79
ATOM     79  C   UNL A   1      40.064  33.463  36.153  1.00  0.00     0.064 A 
ATOM     80  C   UNL A   1      39.013  32.600  36.538  1.00  0.00     0.173 A 
ATOM     81  C   UNL A   1      40.189  34.664  36.857  1.00  0.00     0.173 A 
ATOM     82  F   UNL A   1      38.843  31.427  35.903  1.00  0.00    -0.203 F 
ATOM     83  C   UNL A   1      38.219  32.860  37.651  1.00  0.00     0.198 A 
ATOM     84  C   UNL A   1      39.353  34.947  37.945  1.00  0.00     0.198 A 
ATOM     85  F   UNL A   1      41.191  35.513  36.584  1.00  0.00    -0.203 F 
ATOM     86  F   UNL A   1      37.329  31.947  38.067  1.00  0.00    -0.200 F 
ATOM     87  C   UNL A   1      38.403  34.028  38.368  1.00  0.00     0.200 A 
ATOM     88  F   UNL A   1      39.554  36.061  38.664  1.00  0.00    -0.200 F 
ATOM     89  F   UNL A   1      37.702  34.248  39.489  1.00  0.00    -0.200 F 
ENDBRANCH  55  79
BRANCH  67  90
ATOM     90  C   UNL A   1      43.059  27.016  34.695  1.00  0.00     0.064 A 
ATOM     91  C   UNL A   1      42.084  26.031  34.924  1.00  0.00     0.173 A 
ATOM     92  C   UNL A   1      44.401  26.565  34.783  1.00  0.00     0.173 A 
ATOM     93  F   UNL A   1      40.784  26.277  34.721  1.00  0.00    -0.203 F 
ATOM     94  C   UNL A   1      42.418  24.726  35.301  1.00  0.00     0.198 A 
ATOM     95  C   UNL A   1      44.731  25.246  35.100  1.00  0.00     0.198 A 
ATOM     96  F   UNL A   1      45.434  27.381  34.523  1.00  0.00    -0.203 F 
ATOM     97  F   UNL A   1      41.443  23.840  35.552  1.00  0.00    -0.200 F 
ATOM     98  C   UNL A   1      43.739  24.331  35.383  1.00  0.00     0.200 A 
ATOM     99  F   UNL A   1      46.016  24.861  35.106  1.00  0.00    -0.200 F 
ATOM    100  F   UNL A   1      44.052  23.069  35.701  1.00  0.00    -0.200 F 
ENDBRANCH  67  90
ENDBRANCH  41  42
ENDBRANCH  34  36
ENDBRANCH  33  34
ENDBRANCH  32  33
ENDBRANCH  31  32
ENDBRANCH  30  31
ENDBRANCH  29  30
ENDBRANCH   1  29
TORSDOF 20
ENDMDL
MODEL 2
REMARK VINA RESULT:     -11.7      1.303      2.420
REMARK SMILES Cc1ccc(-c2c(C(=O)OCCOCCOCCOC(=O)c3ccc(-c4c5nc(c(-c6c(F)c(F)c(F)c(F)c6F)c6ccc([nH]6)c(-c6c(F)c(F)c(F)c(F)c6F)c6nc(c(-c7c(F)c(F)c(F)c(F)c7F)c7ccc4[nH]7)C=C6)C=C5)cc3)nnn2Cc2c(F)cccc2Cl)cc1
REMARK SMILES IDX 14 1 13 2 12 3 11 4 10 5 8 6 9 7 7 8 6 9 87 10 85 11 86 12
REMARK SMILES IDX 5 13 1 14 2 15 3 16 98 17 4 18 97 19 88 20 89 21 90 22 95 23
REMARK SMILES IDX 91 24 92 25 94 26 96 27 93 28 15 29 16 30 17 31 18 32 19 33
REMARK SMILES IDX 20 34 21 35 22 36 23 37 84 38 24 39 83 40 25 41 26 42 27 43
REMARK SMILES IDX 77 44 28 45 82 46 76 47 78 48 29 49 81 50 75 51 74 52 30 54
REMARK SMILES IDX 62 55 42 56 61 57 43 58 46 59 60 60 79 61 44 62 45 63 59 65
REMARK SMILES IDX 80 66 47 67 31 68 32 69 40 70 33 71 34 72 38 73 41 74 35 75
REMARK SMILES IDX 36 76 39 77 37 78 63 79 64 80 72 81 65 82 66 83 70 84 73 85
REMARK SMILES IDX 67 86 68 87 71 88 69 89 48 90 49 91 57 92 50 93 51 94 55 95
REMARK SMILES IDX 58 96 52 97 53 98 56 99 54 100
REMARK H PARENT 78 53 46 64
REMARK Flexibility Score: inf
ROOT
ATOM      1  C   UNL A   1      33.567  32.500  27.983  1.00  0.00     0.188 C 
ENDROOT
BRANCH   1   2
ATOM      2  O   UNL A   1      33.563  31.236  27.330  1.00  0.00    -0.376 OA
BRANCH   2   3
ATOM      3  C   UNL A   1      34.609  30.284  27.470  1.00  0.00     0.202 C 
BRANCH   3   4
ATOM      4  C   UNL A   1      34.142  28.884  26.962  1.00  0.00     0.261 C 
BRANCH   4   5
ATOM      5  O   UNL A   1      33.410  28.885  25.684  1.00  0.00    -0.458 OA
BRANCH   5   6
ATOM      6  C   UNL A   1      32.036  28.779  25.831  1.00  0.00     0.361 C 
ATOM      7  O   UNL A   1      31.314  29.766  25.862  1.00  0.00    -0.244 OA
BRANCH   6   8
ATOM      8  C   UNL A   1      31.431  27.443  25.984  1.00  0.00     0.198 A 
ATOM      9  C   UNL A   1      30.818  26.768  24.933  1.00  0.00     0.104 A 
ATOM     10  N   UNL A   1      30.916  25.446  25.272  1.00  0.00    -0.239 N 
ATOM     11  N   UNL A   1      31.695  26.530  26.977  1.00  0.00    -0.122 NA
ATOM     12  N   UNL A   1      31.323  25.323  26.555  1.00  0.00    -0.066 NA
BRANCH   9  13
ATOM     13  C   UNL A   1      30.338  27.372  23.709  1.00  0.00     0.002 A 
ATOM     14  C   UNL A   1      29.098  30.890  21.653  1.00  0.00     0.044 C 
ATOM     15  C   UNL A   1      29.490  29.566  22.232  1.00  0.00    -0.051 A 
ATOM     16  C   UNL A   1      30.835  29.192  22.219  1.00  0.00     0.004 A 
ATOM     17  C   UNL A   1      28.551  28.742  22.862  1.00  0.00     0.004 A 
ATOM     18  C   UNL A   1      31.253  28.067  22.917  1.00  0.00     0.011 A 
ATOM     19  C   UNL A   1      28.974  27.645  23.609  1.00  0.00     0.011 A 
ENDBRANCH   9  13
BRANCH  10  20
ATOM     20  C   UNL A   1      30.730  24.253  24.450  1.00  0.00     0.187 C 
BRANCH  20  21
ATOM     21  C   UNL A   1      31.912  23.310  24.467  1.00  0.00     0.028 A 
ATOM     22  C   UNL A   1      31.812  22.113  25.186  1.00  0.00     0.129 A 
ATOM     23  C   UNL A   1      33.124  23.562  23.806  1.00  0.00     0.049 A 
ATOM     24  F   UNL A   1      30.696  21.847  25.880  1.00  0.00    -0.207 F 
ATOM     25  C   UNL A   1      32.845  21.176  25.215  1.00  0.00     0.040 A 
ATOM     26  C   UNL A   1      34.160  22.616  23.813  1.00  0.00     0.021 A 
ATOM     27  Cl  UNL A   1      33.428  25.047  22.985  1.00  0.00    -0.084 Cl
ATOM     28  C   UNL A   1      34.019  21.420  24.513  1.00  0.00     0.005 A 
ENDBRANCH  20  21
ENDBRANCH  10  20
ENDBRANCH   6   8
ENDBRANCH   5   6
ENDBRANCH   4   5
ENDBRANCH   3   4
ENDBRANCH   2   3
ENDBRANCH   1   2
BRANCH   1  29
ATOM     29  C   UNL A   1      34.874  33.260  28.277  1.00  0.00     0.188 C 
BRANCH  29  30
ATOM     30  O   UNL A   1      34.649  34.630  28.549  1.00  0.00    -0.376 OA
BRANCH  30  31
ATOM     31  C   UNL A   1      33.343  34.969  29.006  1.00  0.00     0.202 C 
BRANCH  31  32
ATOM     32  C   UNL A   1      33.376  35.619  30.399  1.00  0.00     0.261 C 
BRANCH  32  33
ATOM     33  O   UNL A   1      33.150  34.609  31.403  1.00  0.00    -0.460 OA
BRANCH  33  34
ATOM     34  C   UNL A   1      33.750  34.833  32.609  1.00  0.00     0.338 C 
ATOM     35  O   UNL A   1      33.651  35.858  33.256  1.00  0.00    -0.246 OA
BRANCH  34  36
ATOM     36  C   UNL A   1      34.731  33.744  32.904  1.00  0.00     0.060 A 
ATOM     37  C   UNL A   1      35.443  33.650  34.112  1.00  0.00     0.016 A 
ATOM     38  C   UNL A   1      35.123  32.922  31.871  1.00  0.00     0.016 A 
ATOM     39  C   UNL A   1      36.609  32.835  34.212  1.00  0.00     0.010 A 
ATOM     40  C   UNL A   1      36.301  32.207  31.981  1.00  0.00     0.010 A 
ATOM     41  C   UNL A   1      37.104  32.171  33.097  1.00  0.00    -0.014 A 
BRANCH  41  42
ATOM     42  C   UNL A   1      38.442  31.613  32.774  1.00  0.00     0.031 A 
ATOM     43  C   UNL A   1      38.616  30.340  32.013  1.00  0.00     0.074 A 
ATOM     44  C   UNL A   1      39.513  32.432  32.828  1.00  0.00     0.049 A 
ATOM     45  N   UNL A   1      39.281  30.182  30.904  1.00  0.00    -0.248 NA
ATOM     46  C   UNL A   1      38.054  29.104  32.553  1.00  0.00     0.031 C 
ATOM     47  C   UNL A   1      40.846  32.213  32.268  1.00  0.00     0.029 A 
ATOM     48  N   UNL A   1      39.683  33.524  33.688  1.00  0.00    -0.354 N 
ATOM     49  C   UNL A   1      39.273  28.834  30.587  1.00  0.00     0.074 A 
ATOM     50  C   UNL A   1      38.471  28.213  31.649  1.00  0.00     0.031 C 
ATOM     51  C   UNL A   1      41.739  32.823  33.064  1.00  0.00     0.029 A 
ATOM     52  C   UNL A   1      40.993  33.349  34.194  1.00  0.00     0.049 A 
ATOM     53  H   UNL A   1      39.043  34.244  33.891  1.00  0.00     0.167 HD
ATOM     54  C   UNL A   1      40.415  28.202  30.190  1.00  0.00     0.037 A 
ATOM     55  C   UNL A   1      41.144  32.959  35.493  1.00  0.00     0.037 A 
ATOM     56  C   UNL A   1      41.567  28.540  30.984  1.00  0.00     0.049 A 
ATOM     57  C   UNL A   1      41.802  31.605  35.654  1.00  0.00     0.074 A 
ATOM     58  C   UNL A   1      42.710  29.294  30.799  1.00  0.00     0.029 A 
ATOM     59  N   UNL A   1      41.555  28.156  32.311  1.00  0.00    -0.354 N 
ATOM     60  N   UNL A   1      41.948  30.731  34.695  1.00  0.00    -0.248 NA
ATOM     61  C   UNL A   1      42.322  31.119  36.927  1.00  0.00     0.031 C 
ATOM     62  C   UNL A   1      43.348  29.421  32.063  1.00  0.00     0.029 A 
ATOM     63  C   UNL A   1      42.599  28.723  32.995  1.00  0.00     0.049 A 
ATOM     64  H   UNL A   1      40.885  27.555  32.712  1.00  0.00     0.167 HD
ATOM     65  C   UNL A   1      42.524  29.591  35.197  1.00  0.00     0.074 A 
ATOM     66  C   UNL A   1      42.762  29.894  36.592  1.00  0.00     0.031 C 
ATOM     67  C   UNL A   1      42.729  28.486  34.420  1.00  0.00     0.037 A 
BRANCH  54  68
ATOM     68  C   UNL A   1      40.414  27.478  28.870  1.00  0.00     0.064 A 
ATOM     69  C   UNL A   1      41.122  27.952  27.747  1.00  0.00     0.173 A 
ATOM     70  C   UNL A   1      39.709  26.272  28.674  1.00  0.00     0.173 A 
ATOM     71  F   UNL A   1      41.855  29.073  27.807  1.00  0.00    -0.203 F 
ATOM     72  C   UNL A   1      41.104  27.284  26.517  1.00  0.00     0.198 A 
ATOM     73  C   UNL A   1      39.685  25.610  27.444  1.00  0.00     0.198 A 
ATOM     74  F   UNL A   1      39.051  25.689  29.685  1.00  0.00    -0.203 F 
ATOM     75  F   UNL A   1      41.796  27.773  25.479  1.00  0.00    -0.200 F 
ATOM     76  C   UNL A   1      40.380  26.116  26.364  1.00  0.00     0.200 A 
ATOM     77  F   UNL A   1      38.996  24.468  27.312  1.00  0.00    -0.200 F 
ATOM     78  F   UNL A   1      40.367  25.473  25.189  1.00  0.00    -0.200 F 
ENDBRANCH  54  68
BRANCH  55  79
ATOM     79  C   UNL A   1      40.085  33.533  36.381  1.00  0.00     0.064 A 
ATOM     80  C   UNL A   1      39.073  32.664  36.849  1.00  0.00     0.173 A 
ATOM     81  C   UNL A   1      40.232  34.754  37.046  1.00  0.00     0.173 A 
ATOM     82  F   UNL A   1      38.885  31.473  36.255  1.00  0.00    -0.203 F 
ATOM     83  C   UNL A   1      38.342  32.941  38.001  1.00  0.00     0.198 A 
ATOM     84  C   UNL A   1      39.457  35.052  38.175  1.00  0.00     0.198 A 
ATOM     85  F   UNL A   1      41.201  35.611  36.693  1.00  0.00    -0.203 F 
ATOM     86  F   UNL A   1      37.494  32.026  38.492  1.00  0.00    -0.200 F 
ATOM     87  C   UNL A   1      38.549  34.130  38.677  1.00  0.00     0.200 A 
ATOM     88  F   UNL A   1      39.681  36.187  38.853  1.00  0.00    -0.200 F 
ATOM     89  F   UNL A   1      37.912  34.368  39.831  1.00  0.00    -0.200 F 
ENDBRANCH  55  79
BRANCH  67  90
ATOM     90  C   UNL A   1      43.091  27.096  34.904  1.00  0.00     0.064 A 
ATOM     91  C   UNL A   1      42.157  26.065  35.097  1.00  0.00     0.173 A 
ATOM     92  C   UNL A   1      44.449  26.709  35.043  1.00  0.00     0.173 A 
ATOM     93  F   UNL A   1      40.855  26.248  34.844  1.00  0.00    -0.203 F 
ATOM     94  C   UNL A   1      42.539  24.777  35.489  1.00  0.00     0.198 A 
ATOM     95  C   UNL A   1      44.830  25.408  35.375  1.00  0.00     0.198 A 
ATOM     96  F   UNL A   1      45.450  27.575  34.822  1.00  0.00    -0.203 F 
ATOM     97  F   UNL A   1      41.599  23.846  35.704  1.00  0.00    -0.200 F 
ATOM     98  C   UNL A   1      43.873  24.447  35.622  1.00  0.00     0.200 A 
ATOM     99  F   UNL A   1      46.130  25.086  35.431  1.00  0.00    -0.200 F 
ATOM    100  F   UNL A   1      44.234  23.201  35.954  1.00  0.00    -0.200 F 
ENDBRANCH  67  90
ENDBRANCH  41  42
ENDBRANCH  34  36
ENDBRANCH  33  34
ENDBRANCH  32  33
ENDBRANCH  31  32
ENDBRANCH  30  31
ENDBRANCH  29  30
ENDBRANCH   1  29
TORSDOF 20
ENDMDL
MODEL 3
REMARK VINA RESULT:     -11.0      4.348      6.920
REMARK SMILES Cc1ccc(-c2c(C(=O)OCCOCCOCCOC(=O)c3ccc(-c4c5nc(c(-c6c(F)c(F)c(F)c(F)c6F)c6ccc([nH]6)c(-c6c(F)c(F)c(F)c(F)c6F)c6nc(c(-c7c(F)c(F)c(F)c(F)c7F)c7ccc4[nH]7)C=C6)C=C5)cc3)nnn2Cc2c(F)cccc2Cl)cc1
REMARK SMILES IDX 14 1 13 2 12 3 11 4 10 5 8 6 9 7 7 8 6 9 87 10 85 11 86 12
REMARK SMILES IDX 5 13 1 14 2 15 3 16 98 17 4 18 97 19 88 20 89 21 90 22 95 23
REMARK SMILES IDX 91 24 92 25 94 26 96 27 93 28 15 29 16 30 17 31 18 32 19 33
REMARK SMILES IDX 20 34 21 35 22 36 23 37 84 38 24 39 83 40 25 41 26 42 27 43
REMARK SMILES IDX 77 44 28 45 82 46 76 47 78 48 29 49 81 50 75 51 74 52 30 54
REMARK SMILES IDX 62 55 42 56 61 57 43 58 46 59 60 60 79 61 44 62 45 63 59 65
REMARK SMILES IDX 80 66 47 67 31 68 32 69 40 70 33 71 34 72 38 73 41 74 35 75
REMARK SMILES IDX 36 76 39 77 37 78 63 79 64 80 72 81 65 82 66 83 70 84 73 85
REMARK SMILES IDX 67 86 68 87 71 88 69 89 48 90 49 91 57 92 50 93 51 94 55 95
REMARK SMILES IDX 58 96 52 97 53 98 56 99 54 100
REMARK H PARENT 78 53 46 64
REMARK Flexibility Score: inf
ROOT
ATOM      1  C   UNL A   1      35.007  33.333  29.419  1.00  0.00     0.188 C 
ENDROOT
BRANCH   1   2
ATOM      2  O   UNL A   1      34.503  32.891  28.163  1.00  0.00    -0.376 OA
BRANCH   2   3
ATOM      3  C   UNL A   1      34.649  31.557  27.692  1.00  0.00     0.202 C 
BRANCH   3   4
ATOM      4  C   UNL A   1      33.251  30.879  27.540  1.00  0.00     0.261 C 
BRANCH   4   5
ATOM      5  O   UNL A   1      32.982  30.271  26.226  1.00  0.00    -0.458 OA
BRANCH   5   6
ATOM      6  C   UNL A   1      31.987  29.306  26.253  1.00  0.00     0.361 C 
ATOM      7  O   UNL A   1      31.417  29.000  27.291  1.00  0.00    -0.244 OA
BRANCH   6   8
ATOM      8  C   UNL A   1      31.629  28.607  25.006  1.00  0.00     0.198 A 
ATOM      9  C   UNL A   1      31.746  27.229  24.853  1.00  0.00     0.104 A 
ATOM     10  N   UNL A   1      30.835  26.914  23.883  1.00  0.00    -0.239 N 
ATOM     11  N   UNL A   1      30.806  29.075  24.009  1.00  0.00    -0.122 NA
ATOM     12  N   UNL A   1      30.374  28.039  23.293  1.00  0.00    -0.066 NA
BRANCH   9  13
ATOM     13  C   UNL A   1      32.559  26.357  25.672  1.00  0.00     0.002 A 
ATOM     14  C   UNL A   1      34.193  22.475  26.310  1.00  0.00     0.044 C 
ATOM     15  C   UNL A   1      33.689  23.884  26.239  1.00  0.00    -0.051 A 
ATOM     16  C   UNL A   1      34.399  24.821  25.486  1.00  0.00     0.004 A 
ATOM     17  C   UNL A   1      32.479  24.252  26.836  1.00  0.00     0.004 A 
ATOM     18  C   UNL A   1      33.857  26.075  25.242  1.00  0.00     0.011 A 
ATOM     19  C   UNL A   1      31.906  25.490  26.548  1.00  0.00     0.011 A 
ENDBRANCH   9  13
BRANCH  10  20
ATOM     20  C   UNL A   1      30.286  25.615  23.502  1.00  0.00     0.187 C 
BRANCH  20  21
ATOM     21  C   UNL A   1      31.336  24.602  23.106  1.00  0.00     0.028 A 
ATOM     22  C   UNL A   1      31.292  23.324  23.679  1.00  0.00     0.129 A 
ATOM     23  C   UNL A   1      32.371  24.861  22.196  1.00  0.00     0.049 A 
ATOM     24  F   UNL A   1      30.356  23.040  24.595  1.00  0.00    -0.207 F 
ATOM     25  C   UNL A   1      32.202  22.325  23.334  1.00  0.00     0.040 A 
ATOM     26  C   UNL A   1      33.278  23.856  21.827  1.00  0.00     0.021 A 
ATOM     27  Cl  UNL A   1      32.615  26.423  21.508  1.00  0.00    -0.084 Cl
ATOM     28  C   UNL A   1      33.190  22.585  22.392  1.00  0.00     0.005 A 
ENDBRANCH  20  21
ENDBRANCH  10  20
ENDBRANCH   6   8
ENDBRANCH   5   6
ENDBRANCH   4   5
ENDBRANCH   3   4
ENDBRANCH   2   3
ENDBRANCH   1   2
BRANCH   1  29
ATOM     29  C   UNL A   1      35.395  32.345  30.534  1.00  0.00     0.188 C 
BRANCH  29  30
ATOM     30  O   UNL A   1      36.114  32.970  31.579  1.00  0.00    -0.376 OA
BRANCH  30  31
ATOM     31  C   UNL A   1      36.330  32.182  32.746  1.00  0.00     0.202 C 
BRANCH  31  32
ATOM     32  C   UNL A   1      36.836  30.773  32.398  1.00  0.00     0.261 C 
BRANCH  32  33
ATOM     33  O   UNL A   1      38.278  30.767  32.416  1.00  0.00    -0.460 OA
BRANCH  33  34
ATOM     34  C   UNL A   1      38.852  29.945  33.343  1.00  0.00     0.338 C 
ATOM     35  O   UNL A   1      38.714  30.050  34.547  1.00  0.00    -0.246 OA
BRANCH  34  36
ATOM     36  C   UNL A   1      39.862  29.058  32.688  1.00  0.00     0.060 A 
ATOM     37  C   UNL A   1      41.249  29.232  32.823  1.00  0.00     0.016 A 
ATOM     38  C   UNL A   1      39.424  28.167  31.734  1.00  0.00     0.016 A 
ATOM     39  C   UNL A   1      42.155  28.612  31.913  1.00  0.00     0.010 A 
ATOM     40  C   UNL A   1      40.325  27.647  30.823  1.00  0.00     0.010 A 
ATOM     41  C   UNL A   1      41.681  27.879  30.833  1.00  0.00    -0.014 A 
BRANCH  41  42
ATOM     42  C   UNL A   1      42.300  27.477  29.544  1.00  0.00     0.031 A 
ATOM     43  C   UNL A   1      42.728  26.075  29.263  1.00  0.00     0.074 A 
ATOM     44  C   UNL A   1      42.137  28.282  28.473  1.00  0.00     0.049 A 
ATOM     45  N   UNL A   1      42.336  25.326  28.273  1.00  0.00    -0.248 NA
ATOM     46  C   UNL A   1      43.732  25.451  30.123  1.00  0.00     0.031 C 
ATOM     47  C   UNL A   1      42.369  27.966  27.063  1.00  0.00     0.029 A 
ATOM     48  N   UNL A   1      42.012  29.676  28.489  1.00  0.00    -0.354 N 
ATOM     49  C   UNL A   1      43.043  24.136  28.328  1.00  0.00     0.074 A 
ATOM     50  C   UNL A   1      43.889  24.268  29.521  1.00  0.00     0.031 C 
ATOM     51  C   UNL A   1      42.772  29.087  26.445  1.00  0.00     0.029 A 
ATOM     52  C   UNL A   1      42.901  30.103  27.474  1.00  0.00     0.049 A 
ATOM     53  H   UNL A   1      41.440  30.229  29.070  1.00  0.00     0.167 HD
ATOM     54  C   UNL A   1      43.597  23.600  27.202  1.00  0.00     0.037 A 
ATOM     55  C   UNL A   1      44.063  30.717  27.841  1.00  0.00     0.037 A 
ATOM     56  C   UNL A   1      44.272  24.566  26.375  1.00  0.00     0.049 A 
ATOM     57  C   UNL A   1      45.310  29.953  27.447  1.00  0.00     0.074 A 
ATOM     58  C   UNL A   1      44.023  25.174  25.160  1.00  0.00     0.029 A 
ATOM     59  N   UNL A   1      45.394  25.175  26.902  1.00  0.00    -0.354 N 
ATOM     60  N   UNL A   1      45.328  28.702  27.076  1.00  0.00    -0.248 NA
ATOM     61  C   UNL A   1      46.645  30.540  27.473  1.00  0.00     0.031 C 
ATOM     62  C   UNL A   1      44.974  26.218  25.001  1.00  0.00     0.029 A 
ATOM     63  C   UNL A   1      45.804  26.215  26.108  1.00  0.00     0.049 A 
ATOM     64  H   UNL A   1      45.839  24.900  27.736  1.00  0.00     0.167 HD
ATOM     65  C   UNL A   1      46.624  28.307  26.854  1.00  0.00     0.074 A 
ATOM     66  C   UNL A   1      47.407  29.502  27.091  1.00  0.00     0.031 C 
ATOM     67  C   UNL A   1      46.939  27.021  26.520  1.00  0.00     0.037 A 
BRANCH  54  68
ATOM     68  C   UNL A   1      43.230  22.190  26.822  1.00  0.00     0.064 A 
ATOM     69  C   UNL A   1      42.144  21.508  27.409  1.00  0.00     0.173 A 
ATOM     70  C   UNL A   1      43.945  21.462  25.848  1.00  0.00     0.173 A 
ATOM     71  F   UNL A   1      41.366  22.095  28.328  1.00  0.00    -0.203 F 
ATOM     72  C   UNL A   1      41.817  20.191  27.064  1.00  0.00     0.198 A 
ATOM     73  C   UNL A   1      43.623  20.145  25.511  1.00  0.00     0.198 A 
ATOM     74  F   UNL A   1      44.957  22.027  25.175  1.00  0.00    -0.203 F 
ATOM     75  F   UNL A   1      40.773  19.586  27.648  1.00  0.00    -0.200 F 
ATOM     76  C   UNL A   1      42.560  19.508  26.120  1.00  0.00     0.200 A 
ATOM     77  F   UNL A   1      44.338  19.499  24.579  1.00  0.00    -0.200 F 
ATOM     78  F   UNL A   1      42.244  18.250  25.785  1.00  0.00    -0.200 F 
ENDBRANCH  54  68
BRANCH  55  79
ATOM     79  C   UNL A   1      43.897  31.555  29.069  1.00  0.00     0.064 A 
ATOM     80  C   UNL A   1      44.362  31.028  30.296  1.00  0.00     0.173 A 
ATOM     81  C   UNL A   1      43.643  32.929  29.023  1.00  0.00     0.173 A 
ATOM     82  F   UNL A   1      44.629  29.715  30.403  1.00  0.00    -0.203 F 
ATOM     83  C   UNL A   1      44.687  31.851  31.372  1.00  0.00     0.198 A 
ATOM     84  C   UNL A   1      43.922  33.746  30.126  1.00  0.00     0.198 A 
ATOM     85  F   UNL A   1      43.246  33.511  27.882  1.00  0.00    -0.203 F 
ATOM     86  F   UNL A   1      45.261  31.328  32.465  1.00  0.00    -0.200 F 
ATOM     87  C   UNL A   1      44.484  33.215  31.279  1.00  0.00     0.200 A 
ATOM     88  F   UNL A   1      43.761  35.074  30.027  1.00  0.00    -0.200 F 
ATOM     89  F   UNL A   1      44.872  34.022  32.276  1.00  0.00    -0.200 F 
ENDBRANCH  55  79
BRANCH  67  90
ATOM     90  C   UNL A   1      48.320  26.399  26.520  1.00  0.00     0.064 A 
ATOM     91  C   UNL A   1      49.265  26.587  25.498  1.00  0.00     0.173 A 
ATOM     92  C   UNL A   1      48.798  25.698  27.658  1.00  0.00     0.173 A 
ATOM     93  F   UNL A   1      49.001  27.363  24.439  1.00  0.00    -0.203 F 
ATOM     94  C   UNL A   1      50.553  26.042  25.563  1.00  0.00     0.198 A 
ATOM     95  C   UNL A   1      50.102  25.208  27.746  1.00  0.00     0.198 A 
ATOM     96  F   UNL A   1      48.024  25.504  28.737  1.00  0.00    -0.203 F 
ATOM     97  F   UNL A   1      51.397  26.216  24.537  1.00  0.00    -0.200 F 
ATOM     98  C   UNL A   1      50.973  25.359  26.688  1.00  0.00     0.200 A 
ATOM     99  F   UNL A   1      50.516  24.610  28.872  1.00  0.00    -0.200 F 
ATOM    100  F   UNL A   1      52.220  24.878  26.763  1.00  0.00    -0.200 F 
ENDBRANCH  67  90
ENDBRANCH  41  42
ENDBRANCH  34  36
ENDBRANCH  33  34
ENDBRANCH  32  33
ENDBRANCH  31  32
ENDBRANCH  30  31
ENDBRANCH  29  30
ENDBRANCH   1  29
TORSDOF 20
ENDMDL
