MODEL 1
REMARK VINA RESULT:     -11.3      0.000      0.000
REMARK SMILES [NH3+][C@H]1C=C[C@H](C(=O)N2CCCc3c(C(=O)OCCOCCOCCOC(=O)c4ccc(-c5c6nc(c(-c7c(F)c(F)c(F)c(F)c7F)c7ccc([nH]7)c(-c7c(F)c(F)c(F)c(F)c7F)c7nc(c(-c8c(F)c(F)c(F)c(F)c8F)c8ccc5[nH]8)C=C7)C=C6)cc4)cccc32)C1
REMARK SMILES IDX 20 1 19 2 18 3 17 4 16 5 14 6 15 7 13 8 8 9 9 10 94 11 10 12
REMARK SMILES IDX 12 13 93 14 11 15 92 16 91 17 6 18 7 19 5 20 2 21 3 22 95 23
REMARK SMILES IDX 4 24 1 25 21 29 22 30 23 31 24 32 25 33 26 34 27 35 28 36
REMARK SMILES IDX 29 37 90 38 30 39 89 40 31 41 32 42 33 43 83 44 34 45 88 46
REMARK SMILES IDX 82 47 84 48 35 49 87 50 81 51 80 52 36 54 68 55 48 56 67 57
REMARK SMILES IDX 49 58 52 59 66 60 85 61 50 62 51 63 65 65 86 66 53 67 37 68
REMARK SMILES IDX 38 69 46 70 39 71 40 72 44 73 47 74 41 75 42 76 45 77 43 78
REMARK SMILES IDX 69 79 70 80 78 81 71 82 72 83 76 84 79 85 73 86 74 87 77 88
REMARK SMILES IDX 75 89 54 90 55 91 63 92 56 93 57 94 61 95 64 96 58 97 59 98
REMARK SMILES IDX 62 99 60 100
REMARK H PARENT 1 26 1 27 1 28 84 53 52 64
REMARK Flexibility Score: inf
ROOT
ATOM      1  C   UNL A   1      39.864  20.792  26.139  1.00  0.00     0.188 C 
ENDROOT
BRANCH   1   2
ATOM      2  O   UNL A   1      38.686  21.584  26.027  1.00  0.00    -0.376 OA
BRANCH   2   3
ATOM      3  C   UNL A   1      37.810  21.368  24.922  1.00  0.00     0.202 C 
BRANCH   3   4
ATOM      4  C   UNL A   1      36.299  21.468  25.158  1.00  0.00     0.261 C 
BRANCH   4   5
ATOM      5  O   UNL A   1      35.634  22.203  24.118  1.00  0.00    -0.460 OA
BRANCH   5   6
ATOM      6  C   UNL A   1      34.282  22.179  24.136  1.00  0.00     0.338 C 
ATOM      7  O   UNL A   1      33.577  21.350  24.688  1.00  0.00    -0.246 OA
BRANCH   6   8
ATOM      8  C   UNL A   1      33.734  23.437  23.564  1.00  0.00     0.065 A 
ATOM      9  N   UNL A   1      33.088  27.066  24.261  1.00  0.00    -0.312 N 
ATOM     10  C   UNL A   1      33.637  27.138  25.605  1.00  0.00     0.126 C 
ATOM     11  C   UNL A   1      33.098  25.788  23.605  1.00  0.00     0.048 A 
ATOM     12  C   UNL A   1      33.228  25.942  26.434  1.00  0.00     0.027 C 
ATOM     13  C   UNL A   1      33.517  24.627  24.299  1.00  0.00    -0.010 A 
ATOM     14  C   UNL A   1      32.780  25.694  22.238  1.00  0.00     0.027 A 
ATOM     15  C   UNL A   1      33.737  24.664  25.793  1.00  0.00     0.040 C 
ATOM     16  C   UNL A   1      32.933  24.498  21.540  1.00  0.00     0.003 A 
ATOM     17  C   UNL A   1      33.439  23.384  22.193  1.00  0.00     0.016 A 
BRANCH   9  18
ATOM     18  C   UNL A   1      32.511  28.192  23.670  1.00  0.00     0.234 C 
ATOM     19  O   UNL A   1      33.168  28.941  22.940  1.00  0.00    -0.274 OA
BRANCH  18  20
ATOM     20  C   UNL A   1      31.096  28.579  24.175  1.00  0.00     0.108 C 
ATOM     21  C   UNL A   1      29.382  26.983  23.496  1.00  0.00     0.205 C 
ATOM     22  C   UNL A   1      29.321  28.211  22.655  1.00  0.00     0.033 C 
ATOM     23  C   UNL A   1      30.169  27.485  24.713  1.00  0.00     0.087 C 
ATOM     24  C   UNL A   1      30.256  29.095  23.028  1.00  0.00    -0.012 C 
BRANCH  21  25
ATOM     25  N   UNL A   1      28.074  26.491  23.881  1.00  0.00    -0.352 N 
ATOM     26  H   UNL A   1      27.899  25.597  23.424  1.00  0.00     0.345 HD
ATOM     27  H   UNL A   1      27.361  27.163  23.598  1.00  0.00     0.345 HD
ATOM     28  H   UNL A   1      28.042  26.368  24.893  1.00  0.00     0.345 HD
ENDBRANCH  21  25
ENDBRANCH  18  20
ENDBRANCH   9  18
ENDBRANCH   6   8
ENDBRANCH   5   6
ENDBRANCH   4   5
ENDBRANCH   3   4
ENDBRANCH   2   3
ENDBRANCH   1   2
BRANCH   1  29
ATOM     29  C   UNL A   1      40.873  21.083  27.271  1.00  0.00     0.188 C 
BRANCH  29  30
ATOM     30  O   UNL A   1      42.150  20.521  27.095  1.00  0.00    -0.376 OA
BRANCH  30  31
ATOM     31  C   UNL A   1      42.781  20.545  25.827  1.00  0.00     0.202 C 
BRANCH  31  32
ATOM     32  C   UNL A   1      43.867  21.543  25.375  1.00  0.00     0.261 C 
BRANCH  32  33
ATOM     33  O   UNL A   1      44.026  22.754  26.115  1.00  0.00    -0.460 OA
BRANCH  33  34
ATOM     34  C   UNL A   1      43.903  23.900  25.405  1.00  0.00     0.338 C 
ATOM     35  O   UNL A   1      44.211  24.091  24.244  1.00  0.00    -0.246 OA
BRANCH  34  36
ATOM     36  C   UNL A   1      43.172  24.883  26.227  1.00  0.00     0.060 A 
ATOM     37  C   UNL A   1      43.720  26.162  26.383  1.00  0.00     0.016 A 
ATOM     38  C   UNL A   1      41.987  24.529  26.876  1.00  0.00     0.016 A 
ATOM     39  C   UNL A   1      43.105  27.081  27.234  1.00  0.00     0.010 A 
ATOM     40  C   UNL A   1      41.382  25.445  27.741  1.00  0.00     0.010 A 
ATOM     41  C   UNL A   1      41.962  26.709  27.954  1.00  0.00    -0.014 A 
BRANCH  41  42
ATOM     42  C   UNL A   1      41.508  27.551  29.087  1.00  0.00     0.031 A 
ATOM     43  C   UNL A   1      42.253  27.451  30.390  1.00  0.00     0.074 A 
ATOM     44  C   UNL A   1      40.475  28.400  28.962  1.00  0.00     0.049 A 
ATOM     45  N   UNL A   1      42.028  28.057  31.529  1.00  0.00    -0.248 NA
ATOM     46  C   UNL A   1      43.409  26.540  30.411  1.00  0.00     0.031 C 
ATOM     47  C   UNL A   1      39.696  28.613  27.745  1.00  0.00     0.029 A 
ATOM     48  N   UNL A   1      39.900  29.240  29.884  1.00  0.00    -0.354 N 
ATOM     49  C   UNL A   1      43.011  27.598  32.397  1.00  0.00     0.074 A 
ATOM     50  C   UNL A   1      43.812  26.640  31.667  1.00  0.00     0.031 C 
ATOM     51  C   UNL A   1      38.733  29.519  27.998  1.00  0.00     0.029 A 
ATOM     52  C   UNL A   1      38.814  29.927  29.401  1.00  0.00     0.049 A 
ATOM     53  H   UNL A   1      40.234  29.339  30.804  1.00  0.00     0.167 HD
ATOM     54  C   UNL A   1      43.231  27.949  33.686  1.00  0.00     0.037 A 
ATOM     55  C   UNL A   1      37.976  30.774  30.029  1.00  0.00     0.037 A 
ATOM     56  C   UNL A   1      42.431  28.897  34.415  1.00  0.00     0.049 A 
ATOM     57  C   UNL A   1      38.205  31.102  31.483  1.00  0.00     0.074 A 
ATOM     58  C   UNL A   1      42.575  29.322  35.724  1.00  0.00     0.029 A 
ATOM     59  N   UNL A   1      41.330  29.560  33.896  1.00  0.00    -0.354 N 
ATOM     60  N   UNL A   1      39.149  30.684  32.292  1.00  0.00    -0.248 NA
ATOM     61  C   UNL A   1      37.254  32.032  32.109  1.00  0.00     0.031 C 
ATOM     62  C   UNL A   1      41.532  30.211  36.011  1.00  0.00     0.029 A 
ATOM     63  C   UNL A   1      40.774  30.381  34.864  1.00  0.00     0.049 A 
ATOM     64  H   UNL A   1      40.994  29.464  32.976  1.00  0.00     0.167 HD
ATOM     65  C   UNL A   1      38.928  31.327  33.504  1.00  0.00     0.074 A 
ATOM     66  C   UNL A   1      37.765  32.170  33.324  1.00  0.00     0.031 C 
ATOM     67  C   UNL A   1      39.626  31.229  34.663  1.00  0.00     0.037 A 
BRANCH  54  68
ATOM     68  C   UNL A   1      44.373  27.281  34.395  1.00  0.00     0.064 A 
ATOM     69  C   UNL A   1      45.653  27.853  34.432  1.00  0.00     0.173 A 
ATOM     70  C   UNL A   1      44.179  26.061  35.060  1.00  0.00     0.173 A 
ATOM     71  F   UNL A   1      45.895  29.011  33.797  1.00  0.00    -0.203 F 
ATOM     72  C   UNL A   1      46.704  27.213  35.084  1.00  0.00     0.198 A 
ATOM     73  C   UNL A   1      45.224  25.439  35.736  1.00  0.00     0.198 A 
ATOM     74  F   UNL A   1      42.973  25.473  35.055  1.00  0.00    -0.203 F 
ATOM     75  F   UNL A   1      47.931  27.752  35.064  1.00  0.00    -0.200 F 
ATOM     76  C   UNL A   1      46.487  26.011  35.741  1.00  0.00     0.200 A 
ATOM     77  F   UNL A   1      45.011  24.283  36.379  1.00  0.00    -0.200 F 
ATOM     78  F   UNL A   1      47.499  25.399  36.373  1.00  0.00    -0.200 F 
ENDBRANCH  54  68
BRANCH  55  79
ATOM     79  C   UNL A   1      36.834  31.376  29.292  1.00  0.00     0.064 A 
ATOM     80  C   UNL A   1      36.838  32.732  28.935  1.00  0.00     0.173 A 
ATOM     81  C   UNL A   1      35.703  30.618  28.958  1.00  0.00     0.173 A 
ATOM     82  F   UNL A   1      37.885  33.506  29.257  1.00  0.00    -0.203 F 
ATOM     83  C   UNL A   1      35.744  33.312  28.295  1.00  0.00     0.198 A 
ATOM     84  C   UNL A   1      34.622  31.191  28.292  1.00  0.00     0.198 A 
ATOM     85  F   UNL A   1      35.648  29.317  29.280  1.00  0.00    -0.203 F 
ATOM     86  F   UNL A   1      35.752  34.623  28.015  1.00  0.00    -0.200 F 
ATOM     87  C   UNL A   1      34.640  32.540  27.969  1.00  0.00     0.200 A 
ATOM     88  F   UNL A   1      33.559  30.440  27.973  1.00  0.00    -0.200 F 
ATOM     89  F   UNL A   1      33.586  33.098  27.356  1.00  0.00    -0.200 F 
ENDBRANCH  55  79
BRANCH  67  90
ATOM     90  C   UNL A   1      39.190  32.098  35.809  1.00  0.00     0.064 A 
ATOM     91  C   UNL A   1      39.652  33.413  35.960  1.00  0.00     0.173 A 
ATOM     92  C   UNL A   1      38.269  31.614  36.751  1.00  0.00     0.173 A 
ATOM     93  F   UNL A   1      40.542  33.920  35.094  1.00  0.00    -0.203 F 
ATOM     94  C   UNL A   1      39.235  34.201  37.031  1.00  0.00     0.198 A 
ATOM     95  C   UNL A   1      37.830  32.415  37.802  1.00  0.00     0.198 A 
ATOM     96  F   UNL A   1      37.788  30.366  36.648  1.00  0.00    -0.203 F 
ATOM     97  F   UNL A   1      39.732  35.435  37.185  1.00  0.00    -0.200 F 
ATOM     98  C   UNL A   1      38.320  33.703  37.947  1.00  0.00     0.200 A 
ATOM     99  F   UNL A   1      36.933  31.937  38.677  1.00  0.00    -0.200 F 
ATOM    100  F   UNL A   1      37.917  34.463  38.974  1.00  0.00    -0.200 F 
ENDBRANCH  67  90
ENDBRANCH  41  42
ENDBRANCH  34  36
ENDBRANCH  33  34
ENDBRANCH  32  33
ENDBRANCH  31  32
ENDBRANCH  30  31
ENDBRANCH  29  30
ENDBRANCH   1  29
TORSDOF 20
ENDMDL
MODEL 2
REMARK VINA RESULT:     -11.3      5.024     10.502
REMARK SMILES [NH3+][C@H]1C=C[C@H](C(=O)N2CCCc3c(C(=O)OCCOCCOCCOC(=O)c4ccc(-c5c6nc(c(-c7c(F)c(F)c(F)c(F)c7F)c7ccc([nH]7)c(-c7c(F)c(F)c(F)c(F)c7F)c7nc(c(-c8c(F)c(F)c(F)c(F)c8F)c8ccc5[nH]8)C=C7)C=C6)cc4)cccc32)C1
REMARK SMILES IDX 20 1 19 2 18 3 17 4 16 5 14 6 15 7 13 8 8 9 9 10 94 11 10 12
REMARK SMILES IDX 12 13 93 14 11 15 92 16 91 17 6 18 7 19 5 20 2 21 3 22 95 23
REMARK SMILES IDX 4 24 1 25 21 29 22 30 23 31 24 32 25 33 26 34 27 35 28 36
REMARK SMILES IDX 29 37 90 38 30 39 89 40 31 41 32 42 33 43 83 44 34 45 88 46
REMARK SMILES IDX 82 47 84 48 35 49 87 50 81 51 80 52 36 54 68 55 48 56 67 57
REMARK SMILES IDX 49 58 52 59 66 60 85 61 50 62 51 63 65 65 86 66 53 67 37 68
REMARK SMILES IDX 38 69 46 70 39 71 40 72 44 73 47 74 41 75 42 76 45 77 43 78
REMARK SMILES IDX 69 79 70 80 78 81 71 82 72 83 76 84 79 85 73 86 74 87 77 88
REMARK SMILES IDX 75 89 54 90 55 91 63 92 56 93 57 94 61 95 64 96 58 97 59 98
REMARK SMILES IDX 62 99 60 100
REMARK H PARENT 1 26 1 27 1 28 84 53 52 64
REMARK Flexibility Score: inf
ROOT
ATOM      1  C   UNL A   1      35.455  32.934  28.499  1.00  0.00     0.188 C 
ENDROOT
BRANCH   1   2
ATOM      2  O   UNL A   1      34.558  32.324  27.579  1.00  0.00    -0.376 OA
BRANCH   2   3
ATOM      3  C   UNL A   1      34.327  30.918  27.666  1.00  0.00     0.202 C 
BRANCH   3   4
ATOM      4  C   UNL A   1      33.053  30.347  27.035  1.00  0.00     0.261 C 
BRANCH   4   5
ATOM      5  O   UNL A   1      33.204  30.109  25.626  1.00  0.00    -0.460 OA
BRANCH   5   6
ATOM      6  C   UNL A   1      32.183  29.468  25.013  1.00  0.00     0.338 C 
ATOM      7  O   UNL A   1      31.019  29.830  24.969  1.00  0.00    -0.246 OA
BRANCH   6   8
ATOM      8  C   UNL A   1      32.699  28.341  24.191  1.00  0.00     0.065 A 
ATOM      9  N   UNL A   1      32.773  24.605  23.858  1.00  0.00    -0.312 N 
ATOM     10  C   UNL A   1      31.943  24.261  25.002  1.00  0.00     0.126 C 
ATOM     11  C   UNL A   1      33.046  25.996  23.628  1.00  0.00     0.048 A 
ATOM     12  C   UNL A   1      32.295  25.097  26.211  1.00  0.00     0.027 C 
ATOM     13  C   UNL A   1      32.619  26.976  24.557  1.00  0.00    -0.010 A 
ATOM     14  C   UNL A   1      33.659  26.407  22.430  1.00  0.00     0.027 A 
ATOM     15  C   UNL A   1      32.081  26.569  25.909  1.00  0.00     0.040 C 
ATOM     16  C   UNL A   1      33.792  27.756  22.111  1.00  0.00     0.003 A 
ATOM     17  C   UNL A   1      33.285  28.717  22.973  1.00  0.00     0.016 A 
BRANCH   9  18
ATOM     18  C   UNL A   1      33.334  23.603  23.063  1.00  0.00     0.234 C 
ATOM     19  O   UNL A   1      32.669  23.019  22.202  1.00  0.00    -0.274 OA
BRANCH  18  20
ATOM     20  C   UNL A   1      34.740  23.103  23.486  1.00  0.00     0.108 C 
ATOM     21  C   UNL A   1      34.823  22.373  25.811  1.00  0.00     0.205 C 
ATOM     22  C   UNL A   1      35.444  23.718  25.659  1.00  0.00     0.033 C 
ATOM     23  C   UNL A   1      34.857  21.856  24.367  1.00  0.00     0.087 C 
ATOM     24  C   UNL A   1      35.408  24.122  24.383  1.00  0.00    -0.012 C 
BRANCH  21  25
ATOM     25  N   UNL A   1      35.565  21.501  26.700  1.00  0.00    -0.352 N 
ATOM     26  H   UNL A   1      34.998  20.683  26.925  1.00  0.00     0.345 HD
ATOM     27  H   UNL A   1      35.792  22.003  27.558  1.00  0.00     0.345 HD
ATOM     28  H   UNL A   1      36.426  21.202  26.242  1.00  0.00     0.345 HD
ENDBRANCH  21  25
ENDBRANCH  18  20
ENDBRANCH   9  18
ENDBRANCH   6   8
ENDBRANCH   5   6
ENDBRANCH   4   5
ENDBRANCH   3   4
ENDBRANCH   2   3
ENDBRANCH   1   2
BRANCH   1  29
ATOM     29  C   UNL A   1      35.024  34.213  29.251  1.00  0.00     0.188 C 
BRANCH  29  30
ATOM     30  O   UNL A   1      35.574  34.366  30.536  1.00  0.00    -0.376 OA
BRANCH  30  31
ATOM     31  C   UNL A   1      34.736  34.502  31.670  1.00  0.00     0.202 C 
BRANCH  31  32
ATOM     32  C   UNL A   1      34.357  33.378  32.655  1.00  0.00     0.261 C 
BRANCH  32  33
ATOM     33  O   UNL A   1      35.039  32.128  32.554  1.00  0.00    -0.460 OA
BRANCH  33  34
ATOM     34  C   UNL A   1      36.217  32.043  33.217  1.00  0.00     0.338 C 
ATOM     35  O   UNL A   1      36.468  32.437  34.339  1.00  0.00    -0.246 OA
BRANCH  34  36
ATOM     36  C   UNL A   1      37.150  31.236  32.408  1.00  0.00     0.060 A 
ATOM     37  C   UNL A   1      38.204  30.583  33.059  1.00  0.00     0.016 A 
ATOM     38  C   UNL A   1      37.015  31.165  31.020  1.00  0.00     0.016 A 
ATOM     39  C   UNL A   1      39.160  29.894  32.313  1.00  0.00     0.010 A 
ATOM     40  C   UNL A   1      37.983  30.489  30.273  1.00  0.00     0.010 A 
ATOM     41  C   UNL A   1      39.080  29.886  30.914  1.00  0.00    -0.014 A 
BRANCH  41  42
ATOM     42  C   UNL A   1      40.252  29.446  30.119  1.00  0.00     0.031 A 
ATOM     43  C   UNL A   1      41.365  30.432  29.889  1.00  0.00     0.074 A 
ATOM     44  C   UNL A   1      40.342  28.199  29.630  1.00  0.00     0.049 A 
ATOM     45  N   UNL A   1      42.472  30.297  29.203  1.00  0.00    -0.248 NA
ATOM     46  C   UNL A   1      41.204  31.754  30.517  1.00  0.00     0.031 C 
ATOM     47  C   UNL A   1      39.350  27.143  29.814  1.00  0.00     0.029 A 
ATOM     48  N   UNL A   1      41.323  27.613  28.868  1.00  0.00    -0.354 N 
ATOM     49  C   UNL A   1      43.134  31.513  29.316  1.00  0.00     0.074 A 
ATOM     50  C   UNL A   1      42.292  32.384  30.106  1.00  0.00     0.031 C 
ATOM     51  C   UNL A   1      39.767  26.038  29.170  1.00  0.00     0.029 A 
ATOM     52  C   UNL A   1      41.041  26.319  28.509  1.00  0.00     0.049 A 
ATOM     53  H   UNL A   1      42.150  28.078  28.604  1.00  0.00     0.167 HD
ATOM     54  C   UNL A   1      44.339  31.869  28.814  1.00  0.00     0.037 A 
ATOM     55  C   UNL A   1      41.729  25.469  27.722  1.00  0.00     0.037 A 
ATOM     56  C   UNL A   1      45.174  31.006  28.023  1.00  0.00     0.049 A 
ATOM     57  C   UNL A   1      43.041  25.910  27.122  1.00  0.00     0.074 A 
ATOM     58  C   UNL A   1      46.415  31.272  27.470  1.00  0.00     0.029 A 
ATOM     59  N   UNL A   1      44.847  29.706  27.666  1.00  0.00    -0.354 N 
ATOM     60  N   UNL A   1      43.673  27.052  27.252  1.00  0.00    -0.248 NA
ATOM     61  C   UNL A   1      43.741  24.936  26.272  1.00  0.00     0.031 C 
ATOM     62  C   UNL A   1      46.818  30.148  26.739  1.00  0.00     0.029 A 
ATOM     63  C   UNL A   1      45.855  29.162  26.886  1.00  0.00     0.049 A 
ATOM     64  H   UNL A   1      44.022  29.239  27.929  1.00  0.00     0.167 HD
ATOM     65  C   UNL A   1      44.856  26.920  26.534  1.00  0.00     0.074 A 
ATOM     66  C   UNL A   1      44.859  25.583  25.978  1.00  0.00     0.031 C 
ATOM     67  C   UNL A   1      45.852  27.823  26.354  1.00  0.00     0.037 A 
BRANCH  54  68
ATOM     68  C   UNL A   1      44.812  33.267  29.087  1.00  0.00     0.064 A 
ATOM     69  C   UNL A   1      45.628  33.567  30.188  1.00  0.00     0.173 A 
ATOM     70  C   UNL A   1      44.457  34.317  28.227  1.00  0.00     0.173 A 
ATOM     71  F   UNL A   1      45.982  32.602  31.050  1.00  0.00    -0.203 F 
ATOM     72  C   UNL A   1      46.047  34.873  30.433  1.00  0.00     0.198 A 
ATOM     73  C   UNL A   1      44.903  35.616  28.459  1.00  0.00     0.198 A 
ATOM     74  F   UNL A   1      43.679  34.083  27.159  1.00  0.00    -0.203 F 
ATOM     75  F   UNL A   1      46.784  35.145  31.519  1.00  0.00    -0.200 F 
ATOM     76  C   UNL A   1      45.691  35.893  29.565  1.00  0.00     0.200 A 
ATOM     77  F   UNL A   1      44.566  36.599  27.613  1.00  0.00    -0.200 F 
ATOM     78  F   UNL A   1      46.099  37.148  29.801  1.00  0.00    -0.200 F 
ENDBRANCH  54  68
BRANCH  55  79
ATOM     79  C   UNL A   1      41.196  24.109  27.448  1.00  0.00     0.064 A 
ATOM     80  C   UNL A   1      41.812  22.969  27.984  1.00  0.00     0.173 A 
ATOM     81  C   UNL A   1      40.081  23.919  26.618  1.00  0.00     0.173 A 
ATOM     82  F   UNL A   1      42.898  23.097  28.760  1.00  0.00    -0.203 F 
ATOM     83  C   UNL A   1      41.347  21.690  27.681  1.00  0.00     0.198 A 
ATOM     84  C   UNL A   1      39.600  22.642  26.340  1.00  0.00     0.198 A 
ATOM     85  F   UNL A   1      39.459  24.976  26.076  1.00  0.00    -0.203 F 
ATOM     86  F   UNL A   1      41.988  20.616  28.163  1.00  0.00    -0.200 F 
ATOM     87  C   UNL A   1      40.239  21.527  26.864  1.00  0.00     0.200 A 
ATOM     88  F   UNL A   1      38.525  22.489  25.555  1.00  0.00    -0.200 F 
ATOM     89  F   UNL A   1      39.795  20.297  26.571  1.00  0.00    -0.200 F 
ENDBRANCH  55  79
BRANCH  67  90
ATOM     90  C   UNL A   1      47.056  27.378  25.573  1.00  0.00     0.064 A 
ATOM     91  C   UNL A   1      47.213  27.683  24.214  1.00  0.00     0.173 A 
ATOM     92  C   UNL A   1      48.085  26.664  26.208  1.00  0.00     0.173 A 
ATOM     93  F   UNL A   1      46.254  28.353  23.558  1.00  0.00    -0.203 F 
ATOM     94  C   UNL A   1      48.338  27.261  23.510  1.00  0.00     0.198 A 
ATOM     95  C   UNL A   1      49.223  26.271  25.509  1.00  0.00     0.198 A 
ATOM     96  F   UNL A   1      47.990  26.355  27.510  1.00  0.00    -0.203 F 
ATOM     97  F   UNL A   1      48.440  27.516  22.198  1.00  0.00    -0.200 F 
ATOM     98  C   UNL A   1      49.344  26.561  24.159  1.00  0.00     0.200 A 
ATOM     99  F   UNL A   1      50.201  25.609  26.142  1.00  0.00    -0.200 F 
ATOM    100  F   UNL A   1      50.428  26.158  23.481  1.00  0.00    -0.200 F 
ENDBRANCH  67  90
ENDBRANCH  41  42
ENDBRANCH  34  36
ENDBRANCH  33  34
ENDBRANCH  32  33
ENDBRANCH  31  32
ENDBRANCH  30  31
ENDBRANCH  29  30
ENDBRANCH   1  29
TORSDOF 20
ENDMDL
MODEL 3
REMARK VINA RESULT:     -11.3      5.079     10.490
REMARK SMILES [NH3+][C@H]1C=C[C@H](C(=O)N2CCCc3c(C(=O)OCCOCCOCCOC(=O)c4ccc(-c5c6nc(c(-c7c(F)c(F)c(F)c(F)c7F)c7ccc([nH]7)c(-c7c(F)c(F)c(F)c(F)c7F)c7nc(c(-c8c(F)c(F)c(F)c(F)c8F)c8ccc5[nH]8)C=C7)C=C6)cc4)cccc32)C1
REMARK SMILES IDX 20 1 19 2 18 3 17 4 16 5 14 6 15 7 13 8 8 9 9 10 94 11 10 12
REMARK SMILES IDX 12 13 93 14 11 15 92 16 91 17 6 18 7 19 5 20 2 21 3 22 95 23
REMARK SMILES IDX 4 24 1 25 21 29 22 30 23 31 24 32 25 33 26 34 27 35 28 36
REMARK SMILES IDX 29 37 90 38 30 39 89 40 31 41 32 42 33 43 83 44 34 45 88 46
REMARK SMILES IDX 82 47 84 48 35 49 87 50 81 51 80 52 36 54 68 55 48 56 67 57
REMARK SMILES IDX 49 58 52 59 66 60 85 61 50 62 51 63 65 65 86 66 53 67 37 68
REMARK SMILES IDX 38 69 46 70 39 71 40 72 44 73 47 74 41 75 42 76 45 77 43 78
REMARK SMILES IDX 69 79 70 80 78 81 71 82 72 83 76 84 79 85 73 86 74 87 77 88
REMARK SMILES IDX 75 89 54 90 55 91 63 92 56 93 57 94 61 95 64 96 58 97 59 98
REMARK SMILES IDX 62 99 60 100
REMARK H PARENT 1 26 1 27 1 28 84 53 52 64
REMARK Flexibility Score: inf
ROOT
ATOM      1  C   UNL A   1      34.099  31.913  28.273  1.00  0.00     0.188 C 
ENDROOT
BRANCH   1   2
ATOM      2  O   UNL A   1      33.513  31.365  27.098  1.00  0.00    -0.376 OA
BRANCH   2   3
ATOM      3  C   UNL A   1      32.574  30.299  27.225  1.00  0.00     0.202 C 
BRANCH   3   4
ATOM      4  C   UNL A   1      31.933  29.734  25.952  1.00  0.00     0.261 C 
BRANCH   4   5
ATOM      5  O   UNL A   1      32.583  28.534  25.503  1.00  0.00    -0.460 OA
BRANCH   5   6
ATOM      6  C   UNL A   1      32.382  28.190  24.211  1.00  0.00     0.338 C 
ATOM      7  O   UNL A   1      32.673  28.853  23.229  1.00  0.00    -0.246 OA
BRANCH   6   8
ATOM      8  C   UNL A   1      31.943  26.773  24.114  1.00  0.00     0.065 A 
ATOM      9  N   UNL A   1      32.736  23.264  25.179  1.00  0.00    -0.312 N 
ATOM     10  C   UNL A   1      33.912  23.535  25.989  1.00  0.00     0.126 C 
ATOM     11  C   UNL A   1      32.109  24.377  24.521  1.00  0.00     0.048 A 
ATOM     12  C   UNL A   1      34.826  24.536  25.319  1.00  0.00     0.027 C 
ATOM     13  C   UNL A   1      32.696  25.665  24.571  1.00  0.00    -0.010 A 
ATOM     14  C   UNL A   1      30.857  24.216  23.901  1.00  0.00     0.027 A 
ATOM     15  C   UNL A   1      34.096  25.850  25.107  1.00  0.00     0.040 C 
ATOM     16  C   UNL A   1      30.154  25.307  23.395  1.00  0.00     0.003 A 
ATOM     17  C   UNL A   1      30.681  26.583  23.531  1.00  0.00     0.016 A 
BRANCH   9  18
ATOM     18  C   UNL A   1      32.287  21.954  24.999  1.00  0.00     0.234 C 
ATOM     19  O   UNL A   1      31.431  21.461  25.741  1.00  0.00    -0.274 OA
BRANCH  18  20
ATOM     20  C   UNL A   1      33.089  21.089  23.991  1.00  0.00     0.108 C 
ATOM     21  C   UNL A   1      32.267  18.798  23.849  1.00  0.00     0.205 C 
ATOM     22  C   UNL A   1      33.517  18.860  24.655  1.00  0.00     0.033 C 
ATOM     23  C   UNL A   1      32.337  20.120  23.074  1.00  0.00     0.087 C 
ATOM     24  C   UNL A   1      33.978  20.116  24.731  1.00  0.00    -0.012 C 
BRANCH  21  25
ATOM     25  N   UNL A   1      32.225  17.662  22.950  1.00  0.00    -0.352 N 
ATOM     26  H   UNL A   1      32.706  16.871  23.378  1.00  0.00     0.345 HD
ATOM     27  H   UNL A   1      32.683  17.905  22.072  1.00  0.00     0.345 HD
ATOM     28  H   UNL A   1      31.253  17.410  22.767  1.00  0.00     0.345 HD
ENDBRANCH  21  25
ENDBRANCH  18  20
ENDBRANCH   9  18
ENDBRANCH   6   8
ENDBRANCH   5   6
ENDBRANCH   4   5
ENDBRANCH   3   4
ENDBRANCH   2   3
ENDBRANCH   1   2
BRANCH   1  29
ATOM     29  C   UNL A   1      33.976  33.428  28.552  1.00  0.00     0.188 C 
BRANCH  29  30
ATOM     30  O   UNL A   1      34.987  33.971  29.364  1.00  0.00    -0.376 OA
BRANCH  30  31
ATOM     31  C   UNL A   1      34.681  34.507  30.639  1.00  0.00     0.202 C 
BRANCH  31  32
ATOM     32  C   UNL A   1      34.228  33.701  31.874  1.00  0.00     0.261 C 
BRANCH  32  33
ATOM     33  O   UNL A   1      34.699  32.362  32.021  1.00  0.00    -0.460 OA
BRANCH  33  34
ATOM     34  C   UNL A   1      35.788  32.203  32.811  1.00  0.00     0.338 C 
ATOM     35  O   UNL A   1      35.922  32.548  33.969  1.00  0.00    -0.246 OA
BRANCH  34  36
ATOM     36  C   UNL A   1      36.776  31.383  32.084  1.00  0.00     0.060 A 
ATOM     37  C   UNL A   1      37.813  30.788  32.812  1.00  0.00     0.016 A 
ATOM     38  C   UNL A   1      36.706  31.245  30.696  1.00  0.00     0.016 A 
ATOM     39  C   UNL A   1      38.818  30.089  32.143  1.00  0.00     0.010 A 
ATOM     40  C   UNL A   1      37.723  30.559  30.026  1.00  0.00     0.010 A 
ATOM     41  C   UNL A   1      38.803  30.015  30.743  1.00  0.00    -0.014 A 
BRANCH  41  42
ATOM     42  C   UNL A   1      40.020  29.568  30.023  1.00  0.00     0.031 A 
ATOM     43  C   UNL A   1      41.136  30.558  29.832  1.00  0.00     0.074 A 
ATOM     44  C   UNL A   1      40.146  28.311  29.568  1.00  0.00     0.049 A 
ATOM     45  N   UNL A   1      42.279  30.419  29.210  1.00  0.00    -0.248 NA
ATOM     46  C   UNL A   1      40.931  31.893  30.420  1.00  0.00     0.031 C 
ATOM     47  C   UNL A   1      39.154  27.251  29.722  1.00  0.00     0.029 A 
ATOM     48  N   UNL A   1      41.172  27.717  28.874  1.00  0.00    -0.354 N 
ATOM     49  C   UNL A   1      42.925  31.643  29.331  1.00  0.00     0.074 A 
ATOM     50  C   UNL A   1      42.034  32.524  30.055  1.00  0.00     0.031 C 
ATOM     51  C   UNL A   1      39.614  26.135  29.126  1.00  0.00     0.029 A 
ATOM     52  C   UNL A   1      40.920  26.413  28.529  1.00  0.00     0.049 A 
ATOM     53  H   UNL A   1      42.008  28.184  28.644  1.00  0.00     0.167 HD
ATOM     54  C   UNL A   1      44.152  31.999  28.887  1.00  0.00     0.037 A 
ATOM     55  C   UNL A   1      41.657  25.553  27.800  1.00  0.00     0.037 A 
ATOM     56  C   UNL A   1      45.036  31.126  28.162  1.00  0.00     0.049 A 
ATOM     57  C   UNL A   1      42.996  25.993  27.262  1.00  0.00     0.074 A 
ATOM     58  C   UNL A   1      46.302  31.392  27.672  1.00  0.00     0.029 A 
ATOM     59  N   UNL A   1      44.739  29.816  27.818  1.00  0.00    -0.354 N 
ATOM     60  N   UNL A   1      43.611  27.143  27.400  1.00  0.00    -0.248 NA
ATOM     61  C   UNL A   1      43.748  25.006  26.474  1.00  0.00     0.031 C 
ATOM     62  C   UNL A   1      46.754  30.255  26.990  1.00  0.00     0.029 A 
ATOM     63  C   UNL A   1      45.793  29.264  27.106  1.00  0.00     0.049 A 
ATOM     64  H   UNL A   1      43.905  29.347  28.046  1.00  0.00     0.167 HD
ATOM     65  C   UNL A   1      44.832  27.005  26.751  1.00  0.00     0.074 A 
ATOM     66  C   UNL A   1      44.876  25.657  26.226  1.00  0.00     0.031 C 
ATOM     67  C   UNL A   1      45.829  27.913  26.605  1.00  0.00     0.037 A 
BRANCH  54  68
ATOM     68  C   UNL A   1      44.599  33.407  29.154  1.00  0.00     0.064 A 
ATOM     69  C   UNL A   1      44.331  34.448  28.252  1.00  0.00     0.173 A 
ATOM     70  C   UNL A   1      45.289  33.722  30.334  1.00  0.00     0.173 A 
ATOM     71  F   UNL A   1      43.689  34.197  27.100  1.00  0.00    -0.203 F 
ATOM     72  C   UNL A   1      44.764  35.747  28.509  1.00  0.00     0.198 A 
ATOM     73  C   UNL A   1      45.693  35.026  30.602  1.00  0.00     0.198 A 
ATOM     74  F   UNL A   1      45.568  32.762  31.229  1.00  0.00    -0.203 F 
ATOM     75  F   UNL A   1      44.542  36.715  27.610  1.00  0.00    -0.200 F 
ATOM     76  C   UNL A   1      45.437  36.035  29.687  1.00  0.00     0.200 A 
ATOM     77  F   UNL A   1      46.335  35.306  31.744  1.00  0.00    -0.200 F 
ATOM     78  F   UNL A   1      45.849  37.287  29.935  1.00  0.00    -0.200 F 
ENDBRANCH  54  68
BRANCH  55  79
ATOM     79  C   UNL A   1      41.150  24.182  27.528  1.00  0.00     0.064 A 
ATOM     80  C   UNL A   1      41.751  23.059  28.115  1.00  0.00     0.173 A 
ATOM     81  C   UNL A   1      40.077  23.964  26.651  1.00  0.00     0.173 A 
ATOM     82  F   UNL A   1      42.798  23.213  28.938  1.00  0.00    -0.203 F 
ATOM     83  C   UNL A   1      41.313  21.770  27.816  1.00  0.00     0.198 A 
ATOM     84  C   UNL A   1      39.622  22.677  26.376  1.00  0.00     0.198 A 
ATOM     85  F   UNL A   1      39.471  25.004  26.060  1.00  0.00    -0.203 F 
ATOM     86  F   UNL A   1      41.941  20.712  28.349  1.00  0.00    -0.200 F 
ATOM     87  C   UNL A   1      40.246  21.580  26.951  1.00  0.00     0.200 A 
ATOM     88  F   UNL A   1      38.587  22.497  25.544  1.00  0.00    -0.200 F 
ATOM     89  F   UNL A   1      39.828  20.340  26.662  1.00  0.00    -0.200 F 
ENDBRANCH  55  79
BRANCH  67  90
ATOM     90  C   UNL A   1      47.078  27.463  25.901  1.00  0.00     0.064 A 
ATOM     91  C   UNL A   1      48.136  26.850  26.587  1.00  0.00     0.173 A 
ATOM     92  C   UNL A   1      47.199  27.619  24.511  1.00  0.00     0.173 A 
ATOM     93  F   UNL A   1      48.075  26.688  27.917  1.00  0.00    -0.203 F 
ATOM     94  C   UNL A   1      49.284  26.441  25.913  1.00  0.00     0.198 A 
ATOM     95  C   UNL A   1      48.335  27.180  23.836  1.00  0.00     0.198 A 
ATOM     96  F   UNL A   1      46.211  28.190  23.805  1.00  0.00    -0.203 F 
ATOM     97  F   UNL A   1      50.306  25.908  26.597  1.00  0.00    -0.200 F 
ATOM     98  C   UNL A   1      49.380  26.600  24.538  1.00  0.00     0.200 A 
ATOM     99  F   UNL A   1      48.418  27.320  22.505  1.00  0.00    -0.200 F 
ATOM    100  F   UNL A   1      50.484  26.203  23.891  1.00  0.00    -0.200 F 
ENDBRANCH  67  90
ENDBRANCH  41  42
ENDBRANCH  34  36
ENDBRANCH  33  34
ENDBRANCH  32  33
ENDBRANCH  31  32
ENDBRANCH  30  31
ENDBRANCH  29  30
ENDBRANCH   1  29
TORSDOF 20
ENDMDL
