MODEL 1
REMARK VINA RESULT:     -13.0      0.000      0.000
REMARK SMILES CS(=O)(=O)Nc1ccc(-c2cc(Cl)cc3c2O[C@H](C(F)(F)F)C(C(=O)OCCOCCOCCOC(=O)c2ccc(-c4c5nc(c(-c6c(F)c(F)c(F)c(F)c6F)c6ccc([nH]6)c(-c6c(F)c(F)c(F)c(F)c6F)c6nc(c(-c7c(F)c(F)c(F)c(F)c7F)c7ccc4[nH]7)C=C6)C=C5)cc2)=C3)cc1
REMARK SMILES IDX 30 1 29 2 28 3 27 4 26 5 24 6 25 7 23 8 10 9 11 10 16 11
REMARK SMILES IDX 12 12 15 13 17 14 13 15 14 16 101 17 18 18 9 19 6 20 7 21
REMARK SMILES IDX 103 22 8 23 102 24 5 25 2 27 1 28 3 29 4 30 19 31 20 32
REMARK SMILES IDX 21 33 22 34 31 35 32 36 33 37 34 38 35 39 36 40 37 41 38 42
REMARK SMILES IDX 39 43 100 44 40 45 99 46 41 47 42 48 43 49 93 50 44 51 98 52
REMARK SMILES IDX 92 53 94 54 45 55 97 56 91 57 90 58 46 60 78 61 58 62 77 63
REMARK SMILES IDX 59 64 62 65 76 66 95 67 60 68 61 69 75 71 96 72 63 73 47 74
REMARK SMILES IDX 48 75 56 76 49 77 50 78 54 79 57 80 51 81 52 82 55 83 53 84
REMARK SMILES IDX 79 85 80 86 88 87 81 88 82 89 86 90 89 91 83 92 84 93 87 94
REMARK SMILES IDX 85 95 64 96 65 97 73 98 66 99 67 100 71 101 74 102 68 103
REMARK SMILES IDX 69 104 72 105 70 106
REMARK H PARENT 5 26 94 59 62 70
REMARK Flexibility Score: inf
ROOT
ATOM      1  C   UNL A   1      34.636  31.873  27.762  1.00  0.00     0.188 C 
ENDROOT
BRANCH   1   2
ATOM      2  O   UNL A   1      33.912  30.658  27.753  1.00  0.00    -0.376 OA
BRANCH   2   3
ATOM      3  C   UNL A   1      32.666  30.665  27.063  1.00  0.00     0.202 C 
BRANCH   3   4
ATOM      4  C   UNL A   1      31.901  29.331  26.992  1.00  0.00     0.261 C 
BRANCH   4   5
ATOM      5  O   UNL A   1      31.832  28.788  25.646  1.00  0.00    -0.460 OA
BRANCH   5   6
ATOM      6  C   UNL A   1      31.464  27.492  25.562  1.00  0.00     0.338 C 
ATOM      7  O   UNL A   1      30.328  27.085  25.770  1.00  0.00    -0.246 OA
BRANCH   6   8
ATOM      8  C   UNL A   1      32.556  26.607  25.060  1.00  0.00     0.087 C 
ATOM      9  C   UNL A   1      32.161  22.507  24.659  1.00  0.00     0.026 A 
ATOM     10  C   UNL A   1      31.064  22.215  25.505  1.00  0.00     0.033 A 
ATOM     11  C   UNL A   1      32.632  23.825  24.754  1.00  0.00     0.135 A 
ATOM     12  C   UNL A   1      30.619  23.073  26.512  1.00  0.00     0.042 A 
ATOM     13  C   UNL A   1      32.355  24.572  25.918  1.00  0.00     0.019 A 
ATOM     14  O   UNL A   1      33.172  24.559  23.695  1.00  0.00    -0.475 OA
ATOM     15  Cl  UNL A   1      29.267  22.667  27.486  1.00  0.00    -0.084 Cl
ATOM     16  C   UNL A   1      31.326  24.223  26.780  1.00  0.00     0.032 A 
ATOM     17  C   UNL A   1      33.048  25.868  26.067  1.00  0.00     0.027 C 
ATOM     18  C   UNL A   1      32.598  25.969  23.671  1.00  0.00     0.316 C 
BRANCH   9  19
ATOM     19  C   UNL A   1      32.896  21.272  24.212  1.00  0.00    -0.014 A 
ATOM     20  C   UNL A   1      34.052  18.683  24.708  1.00  0.00     0.048 A 
ATOM     21  C   UNL A   1      32.760  18.806  24.205  1.00  0.00     0.027 A 
ATOM     22  C   UNL A   1      34.810  19.845  24.843  1.00  0.00     0.027 A 
ATOM     23  C   UNL A   1      32.208  20.076  23.932  1.00  0.00     0.011 A 
ATOM     24  C   UNL A   1      34.244  21.118  24.589  1.00  0.00     0.011 A 
BRANCH  20  25
ATOM     25  N   UNL A   1      34.408  17.438  25.321  1.00  0.00    -0.284 N 
ATOM     26  H   UNL A   1      34.762  17.461  26.240  1.00  0.00     0.180 HD
BRANCH  25  27
ATOM     27  S   UNL A   1      34.264  15.945  24.574  1.00  0.00     0.229 S 
ATOM     28  C   UNL A   1      32.717  15.296  25.193  1.00  0.00     0.183 C 
ATOM     29  O   UNL A   1      35.342  15.089  25.011  1.00  0.00    -0.207 OA
ATOM     30  O   UNL A   1      34.068  16.246  23.169  1.00  0.00    -0.207 OA
ENDBRANCH  25  27
ENDBRANCH  20  25
ENDBRANCH   9  19
BRANCH  18  31
ATOM     31  C   UNL A   1      33.367  26.906  22.733  1.00  0.00     0.430 C 
ATOM     32  F   UNL A   1      32.540  27.643  21.960  1.00  0.00    -0.167 F 
ATOM     33  F   UNL A   1      34.170  27.755  23.413  1.00  0.00    -0.167 F 
ATOM     34  F   UNL A   1      34.168  26.195  21.898  1.00  0.00    -0.167 F 
ENDBRANCH  18  31
ENDBRANCH   6   8
ENDBRANCH   5   6
ENDBRANCH   4   5
ENDBRANCH   3   4
ENDBRANCH   2   3
ENDBRANCH   1   2
BRANCH   1  35
ATOM     35  C   UNL A   1      33.926  33.039  28.487  1.00  0.00     0.188 C 
BRANCH  35  36
ATOM     36  O   UNL A   1      34.665  33.912  29.326  1.00  0.00    -0.376 OA
BRANCH  36  37
ATOM     37  C   UNL A   1      34.049  34.448  30.489  1.00  0.00     0.202 C 
BRANCH  37  38
ATOM     38  C   UNL A   1      34.517  33.991  31.881  1.00  0.00     0.261 C 
BRANCH  38  39
ATOM     39  O   UNL A   1      34.796  32.583  32.017  1.00  0.00    -0.460 OA
BRANCH  39  40
ATOM     40  C   UNL A   1      35.873  32.271  32.772  1.00  0.00     0.338 C 
ATOM     41  O   UNL A   1      35.997  32.413  33.983  1.00  0.00    -0.246 OA
BRANCH  40  42
ATOM     42  C   UNL A   1      36.882  31.550  31.971  1.00  0.00     0.060 A 
ATOM     43  C   UNL A   1      37.969  30.981  32.641  1.00  0.00     0.016 A 
ATOM     44  C   UNL A   1      36.833  31.528  30.576  1.00  0.00     0.016 A 
ATOM     45  C   UNL A   1      39.015  30.411  31.914  1.00  0.00     0.010 A 
ATOM     46  C   UNL A   1      37.891  30.956  29.850  1.00  0.00     0.010 A 
ATOM     47  C   UNL A   1      39.000  30.402  30.510  1.00  0.00    -0.014 A 
BRANCH  47  48
ATOM     48  C   UNL A   1      40.211  29.963  29.756  1.00  0.00     0.031 A 
ATOM     49  C   UNL A   1      41.376  30.901  29.659  1.00  0.00     0.074 A 
ATOM     50  C   UNL A   1      40.290  28.754  29.169  1.00  0.00     0.049 A 
ATOM     51  N   UNL A   1      42.548  30.710  29.110  1.00  0.00    -0.248 NA
ATOM     52  C   UNL A   1      41.179  32.242  30.225  1.00  0.00     0.031 C 
ATOM     53  C   UNL A   1      39.208  27.789  29.163  1.00  0.00     0.029 A 
ATOM     54  N   UNL A   1      41.313  28.103  28.513  1.00  0.00    -0.354 N 
ATOM     55  C   UNL A   1      43.199  31.933  29.193  1.00  0.00     0.074 A 
ATOM     56  C   UNL A   1      42.312  32.839  29.891  1.00  0.00     0.031 C 
ATOM     57  C   UNL A   1      39.654  26.622  28.672  1.00  0.00     0.029 A 
ATOM     58  C   UNL A   1      41.029  26.784  28.207  1.00  0.00     0.049 A 
ATOM     59  H   UNL A   1      42.166  28.535  28.282  1.00  0.00     0.167 HD
ATOM     60  C   UNL A   1      44.405  32.277  28.685  1.00  0.00     0.037 A 
ATOM     61  C   UNL A   1      41.791  25.828  27.625  1.00  0.00     0.037 A 
ATOM     62  C   UNL A   1      45.277  31.371  27.985  1.00  0.00     0.049 A 
ATOM     63  C   UNL A   1      43.180  26.229  27.163  1.00  0.00     0.074 A 
ATOM     64  C   UNL A   1      46.511  31.631  27.416  1.00  0.00     0.029 A 
ATOM     65  N   UNL A   1      45.003  30.031  27.750  1.00  0.00    -0.354 N 
ATOM     66  N   UNL A   1      43.842  27.341  27.390  1.00  0.00    -0.248 NA
ATOM     67  C   UNL A   1      43.929  25.246  26.366  1.00  0.00     0.031 C 
ATOM     68  C   UNL A   1      46.957  30.463  26.790  1.00  0.00     0.029 A 
ATOM     69  C   UNL A   1      46.033  29.457  27.022  1.00  0.00     0.049 A 
ATOM     70  H   UNL A   1      44.196  29.558  28.057  1.00  0.00     0.167 HD
ATOM     71  C   UNL A   1      45.082  27.179  26.778  1.00  0.00     0.074 A 
ATOM     72  C   UNL A   1      45.115  25.827  26.264  1.00  0.00     0.031 C 
ATOM     73  C   UNL A   1      46.082  28.079  26.599  1.00  0.00     0.037 A 
BRANCH  60  74
ATOM     74  C   UNL A   1      44.803  33.720  28.783  1.00  0.00     0.064 A 
ATOM     75  C   UNL A   1      45.533  34.223  29.869  1.00  0.00     0.173 A 
ATOM     76  C   UNL A   1      44.441  34.615  27.763  1.00  0.00     0.173 A 
ATOM     77  F   UNL A   1      45.880  33.415  30.882  1.00  0.00    -0.203 F 
ATOM     78  C   UNL A   1      45.860  35.576  29.945  1.00  0.00     0.198 A 
ATOM     79  C   UNL A   1      44.798  35.958  27.825  1.00  0.00     0.198 A 
ATOM     80  F   UNL A   1      43.739  34.186  26.704  1.00  0.00    -0.203 F 
ATOM     81  F   UNL A   1      46.504  36.047  31.020  1.00  0.00    -0.200 F 
ATOM     82  C   UNL A   1      45.499  36.439  28.921  1.00  0.00     0.200 A 
ATOM     83  F   UNL A   1      44.458  36.787  26.829  1.00  0.00    -0.200 F 
ATOM     84  F   UNL A   1      45.817  37.739  28.995  1.00  0.00    -0.200 F 
ENDBRANCH  60  74
BRANCH  61  85
ATOM     85  C   UNL A   1      41.325  24.401  27.509  1.00  0.00     0.064 A 
ATOM     86  C   UNL A   1      40.238  24.072  26.681  1.00  0.00     0.173 A 
ATOM     87  C   UNL A   1      41.923  23.325  28.185  1.00  0.00     0.173 A 
ATOM     88  F   UNL A   1      39.561  25.042  26.055  1.00  0.00    -0.203 F 
ATOM     89  C   UNL A   1      39.793  22.760  26.508  1.00  0.00     0.198 A 
ATOM     90  C   UNL A   1      41.515  22.003  27.974  1.00  0.00     0.198 A 
ATOM     91  F   UNL A   1      42.922  23.543  29.051  1.00  0.00    -0.203 F 
ATOM     92  F   UNL A   1      38.730  22.516  25.729  1.00  0.00    -0.200 F 
ATOM     93  C   UNL A   1      40.449  21.721  27.137  1.00  0.00     0.200 A 
ATOM     94  F   UNL A   1      42.165  21.000  28.580  1.00  0.00    -0.200 F 
ATOM     95  F   UNL A   1      40.050  20.457  26.942  1.00  0.00    -0.200 F 
ENDBRANCH  61  85
BRANCH  73  96
ATOM     96  C   UNL A   1      47.317  27.624  25.865  1.00  0.00     0.064 A 
ATOM     97  C   UNL A   1      47.387  27.632  24.462  1.00  0.00     0.173 A 
ATOM     98  C   UNL A   1      48.470  27.243  26.571  1.00  0.00     0.173 A 
ATOM     99  F   UNL A   1      46.321  27.995  23.734  1.00  0.00    -0.203 F 
ATOM    100  C   UNL A   1      48.546  27.235  23.797  1.00  0.00     0.198 A 
ATOM    101  C   UNL A   1      49.639  26.887  25.902  1.00  0.00     0.198 A 
ATOM    102  F   UNL A   1      48.473  27.245  27.913  1.00  0.00    -0.203 F 
ATOM    103  F   UNL A   1      48.565  27.199  22.456  1.00  0.00    -0.200 F 
ATOM    104  C   UNL A   1      49.673  26.871  24.516  1.00  0.00     0.200 A 
ATOM    105  F   UNL A   1      50.739  26.568  26.599  1.00  0.00    -0.200 F 
ATOM    106  F   UNL A   1      50.791  26.510  23.873  1.00  0.00    -0.200 F 
ENDBRANCH  73  96
ENDBRANCH  47  48
ENDBRANCH  40  42
ENDBRANCH  39  40
ENDBRANCH  38  39
ENDBRANCH  37  38
ENDBRANCH  36  37
ENDBRANCH  35  36
ENDBRANCH   1  35
TORSDOF 21
ENDMDL
MODEL 2
REMARK VINA RESULT:     -12.0      4.915      7.916
REMARK SMILES CS(=O)(=O)Nc1ccc(-c2cc(Cl)cc3c2O[C@H](C(F)(F)F)C(C(=O)OCCOCCOCCOC(=O)c2ccc(-c4c5nc(c(-c6c(F)c(F)c(F)c(F)c6F)c6ccc([nH]6)c(-c6c(F)c(F)c(F)c(F)c6F)c6nc(c(-c7c(F)c(F)c(F)c(F)c7F)c7ccc4[nH]7)C=C6)C=C5)cc2)=C3)cc1
REMARK SMILES IDX 30 1 29 2 28 3 27 4 26 5 24 6 25 7 23 8 10 9 11 10 16 11
REMARK SMILES IDX 12 12 15 13 17 14 13 15 14 16 101 17 18 18 9 19 6 20 7 21
REMARK SMILES IDX 103 22 8 23 102 24 5 25 2 27 1 28 3 29 4 30 19 31 20 32
REMARK SMILES IDX 21 33 22 34 31 35 32 36 33 37 34 38 35 39 36 40 37 41 38 42
REMARK SMILES IDX 39 43 100 44 40 45 99 46 41 47 42 48 43 49 93 50 44 51 98 52
REMARK SMILES IDX 92 53 94 54 45 55 97 56 91 57 90 58 46 60 78 61 58 62 77 63
REMARK SMILES IDX 59 64 62 65 76 66 95 67 60 68 61 69 75 71 96 72 63 73 47 74
REMARK SMILES IDX 48 75 56 76 49 77 50 78 54 79 57 80 51 81 52 82 55 83 53 84
REMARK SMILES IDX 79 85 80 86 88 87 81 88 82 89 86 90 89 91 83 92 84 93 87 94
REMARK SMILES IDX 85 95 64 96 65 97 73 98 66 99 67 100 71 101 74 102 68 103
REMARK SMILES IDX 69 104 72 105 70 106
REMARK H PARENT 5 26 94 59 62 70
REMARK Flexibility Score: inf
ROOT
ATOM      1  C   UNL A   1      34.039  28.035  24.345  1.00  0.00     0.188 C 
ENDROOT
BRANCH   1   2
ATOM      2  O   UNL A   1      34.051  26.623  24.416  1.00  0.00    -0.376 OA
BRANCH   2   3
ATOM      3  C   UNL A   1      34.320  26.051  25.693  1.00  0.00     0.202 C 
BRANCH   3   4
ATOM      4  C   UNL A   1      34.574  24.534  25.738  1.00  0.00     0.261 C 
BRANCH   4   5
ATOM      5  O   UNL A   1      33.621  23.824  26.573  1.00  0.00    -0.460 OA
BRANCH   5   6
ATOM      6  C   UNL A   1      33.102  22.701  26.035  1.00  0.00     0.338 C 
ATOM      7  O   UNL A   1      33.226  21.584  26.521  1.00  0.00    -0.246 OA
BRANCH   6   8
ATOM      8  C   UNL A   1      32.242  22.967  24.844  1.00  0.00     0.087 C 
ATOM      9  C   UNL A   1      30.637  26.683  23.982  1.00  0.00     0.026 A 
ATOM     10  C   UNL A   1      30.703  27.349  25.230  1.00  0.00     0.033 A 
ATOM     11  C   UNL A   1      30.953  25.318  24.035  1.00  0.00     0.135 A 
ATOM     12  C   UNL A   1      30.844  26.685  26.449  1.00  0.00     0.042 A 
ATOM     13  C   UNL A   1      30.840  24.634  25.264  1.00  0.00     0.019 A 
ATOM     14  O   UNL A   1      31.592  24.604  23.018  1.00  0.00    -0.475 OA
ATOM     15  Cl  UNL A   1      30.940  27.555  27.924  1.00  0.00    -0.084 Cl
ATOM     16  C   UNL A   1      30.824  25.309  26.475  1.00  0.00     0.032 A 
ATOM     17  C   UNL A   1      30.971  23.163  25.230  1.00  0.00     0.027 C 
ATOM     18  C   UNL A   1      32.691  23.720  23.591  1.00  0.00     0.316 C 
BRANCH   9  19
ATOM     19  C   UNL A   1      29.796  27.419  22.973  1.00  0.00    -0.014 A 
ATOM     20  C   UNL A   1      28.435  29.775  22.035  1.00  0.00     0.048 A 
ATOM     21  C   UNL A   1      29.726  29.477  21.610  1.00  0.00     0.027 A 
ATOM     22  C   UNL A   1      27.778  28.834  22.827  1.00  0.00     0.027 A 
ATOM     23  C   UNL A   1      30.378  28.304  22.046  1.00  0.00     0.011 A 
ATOM     24  C   UNL A   1      28.445  27.670  23.280  1.00  0.00     0.011 A 
BRANCH  20  25
ATOM     25  N   UNL A   1      27.983  31.127  21.886  1.00  0.00    -0.284 N 
ATOM     26  H   UNL A   1      27.667  31.412  20.998  1.00  0.00     0.180 HD
BRANCH  25  27
ATOM     27  S   UNL A   1      27.959  32.254  23.125  1.00  0.00     0.229 S 
ATOM     28  C   UNL A   1      29.467  31.936  24.032  1.00  0.00     0.183 C 
ATOM     29  O   UNL A   1      26.829  31.991  23.985  1.00  0.00    -0.207 OA
ATOM     30  O   UNL A   1      28.119  33.537  22.469  1.00  0.00    -0.207 OA
ENDBRANCH  25  27
ENDBRANCH  20  25
ENDBRANCH   9  19
BRANCH  18  31
ATOM     31  C   UNL A   1      33.216  22.697  22.577  1.00  0.00     0.430 C 
ATOM     32  F   UNL A   1      32.718  21.460  22.798  1.00  0.00    -0.167 F 
ATOM     33  F   UNL A   1      32.920  23.046  21.305  1.00  0.00    -0.167 F 
ATOM     34  F   UNL A   1      34.569  22.602  22.651  1.00  0.00    -0.167 F 
ENDBRANCH  18  31
ENDBRANCH   6   8
ENDBRANCH   5   6
ENDBRANCH   4   5
ENDBRANCH   3   4
ENDBRANCH   2   3
ENDBRANCH   1   2
BRANCH   1  35
ATOM     35  C   UNL A   1      33.778  28.743  25.694  1.00  0.00     0.188 C 
BRANCH  35  36
ATOM     36  O   UNL A   1      33.285  30.073  25.717  1.00  0.00    -0.376 OA
BRANCH  36  37
ATOM     37  C   UNL A   1      32.137  30.378  26.497  1.00  0.00     0.202 C 
BRANCH  37  38
ATOM     38  C   UNL A   1      31.855  31.834  26.905  1.00  0.00     0.261 C 
BRANCH  38  39
ATOM     39  O   UNL A   1      32.946  32.758  26.722  1.00  0.00    -0.460 OA
BRANCH  39  40
ATOM     40  C   UNL A   1      33.447  33.303  27.853  1.00  0.00     0.338 C 
ATOM     41  O   UNL A   1      32.905  34.127  28.582  1.00  0.00    -0.246 OA
BRANCH  40  42
ATOM     42  C   UNL A   1      34.714  32.650  28.233  1.00  0.00     0.060 A 
ATOM     43  C   UNL A   1      34.665  31.325  28.675  1.00  0.00     0.016 A 
ATOM     44  C   UNL A   1      35.920  33.352  28.269  1.00  0.00     0.016 A 
ATOM     45  C   UNL A   1      35.815  30.712  29.173  1.00  0.00     0.010 A 
ATOM     46  C   UNL A   1      37.075  32.731  28.776  1.00  0.00     0.010 A 
ATOM     47  C   UNL A   1      37.032  31.409  29.245  1.00  0.00    -0.014 A 
BRANCH  47  48
ATOM     48  C   UNL A   1      38.196  30.801  29.956  1.00  0.00     0.031 A 
ATOM     49  C   UNL A   1      38.359  31.062  31.422  1.00  0.00     0.074 A 
ATOM     50  C   UNL A   1      39.096  30.025  29.323  1.00  0.00     0.049 A 
ATOM     51  N   UNL A   1      39.254  30.591  32.252  1.00  0.00    -0.248 NA
ATOM     52  C   UNL A   1      37.407  32.006  32.023  1.00  0.00     0.031 C 
ATOM     53  C   UNL A   1      39.059  29.744  27.900  1.00  0.00     0.029 A 
ATOM     54  N   UNL A   1      40.175  29.294  29.772  1.00  0.00    -0.354 N 
ATOM     55  C   UNL A   1      39.022  31.244  33.455  1.00  0.00     0.074 A 
ATOM     56  C   UNL A   1      37.872  32.101  33.258  1.00  0.00     0.031 C 
ATOM     57  C   UNL A   1      39.966  28.797  27.610  1.00  0.00     0.029 A 
ATOM     58  C   UNL A   1      40.743  28.485  28.805  1.00  0.00     0.049 A 
ATOM     59  H   UNL A   1      40.511  29.344  30.696  1.00  0.00     0.167 HD
ATOM     60  C   UNL A   1      39.739  31.170  34.600  1.00  0.00     0.037 A 
ATOM     61  C   UNL A   1      41.765  27.599  28.883  1.00  0.00     0.037 A 
ATOM     62  C   UNL A   1      40.886  30.322  34.784  1.00  0.00     0.049 A 
ATOM     63  C   UNL A   1      42.476  27.470  30.217  1.00  0.00     0.074 A 
ATOM     64  C   UNL A   1      41.691  30.192  35.902  1.00  0.00     0.029 A 
ATOM     65  N   UNL A   1      41.398  29.463  33.821  1.00  0.00    -0.354 N 
ATOM     66  N   UNL A   1      42.149  27.974  31.385  1.00  0.00    -0.248 NA
ATOM     67  C   UNL A   1      43.699  26.654  30.246  1.00  0.00     0.031 C 
ATOM     68  C   UNL A   1      42.721  29.297  35.596  1.00  0.00     0.029 A 
ATOM     69  C   UNL A   1      42.524  28.820  34.311  1.00  0.00     0.049 A 
ATOM     70  H   UNL A   1      41.018  29.330  32.923  1.00  0.00     0.167 HD
ATOM     71  C   UNL A   1      43.112  27.520  32.281  1.00  0.00     0.074 A 
ATOM     72  C   UNL A   1      43.972  26.621  31.542  1.00  0.00     0.031 C 
ATOM     73  C   UNL A   1      43.313  27.858  33.580  1.00  0.00     0.037 A 
BRANCH  60  74
ATOM     74  C   UNL A   1      39.359  32.108  35.707  1.00  0.00     0.064 A 
ATOM     75  C   UNL A   1      39.903  33.396  35.818  1.00  0.00     0.173 A 
ATOM     76  C   UNL A   1      38.431  31.702  36.679  1.00  0.00     0.173 A 
ATOM     77  F   UNL A   1      40.814  33.822  34.931  1.00  0.00    -0.203 F 
ATOM     78  C   UNL A   1      39.551  34.231  36.877  1.00  0.00     0.198 A 
ATOM     79  C   UNL A   1      38.056  32.550  37.716  1.00  0.00     0.198 A 
ATOM     80  F   UNL A   1      37.884  30.478  36.622  1.00  0.00    -0.203 F 
ATOM     81  F   UNL A   1      40.128  35.434  36.997  1.00  0.00    -0.200 F 
ATOM     82  C   UNL A   1      38.625  33.810  37.820  1.00  0.00     0.200 A 
ATOM     83  F   UNL A   1      37.153  32.145  38.619  1.00  0.00    -0.200 F 
ATOM     84  F   UNL A   1      38.287  34.617  38.836  1.00  0.00    -0.200 F 
ENDBRANCH  60  74
BRANCH  61  85
ATOM     85  C   UNL A   1      42.137  26.712  27.724  1.00  0.00     0.064 A 
ATOM     86  C   UNL A   1      43.130  27.109  26.813  1.00  0.00     0.173 A 
ATOM     87  C   UNL A   1      41.551  25.460  27.478  1.00  0.00     0.173 A 
ATOM     88  F   UNL A   1      43.692  28.319  26.927  1.00  0.00    -0.203 F 
ATOM     89  C   UNL A   1      43.540  26.306  25.747  1.00  0.00     0.198 A 
ATOM     90  C   UNL A   1      41.995  24.628  26.444  1.00  0.00     0.198 A 
ATOM     91  F   UNL A   1      40.547  25.021  28.250  1.00  0.00    -0.203 F 
ATOM     92  F   UNL A   1      44.470  26.757  24.895  1.00  0.00    -0.200 F 
ATOM     93  C   UNL A   1      42.988  25.052  25.577  1.00  0.00     0.200 A 
ATOM     94  F   UNL A   1      41.460  23.409  26.293  1.00  0.00    -0.200 F 
ATOM     95  F   UNL A   1      43.406  24.263  24.579  1.00  0.00    -0.200 F 
ENDBRANCH  61  85
BRANCH  73  96
ATOM     96  C   UNL A   1      44.470  27.218  34.305  1.00  0.00     0.064 A 
ATOM     97  C   UNL A   1      44.312  26.039  35.051  1.00  0.00     0.173 A 
ATOM     98  C   UNL A   1      45.766  27.747  34.192  1.00  0.00     0.173 A 
ATOM     99  F   UNL A   1      43.099  25.481  35.187  1.00  0.00    -0.203 F 
ATOM    100  C   UNL A   1      45.396  25.442  35.692  1.00  0.00     0.198 A 
ATOM    101  C   UNL A   1      46.853  27.124  34.800  1.00  0.00     0.198 A 
ATOM    102  F   UNL A   1      45.984  28.854  33.466  1.00  0.00    -0.203 F 
ATOM    103  F   UNL A   1      45.205  24.349  36.445  1.00  0.00    -0.200 F 
ATOM    104  C   UNL A   1      46.666  25.980  35.559  1.00  0.00     0.200 A 
ATOM    105  F   UNL A   1      48.087  27.626  34.643  1.00  0.00    -0.200 F 
ATOM    106  F   UNL A   1      47.709  25.392  36.161  1.00  0.00    -0.200 F 
ENDBRANCH  73  96
ENDBRANCH  47  48
ENDBRANCH  40  42
ENDBRANCH  39  40
ENDBRANCH  38  39
ENDBRANCH  37  38
ENDBRANCH  36  37
ENDBRANCH  35  36
ENDBRANCH   1  35
TORSDOF 21
ENDMDL
MODEL 3
REMARK VINA RESULT:     -11.5      0.758      6.929
REMARK SMILES CS(=O)(=O)Nc1ccc(-c2cc(Cl)cc3c2O[C@H](C(F)(F)F)C(C(=O)OCCOCCOCCOC(=O)c2ccc(-c4c5nc(c(-c6c(F)c(F)c(F)c(F)c6F)c6ccc([nH]6)c(-c6c(F)c(F)c(F)c(F)c6F)c6nc(c(-c7c(F)c(F)c(F)c(F)c7F)c7ccc4[nH]7)C=C6)C=C5)cc2)=C3)cc1
REMARK SMILES IDX 30 1 29 2 28 3 27 4 26 5 24 6 25 7 23 8 10 9 11 10 16 11
REMARK SMILES IDX 12 12 15 13 17 14 13 15 14 16 101 17 18 18 9 19 6 20 7 21
REMARK SMILES IDX 103 22 8 23 102 24 5 25 2 27 1 28 3 29 4 30 19 31 20 32
REMARK SMILES IDX 21 33 22 34 31 35 32 36 33 37 34 38 35 39 36 40 37 41 38 42
REMARK SMILES IDX 39 43 100 44 40 45 99 46 41 47 42 48 43 49 93 50 44 51 98 52
REMARK SMILES IDX 92 53 94 54 45 55 97 56 91 57 90 58 46 60 78 61 58 62 77 63
REMARK SMILES IDX 59 64 62 65 76 66 95 67 60 68 61 69 75 71 96 72 63 73 47 74
REMARK SMILES IDX 48 75 56 76 49 77 50 78 54 79 57 80 51 81 52 82 55 83 53 84
REMARK SMILES IDX 79 85 80 86 88 87 81 88 82 89 86 90 89 91 83 92 84 93 87 94
REMARK SMILES IDX 85 95 64 96 65 97 73 98 66 99 67 100 71 101 74 102 68 103
REMARK SMILES IDX 69 104 72 105 70 106
REMARK H PARENT 5 26 94 59 62 70
REMARK Flexibility Score: inf
ROOT
ATOM      1  C   UNL A   1      34.783  31.565  28.036  1.00  0.00     0.188 C 
ENDROOT
BRANCH   1   2
ATOM      2  O   UNL A   1      33.917  30.453  27.932  1.00  0.00    -0.376 OA
BRANCH   2   3
ATOM      3  C   UNL A   1      32.921  30.515  26.915  1.00  0.00     0.202 C 
BRANCH   3   4
ATOM      4  C   UNL A   1      31.968  29.311  26.799  1.00  0.00     0.261 C 
BRANCH   4   5
ATOM      5  O   UNL A   1      31.721  28.914  25.423  1.00  0.00    -0.460 OA
BRANCH   5   6
ATOM      6  C   UNL A   1      31.315  27.639  25.251  1.00  0.00     0.338 C 
ATOM      7  O   UNL A   1      30.148  27.275  25.315  1.00  0.00    -0.246 OA
BRANCH   6   8
ATOM      8  C   UNL A   1      32.421  26.724  24.844  1.00  0.00     0.087 C 
ATOM      9  C   UNL A   1      32.069  22.600  24.807  1.00  0.00     0.026 A 
ATOM     10  C   UNL A   1      30.962  22.374  25.661  1.00  0.00     0.033 A 
ATOM     11  C   UNL A   1      32.526  23.926  24.789  1.00  0.00     0.135 A 
ATOM     12  C   UNL A   1      30.496  23.314  26.581  1.00  0.00     0.042 A 
ATOM     13  C   UNL A   1      32.227  24.771  25.878  1.00  0.00     0.019 A 
ATOM     14  O   UNL A   1      33.074  24.568  23.676  1.00  0.00    -0.475 OA
ATOM     15  Cl  UNL A   1      29.135  22.983  27.571  1.00  0.00    -0.084 Cl
ATOM     16  C   UNL A   1      31.189  24.490  26.754  1.00  0.00     0.032 A 
ATOM     17  C   UNL A   1      32.906  26.082  25.919  1.00  0.00     0.027 C 
ATOM     18  C   UNL A   1      32.487  25.964  23.518  1.00  0.00     0.316 C 
BRANCH   9  19
ATOM     19  C   UNL A   1      32.820  21.338  24.480  1.00  0.00    -0.014 A 
ATOM     20  C   UNL A   1      33.531  18.597  25.002  1.00  0.00     0.048 A 
ATOM     21  C   UNL A   1      32.512  18.916  24.108  1.00  0.00     0.027 A 
ATOM     22  C   UNL A   1      34.277  19.647  25.536  1.00  0.00     0.027 A 
ATOM     23  C   UNL A   1      32.188  20.260  23.831  1.00  0.00     0.011 A 
ATOM     24  C   UNL A   1      33.933  20.995  25.272  1.00  0.00     0.011 A 
BRANCH  20  25
ATOM     25  N   UNL A   1      33.556  17.267  25.533  1.00  0.00    -0.284 N 
ATOM     26  H   UNL A   1      32.970  17.065  26.298  1.00  0.00     0.180 HD
BRANCH  25  27
ATOM     27  S   UNL A   1      34.518  16.033  24.936  1.00  0.00     0.229 S 
ATOM     28  C   UNL A   1      34.516  16.295  23.167  1.00  0.00     0.183 C 
ATOM     29  O   UNL A   1      33.895  14.762  25.224  1.00  0.00    -0.207 OA
ATOM     30  O   UNL A   1      35.855  16.336  25.410  1.00  0.00    -0.207 OA
ENDBRANCH  25  27
ENDBRANCH  20  25
ENDBRANCH   9  19
BRANCH  18  31
ATOM     31  C   UNL A   1      33.261  26.822  22.510  1.00  0.00     0.430 C 
ATOM     32  F   UNL A   1      34.312  26.159  21.980  1.00  0.00    -0.167 F 
ATOM     33  F   UNL A   1      32.475  27.240  21.494  1.00  0.00    -0.167 F 
ATOM     34  F   UNL A   1      33.753  27.937  23.109  1.00  0.00    -0.167 F 
ENDBRANCH  18  31
ENDBRANCH   6   8
ENDBRANCH   5   6
ENDBRANCH   4   5
ENDBRANCH   3   4
ENDBRANCH   2   3
ENDBRANCH   1   2
BRANCH   1  35
ATOM     35  C   UNL A   1      34.082  32.894  28.401  1.00  0.00     0.188 C 
BRANCH  35  36
ATOM     36  O   UNL A   1      34.767  33.875  29.163  1.00  0.00    -0.376 OA
BRANCH  36  37
ATOM     37  C   UNL A   1      34.244  34.268  30.424  1.00  0.00     0.202 C 
BRANCH  37  38
ATOM     38  C   UNL A   1      34.883  33.733  31.717  1.00  0.00     0.261 C 
BRANCH  38  39
ATOM     39  O   UNL A   1      35.163  32.319  31.738  1.00  0.00    -0.460 OA
BRANCH  39  40
ATOM     40  C   UNL A   1      36.211  31.942  32.504  1.00  0.00     0.338 C 
ATOM     41  O   UNL A   1      36.283  31.968  33.728  1.00  0.00    -0.246 OA
BRANCH  40  42
ATOM     42  C   UNL A   1      37.259  31.307  31.681  1.00  0.00     0.060 A 
ATOM     43  C   UNL A   1      38.216  30.520  32.327  1.00  0.00     0.016 A 
ATOM     44  C   UNL A   1      37.379  31.569  30.315  1.00  0.00     0.016 A 
ATOM     45  C   UNL A   1      39.302  30.014  31.611  1.00  0.00     0.010 A 
ATOM     46  C   UNL A   1      38.476  31.061  29.600  1.00  0.00     0.010 A 
ATOM     47  C   UNL A   1      39.457  30.288  30.243  1.00  0.00    -0.014 A 
BRANCH  47  48
ATOM     48  C   UNL A   1      40.719  29.901  29.545  1.00  0.00     0.031 A 
ATOM     49  C   UNL A   1      40.778  28.573  28.852  1.00  0.00     0.074 A 
ATOM     50  C   UNL A   1      41.796  30.707  29.513  1.00  0.00     0.049 A 
ATOM     51  N   UNL A   1      41.743  28.056  28.135  1.00  0.00    -0.248 NA
ATOM     52  C   UNL A   1      39.610  27.699  29.022  1.00  0.00     0.031 C 
ATOM     53  C   UNL A   1      41.862  31.991  30.186  1.00  0.00     0.029 A 
ATOM     54  N   UNL A   1      43.012  30.612  28.870  1.00  0.00    -0.354 N 
ATOM     55  C   UNL A   1      41.330  26.766  27.835  1.00  0.00     0.074 A 
ATOM     56  C   UNL A   1      40.009  26.600  28.403  1.00  0.00     0.031 C 
ATOM     57  C   UNL A   1      42.980  32.632  29.811  1.00  0.00     0.029 A 
ATOM     58  C   UNL A   1      43.784  31.756  28.964  1.00  0.00     0.049 A 
ATOM     59  H   UNL A   1      43.304  29.805  28.389  1.00  0.00     0.167 HD
ATOM     60  C   UNL A   1      42.017  25.795  27.190  1.00  0.00     0.037 A 
ATOM     61  C   UNL A   1      44.990  32.054  28.427  1.00  0.00     0.037 A 
ATOM     62  C   UNL A   1      43.334  25.966  26.635  1.00  0.00     0.049 A 
ATOM     63  C   UNL A   1      45.682  30.970  27.620  1.00  0.00     0.074 A 
ATOM     64  C   UNL A   1      44.120  25.036  25.980  1.00  0.00     0.029 A 
ATOM     65  N   UNL A   1      44.064  27.146  26.679  1.00  0.00    -0.354 N 
ATOM     66  N   UNL A   1      45.213  29.813  27.211  1.00  0.00    -0.248 NA
ATOM     67  C   UNL A   1      47.067  31.229  27.200  1.00  0.00     0.031 C 
ATOM     68  C   UNL A   1      45.346  25.636  25.677  1.00  0.00     0.029 A 
ATOM     69  C   UNL A   1      45.302  26.960  26.086  1.00  0.00     0.049 A 
ATOM     70  H   UNL A   1      43.748  27.991  27.073  1.00  0.00     0.167 HD
ATOM     71  C   UNL A   1      46.239  29.223  26.477  1.00  0.00     0.074 A 
ATOM     72  C   UNL A   1      47.310  30.193  26.412  1.00  0.00     0.031 C 
ATOM     73  C   UNL A   1      46.320  27.973  25.955  1.00  0.00     0.037 A 
BRANCH  60  74
ATOM     74  C   UNL A   1      41.392  24.432  27.139  1.00  0.00     0.064 A 
ATOM     75  C   UNL A   1      40.250  24.160  26.374  1.00  0.00     0.173 A 
ATOM     76  C   UNL A   1      41.954  23.379  27.878  1.00  0.00     0.173 A 
ATOM     77  F   UNL A   1      39.660  25.138  25.671  1.00  0.00    -0.203 F 
ATOM     78  C   UNL A   1      39.676  22.890  26.373  1.00  0.00     0.198 A 
ATOM     79  C   UNL A   1      41.399  22.104  27.849  1.00  0.00     0.198 A 
ATOM     80  F   UNL A   1      43.045  23.587  28.631  1.00  0.00    -0.203 F 
ATOM     81  F   UNL A   1      38.550  22.667  25.683  1.00  0.00    -0.200 F 
ATOM     82  C   UNL A   1      40.255  21.862  27.105  1.00  0.00     0.200 A 
ATOM     83  F   UNL A   1      41.966  21.111  28.548  1.00  0.00    -0.200 F 
ATOM     84  F   UNL A   1      39.702  20.642  27.101  1.00  0.00    -0.200 F 
ENDBRANCH  60  74
BRANCH  61  85
ATOM     85  C   UNL A   1      45.596  33.428  28.546  1.00  0.00     0.064 A 
ATOM     86  C   UNL A   1      46.319  33.789  29.696  1.00  0.00     0.173 A 
ATOM     87  C   UNL A   1      45.500  34.414  27.552  1.00  0.00     0.173 A 
ATOM     88  F   UNL A   1      46.400  32.939  30.725  1.00  0.00    -0.203 F 
ATOM     89  C   UNL A   1      46.934  35.035  29.838  1.00  0.00     0.198 A 
ATOM     90  C   UNL A   1      46.159  35.644  27.666  1.00  0.00     0.198 A 
ATOM     91  F   UNL A   1      44.775  34.191  26.447  1.00  0.00    -0.203 F 
ATOM     92  F   UNL A   1      47.581  35.330  30.973  1.00  0.00    -0.200 F 
ATOM     93  C   UNL A   1      46.874  35.954  28.810  1.00  0.00     0.200 A 
ATOM     94  F   UNL A   1      46.104  36.525  26.659  1.00  0.00    -0.200 F 
ATOM     95  F   UNL A   1      47.496  37.135  28.927  1.00  0.00    -0.200 F 
ENDBRANCH  61  85
BRANCH  73  96
ATOM     96  C   UNL A   1      47.582  27.596  25.222  1.00  0.00     0.064 A 
ATOM     97  C   UNL A   1      47.705  27.757  23.833  1.00  0.00     0.173 A 
ATOM     98  C   UNL A   1      48.708  27.137  25.926  1.00  0.00     0.173 A 
ATOM     99  F   UNL A   1      46.667  28.200  23.108  1.00  0.00    -0.203 F 
ATOM    100  C   UNL A   1      48.888  27.431  23.172  1.00  0.00     0.198 A 
ATOM    101  C   UNL A   1      49.902  26.852  25.266  1.00  0.00     0.198 A 
ATOM    102  F   UNL A   1      48.661  26.994  27.259  1.00  0.00    -0.203 F 
ATOM    103  F   UNL A   1      48.958  27.541  21.837  1.00  0.00    -0.200 F 
ATOM    104  C   UNL A   1      49.988  26.988  23.889  1.00  0.00     0.200 A 
ATOM    105  F   UNL A   1      50.975  26.456  25.965  1.00  0.00    -0.200 F 
ATOM    106  F   UNL A   1      51.130  26.694  23.253  1.00  0.00    -0.200 F 
ENDBRANCH  73  96
ENDBRANCH  47  48
ENDBRANCH  40  42
ENDBRANCH  39  40
ENDBRANCH  38  39
ENDBRANCH  37  38
ENDBRANCH  36  37
ENDBRANCH  35  36
ENDBRANCH   1  35
TORSDOF 21
ENDMDL
