MODEL 1
REMARK VINA RESULT:     -10.9      0.000      0.000
REMARK SMILES COc1cc(/C=C2\SC(=S)N(CC(=O)OCCOCCOCCOC(=O)c3ccc(-c4c5nc(c(-c6c(F)c(F)c(F)c(F)c6F)c6ccc([nH]6)c(-c6c(F)c(F)c(F)c(F)c6F)c6nc(c(-c7c(F)c(F)c(F)c(F)c7F)c7ccc4[nH]7)C=C6)C=C5)cc3)C2=O)cc2c1OCO2
REMARK SMILES IDX 19 1 18 2 17 3 16 4 15 5 13 6 14 7 12 8 11 9 6 10 7 11 8 12
REMARK SMILES IDX 90 13 9 14 91 15 10 16 5 17 3 18 4 19 94 20 93 21 95 22
REMARK SMILES IDX 92 23 97 24 96 25 2 26 1 27 20 28 21 29 22 30 23 31 24 32
REMARK SMILES IDX 25 33 26 34 27 35 28 36 89 37 29 38 88 39 30 40 31 41 32 42
REMARK SMILES IDX 82 43 33 44 87 45 81 46 83 47 34 48 86 49 80 50 79 51 35 53
REMARK SMILES IDX 67 54 47 55 66 56 48 57 51 58 65 59 84 60 49 61 50 62 64 64
REMARK SMILES IDX 85 65 52 66 36 67 37 68 45 69 38 70 39 71 43 72 46 73 40 74
REMARK SMILES IDX 41 75 44 76 42 77 68 78 69 79 77 80 70 81 71 82 75 83 78 84
REMARK SMILES IDX 72 85 73 86 76 87 74 88 53 89 54 90 62 91 55 92 56 93 60 94
REMARK SMILES IDX 63 95 57 96 58 97 61 98 59 99
REMARK H PARENT 83 52 51 63
REMARK Flexibility Score: inf
ROOT
ATOM      1  C   UNL A   1      34.629  32.457  27.606  1.00  0.00     0.188 C 
ENDROOT
BRANCH   1   2
ATOM      2  O   UNL A   1      33.930  31.446  28.329  1.00  0.00    -0.376 OA
BRANCH   2   3
ATOM      3  C   UNL A   1      33.082  30.545  27.628  1.00  0.00     0.202 C 
BRANCH   3   4
ATOM      4  C   UNL A   1      33.633  29.964  26.320  1.00  0.00     0.261 C 
BRANCH   4   5
ATOM      5  O   UNL A   1      32.951  28.776  25.857  1.00  0.00    -0.462 OA
BRANCH   5   6
ATOM      6  C   UNL A   1      31.754  28.971  25.245  1.00  0.00     0.326 C 
ATOM      7  O   UNL A   1      31.369  30.056  24.818  1.00  0.00    -0.250 OA
BRANCH   6   8
ATOM      8  C   UNL A   1      30.901  27.710  25.065  1.00  0.00     0.250 C 
BRANCH   8   9
ATOM      9  N   UNL A   1      31.507  26.407  24.750  1.00  0.00    -0.282 N 
ATOM     10  C   UNL A   1      32.360  23.083  25.951  1.00  0.00     0.029 C 
ATOM     11  C   UNL A   1      32.270  24.215  25.233  1.00  0.00     0.081 C 
ATOM     12  S   UNL A   1      32.894  24.519  23.662  1.00  0.00    -0.054 SA
ATOM     13  C   UNL A   1      31.574  25.435  25.732  1.00  0.00     0.266 C 
ATOM     14  C   UNL A   1      32.160  26.119  23.571  1.00  0.00     0.148 C 
ATOM     15  O   UNL A   1      31.148  25.550  26.873  1.00  0.00    -0.268 OA
ATOM     16  S   UNL A   1      32.306  27.091  22.225  1.00  0.00    -0.052 S 
BRANCH  10  17
ATOM     17  C   UNL A   1      33.146  21.894  25.587  1.00  0.00    -0.017 A 
ATOM     18  C   UNL A   1      33.290  19.563  24.828  1.00  0.00     0.165 A 
ATOM     19  C   UNL A   1      32.528  20.700  25.156  1.00  0.00     0.058 A 
ATOM     20  C   UNL A   1      34.669  19.668  24.910  1.00  0.00     0.207 A 
ATOM     21  C   UNL A   1      35.266  20.832  25.342  1.00  0.00     0.170 A 
ATOM     22  O   UNL A   1      35.601  18.730  24.581  1.00  0.00    -0.450 OA
ATOM     23  C   UNL A   1      34.540  21.948  25.702  1.00  0.00     0.059 A 
ATOM     24  O   UNL A   1      36.625  20.758  25.357  1.00  0.00    -0.453 OA
ATOM     25  C   UNL A   1      36.828  19.460  24.773  1.00  0.00     0.468 C 
BRANCH  18  26
ATOM     26  O   UNL A   1      32.578  18.474  24.410  1.00  0.00    -0.493 OA
ATOM     27  C   UNL A   1      32.463  17.410  25.352  1.00  0.00     0.278 C 
ENDBRANCH  18  26
ENDBRANCH  10  17
ENDBRANCH   8   9
ENDBRANCH   6   8
ENDBRANCH   5   6
ENDBRANCH   4   5
ENDBRANCH   3   4
ENDBRANCH   2   3
ENDBRANCH   1   2
BRANCH   1  28
ATOM     28  C   UNL A   1      34.713  33.871  28.195  1.00  0.00     0.188 C 
BRANCH  28  29
ATOM     29  O   UNL A   1      33.524  34.264  28.853  1.00  0.00    -0.376 OA
BRANCH  29  30
ATOM     30  C   UNL A   1      33.649  34.596  30.221  1.00  0.00     0.202 C 
BRANCH  30  31
ATOM     31  C   UNL A   1      34.917  34.014  30.853  1.00  0.00     0.261 C 
BRANCH  31  32
ATOM     32  O   UNL A   1      34.821  32.646  31.297  1.00  0.00    -0.460 OA
BRANCH  32  33
ATOM     33  C   UNL A   1      35.663  32.259  32.282  1.00  0.00     0.338 C 
ATOM     34  O   UNL A   1      35.473  32.333  33.481  1.00  0.00    -0.246 OA
BRANCH  33  35
ATOM     35  C   UNL A   1      36.800  31.546  31.659  1.00  0.00     0.060 A 
ATOM     36  C   UNL A   1      37.800  31.019  32.482  1.00  0.00     0.016 A 
ATOM     37  C   UNL A   1      36.896  31.415  30.273  1.00  0.00     0.016 A 
ATOM     38  C   UNL A   1      38.905  30.370  31.931  1.00  0.00     0.010 A 
ATOM     39  C   UNL A   1      38.017  30.785  29.718  1.00  0.00     0.010 A 
ATOM     40  C   UNL A   1      39.038  30.277  30.543  1.00  0.00    -0.014 A 
BRANCH  40  41
ATOM     41  C   UNL A   1      40.303  29.786  29.940  1.00  0.00     0.031 A 
ATOM     42  C   UNL A   1      41.445  30.749  29.774  1.00  0.00     0.074 A 
ATOM     43  C   UNL A   1      40.443  28.508  29.548  1.00  0.00     0.049 A 
ATOM     44  N   UNL A   1      42.585  30.595  29.149  1.00  0.00    -0.248 NA
ATOM     45  C   UNL A   1      41.273  32.070  30.397  1.00  0.00     0.031 C 
ATOM     46  C   UNL A   1      39.443  27.457  29.718  1.00  0.00     0.029 A 
ATOM     47  N   UNL A   1      41.486  27.882  28.906  1.00  0.00    -0.354 N 
ATOM     48  C   UNL A   1      43.253  31.804  29.281  1.00  0.00     0.074 A 
ATOM     49  C   UNL A   1      42.387  32.687  30.032  1.00  0.00     0.031 C 
ATOM     50  C   UNL A   1      39.910  26.319  29.175  1.00  0.00     0.029 A 
ATOM     51  C   UNL A   1      41.219  26.576  28.575  1.00  0.00     0.049 A 
ATOM     52  H   UNL A   1      42.340  28.327  28.705  1.00  0.00     0.167 HD
ATOM     53  C   UNL A   1      44.479  32.147  28.817  1.00  0.00     0.037 A 
ATOM     54  C   UNL A   1      41.932  25.703  27.835  1.00  0.00     0.037 A 
ATOM     55  C   UNL A   1      45.341  31.262  28.077  1.00  0.00     0.049 A 
ATOM     56  C   UNL A   1      43.254  26.134  27.252  1.00  0.00     0.074 A 
ATOM     57  C   UNL A   1      46.607  31.507  27.575  1.00  0.00     0.029 A 
ATOM     58  N   UNL A   1      45.020  29.958  27.726  1.00  0.00    -0.354 N 
ATOM     59  N   UNL A   1      43.881  27.280  27.371  1.00  0.00    -0.248 NA
ATOM     60  C   UNL A   1      43.967  25.148  26.425  1.00  0.00     0.031 C 
ATOM     61  C   UNL A   1      47.028  30.373  26.873  1.00  0.00     0.029 A 
ATOM     62  C   UNL A   1      46.051  29.398  26.989  1.00  0.00     0.049 A 
ATOM     63  H   UNL A   1      44.183  29.498  27.967  1.00  0.00     0.167 HD
ATOM     64  C   UNL A   1      45.066  27.146  26.656  1.00  0.00     0.074 A 
ATOM     65  C   UNL A   1      45.079  25.801  26.120  1.00  0.00     0.031 C 
ATOM     66  C   UNL A   1      46.052  28.056  26.462  1.00  0.00     0.037 A 
BRANCH  53  67
ATOM     67  C   UNL A   1      44.939  33.556  29.054  1.00  0.00     0.064 A 
ATOM     68  C   UNL A   1      44.610  34.603  28.180  1.00  0.00     0.173 A 
ATOM     69  C   UNL A   1      45.709  33.866  30.186  1.00  0.00     0.173 A 
ATOM     70  F   UNL A   1      43.889  34.360  27.075  1.00  0.00    -0.203 F 
ATOM     71  C   UNL A   1      45.060  35.900  28.414  1.00  0.00     0.198 A 
ATOM     72  C   UNL A   1      46.131  35.169  30.433  1.00  0.00     0.198 A 
ATOM     73  F   UNL A   1      46.050  32.902  31.056  1.00  0.00    -0.203 F 
ATOM     74  F   UNL A   1      44.780  36.874  27.536  1.00  0.00    -0.200 F 
ATOM     75  C   UNL A   1      45.815  36.183  29.543  1.00  0.00     0.200 A 
ATOM     76  F   UNL A   1      46.850  35.441  31.531  1.00  0.00    -0.200 F 
ATOM     77  F   UNL A   1      46.245  37.432  29.768  1.00  0.00    -0.200 F 
ENDBRANCH  53  67
BRANCH  54  78
ATOM     78  C   UNL A   1      41.394  24.343  27.570  1.00  0.00     0.064 A 
ATOM     79  C   UNL A   1      41.983  23.206  28.139  1.00  0.00     0.173 A 
ATOM     80  C   UNL A   1      40.288  24.150  26.728  1.00  0.00     0.173 A 
ATOM     81  F   UNL A   1      43.062  23.334  28.925  1.00  0.00    -0.203 F 
ATOM     82  C   UNL A   1      41.495  21.929  27.869  1.00  0.00     0.198 A 
ATOM     83  C   UNL A   1      39.781  22.876  26.482  1.00  0.00     0.198 A 
ATOM     84  F   UNL A   1      39.692  25.203  26.149  1.00  0.00    -0.203 F 
ATOM     85  F   UNL A   1      42.107  20.856  28.389  1.00  0.00    -0.200 F 
ATOM     86  C   UNL A   1      40.390  21.765  27.047  1.00  0.00     0.200 A 
ATOM     87  F   UNL A   1      38.708  22.723  25.695  1.00  0.00    -0.200 F 
ATOM     88  F   UNL A   1      39.918  20.538  26.791  1.00  0.00    -0.200 F 
ENDBRANCH  54  78
BRANCH  66  89
ATOM     89  C   UNL A   1      47.247  27.620  25.661  1.00  0.00     0.064 A 
ATOM     90  C   UNL A   1      48.369  27.036  26.265  1.00  0.00     0.173 A 
ATOM     91  C   UNL A   1      47.250  27.750  24.262  1.00  0.00     0.173 A 
ATOM     92  F   UNL A   1      48.423  26.901  27.600  1.00  0.00    -0.203 F 
ATOM     93  C   UNL A   1      49.461  26.624  25.505  1.00  0.00     0.198 A 
ATOM     94  C   UNL A   1      48.328  27.308  23.502  1.00  0.00     0.198 A 
ATOM     95  F   UNL A   1      46.198  28.295  23.631  1.00  0.00    -0.203 F 
ATOM     96  F   UNL A   1      50.542  26.114  26.109  1.00  0.00    -0.200 F 
ATOM     97  C   UNL A   1      49.437  26.752  24.124  1.00  0.00     0.200 A 
ATOM     98  F   UNL A   1      48.296  27.418  22.167  1.00  0.00    -0.200 F 
ATOM     99  F   UNL A   1      50.484  26.347  23.393  1.00  0.00    -0.200 F 
ENDBRANCH  66  89
ENDBRANCH  40  41
ENDBRANCH  33  35
ENDBRANCH  32  33
ENDBRANCH  31  32
ENDBRANCH  30  31
ENDBRANCH  29  30
ENDBRANCH  28  29
ENDBRANCH   1  28
TORSDOF 20
ENDMDL
MODEL 2
REMARK VINA RESULT:     -10.8      4.587      9.101
REMARK SMILES COc1cc(/C=C2\SC(=S)N(CC(=O)OCCOCCOCCOC(=O)c3ccc(-c4c5nc(c(-c6c(F)c(F)c(F)c(F)c6F)c6ccc([nH]6)c(-c6c(F)c(F)c(F)c(F)c6F)c6nc(c(-c7c(F)c(F)c(F)c(F)c7F)c7ccc4[nH]7)C=C6)C=C5)cc3)C2=O)cc2c1OCO2
REMARK SMILES IDX 19 1 18 2 17 3 16 4 15 5 13 6 14 7 12 8 11 9 6 10 7 11 8 12
REMARK SMILES IDX 90 13 9 14 91 15 10 16 5 17 3 18 4 19 94 20 93 21 95 22
REMARK SMILES IDX 92 23 97 24 96 25 2 26 1 27 20 28 21 29 22 30 23 31 24 32
REMARK SMILES IDX 25 33 26 34 27 35 28 36 89 37 29 38 88 39 30 40 31 41 32 42
REMARK SMILES IDX 82 43 33 44 87 45 81 46 83 47 34 48 86 49 80 50 79 51 35 53
REMARK SMILES IDX 67 54 47 55 66 56 48 57 51 58 65 59 84 60 49 61 50 62 64 64
REMARK SMILES IDX 85 65 52 66 36 67 37 68 45 69 38 70 39 71 43 72 46 73 40 74
REMARK SMILES IDX 41 75 44 76 42 77 68 78 69 79 77 80 70 81 71 82 75 83 78 84
REMARK SMILES IDX 72 85 73 86 76 87 74 88 53 89 54 90 62 91 55 92 56 93 60 94
REMARK SMILES IDX 63 95 57 96 58 97 61 98 59 99
REMARK H PARENT 83 52 51 63
REMARK Flexibility Score: inf
ROOT
ATOM      1  C   UNL A   1      33.149  28.755  24.862  1.00  0.00     0.188 C 
ENDROOT
BRANCH   1   2
ATOM      2  O   UNL A   1      32.212  29.328  23.953  1.00  0.00    -0.376 OA
BRANCH   2   3
ATOM      3  C   UNL A   1      30.868  29.532  24.371  1.00  0.00     0.202 C 
BRANCH   3   4
ATOM      4  C   UNL A   1      29.782  29.316  23.311  1.00  0.00     0.261 C 
BRANCH   4   5
ATOM      5  O   UNL A   1      29.652  27.950  22.854  1.00  0.00    -0.462 OA
BRANCH   5   6
ATOM      6  C   UNL A   1      29.234  27.046  23.778  1.00  0.00     0.326 C 
ATOM      7  O   UNL A   1      28.077  26.645  23.873  1.00  0.00    -0.250 OA
BRANCH   6   8
ATOM      8  C   UNL A   1      30.331  26.497  24.696  1.00  0.00     0.250 C 
BRANCH   8   9
ATOM      9  N   UNL A   1      31.045  25.249  24.384  1.00  0.00    -0.282 N 
ATOM     10  C   UNL A   1      31.847  21.862  25.435  1.00  0.00     0.029 C 
ATOM     11  C   UNL A   1      31.823  23.049  24.809  1.00  0.00     0.081 C 
ATOM     12  S   UNL A   1      32.687  23.515  23.400  1.00  0.00    -0.054 SA
ATOM     13  C   UNL A   1      30.993  24.195  25.279  1.00  0.00     0.266 C 
ATOM     14  C   UNL A   1      31.901  25.091  23.316  1.00  0.00     0.148 C 
ATOM     15  O   UNL A   1      30.376  24.193  26.335  1.00  0.00    -0.268 OA
ATOM     16  S   UNL A   1      32.224  26.184  22.101  1.00  0.00    -0.052 S 
BRANCH  10  17
ATOM     17  C   UNL A   1      32.740  20.738  25.115  1.00  0.00    -0.017 A 
ATOM     18  C   UNL A   1      34.989  19.780  24.876  1.00  0.00     0.165 A 
ATOM     19  C   UNL A   1      34.144  20.858  25.203  1.00  0.00     0.058 A 
ATOM     20  C   UNL A   1      34.393  18.588  24.499  1.00  0.00     0.207 A 
ATOM     21  C   UNL A   1      33.023  18.480  24.404  1.00  0.00     0.170 A 
ATOM     22  O   UNL A   1      35.001  17.404  24.206  1.00  0.00    -0.450 OA
ATOM     23  C   UNL A   1      32.176  19.531  24.686  1.00  0.00     0.059 A 
ATOM     24  O   UNL A   1      32.612  17.239  24.025  1.00  0.00    -0.453 OA
ATOM     25  C   UNL A   1      33.868  16.539  24.004  1.00  0.00     0.468 C 
BRANCH  18  26
ATOM     26  O   UNL A   1      36.328  20.015  25.016  1.00  0.00    -0.493 OA
ATOM     27  C   UNL A   1      36.722  21.385  24.997  1.00  0.00     0.278 C 
ENDBRANCH  18  26
ENDBRANCH  10  17
ENDBRANCH   8   9
ENDBRANCH   6   8
ENDBRANCH   5   6
ENDBRANCH   4   5
ENDBRANCH   3   4
ENDBRANCH   2   3
ENDBRANCH   1   2
BRANCH   1  28
ATOM     28  C   UNL A   1      33.134  29.201  26.330  1.00  0.00     0.188 C 
BRANCH  28  29
ATOM     29  O   UNL A   1      33.716  30.476  26.523  1.00  0.00    -0.376 OA
BRANCH  29  30
ATOM     30  C   UNL A   1      33.229  31.224  27.619  1.00  0.00     0.202 C 
BRANCH  30  31
ATOM     31  C   UNL A   1      33.618  32.703  27.540  1.00  0.00     0.261 C 
BRANCH  31  32
ATOM     32  O   UNL A   1      32.622  33.636  28.007  1.00  0.00    -0.460 OA
BRANCH  32  33
ATOM     33  C   UNL A   1      33.065  34.720  28.682  1.00  0.00     0.338 C 
ATOM     34  O   UNL A   1      32.528  35.809  28.753  1.00  0.00    -0.246 OA
BRANCH  33  35
ATOM     35  C   UNL A   1      34.235  34.310  29.491  1.00  0.00     0.060 A 
ATOM     36  C   UNL A   1      35.518  34.581  29.006  1.00  0.00     0.016 A 
ATOM     37  C   UNL A   1      34.074  33.644  30.705  1.00  0.00     0.016 A 
ATOM     38  C   UNL A   1      36.647  34.179  29.721  1.00  0.00     0.010 A 
ATOM     39  C   UNL A   1      35.206  33.220  31.413  1.00  0.00     0.010 A 
ATOM     40  C   UNL A   1      36.499  33.467  30.915  1.00  0.00    -0.014 A 
BRANCH  40  41
ATOM     41  C   UNL A   1      37.678  32.848  31.572  1.00  0.00     0.031 A 
ATOM     42  C   UNL A   1      38.355  31.688  30.897  1.00  0.00     0.074 A 
ATOM     43  C   UNL A   1      38.145  33.304  32.747  1.00  0.00     0.049 A 
ATOM     44  N   UNL A   1      39.301  30.899  31.339  1.00  0.00    -0.248 NA
ATOM     45  C   UNL A   1      37.898  31.376  29.534  1.00  0.00     0.031 C 
ATOM     46  C   UNL A   1      37.628  34.463  33.470  1.00  0.00     0.029 A 
ATOM     47  N   UNL A   1      39.157  32.830  33.548  1.00  0.00    -0.354 N 
ATOM     48  C   UNL A   1      39.533  29.983  30.323  1.00  0.00     0.074 A 
ATOM     49  C   UNL A   1      38.620  30.303  29.247  1.00  0.00     0.031 C 
ATOM     50  C   UNL A   1      38.311  34.599  34.620  1.00  0.00     0.029 A 
ATOM     51  C   UNL A   1      39.277  33.508  34.736  1.00  0.00     0.049 A 
ATOM     52  H   UNL A   1      39.739  32.079  33.293  1.00  0.00     0.167 HD
ATOM     53  C   UNL A   1      40.426  28.965  30.291  1.00  0.00     0.037 A 
ATOM     54  C   UNL A   1      40.049  33.250  35.810  1.00  0.00     0.037 A 
ATOM     55  C   UNL A   1      41.338  28.655  31.362  1.00  0.00     0.049 A 
ATOM     56  C   UNL A   1      40.974  32.059  35.790  1.00  0.00     0.074 A 
ATOM     57  C   UNL A   1      42.293  27.655  31.421  1.00  0.00     0.029 A 
ATOM     58  N   UNL A   1      41.404  29.340  32.567  1.00  0.00    -0.354 N 
ATOM     59  N   UNL A   1      41.186  31.189  34.831  1.00  0.00    -0.248 NA
ATOM     60  C   UNL A   1      41.763  31.811  37.006  1.00  0.00     0.031 C 
ATOM     61  C   UNL A   1      42.896  27.699  32.683  1.00  0.00     0.029 A 
ATOM     62  C   UNL A   1      42.361  28.765  33.387  1.00  0.00     0.049 A 
ATOM     63  H   UNL A   1      40.852  30.120  32.803  1.00  0.00     0.167 HD
ATOM     64  C   UNL A   1      42.145  30.308  35.317  1.00  0.00     0.074 A 
ATOM     65  C   UNL A   1      42.486  30.758  36.650  1.00  0.00     0.031 C 
ATOM     66  C   UNL A   1      42.692  29.224  34.713  1.00  0.00     0.037 A 
BRANCH  53  67
ATOM     67  C   UNL A   1      40.426  28.082  29.077  1.00  0.00     0.064 A 
ATOM     68  C   UNL A   1      41.197  28.377  27.943  1.00  0.00     0.173 A 
ATOM     69  C   UNL A   1      39.653  26.911  29.057  1.00  0.00     0.173 A 
ATOM     70  F   UNL A   1      41.943  29.492  27.904  1.00  0.00    -0.203 F 
ATOM     71  C   UNL A   1      41.170  27.549  26.823  1.00  0.00     0.198 A 
ATOM     72  C   UNL A   1      39.652  26.069  27.948  1.00  0.00     0.198 A 
ATOM     73  F   UNL A   1      38.899  26.580  30.116  1.00  0.00    -0.203 F 
ATOM     74  F   UNL A   1      41.872  27.880  25.730  1.00  0.00    -0.200 F 
ATOM     75  C   UNL A   1      40.402  26.393  26.829  1.00  0.00     0.200 A 
ATOM     76  F   UNL A   1      38.920  24.947  27.961  1.00  0.00    -0.200 F 
ATOM     77  F   UNL A   1      40.380  25.597  25.752  1.00  0.00    -0.200 F 
ENDBRANCH  53  67
BRANCH  54  78
ATOM     78  C   UNL A   1      39.956  34.116  37.016  1.00  0.00     0.064 A 
ATOM     79  C   UNL A   1      40.750  35.263  37.149  1.00  0.00     0.173 A 
ATOM     80  C   UNL A   1      39.081  33.804  38.068  1.00  0.00     0.173 A 
ATOM     81  F   UNL A   1      41.625  35.585  36.186  1.00  0.00    -0.203 F 
ATOM     82  C   UNL A   1      40.682  36.058  38.291  1.00  0.00     0.198 A 
ATOM     83  C   UNL A   1      38.991  34.617  39.196  1.00  0.00     0.198 A 
ATOM     84  F   UNL A   1      38.306  32.712  37.997  1.00  0.00    -0.203 F 
ATOM     85  F   UNL A   1      41.486  37.123  38.412  1.00  0.00    -0.200 F 
ATOM     86  C   UNL A   1      39.796  35.739  39.310  1.00  0.00     0.200 A 
ATOM     87  F   UNL A   1      38.128  34.309  40.174  1.00  0.00    -0.200 F 
ATOM     88  F   UNL A   1      39.728  36.507  40.406  1.00  0.00    -0.200 F 
ENDBRANCH  54  78
BRANCH  66  89
ATOM     89  C   UNL A   1      43.742  28.464  35.475  1.00  0.00     0.064 A 
ATOM     90  C   UNL A   1      43.419  27.365  36.283  1.00  0.00     0.173 A 
ATOM     91  C   UNL A   1      45.096  28.818  35.360  1.00  0.00     0.173 A 
ATOM     92  F   UNL A   1      42.138  26.994  36.437  1.00  0.00    -0.203 F 
ATOM     93  C   UNL A   1      44.407  26.664  36.969  1.00  0.00     0.198 A 
ATOM     94  C   UNL A   1      46.085  28.095  36.022  1.00  0.00     0.198 A 
ATOM     95  F   UNL A   1      45.462  29.856  34.594  1.00  0.00    -0.203 F 
ATOM     96  F   UNL A   1      44.069  25.647  37.774  1.00  0.00    -0.200 F 
ATOM     97  C   UNL A   1      45.740  27.023  36.832  1.00  0.00     0.200 A 
ATOM     98  F   UNL A   1      47.373  28.434  35.875  1.00  0.00    -0.200 F 
ATOM     99  F   UNL A   1      46.690  26.342  37.486  1.00  0.00    -0.200 F 
ENDBRANCH  66  89
ENDBRANCH  40  41
ENDBRANCH  33  35
ENDBRANCH  32  33
ENDBRANCH  31  32
ENDBRANCH  30  31
ENDBRANCH  29  30
ENDBRANCH  28  29
ENDBRANCH   1  28
TORSDOF 20
ENDMDL
MODEL 3
REMARK VINA RESULT:     -10.8      4.294      8.436
REMARK SMILES COc1cc(/C=C2\SC(=S)N(CC(=O)OCCOCCOCCOC(=O)c3ccc(-c4c5nc(c(-c6c(F)c(F)c(F)c(F)c6F)c6ccc([nH]6)c(-c6c(F)c(F)c(F)c(F)c6F)c6nc(c(-c7c(F)c(F)c(F)c(F)c7F)c7ccc4[nH]7)C=C6)C=C5)cc3)C2=O)cc2c1OCO2
REMARK SMILES IDX 19 1 18 2 17 3 16 4 15 5 13 6 14 7 12 8 11 9 6 10 7 11 8 12
REMARK SMILES IDX 90 13 9 14 91 15 10 16 5 17 3 18 4 19 94 20 93 21 95 22
REMARK SMILES IDX 92 23 97 24 96 25 2 26 1 27 20 28 21 29 22 30 23 31 24 32
REMARK SMILES IDX 25 33 26 34 27 35 28 36 89 37 29 38 88 39 30 40 31 41 32 42
REMARK SMILES IDX 82 43 33 44 87 45 81 46 83 47 34 48 86 49 80 50 79 51 35 53
REMARK SMILES IDX 67 54 47 55 66 56 48 57 51 58 65 59 84 60 49 61 50 62 64 64
REMARK SMILES IDX 85 65 52 66 36 67 37 68 45 69 38 70 39 71 43 72 46 73 40 74
REMARK SMILES IDX 41 75 44 76 42 77 68 78 69 79 77 80 70 81 71 82 75 83 78 84
REMARK SMILES IDX 72 85 73 86 76 87 74 88 53 89 54 90 62 91 55 92 56 93 60 94
REMARK SMILES IDX 63 95 57 96 58 97 61 98 59 99
REMARK H PARENT 83 52 51 63
REMARK Flexibility Score: inf
ROOT
ATOM      1  C   UNL A   1      32.105  27.537  22.684  1.00  0.00     0.188 C 
ENDROOT
BRANCH   1   2
ATOM      2  O   UNL A   1      30.923  26.745  22.598  1.00  0.00    -0.376 OA
BRANCH   2   3
ATOM      3  C   UNL A   1      29.714  27.229  23.169  1.00  0.00     0.202 C 
BRANCH   3   4
ATOM      4  C   UNL A   1      29.264  26.571  24.478  1.00  0.00     0.261 C 
BRANCH   4   5
ATOM      5  O   UNL A   1      30.235  25.673  25.064  1.00  0.00    -0.462 OA
BRANCH   5   6
ATOM      6  C   UNL A   1      31.022  26.195  26.040  1.00  0.00     0.326 C 
ATOM      7  O   UNL A   1      30.703  27.149  26.745  1.00  0.00    -0.250 OA
BRANCH   6   8
ATOM      8  C   UNL A   1      32.356  25.472  26.259  1.00  0.00     0.250 C 
BRANCH   8   9
ATOM      9  N   UNL A   1      32.638  24.168  25.639  1.00  0.00    -0.282 N 
ATOM     10  C   UNL A   1      32.012  20.587  25.674  1.00  0.00     0.029 C 
ATOM     11  C   UNL A   1      32.515  21.809  25.435  1.00  0.00     0.081 C 
ATOM     12  S   UNL A   1      33.728  22.245  24.301  1.00  0.00    -0.054 SA
ATOM     13  C   UNL A   1      32.062  23.026  26.167  1.00  0.00     0.266 C 
ATOM     14  C   UNL A   1      33.566  23.969  24.639  1.00  0.00     0.148 C 
ATOM     15  O   UNL A   1      31.301  22.995  27.124  1.00  0.00    -0.268 OA
ATOM     16  S   UNL A   1      34.463  25.122  23.839  1.00  0.00    -0.052 S 
BRANCH  10  17
ATOM     17  C   UNL A   1      32.503  19.326  25.096  1.00  0.00    -0.017 A 
ATOM     18  C   UNL A   1      32.817  17.815  23.186  1.00  0.00     0.165 A 
ATOM     19  C   UNL A   1      32.359  19.033  23.723  1.00  0.00     0.058 A 
ATOM     20  C   UNL A   1      33.445  16.930  24.046  1.00  0.00     0.207 A 
ATOM     21  C   UNL A   1      33.572  17.216  25.388  1.00  0.00     0.170 A 
ATOM     22  O   UNL A   1      34.022  15.733  23.741  1.00  0.00    -0.450 OA
ATOM     23  C   UNL A   1      33.101  18.386  25.944  1.00  0.00     0.059 A 
ATOM     24  O   UNL A   1      34.217  16.238  26.081  1.00  0.00    -0.453 OA
ATOM     25  C   UNL A   1      34.589  15.354  25.010  1.00  0.00     0.468 C 
BRANCH  18  26
ATOM     26  O   UNL A   1      32.634  17.655  21.841  1.00  0.00    -0.493 OA
ATOM     27  C   UNL A   1      32.131  18.793  21.145  1.00  0.00     0.278 C 
ENDBRANCH  18  26
ENDBRANCH  10  17
ENDBRANCH   8   9
ENDBRANCH   6   8
ENDBRANCH   5   6
ENDBRANCH   4   5
ENDBRANCH   3   4
ENDBRANCH   2   3
ENDBRANCH   1   2
BRANCH   1  28
ATOM     28  C   UNL A   1      31.979  29.032  23.007  1.00  0.00     0.188 C 
BRANCH  28  29
ATOM     29  O   UNL A   1      32.247  29.326  24.364  1.00  0.00    -0.376 OA
BRANCH  29  30
ATOM     30  C   UNL A   1      31.262  30.077  25.045  1.00  0.00     0.202 C 
BRANCH  30  31
ATOM     31  C   UNL A   1      31.727  30.539  26.430  1.00  0.00     0.261 C 
BRANCH  31  32
ATOM     32  O   UNL A   1      33.154  30.657  26.600  1.00  0.00    -0.460 OA
BRANCH  32  33
ATOM     33  C   UNL A   1      33.602  31.718  27.309  1.00  0.00     0.338 C 
ATOM     34  O   UNL A   1      32.994  32.740  27.561  1.00  0.00    -0.246 OA
BRANCH  33  35
ATOM     35  C   UNL A   1      34.909  31.355  27.899  1.00  0.00     0.060 A 
ATOM     36  C   UNL A   1      35.117  30.038  28.321  1.00  0.00     0.016 A 
ATOM     37  C   UNL A   1      35.917  32.306  28.060  1.00  0.00     0.016 A 
ATOM     38  C   UNL A   1      36.323  29.663  28.914  1.00  0.00     0.010 A 
ATOM     39  C   UNL A   1      37.119  31.936  28.677  1.00  0.00     0.010 A 
ATOM     40  C   UNL A   1      37.321  30.618  29.126  1.00  0.00    -0.014 A 
BRANCH  40  41
ATOM     41  C   UNL A   1      38.514  30.288  29.946  1.00  0.00     0.031 A 
ATOM     42  C   UNL A   1      39.537  29.340  29.385  1.00  0.00     0.074 A 
ATOM     43  C   UNL A   1      38.694  30.820  31.168  1.00  0.00     0.049 A 
ATOM     44  N   UNL A   1      40.577  28.794  29.963  1.00  0.00    -0.248 NA
ATOM     45  C   UNL A   1      39.358  28.954  27.978  1.00  0.00     0.031 C 
ATOM     46  C   UNL A   1      37.818  31.805  31.798  1.00  0.00     0.029 A 
ATOM     47  N   UNL A   1      39.672  30.588  32.105  1.00  0.00    -0.354 N 
ATOM     48  C   UNL A   1      41.159  27.982  29.001  1.00  0.00     0.074 A 
ATOM     49  C   UNL A   1      40.351  28.094  27.806  1.00  0.00     0.031 C 
ATOM     50  C   UNL A   1      38.285  32.079  33.028  1.00  0.00     0.029 A 
ATOM     51  C   UNL A   1      39.462  31.251  33.289  1.00  0.00     0.049 A 
ATOM     52  H   UNL A   1      40.447  30.005  31.943  1.00  0.00     0.167 HD
ATOM     53  C   UNL A   1      42.268  27.210  29.105  1.00  0.00     0.037 A 
ATOM     54  C   UNL A   1      40.120  31.166  34.463  1.00  0.00     0.037 A 
ATOM     55  C   UNL A   1      43.074  27.108  30.294  1.00  0.00     0.049 A 
ATOM     56  C   UNL A   1      41.300  30.233  34.585  1.00  0.00     0.074 A 
ATOM     57  C   UNL A   1      44.225  26.367  30.497  1.00  0.00     0.029 A 
ATOM     58  N   UNL A   1      42.808  27.764  31.487  1.00  0.00    -0.354 N 
ATOM     59  N   UNL A   1      41.844  29.460  33.676  1.00  0.00    -0.248 NA
ATOM     60  C   UNL A   1      41.953  30.158  35.901  1.00  0.00     0.031 C 
ATOM     61  C   UNL A   1      44.623  26.530  31.828  1.00  0.00     0.029 A 
ATOM     62  C   UNL A   1      43.755  27.421  32.439  1.00  0.00     0.049 A 
ATOM     63  H   UNL A   1      42.057  28.383  31.636  1.00  0.00     0.167 HD
ATOM     64  C   UNL A   1      42.912  28.827  34.300  1.00  0.00     0.074 A 
ATOM     65  C   UNL A   1      42.950  29.318  35.661  1.00  0.00     0.031 C 
ATOM     66  C   UNL A   1      43.782  27.919  33.791  1.00  0.00     0.037 A 
BRANCH  53  67
ATOM     67  C   UNL A   1      42.646  26.378  27.914  1.00  0.00     0.064 A 
ATOM     68  C   UNL A   1      42.113  25.097  27.703  1.00  0.00     0.173 A 
ATOM     69  C   UNL A   1      43.543  26.880  26.958  1.00  0.00     0.173 A 
ATOM     70  F   UNL A   1      41.263  24.564  28.592  1.00  0.00    -0.203 F 
ATOM     71  C   UNL A   1      42.490  24.339  26.597  1.00  0.00     0.198 A 
ATOM     72  C   UNL A   1      43.893  26.131  25.839  1.00  0.00     0.198 A 
ATOM     73  F   UNL A   1      44.080  28.100  27.110  1.00  0.00    -0.203 F 
ATOM     74  F   UNL A   1      42.012  23.095  26.445  1.00  0.00    -0.200 F 
ATOM     75  C   UNL A   1      43.374  24.858  25.663  1.00  0.00     0.200 A 
ATOM     76  F   UNL A   1      44.738  26.641  24.931  1.00  0.00    -0.200 F 
ATOM     77  F   UNL A   1      43.733  24.128  24.598  1.00  0.00    -0.200 F 
ENDBRANCH  53  67
BRANCH  54  78
ATOM     78  C   UNL A   1      39.658  31.958  35.633  1.00  0.00     0.064 A 
ATOM     79  C   UNL A   1      38.654  31.477  36.484  1.00  0.00     0.173 A 
ATOM     80  C   UNL A   1      40.200  33.222  35.916  1.00  0.00     0.173 A 
ATOM     81  F   UNL A   1      38.081  30.290  36.238  1.00  0.00    -0.203 F 
ATOM     82  C   UNL A   1      38.202  32.232  37.564  1.00  0.00     0.198 A 
ATOM     83  C   UNL A   1      39.770  33.962  37.014  1.00  0.00     0.198 A 
ATOM     84  F   UNL A   1      41.156  33.734  35.127  1.00  0.00    -0.203 F 
ATOM     85  F   UNL A   1      37.208  31.768  38.334  1.00  0.00    -0.200 F 
ATOM     86  C   UNL A   1      38.765  33.471  37.833  1.00  0.00     0.200 A 
ATOM     87  F   UNL A   1      40.323  35.155  37.274  1.00  0.00    -0.200 F 
ATOM     88  F   UNL A   1      38.334  34.194  38.875  1.00  0.00    -0.200 F 
ENDBRANCH  54  78
BRANCH  66  89
ATOM     89  C   UNL A   1      44.871  27.420  34.699  1.00  0.00     0.064 A 
ATOM     90  C   UNL A   1      46.071  28.126  34.872  1.00  0.00     0.173 A 
ATOM     91  C   UNL A   1      44.692  26.240  35.439  1.00  0.00     0.173 A 
ATOM     92  F   UNL A   1      46.297  29.252  34.178  1.00  0.00    -0.203 F 
ATOM     93  C   UNL A   1      47.062  27.655  35.730  1.00  0.00     0.198 A 
ATOM     94  C   UNL A   1      45.671  25.790  36.320  1.00  0.00     0.198 A 
ATOM     95  F   UNL A   1      43.560  25.530  35.318  1.00  0.00    -0.203 F 
ATOM     96  F   UNL A   1      48.219  28.320  35.841  1.00  0.00    -0.200 F 
ATOM     97  C   UNL A   1      46.859  26.493  36.459  1.00  0.00     0.200 A 
ATOM     98  F   UNL A   1      45.467  24.676  37.035  1.00  0.00    -0.200 F 
ATOM     99  F   UNL A   1      47.810  26.047  37.291  1.00  0.00    -0.200 F 
ENDBRANCH  66  89
ENDBRANCH  40  41
ENDBRANCH  33  35
ENDBRANCH  32  33
ENDBRANCH  31  32
ENDBRANCH  30  31
ENDBRANCH  29  30
ENDBRANCH  28  29
ENDBRANCH   1  28
TORSDOF 20
ENDMDL
