MODEL 1
REMARK VINA RESULT:     -11.8      0.000      0.000
REMARK SMILES CCC(=O)N1CCc2cc(C(=O)NC3(C(=O)OCCOCCOCCOC(=O)c4ccc(-c5c6nc(c(-c7c(F)c(F)c(F)c(F)c7F)c7ccc([nH]7)c(-c7c(F)c(F)c(F)c(F)c7F)c7nc(c(-c8c(F)c(F)c(F)c(F)c8F)c8ccc5[nH]8)C=C7)C=C6)cc4)CCCC3)ccc21
REMARK SMILES IDX 21 1 20 2 19 3 18 4 17 5 15 6 16 7 14 8 92 9 95 10 93 11
REMARK SMILES IDX 94 12 13 13 11 14 12 15 10 17 5 18 6 19 98 20 7 21 8 22
REMARK SMILES IDX 97 23 9 24 96 25 3 26 4 27 2 28 1 29 22 30 23 31 24 32 25 33
REMARK SMILES IDX 26 34 27 35 28 36 29 37 30 38 91 39 31 40 90 41 32 42 33 43
REMARK SMILES IDX 34 44 84 45 35 46 89 47 83 48 85 49 36 50 88 51 82 52 81 53
REMARK SMILES IDX 37 55 69 56 49 57 68 58 50 59 53 60 67 61 86 62 51 63 52 64
REMARK SMILES IDX 66 66 87 67 54 68 38 69 39 70 47 71 40 72 41 73 45 74 48 75
REMARK SMILES IDX 42 76 43 77 46 78 44 79 70 80 71 81 79 82 72 83 73 84 77 85
REMARK SMILES IDX 80 86 74 87 75 88 78 89 76 90 55 91 56 92 64 93 57 94 58 95
REMARK SMILES IDX 62 96 65 97 59 98 60 99 63 100 61 101
REMARK H PARENT 13 16 85 54 53 65
REMARK Flexibility Score: inf
ROOT
ATOM      1  C   UNL A   1      39.076  21.032  26.249  1.00  0.00     0.188 C 
ENDROOT
BRANCH   1   2
ATOM      2  O   UNL A   1      38.483  21.378  25.008  1.00  0.00    -0.376 OA
BRANCH   2   3
ATOM      3  C   UNL A   1      37.134  21.836  25.018  1.00  0.00     0.202 C 
BRANCH   3   4
ATOM      4  C   UNL A   1      36.029  20.772  25.043  1.00  0.00     0.261 C 
BRANCH   4   5
ATOM      5  O   UNL A   1      34.920  21.114  25.894  1.00  0.00    -0.461 OA
BRANCH   5   6
ATOM      6  C   UNL A   1      33.662  21.020  25.380  1.00  0.00     0.331 C 
ATOM      7  O   UNL A   1      33.070  19.965  25.174  1.00  0.00    -0.249 OA
BRANCH   6   8
ATOM      8  C   UNL A   1      33.027  22.413  25.077  1.00  0.00     0.138 C 
ATOM      9  C   UNL A   1      33.613  23.340  26.158  1.00  0.00     0.040 C 
ATOM     10  C   UNL A   1      31.491  22.374  25.296  1.00  0.00     0.040 C 
ATOM     11  C   UNL A   1      32.585  23.340  27.283  1.00  0.00     0.003 C 
ATOM     12  C   UNL A   1      31.227  23.036  26.656  1.00  0.00     0.003 C 
BRANCH   8  13
ATOM     13  N   UNL A   1      33.459  22.813  23.679  1.00  0.00    -0.336 N 
ATOM     14  C   UNL A   1      33.418  23.904  22.819  1.00  0.00     0.252 C 
ATOM     15  O   UNL A   1      33.976  23.773  21.726  1.00  0.00    -0.269 OA
ATOM     16  H   UNL A   1      33.916  22.058  23.241  1.00  0.00     0.165 HD
BRANCH  14  17
ATOM     17  C   UNL A   1      32.734  25.211  23.086  1.00  0.00     0.040 A 
ATOM     18  N   UNL A   1      30.788  28.874  23.649  1.00  0.00    -0.312 N 
ATOM     19  C   UNL A   1      31.552  29.491  24.741  1.00  0.00     0.130 C 
ATOM     20  C   UNL A   1      31.383  27.654  23.360  1.00  0.00     0.047 A 
ATOM     21  C   UNL A   1      32.684  28.506  25.131  1.00  0.00     0.059 C 
ATOM     22  C   UNL A   1      32.438  27.343  24.213  1.00  0.00    -0.022 A 
ATOM     23  C   UNL A   1      31.092  26.837  22.324  1.00  0.00     0.027 A 
ATOM     24  C   UNL A   1      33.140  26.128  24.079  1.00  0.00     0.019 A 
ATOM     25  C   UNL A   1      31.688  25.601  22.281  1.00  0.00     0.016 A 
BRANCH  18  26
ATOM     26  C   UNL A   1      29.668  29.462  23.093  1.00  0.00     0.226 C 
ATOM     27  O   UNL A   1      29.229  29.077  22.003  1.00  0.00    -0.275 OA
BRANCH  26  28
ATOM     28  C   UNL A   1      29.101  30.762  23.706  1.00  0.00     0.097 C 
ATOM     29  C   UNL A   1      27.884  31.457  23.114  1.00  0.00     0.014 C 
ENDBRANCH  26  28
ENDBRANCH  18  26
ENDBRANCH  14  17
ENDBRANCH   8  13
ENDBRANCH   6   8
ENDBRANCH   5   6
ENDBRANCH   4   5
ENDBRANCH   3   4
ENDBRANCH   2   3
ENDBRANCH   1   2
BRANCH   1  30
ATOM     30  C   UNL A   1      40.464  21.591  26.569  1.00  0.00     0.188 C 
BRANCH  30  31
ATOM     31  O   UNL A   1      41.480  20.636  26.832  1.00  0.00    -0.376 OA
BRANCH  31  32
ATOM     32  C   UNL A   1      42.400  20.419  25.755  1.00  0.00     0.202 C 
BRANCH  32  33
ATOM     33  C   UNL A   1      43.432  21.552  25.567  1.00  0.00     0.261 C 
BRANCH  33  34
ATOM     34  O   UNL A   1      42.917  22.746  24.936  1.00  0.00    -0.460 OA
BRANCH  34  35
ATOM     35  C   UNL A   1      43.691  23.856  24.990  1.00  0.00     0.338 C 
ATOM     36  O   UNL A   1      44.600  24.143  24.229  1.00  0.00    -0.246 OA
BRANCH  35  37
ATOM     37  C   UNL A   1      43.073  24.815  25.947  1.00  0.00     0.060 A 
ATOM     38  C   UNL A   1      43.552  26.135  25.963  1.00  0.00     0.016 A 
ATOM     39  C   UNL A   1      41.984  24.464  26.750  1.00  0.00     0.016 A 
ATOM     40  C   UNL A   1      42.983  27.086  26.819  1.00  0.00     0.010 A 
ATOM     41  C   UNL A   1      41.421  25.413  27.613  1.00  0.00     0.010 A 
ATOM     42  C   UNL A   1      41.943  26.719  27.682  1.00  0.00    -0.014 A 
BRANCH  42  43
ATOM     43  C   UNL A   1      41.545  27.610  28.804  1.00  0.00     0.031 A 
ATOM     44  C   UNL A   1      42.321  27.516  30.091  1.00  0.00     0.074 A 
ATOM     45  C   UNL A   1      40.524  28.482  28.708  1.00  0.00     0.049 A 
ATOM     46  N   UNL A   1      42.123  28.118  31.237  1.00  0.00    -0.248 NA
ATOM     47  C   UNL A   1      43.480  26.607  30.083  1.00  0.00     0.031 C 
ATOM     48  C   UNL A   1      39.713  28.713  27.517  1.00  0.00     0.029 A 
ATOM     49  N   UNL A   1      39.988  29.328  29.651  1.00  0.00    -0.354 N 
ATOM     50  C   UNL A   1      43.119  27.653  32.084  1.00  0.00     0.074 A 
ATOM     51  C   UNL A   1      43.905  26.698  31.334  1.00  0.00     0.031 C 
ATOM     52  C   UNL A   1      38.768  29.628  27.805  1.00  0.00     0.029 A 
ATOM     53  C   UNL A   1      38.888  30.022  29.209  1.00  0.00     0.049 A 
ATOM     54  H   UNL A   1      40.358  29.427  30.558  1.00  0.00     0.167 HD
ATOM     55  C   UNL A   1      43.365  27.994  33.370  1.00  0.00     0.037 A 
ATOM     56  C   UNL A   1      38.061  30.858  29.870  1.00  0.00     0.037 A 
ATOM     57  C   UNL A   1      42.596  28.949  34.122  1.00  0.00     0.049 A 
ATOM     58  C   UNL A   1      38.313  31.169  31.327  1.00  0.00     0.074 A 
ATOM     59  C   UNL A   1      42.794  29.383  35.421  1.00  0.00     0.029 A 
ATOM     60  N   UNL A   1      41.475  29.610  33.645  1.00  0.00    -0.354 N 
ATOM     61  N   UNL A   1      39.278  30.754  32.111  1.00  0.00    -0.248 NA
ATOM     62  C   UNL A   1      37.357  32.070  31.990  1.00  0.00     0.031 C 
ATOM     63  C   UNL A   1      41.760  30.263  35.751  1.00  0.00     0.029 A 
ATOM     64  C   UNL A   1      40.953  30.425  34.637  1.00  0.00     0.049 A 
ATOM     65  H   UNL A   1      41.106  29.516  32.737  1.00  0.00     0.167 HD
ATOM     66  C   UNL A   1      39.064  31.365  33.341  1.00  0.00     0.074 A 
ATOM     67  C   UNL A   1      37.885  32.190  33.200  1.00  0.00     0.031 C 
ATOM     68  C   UNL A   1      39.784  31.254  34.485  1.00  0.00     0.037 A 
BRANCH  55  69
ATOM     69  C   UNL A   1      44.503  27.304  34.063  1.00  0.00     0.064 A 
ATOM     70  C   UNL A   1      44.339  26.069  34.707  1.00  0.00     0.173 A 
ATOM     71  C   UNL A   1      45.785  27.873  34.048  1.00  0.00     0.173 A 
ATOM     72  F   UNL A   1      43.129  25.493  34.763  1.00  0.00    -0.203 F 
ATOM     73  C   UNL A   1      45.412  25.441  35.332  1.00  0.00     0.198 A 
ATOM     74  C   UNL A   1      46.862  27.226  34.647  1.00  0.00     0.198 A 
ATOM     75  F   UNL A   1      45.996  29.052  33.443  1.00  0.00    -0.203 F 
ATOM     76  F   UNL A   1      45.222  24.284  35.982  1.00  0.00    -0.200 F 
ATOM     77  C   UNL A   1      46.674  26.015  35.295  1.00  0.00     0.200 A 
ATOM     78  F   UNL A   1      48.083  27.778  34.600  1.00  0.00    -0.200 F 
ATOM     79  F   UNL A   1      47.708  25.404  35.888  1.00  0.00    -0.200 F 
ENDBRANCH  55  69
BRANCH  56  80
ATOM     80  C   UNL A   1      36.886  31.453  29.174  1.00  0.00     0.064 A 
ATOM     81  C   UNL A   1      36.846  32.818  28.852  1.00  0.00     0.173 A 
ATOM     82  C   UNL A   1      35.759  30.679  28.864  1.00  0.00     0.173 A 
ATOM     83  F   UNL A   1      37.885  33.609  29.164  1.00  0.00    -0.203 F 
ATOM     84  C   UNL A   1      35.717  33.388  28.269  1.00  0.00     0.198 A 
ATOM     85  C   UNL A   1      34.641  31.244  28.253  1.00  0.00     0.198 A 
ATOM     86  F   UNL A   1      35.738  29.372  29.163  1.00  0.00    -0.203 F 
ATOM     87  F   UNL A   1      35.682  34.706  28.030  1.00  0.00    -0.200 F 
ATOM     88  C   UNL A   1      34.617  32.601  27.965  1.00  0.00     0.200 A 
ATOM     89  F   UNL A   1      33.582  30.479  27.958  1.00  0.00    -0.200 F 
ATOM     90  F   UNL A   1      33.528  33.150  27.410  1.00  0.00    -0.200 F 
ENDBRANCH  56  80
BRANCH  68  91
ATOM     91  C   UNL A   1      39.350  32.073  35.669  1.00  0.00     0.064 A 
ATOM     92  C   UNL A   1      39.800  33.387  35.864  1.00  0.00     0.173 A 
ATOM     93  C   UNL A   1      38.429  31.552  36.591  1.00  0.00     0.173 A 
ATOM     94  F   UNL A   1      40.689  33.929  35.019  1.00  0.00    -0.203 F 
ATOM     95  C   UNL A   1      39.361  34.141  36.950  1.00  0.00     0.198 A 
ATOM     96  C   UNL A   1      37.968  32.319  37.658  1.00  0.00     0.198 A 
ATOM     97  F   UNL A   1      37.958  30.304  36.446  1.00  0.00    -0.203 F 
ATOM     98  F   UNL A   1      39.837  35.379  37.141  1.00  0.00    -0.200 F 
ATOM     99  C   UNL A   1      38.440  33.609  37.841  1.00  0.00     0.200 A 
ATOM    100  F   UNL A   1      37.066  31.809  38.507  1.00  0.00    -0.200 F 
ATOM    101  F   UNL A   1      38.011  34.340  38.880  1.00  0.00    -0.200 F 
ENDBRANCH  68  91
ENDBRANCH  42  43
ENDBRANCH  35  37
ENDBRANCH  34  35
ENDBRANCH  33  34
ENDBRANCH  32  33
ENDBRANCH  31  32
ENDBRANCH  30  31
ENDBRANCH   1  30
TORSDOF 21
ENDMDL
MODEL 2
REMARK VINA RESULT:     -11.6      0.642      2.096
REMARK SMILES CCC(=O)N1CCc2cc(C(=O)NC3(C(=O)OCCOCCOCCOC(=O)c4ccc(-c5c6nc(c(-c7c(F)c(F)c(F)c(F)c7F)c7ccc([nH]7)c(-c7c(F)c(F)c(F)c(F)c7F)c7nc(c(-c8c(F)c(F)c(F)c(F)c8F)c8ccc5[nH]8)C=C7)C=C6)cc4)CCCC3)ccc21
REMARK SMILES IDX 21 1 20 2 19 3 18 4 17 5 15 6 16 7 14 8 92 9 95 10 93 11
REMARK SMILES IDX 94 12 13 13 11 14 12 15 10 17 5 18 6 19 98 20 7 21 8 22
REMARK SMILES IDX 97 23 9 24 96 25 3 26 4 27 2 28 1 29 22 30 23 31 24 32 25 33
REMARK SMILES IDX 26 34 27 35 28 36 29 37 30 38 91 39 31 40 90 41 32 42 33 43
REMARK SMILES IDX 34 44 84 45 35 46 89 47 83 48 85 49 36 50 88 51 82 52 81 53
REMARK SMILES IDX 37 55 69 56 49 57 68 58 50 59 53 60 67 61 86 62 51 63 52 64
REMARK SMILES IDX 66 66 87 67 54 68 38 69 39 70 47 71 40 72 41 73 45 74 48 75
REMARK SMILES IDX 42 76 43 77 46 78 44 79 70 80 71 81 79 82 72 83 73 84 77 85
REMARK SMILES IDX 80 86 74 87 75 88 78 89 76 90 55 91 56 92 64 93 57 94 58 95
REMARK SMILES IDX 62 96 65 97 59 98 60 99 63 100 61 101
REMARK H PARENT 13 16 85 54 53 65
REMARK Flexibility Score: inf
ROOT
ATOM      1  C   UNL A   1      39.259  21.140  26.330  1.00  0.00     0.188 C 
ENDROOT
BRANCH   1   2
ATOM      2  O   UNL A   1      38.619  21.313  25.077  1.00  0.00    -0.376 OA
BRANCH   2   3
ATOM      3  C   UNL A   1      37.273  21.782  25.073  1.00  0.00     0.202 C 
BRANCH   3   4
ATOM      4  C   UNL A   1      36.164  20.742  25.280  1.00  0.00     0.261 C 
BRANCH   4   5
ATOM      5  O   UNL A   1      35.010  21.261  25.965  1.00  0.00    -0.461 OA
BRANCH   5   6
ATOM      6  C   UNL A   1      33.779  20.967  25.464  1.00  0.00     0.331 C 
ATOM      7  O   UNL A   1      33.323  19.833  25.352  1.00  0.00    -0.249 OA
BRANCH   6   8
ATOM      8  C   UNL A   1      32.979  22.239  25.041  1.00  0.00     0.138 C 
ATOM      9  C   UNL A   1      33.451  23.327  26.023  1.00  0.00     0.040 C 
ATOM     10  C   UNL A   1      31.459  22.036  25.284  1.00  0.00     0.040 C 
ATOM     11  C   UNL A   1      32.434  23.309  27.158  1.00  0.00     0.003 C 
ATOM     12  C   UNL A   1      31.120  22.787  26.581  1.00  0.00     0.003 C 
BRANCH   8  13
ATOM     13  N   UNL A   1      33.356  22.555  23.606  1.00  0.00    -0.336 N 
ATOM     14  C   UNL A   1      33.120  23.511  22.625  1.00  0.00     0.252 C 
ATOM     15  O   UNL A   1      33.719  23.369  21.555  1.00  0.00    -0.269 OA
ATOM     16  H   UNL A   1      33.962  21.861  23.259  1.00  0.00     0.165 HD
BRANCH  14  17
ATOM     17  C   UNL A   1      32.186  24.678  22.738  1.00  0.00     0.040 A 
ATOM     18  N   UNL A   1      29.727  28.046  23.095  1.00  0.00    -0.312 N 
ATOM     19  C   UNL A   1      28.483  27.492  23.645  1.00  0.00     0.130 C 
ATOM     20  C   UNL A   1      30.631  27.001  22.970  1.00  0.00     0.047 A 
ATOM     21  C   UNL A   1      28.695  25.966  23.828  1.00  0.00     0.059 C 
ATOM     22  C   UNL A   1      30.089  25.764  23.309  1.00  0.00    -0.022 A 
ATOM     23  C   UNL A   1      31.940  27.097  22.650  1.00  0.00     0.027 A 
ATOM     24  C   UNL A   1      30.861  24.589  23.216  1.00  0.00     0.019 A 
ATOM     25  C   UNL A   1      32.645  25.939  22.434  1.00  0.00     0.016 A 
BRANCH  18  26
ATOM     26  C   UNL A   1      29.868  29.379  22.760  1.00  0.00     0.226 C 
ATOM     27  O   UNL A   1      29.870  29.734  21.575  1.00  0.00    -0.275 OA
BRANCH  26  28
ATOM     28  C   UNL A   1      30.269  30.404  23.843  1.00  0.00     0.097 C 
ATOM     29  C   UNL A   1      31.116  30.005  25.043  1.00  0.00     0.014 C 
ENDBRANCH  26  28
ENDBRANCH  18  26
ENDBRANCH  14  17
ENDBRANCH   8  13
ENDBRANCH   6   8
ENDBRANCH   5   6
ENDBRANCH   4   5
ENDBRANCH   3   4
ENDBRANCH   2   3
ENDBRANCH   1   2
BRANCH   1  30
ATOM     30  C   UNL A   1      40.606  21.829  26.556  1.00  0.00     0.188 C 
BRANCH  30  31
ATOM     31  O   UNL A   1      41.698  20.981  26.875  1.00  0.00    -0.376 OA
BRANCH  31  32
ATOM     32  C   UNL A   1      42.632  20.768  25.808  1.00  0.00     0.202 C 
BRANCH  32  33
ATOM     33  C   UNL A   1      43.656  21.909  25.627  1.00  0.00     0.261 C 
BRANCH  33  34
ATOM     34  O   UNL A   1      43.122  23.121  25.050  1.00  0.00    -0.460 OA
BRANCH  34  35
ATOM     35  C   UNL A   1      43.869  24.244  25.170  1.00  0.00     0.338 C 
ATOM     36  O   UNL A   1      44.801  24.574  24.454  1.00  0.00    -0.246 OA
BRANCH  35  37
ATOM     37  C   UNL A   1      43.196  25.159  26.132  1.00  0.00     0.060 A 
ATOM     38  C   UNL A   1      43.641  26.489  26.205  1.00  0.00     0.016 A 
ATOM     39  C   UNL A   1      42.088  24.758  26.886  1.00  0.00     0.016 A 
ATOM     40  C   UNL A   1      43.020  27.399  27.067  1.00  0.00     0.010 A 
ATOM     41  C   UNL A   1      41.473  25.667  27.756  1.00  0.00     0.010 A 
ATOM     42  C   UNL A   1      41.960  26.982  27.882  1.00  0.00    -0.014 A 
BRANCH  42  43
ATOM     43  C   UNL A   1      41.501  27.829  29.015  1.00  0.00     0.031 A 
ATOM     44  C   UNL A   1      42.246  27.726  30.321  1.00  0.00     0.074 A 
ATOM     45  C   UNL A   1      40.454  28.668  28.914  1.00  0.00     0.049 A 
ATOM     46  N   UNL A   1      41.996  28.290  31.476  1.00  0.00    -0.248 NA
ATOM     47  C   UNL A   1      43.435  26.857  30.322  1.00  0.00     0.031 C 
ATOM     48  C   UNL A   1      39.668  28.905  27.707  1.00  0.00     0.029 A 
ATOM     49  N   UNL A   1      39.865  29.471  29.863  1.00  0.00    -0.354 N 
ATOM     50  C   UNL A   1      42.984  27.836  32.338  1.00  0.00     0.074 A 
ATOM     51  C   UNL A   1      43.822  26.928  31.585  1.00  0.00     0.031 C 
ATOM     52  C   UNL A   1      38.686  29.779  27.993  1.00  0.00     0.029 A 
ATOM     53  C   UNL A   1      38.754  30.140  29.409  1.00  0.00     0.049 A 
ATOM     54  H   UNL A   1      40.207  29.558  30.782  1.00  0.00     0.167 HD
ATOM     55  C   UNL A   1      43.184  28.150  33.639  1.00  0.00     0.037 A 
ATOM     56  C   UNL A   1      37.882  30.929  30.068  1.00  0.00     0.037 A 
ATOM     57  C   UNL A   1      42.363  29.058  34.394  1.00  0.00     0.049 A 
ATOM     58  C   UNL A   1      38.084  31.210  31.539  1.00  0.00     0.074 A 
ATOM     59  C   UNL A   1      42.512  29.463  35.709  1.00  0.00     0.029 A 
ATOM     60  N   UNL A   1      41.234  29.695  33.903  1.00  0.00    -0.354 N 
ATOM     61  N   UNL A   1      39.041  30.805  32.338  1.00  0.00    -0.248 NA
ATOM     62  C   UNL A   1      37.080  32.060  32.198  1.00  0.00     0.031 C 
ATOM     63  C   UNL A   1      41.439  30.300  36.032  1.00  0.00     0.029 A 
ATOM     64  C   UNL A   1      40.657  30.464  34.900  1.00  0.00     0.049 A 
ATOM     65  H   UNL A   1      40.892  29.613  32.983  1.00  0.00     0.167 HD
ATOM     66  C   UNL A   1      38.774  31.376  33.578  1.00  0.00     0.074 A 
ATOM     67  C   UNL A   1      37.571  32.165  33.425  1.00  0.00     0.031 C 
ATOM     68  C   UNL A   1      39.466  31.258  34.738  1.00  0.00     0.037 A 
BRANCH  55  69
ATOM     69  C   UNL A   1      44.326  27.480  34.345  1.00  0.00     0.064 A 
ATOM     70  C   UNL A   1      45.606  28.049  34.387  1.00  0.00     0.173 A 
ATOM     71  C   UNL A   1      44.123  26.266  35.019  1.00  0.00     0.173 A 
ATOM     72  F   UNL A   1      45.855  29.200  33.744  1.00  0.00    -0.203 F 
ATOM     73  C   UNL A   1      46.648  27.416  35.059  1.00  0.00     0.198 A 
ATOM     74  C   UNL A   1      45.159  25.652  35.716  1.00  0.00     0.198 A 
ATOM     75  F   UNL A   1      42.916  25.681  35.011  1.00  0.00    -0.203 F 
ATOM     76  F   UNL A   1      47.876  27.955  35.047  1.00  0.00    -0.200 F 
ATOM     77  C   UNL A   1      46.422  26.224  35.729  1.00  0.00     0.200 A 
ATOM     78  F   UNL A   1      44.936  24.505  36.373  1.00  0.00    -0.200 F 
ATOM     79  F   UNL A   1      47.424  25.621  36.384  1.00  0.00    -0.200 F 
ENDBRANCH  55  69
BRANCH  56  80
ATOM     80  C   UNL A   1      36.707  31.503  29.355  1.00  0.00     0.064 A 
ATOM     81  C   UNL A   1      35.633  30.695  28.956  1.00  0.00     0.173 A 
ATOM     82  C   UNL A   1      36.660  32.863  29.014  1.00  0.00     0.173 A 
ATOM     83  F   UNL A   1      35.649  29.380  29.225  1.00  0.00    -0.203 F 
ATOM     84  C   UNL A   1      34.569  31.219  28.224  1.00  0.00     0.198 A 
ATOM     85  C   UNL A   1      35.581  33.393  28.308  1.00  0.00     0.198 A 
ATOM     86  F   UNL A   1      37.668  33.678  29.358  1.00  0.00    -0.203 F 
ATOM     87  F   UNL A   1      33.587  30.412  27.801  1.00  0.00    -0.200 F 
ATOM     88  C   UNL A   1      34.541  32.568  27.905  1.00  0.00     0.200 A 
ATOM     89  F   UNL A   1      35.557  34.697  28.004  1.00  0.00    -0.200 F 
ATOM     90  F   UNL A   1      33.523  33.071  27.195  1.00  0.00    -0.200 F 
ENDBRANCH  56  80
BRANCH  68  91
ATOM     91  C   UNL A   1      38.973  32.030  35.930  1.00  0.00     0.064 A 
ATOM     92  C   UNL A   1      38.162  31.438  36.910  1.00  0.00     0.173 A 
ATOM     93  C   UNL A   1      39.363  33.364  36.121  1.00  0.00     0.173 A 
ATOM     94  F   UNL A   1      37.751  30.169  36.771  1.00  0.00    -0.203 F 
ATOM     95  C   UNL A   1      37.742  32.161  38.025  1.00  0.00     0.198 A 
ATOM     96  C   UNL A   1      38.968  34.074  37.252  1.00  0.00     0.198 A 
ATOM     97  F   UNL A   1      40.147  33.976  35.220  1.00  0.00    -0.203 F 
ATOM     98  F   UNL A   1      36.932  31.589  38.926  1.00  0.00    -0.200 F 
ATOM     99  C   UNL A   1      38.152  33.475  38.199  1.00  0.00     0.200 A 
ATOM    100  F   UNL A   1      39.379  35.338  37.426  1.00  0.00    -0.200 F 
ATOM    101  F   UNL A   1      37.755  34.165  39.277  1.00  0.00    -0.200 F 
ENDBRANCH  68  91
ENDBRANCH  42  43
ENDBRANCH  35  37
ENDBRANCH  34  35
ENDBRANCH  33  34
ENDBRANCH  32  33
ENDBRANCH  31  32
ENDBRANCH  30  31
ENDBRANCH   1  30
TORSDOF 21
ENDMDL
MODEL 3
REMARK VINA RESULT:     -11.3      4.648      8.976
REMARK SMILES CCC(=O)N1CCc2cc(C(=O)NC3(C(=O)OCCOCCOCCOC(=O)c4ccc(-c5c6nc(c(-c7c(F)c(F)c(F)c(F)c7F)c7ccc([nH]7)c(-c7c(F)c(F)c(F)c(F)c7F)c7nc(c(-c8c(F)c(F)c(F)c(F)c8F)c8ccc5[nH]8)C=C7)C=C6)cc4)CCCC3)ccc21
REMARK SMILES IDX 21 1 20 2 19 3 18 4 17 5 15 6 16 7 14 8 92 9 95 10 93 11
REMARK SMILES IDX 94 12 13 13 11 14 12 15 10 17 5 18 6 19 98 20 7 21 8 22
REMARK SMILES IDX 97 23 9 24 96 25 3 26 4 27 2 28 1 29 22 30 23 31 24 32 25 33
REMARK SMILES IDX 26 34 27 35 28 36 29 37 30 38 91 39 31 40 90 41 32 42 33 43
REMARK SMILES IDX 34 44 84 45 35 46 89 47 83 48 85 49 36 50 88 51 82 52 81 53
REMARK SMILES IDX 37 55 69 56 49 57 68 58 50 59 53 60 67 61 86 62 51 63 52 64
REMARK SMILES IDX 66 66 87 67 54 68 38 69 39 70 47 71 40 72 41 73 45 74 48 75
REMARK SMILES IDX 42 76 43 77 46 78 44 79 70 80 71 81 79 82 72 83 73 84 77 85
REMARK SMILES IDX 80 86 74 87 75 88 78 89 76 90 55 91 56 92 64 93 57 94 58 95
REMARK SMILES IDX 62 96 65 97 59 98 60 99 63 100 61 101
REMARK H PARENT 13 16 85 54 53 65
REMARK Flexibility Score: inf
ROOT
ATOM      1  C   UNL A   1      36.677  23.706  24.709  1.00  0.00     0.188 C 
ENDROOT
BRANCH   1   2
ATOM      2  O   UNL A   1      35.336  24.161  24.755  1.00  0.00    -0.376 OA
BRANCH   2   3
ATOM      3  C   UNL A   1      34.750  24.638  23.546  1.00  0.00     0.202 C 
BRANCH   3   4
ATOM      4  C   UNL A   1      33.600  23.816  22.950  1.00  0.00     0.261 C 
BRANCH   4   5
ATOM      5  O   UNL A   1      33.523  22.475  23.465  1.00  0.00    -0.461 OA
BRANCH   5   6
ATOM      6  C   UNL A   1      32.302  21.997  23.834  1.00  0.00     0.331 C 
ATOM      7  O   UNL A   1      31.257  22.210  23.228  1.00  0.00    -0.249 OA
BRANCH   6   8
ATOM      8  C   UNL A   1      32.361  21.126  25.128  1.00  0.00     0.138 C 
ATOM      9  C   UNL A   1      33.811  21.276  25.622  1.00  0.00     0.040 C 
ATOM     10  C   UNL A   1      32.149  19.626  24.789  1.00  0.00     0.040 C 
ATOM     11  C   UNL A   1      34.559  20.088  25.029  1.00  0.00     0.003 C 
ATOM     12  C   UNL A   1      33.539  18.973  24.811  1.00  0.00     0.003 C 
BRANCH   8  13
ATOM     13  N   UNL A   1      31.357  21.703  26.108  1.00  0.00    -0.336 N 
ATOM     14  C   UNL A   1      30.822  22.927  26.495  1.00  0.00     0.252 C 
ATOM     15  O   UNL A   1      29.940  22.901  27.358  1.00  0.00    -0.269 OA
ATOM     16  H   UNL A   1      30.954  20.979  26.640  1.00  0.00     0.165 HD
BRANCH  14  17
ATOM     17  C   UNL A   1      31.239  24.272  25.981  1.00  0.00     0.040 A 
ATOM     18  N   UNL A   1      32.338  27.978  24.377  1.00  0.00    -0.312 N 
ATOM     19  C   UNL A   1      33.557  28.315  25.123  1.00  0.00     0.130 C 
ATOM     20  C   UNL A   1      31.909  26.735  24.816  1.00  0.00     0.047 A 
ATOM     21  C   UNL A   1      33.835  27.150  26.109  1.00  0.00     0.059 C 
ATOM     22  C   UNL A   1      32.680  26.225  25.857  1.00  0.00    -0.022 A 
ATOM     23  C   UNL A   1      30.916  25.987  24.286  1.00  0.00     0.027 A 
ATOM     24  C   UNL A   1      32.369  24.981  26.443  1.00  0.00     0.019 A 
ATOM     25  C   UNL A   1      30.537  24.844  24.944  1.00  0.00     0.016 A 
BRANCH  18  26
ATOM     26  C   UNL A   1      31.772  28.828  23.445  1.00  0.00     0.226 C 
ATOM     27  O   UNL A   1      32.430  29.233  22.481  1.00  0.00    -0.275 OA
BRANCH  26  28
ATOM     28  C   UNL A   1      30.397  29.470  23.730  1.00  0.00     0.097 C 
ATOM     29  C   UNL A   1      29.145  29.040  22.978  1.00  0.00     0.014 C 
ENDBRANCH  26  28
ENDBRANCH  18  26
ENDBRANCH  14  17
ENDBRANCH   8  13
ENDBRANCH   6   8
ENDBRANCH   5   6
ENDBRANCH   4   5
ENDBRANCH   3   4
ENDBRANCH   2   3
ENDBRANCH   1   2
BRANCH   1  30
ATOM     30  C   UNL A   1      36.991  22.459  23.879  1.00  0.00     0.188 C 
BRANCH  30  31
ATOM     31  O   UNL A   1      37.252  21.270  24.607  1.00  0.00    -0.376 OA
BRANCH  31  32
ATOM     32  C   UNL A   1      38.451  21.292  25.393  1.00  0.00     0.202 C 
BRANCH  32  33
ATOM     33  C   UNL A   1      39.198  19.941  25.446  1.00  0.00     0.261 C 
BRANCH  33  34
ATOM     34  O   UNL A   1      40.088  19.781  26.571  1.00  0.00    -0.460 OA
BRANCH  34  35
ATOM     35  C   UNL A   1      41.398  19.572  26.298  1.00  0.00     0.338 C 
ATOM     36  O   UNL A   1      41.876  18.592  25.748  1.00  0.00    -0.246 OA
BRANCH  35  37
ATOM     37  C   UNL A   1      42.135  20.848  26.511  1.00  0.00     0.060 A 
ATOM     38  C   UNL A   1      42.367  21.266  27.831  1.00  0.00     0.016 A 
ATOM     39  C   UNL A   1      42.673  21.580  25.448  1.00  0.00     0.016 A 
ATOM     40  C   UNL A   1      43.085  22.440  28.087  1.00  0.00     0.010 A 
ATOM     41  C   UNL A   1      43.382  22.759  25.705  1.00  0.00     0.010 A 
ATOM     42  C   UNL A   1      43.558  23.218  27.024  1.00  0.00    -0.014 A 
BRANCH  42  43
ATOM     43  C   UNL A   1      44.037  24.607  27.260  1.00  0.00     0.031 A 
ATOM     44  C   UNL A   1      43.037  25.626  27.741  1.00  0.00     0.074 A 
ATOM     45  C   UNL A   1      45.314  24.976  27.056  1.00  0.00     0.049 A 
ATOM     46  N   UNL A   1      43.180  26.912  27.941  1.00  0.00    -0.248 NA
ATOM     47  C   UNL A   1      41.684  25.120  28.030  1.00  0.00     0.031 C 
ATOM     48  C   UNL A   1      46.398  24.094  26.635  1.00  0.00     0.029 A 
ATOM     49  N   UNL A   1      45.909  26.212  27.166  1.00  0.00    -0.354 N 
ATOM     50  C   UNL A   1      41.940  27.367  28.363  1.00  0.00     0.074 A 
ATOM     51  C   UNL A   1      41.046  26.230  28.366  1.00  0.00     0.031 C 
ATOM     52  C   UNL A   1      47.523  24.820  26.503  1.00  0.00     0.029 A 
ATOM     53  C   UNL A   1      47.233  26.223  26.799  1.00  0.00     0.049 A 
ATOM     54  H   UNL A   1      45.431  27.014  27.479  1.00  0.00     0.167 HD
ATOM     55  C   UNL A   1      41.575  28.620  28.725  1.00  0.00     0.037 A 
ATOM     56  C   UNL A   1      48.100  27.250  26.691  1.00  0.00     0.037 A 
ATOM     57  C   UNL A   1      42.457  29.756  28.735  1.00  0.00     0.049 A 
ATOM     58  C   UNL A   1      47.650  28.652  27.032  1.00  0.00     0.074 A 
ATOM     59  C   UNL A   1      42.182  31.056  29.121  1.00  0.00     0.029 A 
ATOM     60  N   UNL A   1      43.783  29.728  28.333  1.00  0.00    -0.354 N 
ATOM     61  N   UNL A   1      46.485  29.069  27.465  1.00  0.00    -0.248 NA
ATOM     62  C   UNL A   1      48.642  29.727  26.869  1.00  0.00     0.031 C 
ATOM     63  C   UNL A   1      43.325  31.829  28.897  1.00  0.00     0.029 A 
ATOM     64  C   UNL A   1      44.330  30.997  28.430  1.00  0.00     0.049 A 
ATOM     65  H   UNL A   1      44.265  28.927  28.024  1.00  0.00     0.167 HD
ATOM     66  C   UNL A   1      46.614  30.441  27.656  1.00  0.00     0.074 A 
ATOM     67  C   UNL A   1      47.974  30.787  27.303  1.00  0.00     0.031 C 
ATOM     68  C   UNL A   1      45.689  31.332  28.088  1.00  0.00     0.037 A 
BRANCH  55  69
ATOM     69  C   UNL A   1      40.142  28.837  29.114  1.00  0.00     0.064 A 
ATOM     70  C   UNL A   1      39.170  29.221  28.179  1.00  0.00     0.173 A 
ATOM     71  C   UNL A   1      39.732  28.622  30.439  1.00  0.00     0.173 A 
ATOM     72  F   UNL A   1      39.516  29.455  26.904  1.00  0.00    -0.203 F 
ATOM     73  C   UNL A   1      37.844  29.404  28.560  1.00  0.00     0.198 A 
ATOM     74  C   UNL A   1      38.399  28.776  30.809  1.00  0.00     0.198 A 
ATOM     75  F   UNL A   1      40.622  28.252  31.372  1.00  0.00    -0.203 F 
ATOM     76  F   UNL A   1      36.941  29.816  27.659  1.00  0.00    -0.200 F 
ATOM     77  C   UNL A   1      37.458  29.173  29.872  1.00  0.00     0.200 A 
ATOM     78  F   UNL A   1      38.026  28.541  32.075  1.00  0.00    -0.200 F 
ATOM     79  F   UNL A   1      36.179  29.341  30.235  1.00  0.00    -0.200 F 
ENDBRANCH  55  69
BRANCH  56  80
ATOM     80  C   UNL A   1      49.489  27.010  26.213  1.00  0.00     0.064 A 
ATOM     81  C   UNL A   1      49.804  27.043  24.846  1.00  0.00     0.173 A 
ATOM     82  C   UNL A   1      50.520  26.691  27.109  1.00  0.00     0.173 A 
ATOM     83  F   UNL A   1      48.844  27.305  23.945  1.00  0.00    -0.203 F 
ATOM     84  C   UNL A   1      51.087  26.745  24.394  1.00  0.00     0.198 A 
ATOM     85  C   UNL A   1      51.811  26.422  26.658  1.00  0.00     0.198 A 
ATOM     86  F   UNL A   1      50.270  26.630  28.425  1.00  0.00    -0.203 F 
ATOM     87  F   UNL A   1      51.344  26.723  23.079  1.00  0.00    -0.200 F 
ATOM     88  C   UNL A   1      52.092  26.439  25.300  1.00  0.00     0.200 A 
ATOM     89  F   UNL A   1      52.779  26.130  27.538  1.00  0.00    -0.200 F 
ATOM     90  F   UNL A   1      53.324  26.145  24.866  1.00  0.00    -0.200 F 
ENDBRANCH  56  80
BRANCH  68  91
ATOM     91  C   UNL A   1      46.116  32.765  28.248  1.00  0.00     0.064 A 
ATOM     92  C   UNL A   1      46.669  33.242  29.446  1.00  0.00     0.173 A 
ATOM     93  C   UNL A   1      46.022  33.657  27.170  1.00  0.00     0.173 A 
ATOM     94  F   UNL A   1      46.772  32.434  30.512  1.00  0.00    -0.203 F 
ATOM     95  C   UNL A   1      47.089  34.566  29.564  1.00  0.00     0.198 A 
ATOM     96  C   UNL A   1      46.471  34.970  27.281  1.00  0.00     0.198 A 
ATOM     97  F   UNL A   1      45.511  33.251  25.997  1.00  0.00    -0.203 F 
ATOM     98  F   UNL A   1      47.573  35.012  30.732  1.00  0.00    -0.200 F 
ATOM     99  C   UNL A   1      46.998  35.425  28.480  1.00  0.00     0.200 A 
ATOM    100  F   UNL A   1      46.398  35.795  26.227  1.00  0.00    -0.200 F 
ATOM    101  F   UNL A   1      47.412  36.695  28.592  1.00  0.00    -0.200 F 
ENDBRANCH  68  91
ENDBRANCH  42  43
ENDBRANCH  35  37
ENDBRANCH  34  35
ENDBRANCH  33  34
ENDBRANCH  32  33
ENDBRANCH  31  32
ENDBRANCH  30  31
ENDBRANCH   1  30
TORSDOF 21
ENDMDL
