MODEL 1
REMARK VINA RESULT:     -10.9      0.000      0.000
REMARK SMILES COc1ccc([C@H]2CC(c3ccc(S(C)(=O)=O)cc3)=NN2c2ccc(C(=O)OCCOCCOCCOC(=O)c3ccc(-c4c5nc(c(-c6c(F)c(F)c(F)c(F)c6F)c6ccc([nH]6)c(-c6c(F)c(F)c(F)c(F)c6F)c6nc(c(-c7c(F)c(F)c(F)c(F)c7F)c7ccc4[nH]7)C=C6)C=C5)cc3)cc2)cc1
REMARK SMILES IDX 32 1 31 2 30 3 29 4 28 5 26 6 27 7 25 8 22 9 23 10 104 11
REMARK SMILES IDX 24 12 103 13 21 14 7 15 8 16 9 17 20 18 6 19 3 20 4 21
REMARK SMILES IDX 106 22 5 23 105 24 2 25 1 26 10 27 11 28 19 29 12 30 18 31
REMARK SMILES IDX 13 32 14 33 15 34 16 35 17 36 33 37 34 38 35 39 36 40 37 41
REMARK SMILES IDX 38 42 39 43 40 44 41 45 102 46 42 47 101 48 43 49 44 50
REMARK SMILES IDX 45 51 95 52 46 53 100 54 94 55 96 56 47 57 99 58 93 59 92 60
REMARK SMILES IDX 48 62 80 63 60 64 79 65 61 66 64 67 78 68 97 69 62 70 63 71
REMARK SMILES IDX 77 73 98 74 65 75 49 76 50 77 58 78 51 79 52 80 56 81 59 82
REMARK SMILES IDX 53 83 54 84 57 85 55 86 81 87 82 88 90 89 83 90 84 91 88 92
REMARK SMILES IDX 91 93 85 94 86 95 89 96 87 97 66 98 67 99 75 100 68 101
REMARK SMILES IDX 69 102 73 103 76 104 70 105 71 106 74 107 72 108
REMARK H PARENT 96 61 64 72
REMARK Flexibility Score: inf
ROOT
ATOM      1  C   UNL A   1      37.205  30.807  31.160  1.00  0.00     0.188 C 
ENDROOT
BRANCH   1   2
ATOM      2  O   UNL A   1      37.387  31.829  30.203  1.00  0.00    -0.376 OA
BRANCH   2   3
ATOM      3  C   UNL A   1      37.056  31.618  28.843  1.00  0.00     0.202 C 
BRANCH   3   4
ATOM      4  C   UNL A   1      35.624  31.650  28.275  1.00  0.00     0.261 C 
BRANCH   4   5
ATOM      5  O   UNL A   1      34.965  30.394  28.088  1.00  0.00    -0.460 OA
BRANCH   5   6
ATOM      6  C   UNL A   1      33.705  30.481  27.594  1.00  0.00     0.338 C 
ATOM      7  O   UNL A   1      33.082  31.505  27.364  1.00  0.00    -0.246 OA
BRANCH   6   8
ATOM      8  C   UNL A   1      33.218  29.148  27.177  1.00  0.00     0.060 A 
ATOM      9  C   UNL A   1      32.328  26.694  26.118  1.00  0.00     0.060 A 
ATOM     10  C   UNL A   1      33.663  27.095  25.976  1.00  0.00     0.029 A 
ATOM     11  C   UNL A   1      31.478  27.502  26.892  1.00  0.00     0.029 A 
ATOM     12  C   UNL A   1      34.100  28.325  26.470  1.00  0.00     0.018 A 
ATOM     13  C   UNL A   1      31.919  28.715  27.439  1.00  0.00     0.018 A 
BRANCH   9  14
ATOM     14  N   UNL A   1      31.871  25.569  25.441  1.00  0.00    -0.257 N 
ATOM     15  C   UNL A   1      30.538  25.425  24.855  1.00  0.00     0.144 C 
ATOM     16  C   UNL A   1      30.648  24.086  24.121  1.00  0.00     0.091 C 
ATOM     17  C   UNL A   1      31.886  23.548  24.778  1.00  0.00     0.071 C 
ATOM     18  N   UNL A   1      32.580  24.401  25.467  1.00  0.00    -0.176 NA
BRANCH  15  19
ATOM     19  C   UNL A   1      30.133  26.548  23.914  1.00  0.00    -0.023 A 
ATOM     20  C   UNL A   1      29.476  28.719  22.232  1.00  0.00     0.118 A 
ATOM     21  C   UNL A   1      30.759  28.174  22.214  1.00  0.00     0.047 A 
ATOM     22  C   UNL A   1      28.505  28.158  23.059  1.00  0.00     0.047 A 
ATOM     23  C   UNL A   1      31.090  27.107  23.054  1.00  0.00     0.010 A 
ATOM     24  C   UNL A   1      28.832  27.078  23.892  1.00  0.00     0.010 A 
BRANCH  20  25
ATOM     25  O   UNL A   1      29.262  29.754  21.364  1.00  0.00    -0.497 OA
ATOM     26  C   UNL A   1      28.017  30.425  21.521  1.00  0.00     0.278 C 
ENDBRANCH  20  25
ENDBRANCH  15  19
BRANCH  17  27
ATOM     27  C   UNL A   1      32.252  22.137  24.612  1.00  0.00    -0.002 A 
ATOM     28  C   UNL A   1      32.154  21.551  23.345  1.00  0.00     0.011 A 
ATOM     29  C   UNL A   1      32.725  21.403  25.704  1.00  0.00     0.011 A 
ATOM     30  C   UNL A   1      32.536  20.219  23.168  1.00  0.00     0.021 A 
ATOM     31  C   UNL A   1      33.081  20.065  25.535  1.00  0.00     0.021 A 
ATOM     32  C   UNL A   1      32.980  19.478  24.269  1.00  0.00     0.067 A 
BRANCH  32  33
ATOM     33  S   UNL A   1      33.446  17.775  24.042  1.00  0.00     0.175 S 
ATOM     34  C   UNL A   1      32.641  16.920  25.374  1.00  0.00     0.163 C 
ATOM     35  O   UNL A   1      32.854  17.343  22.793  1.00  0.00    -0.224 OA
ATOM     36  O   UNL A   1      34.876  17.680  24.264  1.00  0.00    -0.224 OA
ENDBRANCH  32  33
ENDBRANCH  17  27
ENDBRANCH   9  14
ENDBRANCH   6   8
ENDBRANCH   5   6
ENDBRANCH   4   5
ENDBRANCH   3   4
ENDBRANCH   2   3
ENDBRANCH   1   2
BRANCH   1  37
ATOM     37  C   UNL A   1      37.333  29.328  30.745  1.00  0.00     0.188 C 
BRANCH  37  38
ATOM     38  O   UNL A   1      38.600  28.828  30.387  1.00  0.00    -0.376 OA
BRANCH  38  39
ATOM     39  C   UNL A   1      38.742  27.899  29.327  1.00  0.00     0.202 C 
BRANCH  39  40
ATOM     40  C   UNL A   1      39.206  26.436  29.462  1.00  0.00     0.261 C 
BRANCH  40  41
ATOM     41  O   UNL A   1      39.638  25.754  28.283  1.00  0.00    -0.460 OA
BRANCH  41  42
ATOM     42  C   UNL A   1      40.748  26.263  27.693  1.00  0.00     0.338 C 
ATOM     43  O   UNL A   1      40.816  26.900  26.659  1.00  0.00    -0.246 OA
BRANCH  42  44
ATOM     44  C   UNL A   1      41.898  26.063  28.593  1.00  0.00     0.060 A 
ATOM     45  C   UNL A   1      42.355  27.148  29.354  1.00  0.00     0.016 A 
ATOM     46  C   UNL A   1      42.548  24.830  28.647  1.00  0.00     0.016 A 
ATOM     47  C   UNL A   1      43.481  27.006  30.162  1.00  0.00     0.010 A 
ATOM     48  C   UNL A   1      43.690  24.697  29.441  1.00  0.00     0.010 A 
ATOM     49  C   UNL A   1      44.178  25.791  30.181  1.00  0.00    -0.014 A 
BRANCH  49  50
ATOM     50  C   UNL A   1      45.504  25.710  30.837  1.00  0.00     0.031 A 
ATOM     51  C   UNL A   1      46.726  26.070  30.038  1.00  0.00     0.074 A 
ATOM     52  C   UNL A   1      45.625  25.333  32.121  1.00  0.00     0.049 A 
ATOM     53  N   UNL A   1      47.990  26.011  30.374  1.00  0.00    -0.248 NA
ATOM     54  C   UNL A   1      46.489  26.561  28.671  1.00  0.00     0.031 C 
ATOM     55  C   UNL A   1      44.515  25.001  33.010  1.00  0.00     0.029 A 
ATOM     56  N   UNL A   1      46.745  25.153  32.894  1.00  0.00    -0.354 N 
ATOM     57  C   UNL A   1      48.696  26.446  29.260  1.00  0.00     0.074 A 
ATOM     58  C   UNL A   1      47.725  26.736  28.229  1.00  0.00     0.031 C 
ATOM     59  C   UNL A   1      45.011  24.638  34.206  1.00  0.00     0.029 A 
ATOM     60  C   UNL A   1      46.472  24.679  34.153  1.00  0.00     0.049 A 
ATOM     61  H   UNL A   1      47.656  25.346  32.577  1.00  0.00     0.167 HD
ATOM     62  C   UNL A   1      50.034  26.598  29.116  1.00  0.00     0.037 A 
ATOM     63  C   UNL A   1      47.310  24.293  35.136  1.00  0.00     0.037 A 
ATOM     64  C   UNL A   1      50.998  26.300  30.142  1.00  0.00     0.049 A 
ATOM     65  C   UNL A   1      48.800  24.394  34.922  1.00  0.00     0.074 A 
ATOM     66  C   UNL A   1      52.375  26.435  30.099  1.00  0.00     0.029 A 
ATOM     67  N   UNL A   1      50.686  25.794  31.396  1.00  0.00    -0.354 N 
ATOM     68  N   UNL A   1      49.461  24.833  33.879  1.00  0.00    -0.248 NA
ATOM     69  C   UNL A   1      49.659  23.946  36.027  1.00  0.00     0.031 C 
ATOM     70  C   UNL A   1      52.900  25.952  31.301  1.00  0.00     0.029 A 
ATOM     71  C   UNL A   1      51.847  25.583  32.124  1.00  0.00     0.049 A 
ATOM     72  H   UNL A   1      49.775  25.612  31.721  1.00  0.00     0.167 HD
ATOM     73  C   UNL A   1      50.808  24.748  34.213  1.00  0.00     0.074 A 
ATOM     74  C   UNL A   1      50.869  24.226  35.562  1.00  0.00     0.031 C 
ATOM     75  C   UNL A   1      51.896  25.073  33.470  1.00  0.00     0.037 A 
BRANCH  62  76
ATOM     76  C   UNL A   1      50.537  27.081  27.785  1.00  0.00     0.064 A 
ATOM     77  C   UNL A   1      50.661  28.447  27.493  1.00  0.00     0.173 A 
ATOM     78  C   UNL A   1      50.926  26.162  26.799  1.00  0.00     0.173 A 
ATOM     79  F   UNL A   1      50.291  29.368  28.396  1.00  0.00    -0.203 F 
ATOM     80  C   UNL A   1      51.128  28.876  26.252  1.00  0.00     0.198 A 
ATOM     81  C   UNL A   1      51.424  26.594  25.572  1.00  0.00     0.198 A 
ATOM     82  F   UNL A   1      50.832  24.843  27.027  1.00  0.00    -0.203 F 
ATOM     83  F   UNL A   1      51.189  30.185  25.978  1.00  0.00    -0.200 F 
ATOM     84  C   UNL A   1      51.517  27.949  25.297  1.00  0.00     0.200 A 
ATOM     85  F   UNL A   1      51.814  25.696  24.656  1.00  0.00    -0.200 F 
ATOM     86  F   UNL A   1      51.974  28.362  24.107  1.00  0.00    -0.200 F 
ENDBRANCH  62  76
BRANCH  63  87
ATOM     87  C   UNL A   1      46.763  23.758  36.412  1.00  0.00     0.064 A 
ATOM     88  C   UNL A   1      46.595  22.380  36.607  1.00  0.00     0.173 A 
ATOM     89  C   UNL A   1      46.369  24.615  37.450  1.00  0.00     0.173 A 
ATOM     90  F   UNL A   1      46.929  21.520  35.633  1.00  0.00    -0.203 F 
ATOM     91  C   UNL A   1      46.035  21.881  37.782  1.00  0.00     0.198 A 
ATOM     92  C   UNL A   1      45.840  24.114  38.638  1.00  0.00     0.198 A 
ATOM     93  F   UNL A   1      46.503  25.942  37.314  1.00  0.00    -0.203 F 
ATOM     94  F   UNL A   1      45.835  20.563  37.919  1.00  0.00    -0.200 F 
ATOM     95  C   UNL A   1      45.665  22.748  38.799  1.00  0.00     0.200 A 
ATOM     96  F   UNL A   1      45.492  24.954  39.622  1.00  0.00    -0.200 F 
ATOM     97  F   UNL A   1      45.126  22.268  39.928  1.00  0.00    -0.200 F 
ENDBRANCH  63  87
BRANCH  75  98
ATOM     98  C   UNL A   1      53.247  24.923  34.113  1.00  0.00     0.064 A 
ATOM     99  C   UNL A   1      53.966  23.720  34.059  1.00  0.00     0.173 A 
ATOM    100  C   UNL A   1      53.849  26.016  34.757  1.00  0.00     0.173 A 
ATOM    101  F   UNL A   1      53.433  22.641  33.467  1.00  0.00    -0.203 F 
ATOM    102  C   UNL A   1      55.223  23.609  34.651  1.00  0.00     0.198 A 
ATOM    103  C   UNL A   1      55.120  25.912  35.316  1.00  0.00     0.198 A 
ATOM    104  F   UNL A   1      53.210  27.194  34.830  1.00  0.00    -0.203 F 
ATOM    105  F   UNL A   1      55.868  22.434  34.633  1.00  0.00    -0.200 F 
ATOM    106  C   UNL A   1      55.801  24.706  35.271  1.00  0.00     0.200 A 
ATOM    107  F   UNL A   1      55.684  26.979  35.898  1.00  0.00    -0.200 F 
ATOM    108  F   UNL A   1      57.015  24.599  35.830  1.00  0.00    -0.200 F 
ENDBRANCH  75  98
ENDBRANCH  49  50
ENDBRANCH  42  44
ENDBRANCH  41  42
ENDBRANCH  40  41
ENDBRANCH  39  40
ENDBRANCH  38  39
ENDBRANCH  37  38
ENDBRANCH   1  37
TORSDOF 22
ENDMDL
MODEL 2
REMARK VINA RESULT:     -10.8      5.322      8.941
REMARK SMILES COc1ccc([C@H]2CC(c3ccc(S(C)(=O)=O)cc3)=NN2c2ccc(C(=O)OCCOCCOCCOC(=O)c3ccc(-c4c5nc(c(-c6c(F)c(F)c(F)c(F)c6F)c6ccc([nH]6)c(-c6c(F)c(F)c(F)c(F)c6F)c6nc(c(-c7c(F)c(F)c(F)c(F)c7F)c7ccc4[nH]7)C=C6)C=C5)cc3)cc2)cc1
REMARK SMILES IDX 32 1 31 2 30 3 29 4 28 5 26 6 27 7 25 8 22 9 23 10 104 11
REMARK SMILES IDX 24 12 103 13 21 14 7 15 8 16 9 17 20 18 6 19 3 20 4 21
REMARK SMILES IDX 106 22 5 23 105 24 2 25 1 26 10 27 11 28 19 29 12 30 18 31
REMARK SMILES IDX 13 32 14 33 15 34 16 35 17 36 33 37 34 38 35 39 36 40 37 41
REMARK SMILES IDX 38 42 39 43 40 44 41 45 102 46 42 47 101 48 43 49 44 50
REMARK SMILES IDX 45 51 95 52 46 53 100 54 94 55 96 56 47 57 99 58 93 59 92 60
REMARK SMILES IDX 48 62 80 63 60 64 79 65 61 66 64 67 78 68 97 69 62 70 63 71
REMARK SMILES IDX 77 73 98 74 65 75 49 76 50 77 58 78 51 79 52 80 56 81 59 82
REMARK SMILES IDX 53 83 54 84 57 85 55 86 81 87 82 88 90 89 83 90 84 91 88 92
REMARK SMILES IDX 91 93 85 94 86 95 89 96 87 97 66 98 67 99 75 100 68 101
REMARK SMILES IDX 69 102 73 103 76 104 70 105 71 106 74 107 72 108
REMARK H PARENT 96 61 64 72
REMARK Flexibility Score: inf
ROOT
ATOM      1  C   UNL A   1      36.659  30.500  30.762  1.00  0.00     0.188 C 
ENDROOT
BRANCH   1   2
ATOM      2  O   UNL A   1      37.175  31.592  30.031  1.00  0.00    -0.376 OA
BRANCH   2   3
ATOM      3  C   UNL A   1      37.014  31.668  28.626  1.00  0.00     0.202 C 
BRANCH   3   4
ATOM      4  C   UNL A   1      35.655  31.695  27.900  1.00  0.00     0.261 C 
BRANCH   4   5
ATOM      5  O   UNL A   1      35.105  30.439  27.490  1.00  0.00    -0.460 OA
BRANCH   5   6
ATOM      6  C   UNL A   1      33.751  30.401  27.441  1.00  0.00     0.338 C 
ATOM      7  O   UNL A   1      32.991  31.353  27.519  1.00  0.00    -0.246 OA
BRANCH   6   8
ATOM      8  C   UNL A   1      33.283  29.043  27.084  1.00  0.00     0.060 A 
ATOM      9  C   UNL A   1      32.410  26.538  26.137  1.00  0.00     0.060 A 
ATOM     10  C   UNL A   1      33.720  26.979  25.899  1.00  0.00     0.029 A 
ATOM     11  C   UNL A   1      31.586  27.335  26.948  1.00  0.00     0.029 A 
ATOM     12  C   UNL A   1      34.145  28.233  26.338  1.00  0.00     0.018 A 
ATOM     13  C   UNL A   1      32.020  28.573  27.440  1.00  0.00     0.018 A 
BRANCH   9  14
ATOM     14  N   UNL A   1      31.950  25.384  25.515  1.00  0.00    -0.257 N 
ATOM     15  C   UNL A   1      30.566  25.150  25.096  1.00  0.00     0.144 C 
ATOM     16  C   UNL A   1      30.674  23.819  24.346  1.00  0.00     0.091 C 
ATOM     17  C   UNL A   1      32.017  23.366  24.842  1.00  0.00     0.071 C 
ATOM     18  N   UNL A   1      32.732  24.265  25.446  1.00  0.00    -0.176 NA
BRANCH  15  19
ATOM     19  C   UNL A   1      29.976  26.241  24.219  1.00  0.00    -0.023 A 
ATOM     20  C   UNL A   1      28.956  28.364  22.661  1.00  0.00     0.118 A 
ATOM     21  C   UNL A   1      30.314  28.052  22.627  1.00  0.00     0.047 A 
ATOM     22  C   UNL A   1      28.095  27.594  23.440  1.00  0.00     0.047 A 
ATOM     23  C   UNL A   1      30.823  27.009  23.406  1.00  0.00     0.010 A 
ATOM     24  C   UNL A   1      28.602  26.538  24.211  1.00  0.00     0.010 A 
BRANCH  20  25
ATOM     25  O   UNL A   1      28.568  29.398  21.854  1.00  0.00    -0.497 OA
ATOM     26  C   UNL A   1      29.518  30.450  21.724  1.00  0.00     0.278 C 
ENDBRANCH  20  25
ENDBRANCH  15  19
BRANCH  17  27
ATOM     27  C   UNL A   1      32.452  21.982  24.625  1.00  0.00    -0.002 A 
ATOM     28  C   UNL A   1      33.206  21.341  25.614  1.00  0.00     0.011 A 
ATOM     29  C   UNL A   1      32.084  21.308  23.457  1.00  0.00     0.011 A 
ATOM     30  C   UNL A   1      33.594  20.011  25.434  1.00  0.00     0.021 A 
ATOM     31  C   UNL A   1      32.493  19.988  23.263  1.00  0.00     0.021 A 
ATOM     32  C   UNL A   1      33.250  19.347  24.250  1.00  0.00     0.067 A 
BRANCH  32  33
ATOM     33  S   UNL A   1      33.763  17.659  24.017  1.00  0.00     0.175 S 
ATOM     34  C   UNL A   1      32.779  16.739  25.172  1.00  0.00     0.163 C 
ATOM     35  O   UNL A   1      33.368  17.285  22.674  1.00  0.00    -0.224 OA
ATOM     36  O   UNL A   1      35.146  17.559  24.444  1.00  0.00    -0.224 OA
ENDBRANCH  32  33
ENDBRANCH  17  27
ENDBRANCH   9  14
ENDBRANCH   6   8
ENDBRANCH   5   6
ENDBRANCH   4   5
ENDBRANCH   3   4
ENDBRANCH   2   3
ENDBRANCH   1   2
BRANCH   1  37
ATOM     37  C   UNL A   1      36.935  29.058  30.293  1.00  0.00     0.188 C 
BRANCH  37  38
ATOM     38  O   UNL A   1      38.230  28.527  30.445  1.00  0.00    -0.376 OA
BRANCH  38  39
ATOM     39  C   UNL A   1      38.936  28.001  29.335  1.00  0.00     0.202 C 
BRANCH  39  40
ATOM     40  C   UNL A   1      39.371  26.534  29.153  1.00  0.00     0.261 C 
BRANCH  40  41
ATOM     41  O   UNL A   1      40.014  26.169  27.929  1.00  0.00    -0.460 OA
BRANCH  41  42
ATOM     42  C   UNL A   1      41.265  25.663  28.060  1.00  0.00     0.338 C 
ATOM     43  O   UNL A   1      41.594  24.492  28.103  1.00  0.00    -0.246 OA
BRANCH  42  44
ATOM     44  C   UNL A   1      42.234  26.770  27.986  1.00  0.00     0.060 A 
ATOM     45  C   UNL A   1      42.425  27.419  26.758  1.00  0.00     0.016 A 
ATOM     46  C   UNL A   1      42.984  27.130  29.106  1.00  0.00     0.016 A 
ATOM     47  C   UNL A   1      43.384  28.424  26.642  1.00  0.00     0.010 A 
ATOM     48  C   UNL A   1      43.960  28.122  28.982  1.00  0.00     0.010 A 
ATOM     49  C   UNL A   1      44.183  28.755  27.744  1.00  0.00    -0.014 A 
BRANCH  49  50
ATOM     50  C   UNL A   1      45.360  29.637  27.563  1.00  0.00     0.031 A 
ATOM     51  C   UNL A   1      45.169  31.125  27.670  1.00  0.00     0.074 A 
ATOM     52  C   UNL A   1      46.580  29.129  27.318  1.00  0.00     0.049 A 
ATOM     53  N   UNL A   1      46.031  32.091  27.483  1.00  0.00    -0.248 NA
ATOM     54  C   UNL A   1      43.820  31.583  28.034  1.00  0.00     0.031 C 
ATOM     55  C   UNL A   1      46.900  27.707  27.234  1.00  0.00     0.029 A 
ATOM     56  N   UNL A   1      47.775  29.761  27.080  1.00  0.00    -0.354 N 
ATOM     57  C   UNL A   1      45.327  33.269  27.696  1.00  0.00     0.074 A 
ATOM     58  C   UNL A   1      43.962  32.899  27.996  1.00  0.00     0.031 C 
ATOM     59  C   UNL A   1      48.206  27.573  26.944  1.00  0.00     0.029 A 
ATOM     60  C   UNL A   1      48.803  28.899  26.787  1.00  0.00     0.049 A 
ATOM     61  H   UNL A   1      47.885  30.738  27.115  1.00  0.00     0.167 HD
ATOM     62  C   UNL A   1      45.782  34.544  27.655  1.00  0.00     0.037 A 
ATOM     63  C   UNL A   1      50.070  29.156  26.406  1.00  0.00     0.037 A 
ATOM     64  C   UNL A   1      47.141  34.909  27.349  1.00  0.00     0.049 A 
ATOM     65  C   UNL A   1      50.532  30.587  26.286  1.00  0.00     0.074 A 
ATOM     66  C   UNL A   1      47.705  36.172  27.296  1.00  0.00     0.029 A 
ATOM     67  N   UNL A   1      48.148  34.009  27.029  1.00  0.00    -0.354 N 
ATOM     68  N   UNL A   1      49.871  31.695  26.517  1.00  0.00    -0.248 NA
ATOM     69  C   UNL A   1      51.921  30.800  25.854  1.00  0.00     0.031 C 
ATOM     70  C   UNL A   1      49.034  36.041  26.885  1.00  0.00     0.029 A 
ATOM     71  C   UNL A   1      49.321  34.692  26.750  1.00  0.00     0.049 A 
ATOM     72  H   UNL A   1      48.044  33.030  27.005  1.00  0.00     0.167 HD
ATOM     73  C   UNL A   1      50.770  32.732  26.294  1.00  0.00     0.074 A 
ATOM     74  C   UNL A   1      52.027  32.120  25.920  1.00  0.00     0.031 C 
ATOM     75  C   UNL A   1      50.571  34.071  26.389  1.00  0.00     0.037 A 
BRANCH  62  76
ATOM     76  C   UNL A   1      44.792  35.642  27.918  1.00  0.00     0.064 A 
ATOM     77  C   UNL A   1      43.894  36.079  26.932  1.00  0.00     0.173 A 
ATOM     78  C   UNL A   1      44.721  36.245  29.182  1.00  0.00     0.173 A 
ATOM     79  F   UNL A   1      43.927  35.545  25.702  1.00  0.00    -0.203 F 
ATOM     80  C   UNL A   1      42.983  37.100  27.195  1.00  0.00     0.198 A 
ATOM     81  C   UNL A   1      43.787  37.242  29.451  1.00  0.00     0.198 A 
ATOM     82  F   UNL A   1      45.553  35.863  30.163  1.00  0.00    -0.203 F 
ATOM     83  F   UNL A   1      42.172  37.537  26.222  1.00  0.00    -0.200 F 
ATOM     84  C   UNL A   1      42.925  37.674  28.455  1.00  0.00     0.200 A 
ATOM     85  F   UNL A   1      43.721  37.785  30.675  1.00  0.00    -0.200 F 
ATOM     86  F   UNL A   1      42.042  38.651  28.709  1.00  0.00    -0.200 F 
ENDBRANCH  62  76
BRANCH  63  87
ATOM     87  C   UNL A   1      50.994  28.032  26.091  1.00  0.00     0.064 A 
ATOM     88  C   UNL A   1      51.193  27.607  24.771  1.00  0.00     0.173 A 
ATOM     89  C   UNL A   1      51.673  27.344  27.107  1.00  0.00     0.173 A 
ATOM     90  F   UNL A   1      50.544  28.214  23.766  1.00  0.00    -0.203 F 
ATOM     91  C   UNL A   1      52.019  26.523  24.480  1.00  0.00     0.198 A 
ATOM     92  C   UNL A   1      52.524  26.281  26.812  1.00  0.00     0.198 A 
ATOM     93  F   UNL A   1      51.514  27.706  28.387  1.00  0.00    -0.203 F 
ATOM     94  F   UNL A   1      52.147  26.102  23.213  1.00  0.00    -0.200 F 
ATOM     95  C   UNL A   1      52.689  25.864  25.500  1.00  0.00     0.200 A 
ATOM     96  F   UNL A   1      53.177  25.654  27.800  1.00  0.00    -0.200 F 
ATOM     97  F   UNL A   1      53.483  24.822  25.220  1.00  0.00    -0.200 F 
ENDBRANCH  63  87
BRANCH  75  98
ATOM     98  C   UNL A   1      51.750  34.969  26.135  1.00  0.00     0.064 A 
ATOM     99  C   UNL A   1      51.906  35.667  24.929  1.00  0.00     0.173 A 
ATOM    100  C   UNL A   1      52.717  35.166  27.135  1.00  0.00     0.173 A 
ATOM    101  F   UNL A   1      51.019  35.507  23.936  1.00  0.00    -0.203 F 
ATOM    102  C   UNL A   1      53.001  36.504  24.722  1.00  0.00     0.198 A 
ATOM    103  C   UNL A   1      53.790  36.031  26.938  1.00  0.00     0.198 A 
ATOM    104  F   UNL A   1      52.613  34.530  28.312  1.00  0.00    -0.203 F 
ATOM    105  F   UNL A   1      53.158  37.119  23.541  1.00  0.00    -0.200 F 
ATOM    106  C   UNL A   1      53.936  36.691  25.728  1.00  0.00     0.200 A 
ATOM    107  F   UNL A   1      54.682  36.224  27.919  1.00  0.00    -0.200 F 
ATOM    108  F   UNL A   1      54.983  37.505  25.530  1.00  0.00    -0.200 F 
ENDBRANCH  75  98
ENDBRANCH  49  50
ENDBRANCH  42  44
ENDBRANCH  41  42
ENDBRANCH  40  41
ENDBRANCH  39  40
ENDBRANCH  38  39
ENDBRANCH  37  38
ENDBRANCH   1  37
TORSDOF 22
ENDMDL
MODEL 3
REMARK VINA RESULT:     -10.6      7.049     12.020
REMARK SMILES COc1ccc([C@H]2CC(c3ccc(S(C)(=O)=O)cc3)=NN2c2ccc(C(=O)OCCOCCOCCOC(=O)c3ccc(-c4c5nc(c(-c6c(F)c(F)c(F)c(F)c6F)c6ccc([nH]6)c(-c6c(F)c(F)c(F)c(F)c6F)c6nc(c(-c7c(F)c(F)c(F)c(F)c7F)c7ccc4[nH]7)C=C6)C=C5)cc3)cc2)cc1
REMARK SMILES IDX 32 1 31 2 30 3 29 4 28 5 26 6 27 7 25 8 22 9 23 10 104 11
REMARK SMILES IDX 24 12 103 13 21 14 7 15 8 16 9 17 20 18 6 19 3 20 4 21
REMARK SMILES IDX 106 22 5 23 105 24 2 25 1 26 10 27 11 28 19 29 12 30 18 31
REMARK SMILES IDX 13 32 14 33 15 34 16 35 17 36 33 37 34 38 35 39 36 40 37 41
REMARK SMILES IDX 38 42 39 43 40 44 41 45 102 46 42 47 101 48 43 49 44 50
REMARK SMILES IDX 45 51 95 52 46 53 100 54 94 55 96 56 47 57 99 58 93 59 92 60
REMARK SMILES IDX 48 62 80 63 60 64 79 65 61 66 64 67 78 68 97 69 62 70 63 71
REMARK SMILES IDX 77 73 98 74 65 75 49 76 50 77 58 78 51 79 52 80 56 81 59 82
REMARK SMILES IDX 53 83 54 84 57 85 55 86 81 87 82 88 90 89 83 90 84 91 88 92
REMARK SMILES IDX 91 93 85 94 86 95 89 96 87 97 66 98 67 99 75 100 68 101
REMARK SMILES IDX 69 102 73 103 76 104 70 105 71 106 74 107 72 108
REMARK H PARENT 96 61 64 72
REMARK Flexibility Score: inf
ROOT
ATOM      1  C   UNL A   1      33.139  36.068  28.804  1.00  0.00     0.188 C 
ENDROOT
BRANCH   1   2
ATOM      2  O   UNL A   1      33.751  34.828  29.089  1.00  0.00    -0.376 OA
BRANCH   2   3
ATOM      3  C   UNL A   1      33.935  33.858  28.073  1.00  0.00     0.202 C 
BRANCH   3   4
ATOM      4  C   UNL A   1      34.728  32.549  28.247  1.00  0.00     0.261 C 
BRANCH   4   5
ATOM      5  O   UNL A   1      34.346  31.438  27.429  1.00  0.00    -0.460 OA
BRANCH   5   6
ATOM      6  C   UNL A   1      34.814  30.236  27.848  1.00  0.00     0.338 C 
ATOM      7  O   UNL A   1      35.545  30.031  28.803  1.00  0.00    -0.246 OA
BRANCH   6   8
ATOM      8  C   UNL A   1      34.164  29.137  27.100  1.00  0.00     0.060 A 
ATOM      9  C   UNL A   1      32.962  26.888  25.905  1.00  0.00     0.060 A 
ATOM     10  C   UNL A   1      32.346  27.545  26.979  1.00  0.00     0.029 A 
ATOM     11  C   UNL A   1      34.138  27.448  25.379  1.00  0.00     0.029 A 
ATOM     12  C   UNL A   1      32.955  28.639  27.595  1.00  0.00     0.018 A 
ATOM     13  C   UNL A   1      34.732  28.579  25.956  1.00  0.00     0.018 A 
BRANCH   9  14
ATOM     14  N   UNL A   1      32.443  25.683  25.446  1.00  0.00    -0.257 N 
ATOM     15  C   UNL A   1      31.030  25.437  25.149  1.00  0.00     0.144 C 
ATOM     16  C   UNL A   1      31.065  24.030  24.544  1.00  0.00     0.091 C 
ATOM     17  C   UNL A   1      32.433  23.604  24.995  1.00  0.00     0.071 C 
ATOM     18  N   UNL A   1      33.202  24.546  25.447  1.00  0.00    -0.176 NA
BRANCH  15  19
ATOM     19  C   UNL A   1      30.396  26.439  24.200  1.00  0.00    -0.023 A 
ATOM     20  C   UNL A   1      29.301  28.404  22.493  1.00  0.00     0.118 A 
ATOM     21  C   UNL A   1      30.650  28.064  22.405  1.00  0.00     0.047 A 
ATOM     22  C   UNL A   1      28.484  27.737  23.404  1.00  0.00     0.047 A 
ATOM     23  C   UNL A   1      31.197  27.100  23.257  1.00  0.00     0.010 A 
ATOM     24  C   UNL A   1      29.028  26.760  24.249  1.00  0.00     0.010 A 
BRANCH  20  25
ATOM     25  O   UNL A   1      28.873  29.353  21.606  1.00  0.00    -0.497 OA
ATOM     26  C   UNL A   1      29.179  30.696  21.966  1.00  0.00     0.278 C 
ENDBRANCH  20  25
ENDBRANCH  15  19
BRANCH  17  27
ATOM     27  C   UNL A   1      32.831  22.195  24.901  1.00  0.00    -0.002 A 
ATOM     28  C   UNL A   1      31.847  21.220  24.706  1.00  0.00     0.011 A 
ATOM     29  C   UNL A   1      34.182  21.844  24.972  1.00  0.00     0.011 A 
ATOM     30  C   UNL A   1      32.219  19.879  24.578  1.00  0.00     0.021 A 
ATOM     31  C   UNL A   1      34.553  20.502  24.870  1.00  0.00     0.021 A 
ATOM     32  C   UNL A   1      33.569  19.526  24.679  1.00  0.00     0.067 A 
BRANCH  32  33
ATOM     33  S   UNL A   1      34.036  17.814  24.534  1.00  0.00     0.175 S 
ATOM     34  C   UNL A   1      33.366  17.309  22.970  1.00  0.00     0.163 C 
ATOM     35  O   UNL A   1      35.482  17.782  24.448  1.00  0.00    -0.224 OA
ATOM     36  O   UNL A   1      33.332  17.080  25.568  1.00  0.00    -0.224 OA
ENDBRANCH  32  33
ENDBRANCH  17  27
ENDBRANCH   9  14
ENDBRANCH   6   8
ENDBRANCH   5   6
ENDBRANCH   4   5
ENDBRANCH   3   4
ENDBRANCH   2   3
ENDBRANCH   1   2
BRANCH   1  37
ATOM     37  C   UNL A   1      33.437  37.296  29.686  1.00  0.00     0.188 C 
BRANCH  37  38
ATOM     38  O   UNL A   1      32.805  37.407  30.939  1.00  0.00    -0.376 OA
BRANCH  38  39
ATOM     39  C   UNL A   1      33.446  36.959  32.120  1.00  0.00     0.202 C 
BRANCH  39  40
ATOM     40  C   UNL A   1      34.263  35.661  32.269  1.00  0.00     0.261 C 
BRANCH  40  41
ATOM     41  O   UNL A   1      33.890  34.746  33.302  1.00  0.00    -0.460 OA
BRANCH  41  42
ATOM     42  C   UNL A   1      34.374  33.487  33.163  1.00  0.00     0.338 C 
ATOM     43  O   UNL A   1      33.988  32.620  32.402  1.00  0.00    -0.246 OA
BRANCH  42  44
ATOM     44  C   UNL A   1      35.587  33.351  33.990  1.00  0.00     0.060 A 
ATOM     45  C   UNL A   1      36.453  32.277  33.744  1.00  0.00     0.016 A 
ATOM     46  C   UNL A   1      35.837  34.245  35.030  1.00  0.00     0.016 A 
ATOM     47  C   UNL A   1      37.572  32.085  34.553  1.00  0.00     0.010 A 
ATOM     48  C   UNL A   1      36.947  34.038  35.854  1.00  0.00     0.010 A 
ATOM     49  C   UNL A   1      37.803  32.943  35.636  1.00  0.00    -0.014 A 
BRANCH  49  50
ATOM     50  C   UNL A   1      38.839  32.600  36.640  1.00  0.00     0.031 A 
ATOM     51  C   UNL A   1      38.451  32.565  38.092  1.00  0.00     0.074 A 
ATOM     52  C   UNL A   1      40.100  32.316  36.271  1.00  0.00     0.049 A 
ATOM     53  N   UNL A   1      39.195  32.360  39.149  1.00  0.00    -0.248 NA
ATOM     54  C   UNL A   1      37.030  32.797  38.392  1.00  0.00     0.031 C 
ATOM     55  C   UNL A   1      40.587  32.275  34.895  1.00  0.00     0.029 A 
ATOM     56  N   UNL A   1      41.204  32.021  37.031  1.00  0.00    -0.354 N 
ATOM     57  C   UNL A   1      38.336  32.448  40.236  1.00  0.00     0.074 A 
ATOM     58  C   UNL A   1      37.022  32.755  39.716  1.00  0.00     0.031 C 
ATOM     59  C   UNL A   1      41.901  31.991  34.909  1.00  0.00     0.029 A 
ATOM     60  C   UNL A   1      42.352  31.865  36.294  1.00  0.00     0.049 A 
ATOM     61  H   UNL A   1      41.176  31.930  38.011  1.00  0.00     0.167 HD
ATOM     62  C   UNL A   1      38.617  32.277  41.551  1.00  0.00     0.037 A 
ATOM     63  C   UNL A   1      43.623  31.675  36.698  1.00  0.00     0.037 A 
ATOM     64  C   UNL A   1      39.928  31.979  42.066  1.00  0.00     0.049 A 
ATOM     65  C   UNL A   1      43.926  31.571  38.172  1.00  0.00     0.074 A 
ATOM     66  C   UNL A   1      40.313  31.774  43.379  1.00  0.00     0.029 A 
ATOM     67  N   UNL A   1      41.073  31.857  41.291  1.00  0.00    -0.354 N 
ATOM     68  N   UNL A   1      43.106  31.625  39.194  1.00  0.00    -0.248 NA
ATOM     69  C   UNL A   1      45.333  31.375  38.547  1.00  0.00     0.031 C 
ATOM     70  C   UNL A   1      41.698  31.589  43.406  1.00  0.00     0.029 A 
ATOM     71  C   UNL A   1      42.169  31.608  42.102  1.00  0.00     0.049 A 
ATOM     72  H   UNL A   1      41.101  31.935  40.310  1.00  0.00     0.167 HD
ATOM     73  C   UNL A   1      43.890  31.437  40.326  1.00  0.00     0.074 A 
ATOM     74  C   UNL A   1      45.250  31.254  39.865  1.00  0.00     0.031 C 
ATOM     75  C   UNL A   1      43.517  31.417  41.631  1.00  0.00     0.037 A 
BRANCH  62  76
ATOM     76  C   UNL A   1      37.488  32.442  42.528  1.00  0.00     0.064 A 
ATOM     77  C   UNL A   1      36.782  31.340  43.034  1.00  0.00     0.173 A 
ATOM     78  C   UNL A   1      37.127  33.718  42.985  1.00  0.00     0.173 A 
ATOM     79  F   UNL A   1      37.079  30.099  42.621  1.00  0.00    -0.203 F 
ATOM     80  C   UNL A   1      35.737  31.513  43.939  1.00  0.00     0.198 A 
ATOM     81  C   UNL A   1      36.104  33.885  43.915  1.00  0.00     0.198 A 
ATOM     82  F   UNL A   1      37.772  34.806  42.537  1.00  0.00    -0.203 F 
ATOM     83  F   UNL A   1      35.044  30.451  44.369  1.00  0.00    -0.200 F 
ATOM     84  C   UNL A   1      35.405  32.784  44.384  1.00  0.00     0.200 A 
ATOM     85  F   UNL A   1      35.795  35.112  44.356  1.00  0.00    -0.200 F 
ATOM     86  F   UNL A   1      34.405  32.948  45.262  1.00  0.00    -0.200 F 
ENDBRANCH  62  76
BRANCH  63  87
ATOM     87  C   UNL A   1      44.717  31.586  35.692  1.00  0.00     0.064 A 
ATOM     88  C   UNL A   1      45.132  30.349  35.180  1.00  0.00     0.173 A 
ATOM     89  C   UNL A   1      45.389  32.733  35.246  1.00  0.00     0.173 A 
ATOM     90  F   UNL A   1      44.540  29.219  35.597  1.00  0.00    -0.203 F 
ATOM     91  C   UNL A   1      46.190  30.260  34.278  1.00  0.00     0.198 A 
ATOM     92  C   UNL A   1      46.425  32.647  34.319  1.00  0.00     0.198 A 
ATOM     93  F   UNL A   1      45.037  33.941  35.708  1.00  0.00    -0.203 F 
ATOM     94  F   UNL A   1      46.602  29.060  33.847  1.00  0.00    -0.200 F 
ATOM     95  C   UNL A   1      46.831  31.410  33.842  1.00  0.00     0.200 A 
ATOM     96  F   UNL A   1      47.036  33.761  33.894  1.00  0.00    -0.200 F 
ATOM     97  F   UNL A   1      47.849  31.325  32.975  1.00  0.00    -0.200 F 
ENDBRANCH  63  87
BRANCH  75  98
ATOM     98  C   UNL A   1      44.583  31.140  42.654  1.00  0.00     0.064 A 
ATOM     99  C   UNL A   1      45.264  32.172  43.316  1.00  0.00     0.173 A 
ATOM    100  C   UNL A   1      44.896  29.817  43.009  1.00  0.00     0.173 A 
ATOM    101  F   UNL A   1      45.013  33.453  43.007  1.00  0.00    -0.203 F 
ATOM    102  C   UNL A   1      46.240  31.890  44.271  1.00  0.00     0.198 A 
ATOM    103  C   UNL A   1      45.845  29.540  43.990  1.00  0.00     0.198 A 
ATOM    104  F   UNL A   1      44.268  28.791  42.415  1.00  0.00    -0.203 F 
ATOM    105  F   UNL A   1      46.916  32.892  44.851  1.00  0.00    -0.200 F 
ATOM    106  C   UNL A   1      46.522  30.576  44.613  1.00  0.00     0.200 A 
ATOM    107  F   UNL A   1      46.102  28.270  44.331  1.00  0.00    -0.200 F 
ATOM    108  F   UNL A   1      47.453  30.308  45.539  1.00  0.00    -0.200 F 
ENDBRANCH  75  98
ENDBRANCH  49  50
ENDBRANCH  42  44
ENDBRANCH  41  42
ENDBRANCH  40  41
ENDBRANCH  39  40
ENDBRANCH  38  39
ENDBRANCH  37  38
ENDBRANCH   1  37
TORSDOF 22
ENDMDL
