MODEL 1
REMARK VINA RESULT:      -9.6      0.000      0.000
REMARK SMILES C[C@@H](O)[C@@H](NC(=O)CN(C)C(=O)c1cccs1)C(=O)OCCOCCOCCOC(=O)c1ccc(-c2c3nc(c(-c4c(F)c(F)c(F)c(F)c4F)c4ccc([nH]4)c(-c4c(F)c(F)c(F)c(F)c4F)c4nc(c(-c5c(F)c(F)c(F)c(F)c5F)c5ccc2[nH]5)C=C4)C=C3)cc1
REMARK SMILES IDX 23 1 22 2 21 3 20 4 18 5 19 6 4 7 2 8 1 9 3 10 5 12 6 13
REMARK SMILES IDX 7 15 8 16 9 17 10 18 11 19 12 20 13 21 14 22 17 23 15 24
REMARK SMILES IDX 16 25 24 26 25 27 26 28 27 29 28 30 29 31 30 32 31 33 32 34
REMARK SMILES IDX 33 35 94 36 34 37 93 38 35 39 36 40 37 41 87 42 38 43 92 44
REMARK SMILES IDX 86 45 88 46 39 47 91 48 85 49 84 50 40 52 72 53 52 54 71 55
REMARK SMILES IDX 53 56 56 57 70 58 89 59 54 60 55 61 69 63 90 64 57 65 41 66
REMARK SMILES IDX 42 67 50 68 43 69 44 70 48 71 51 72 45 73 46 74 49 75 47 76
REMARK SMILES IDX 73 77 74 78 82 79 75 80 76 81 80 82 83 83 77 84 78 85 81 86
REMARK SMILES IDX 79 87 58 88 59 89 67 90 60 91 61 92 65 93 68 94 62 95 63 96
REMARK SMILES IDX 66 97 64 98
REMARK H PARENT 3 11 5 14 88 51 56 62
REMARK Flexibility Score: inf
ROOT
ATOM      1  O   UNL A   1      35.411  22.930  25.422  1.00  0.00    -0.376 OA
ENDROOT
BRANCH   1   2
ATOM      2  C   UNL A   1      34.415  22.030  25.909  1.00  0.00     0.202 C 
BRANCH   2   3
ATOM      3  C   UNL A   1      33.794  21.132  24.835  1.00  0.00     0.261 C 
BRANCH   3   4
ATOM      4  O   UNL A   1      33.758  21.852  23.582  1.00  0.00    -0.462 OA
BRANCH   4   5
ATOM      5  C   UNL A   1      32.529  22.075  23.054  1.00  0.00     0.331 C 
ATOM      6  O   UNL A   1      31.914  21.245  22.391  1.00  0.00    -0.250 OA
BRANCH   5   7
ATOM      7  C   UNL A   1      32.038  23.520  23.262  1.00  0.00     0.221 C 
BRANCH   7   8
ATOM      8  C   UNL A   1      31.178  23.792  24.520  1.00  0.00     0.145 C 
ATOM      9  C   UNL A   1      31.925  24.680  25.523  1.00  0.00     0.041 C 
BRANCH   8  10
ATOM     10  O   UNL A   1      29.950  24.441  24.188  1.00  0.00    -0.391 OA
ATOM     11  H   UNL A   1      30.066  25.402  24.248  1.00  0.00     0.211 HD
ENDBRANCH   8  10
ENDBRANCH   7   8
BRANCH   7  12
ATOM     12  N   UNL A   1      32.991  24.612  22.973  1.00  0.00    -0.339 N 
ATOM     13  C   UNL A   1      32.922  25.759  22.238  1.00  0.00     0.240 C 
ATOM     14  H   UNL A   1      33.866  24.485  23.406  1.00  0.00     0.164 HD
ATOM     15  O   UNL A   1      33.975  26.097  21.692  1.00  0.00    -0.273 OA
BRANCH  13  16
ATOM     16  C   UNL A   1      31.650  26.611  22.108  1.00  0.00     0.219 C 
BRANCH  16  17
ATOM     17  N   UNL A   1      31.468  27.705  23.066  1.00  0.00    -0.332 N 
ATOM     18  C   UNL A   1      30.261  27.706  23.863  1.00  0.00     0.147 C 
BRANCH  17  19
ATOM     19  C   UNL A   1      32.511  28.608  23.316  1.00  0.00     0.264 C 
ATOM     20  O   UNL A   1      33.066  29.230  22.414  1.00  0.00    -0.268 OA
BRANCH  19  21
ATOM     21  C   UNL A   1      32.930  28.711  24.708  1.00  0.00     0.092 A 
ATOM     22  C   UNL A   1      33.739  27.848  25.426  1.00  0.00     0.025 A 
ATOM     23  S   UNL A   1      32.330  29.977  25.685  1.00  0.00    -0.139 S 
ATOM     24  C   UNL A   1      33.777  28.174  26.811  1.00  0.00     0.012 A 
ATOM     25  C   UNL A   1      33.041  29.304  27.092  1.00  0.00     0.065 A 
ENDBRANCH  19  21
ENDBRANCH  17  19
ENDBRANCH  16  17
ENDBRANCH  13  16
ENDBRANCH   7  12
ENDBRANCH   5   7
ENDBRANCH   4   5
ENDBRANCH   3   4
ENDBRANCH   2   3
ENDBRANCH   1   2
BRANCH   1  26
ATOM     26  C   UNL A   1      36.759  22.699  25.830  1.00  0.00     0.188 C 
BRANCH  26  27
ATOM     27  C   UNL A   1      37.589  21.810  24.903  1.00  0.00     0.188 C 
BRANCH  27  28
ATOM     28  O   UNL A   1      37.373  20.404  25.007  1.00  0.00    -0.376 OA
BRANCH  28  29
ATOM     29  C   UNL A   1      38.540  19.578  24.981  1.00  0.00     0.202 C 
BRANCH  29  30
ATOM     30  C   UNL A   1      39.746  20.191  25.701  1.00  0.00     0.261 C 
BRANCH  30  31
ATOM     31  O   UNL A   1      40.589  19.129  26.183  1.00  0.00    -0.460 OA
BRANCH  31  32
ATOM     32  C   UNL A   1      41.922  19.288  26.017  1.00  0.00     0.338 C 
ATOM     33  O   UNL A   1      42.686  18.556  25.408  1.00  0.00    -0.246 OA
BRANCH  32  34
ATOM     34  C   UNL A   1      42.281  20.647  26.480  1.00  0.00     0.060 A 
ATOM     35  C   UNL A   1      42.737  21.566  25.527  1.00  0.00     0.016 A 
ATOM     36  C   UNL A   1      42.111  21.037  27.812  1.00  0.00     0.016 A 
ATOM     37  C   UNL A   1      43.033  22.876  25.903  1.00  0.00     0.010 A 
ATOM     38  C   UNL A   1      42.418  22.344  28.191  1.00  0.00     0.010 A 
ATOM     39  C   UNL A   1      42.894  23.263  27.242  1.00  0.00    -0.014 A 
BRANCH  39  40
ATOM     40  C   UNL A   1      43.371  24.587  27.693  1.00  0.00     0.031 A 
ATOM     41  C   UNL A   1      42.357  25.645  28.011  1.00  0.00     0.074 A 
ATOM     42  C   UNL A   1      44.685  24.850  27.785  1.00  0.00     0.049 A 
ATOM     43  N   UNL A   1      42.538  26.903  28.321  1.00  0.00    -0.248 NA
ATOM     44  C   UNL A   1      40.945  25.228  27.974  1.00  0.00     0.031 C 
ATOM     45  C   UNL A   1      45.760  23.891  27.543  1.00  0.00     0.029 A 
ATOM     46  N   UNL A   1      45.335  26.018  28.093  1.00  0.00    -0.354 N 
ATOM     47  C   UNL A   1      41.269  27.425  28.518  1.00  0.00     0.074 A 
ATOM     48  C   UNL A   1      40.323  26.358  28.275  1.00  0.00     0.031 C 
ATOM     49  C   UNL A   1      46.941  24.518  27.686  1.00  0.00     0.029 A 
ATOM     50  C   UNL A   1      46.701  25.926  27.999  1.00  0.00     0.049 A 
ATOM     51  H   UNL A   1      44.867  26.843  28.356  1.00  0.00     0.167 HD
ATOM     52  C   UNL A   1      40.925  28.684  28.875  1.00  0.00     0.037 A 
ATOM     53  C   UNL A   1      47.642  26.881  28.119  1.00  0.00     0.037 A 
ATOM     54  C   UNL A   1      41.862  29.749  29.102  1.00  0.00     0.049 A 
ATOM     55  C   UNL A   1      47.226  28.299  28.409  1.00  0.00     0.074 A 
ATOM     56  C   UNL A   1      41.614  31.051  29.493  1.00  0.00     0.029 A 
ATOM     57  N   UNL A   1      43.234  29.630  28.941  1.00  0.00    -0.354 N 
ATOM     58  N   UNL A   1      46.026  28.783  28.615  1.00  0.00    -0.248 NA
ATOM     59  C   UNL A   1      48.297  29.305  28.467  1.00  0.00     0.031 C 
ATOM     60  C   UNL A   1      42.835  31.734  29.533  1.00  0.00     0.029 A 
ATOM     61  C   UNL A   1      43.844  30.847  29.193  1.00  0.00     0.049 A 
ATOM     62  H   UNL A   1      43.705  28.805  28.685  1.00  0.00     0.167 HD
ATOM     63  C   UNL A   1      46.196  30.144  28.838  1.00  0.00     0.074 A 
ATOM     64  C   UNL A   1      47.618  30.408  28.751  1.00  0.00     0.031 C 
ATOM     65  C   UNL A   1      45.260  31.089  29.090  1.00  0.00     0.037 A 
BRANCH  52  66
ATOM     66  C   UNL A   1      39.465  28.975  29.018  1.00  0.00     0.064 A 
ATOM     67  C   UNL A   1      38.818  28.865  30.256  1.00  0.00     0.173 A 
ATOM     68  C   UNL A   1      38.709  29.377  27.908  1.00  0.00     0.173 A 
ATOM     69  F   UNL A   1      39.499  28.463  31.340  1.00  0.00    -0.203 F 
ATOM     70  C   UNL A   1      37.457  29.132  30.376  1.00  0.00     0.198 A 
ATOM     71  C   UNL A   1      37.352  29.659  28.034  1.00  0.00     0.198 A 
ATOM     72  F   UNL A   1      39.285  29.489  26.702  1.00  0.00    -0.203 F 
ATOM     73  F   UNL A   1      36.849  28.987  31.561  1.00  0.00    -0.200 F 
ATOM     74  C   UNL A   1      36.727  29.533  29.266  1.00  0.00     0.200 A 
ATOM     75  F   UNL A   1      36.646  30.044  26.963  1.00  0.00    -0.200 F 
ATOM     76  F   UNL A   1      35.416  29.786  29.382  1.00  0.00    -0.200 F 
ENDBRANCH  52  66
BRANCH  53  77
ATOM     77  C   UNL A   1      49.073  26.540  27.925  1.00  0.00     0.064 A 
ATOM     78  C   UNL A   1      49.897  26.239  29.017  1.00  0.00     0.173 A 
ATOM     79  C   UNL A   1      49.649  26.534  26.646  1.00  0.00     0.173 A 
ATOM     80  F   UNL A   1      49.395  26.266  30.260  1.00  0.00    -0.203 F 
ATOM     81  C   UNL A   1      51.249  25.954  28.838  1.00  0.00     0.198 A 
ATOM     82  C   UNL A   1      50.996  26.230  26.467  1.00  0.00     0.198 A 
ATOM     83  F   UNL A   1      48.901  26.826  25.572  1.00  0.00    -0.203 F 
ATOM     84  F   UNL A   1      52.026  25.707  29.901  1.00  0.00    -0.200 F 
ATOM     85  C   UNL A   1      51.796  25.945  27.564  1.00  0.00     0.200 A 
ATOM     86  F   UNL A   1      51.521  26.224  25.234  1.00  0.00    -0.200 F 
ATOM     87  F   UNL A   1      53.097  25.676  27.392  1.00  0.00    -0.200 F 
ENDBRANCH  53  77
BRANCH  65  88
ATOM     88  C   UNL A   1      45.739  32.494  29.292  1.00  0.00     0.064 A 
ATOM     89  C   UNL A   1      46.144  32.947  30.555  1.00  0.00     0.173 A 
ATOM     90  C   UNL A   1      45.842  33.376  28.208  1.00  0.00     0.173 A 
ATOM     91  F   UNL A   1      46.047  32.142  31.624  1.00  0.00    -0.203 F 
ATOM     92  C   UNL A   1      46.628  34.239  30.727  1.00  0.00     0.198 A 
ATOM     93  C   UNL A   1      46.344  34.662  28.380  1.00  0.00     0.198 A 
ATOM     94  F   UNL A   1      45.469  32.985  26.981  1.00  0.00    -0.203 F 
ATOM     95  F   UNL A   1      46.987  34.663  31.947  1.00  0.00    -0.200 F 
ATOM     96  C   UNL A   1      46.735  35.094  29.639  1.00  0.00     0.200 A 
ATOM     97  F   UNL A   1      46.454  35.483  27.326  1.00  0.00    -0.200 F 
ATOM     98  F   UNL A   1      47.210  36.336  29.804  1.00  0.00    -0.200 F 
ENDBRANCH  65  88
ENDBRANCH  39  40
ENDBRANCH  32  34
ENDBRANCH  31  32
ENDBRANCH  30  31
ENDBRANCH  29  30
ENDBRANCH  28  29
ENDBRANCH  27  28
ENDBRANCH  26  27
ENDBRANCH   1  26
TORSDOF 24
ENDMDL
MODEL 2
REMARK VINA RESULT:      -9.4      0.800      7.268
REMARK SMILES C[C@@H](O)[C@@H](NC(=O)CN(C)C(=O)c1cccs1)C(=O)OCCOCCOCCOC(=O)c1ccc(-c2c3nc(c(-c4c(F)c(F)c(F)c(F)c4F)c4ccc([nH]4)c(-c4c(F)c(F)c(F)c(F)c4F)c4nc(c(-c5c(F)c(F)c(F)c(F)c5F)c5ccc2[nH]5)C=C4)C=C3)cc1
REMARK SMILES IDX 23 1 22 2 21 3 20 4 18 5 19 6 4 7 2 8 1 9 3 10 5 12 6 13
REMARK SMILES IDX 7 15 8 16 9 17 10 18 11 19 12 20 13 21 14 22 17 23 15 24
REMARK SMILES IDX 16 25 24 26 25 27 26 28 27 29 28 30 29 31 30 32 31 33 32 34
REMARK SMILES IDX 33 35 94 36 34 37 93 38 35 39 36 40 37 41 87 42 38 43 92 44
REMARK SMILES IDX 86 45 88 46 39 47 91 48 85 49 84 50 40 52 72 53 52 54 71 55
REMARK SMILES IDX 53 56 56 57 70 58 89 59 54 60 55 61 69 63 90 64 57 65 41 66
REMARK SMILES IDX 42 67 50 68 43 69 44 70 48 71 51 72 45 73 46 74 49 75 47 76
REMARK SMILES IDX 73 77 74 78 82 79 75 80 76 81 80 82 83 83 77 84 78 85 81 86
REMARK SMILES IDX 79 87 58 88 59 89 67 90 60 91 61 92 65 93 68 94 62 95 63 96
REMARK SMILES IDX 66 97 64 98
REMARK H PARENT 3 11 5 14 88 51 56 62
REMARK Flexibility Score: inf
ROOT
ATOM      1  O   UNL A   1      35.391  22.966  25.359  1.00  0.00    -0.376 OA
ENDROOT
BRANCH   1   2
ATOM      2  C   UNL A   1      34.360  22.097  25.832  1.00  0.00     0.202 C 
BRANCH   2   3
ATOM      3  C   UNL A   1      33.745  21.201  24.754  1.00  0.00     0.261 C 
BRANCH   3   4
ATOM      4  O   UNL A   1      33.710  21.924  23.503  1.00  0.00    -0.462 OA
BRANCH   4   5
ATOM      5  C   UNL A   1      32.480  22.164  22.983  1.00  0.00     0.331 C 
ATOM      6  O   UNL A   1      31.855  21.345  22.315  1.00  0.00    -0.250 OA
BRANCH   5   7
ATOM      7  C   UNL A   1      32.004  23.611  23.207  1.00  0.00     0.221 C 
BRANCH   7   8
ATOM      8  C   UNL A   1      31.122  23.872  24.452  1.00  0.00     0.145 C 
ATOM      9  C   UNL A   1      31.856  24.738  25.482  1.00  0.00     0.041 C 
BRANCH   8  10
ATOM     10  O   UNL A   1      29.906  24.537  24.104  1.00  0.00    -0.391 OA
ATOM     11  H   UNL A   1      29.685  25.186  24.790  1.00  0.00     0.211 HD
ENDBRANCH   8  10
ENDBRANCH   7   8
BRANCH   7  12
ATOM     12  N   UNL A   1      32.977  24.696  22.958  1.00  0.00    -0.339 N 
ATOM     13  C   UNL A   1      32.944  25.847  22.227  1.00  0.00     0.240 C 
ATOM     14  H   UNL A   1      33.835  24.558  23.420  1.00  0.00     0.164 HD
ATOM     15  O   UNL A   1      34.019  26.177  21.720  1.00  0.00    -0.273 OA
BRANCH  13  16
ATOM     16  C   UNL A   1      31.686  26.711  22.056  1.00  0.00     0.219 C 
BRANCH  16  17
ATOM     17  N   UNL A   1      31.473  27.794  23.021  1.00  0.00    -0.332 N 
ATOM     18  C   UNL A   1      30.236  27.792  23.770  1.00  0.00     0.147 C 
BRANCH  17  19
ATOM     19  C   UNL A   1      32.512  28.685  23.325  1.00  0.00     0.264 C 
ATOM     20  O   UNL A   1      33.109  29.312  22.454  1.00  0.00    -0.268 OA
BRANCH  19  21
ATOM     21  C   UNL A   1      32.871  28.772  24.734  1.00  0.00     0.092 A 
ATOM     22  C   UNL A   1      33.657  27.906  25.473  1.00  0.00     0.025 A 
ATOM     23  S   UNL A   1      32.219  30.019  25.704  1.00  0.00    -0.139 S 
ATOM     24  C   UNL A   1      33.634  28.212  26.864  1.00  0.00     0.012 A 
ATOM     25  C   UNL A   1      32.877  29.331  27.129  1.00  0.00     0.065 A 
ENDBRANCH  19  21
ENDBRANCH  17  19
ENDBRANCH  16  17
ENDBRANCH  13  16
ENDBRANCH   7  12
ENDBRANCH   5   7
ENDBRANCH   4   5
ENDBRANCH   3   4
ENDBRANCH   2   3
ENDBRANCH   1   2
BRANCH   1  26
ATOM     26  C   UNL A   1      36.726  22.688  25.781  1.00  0.00     0.188 C 
BRANCH  26  27
ATOM     27  C   UNL A   1      37.531  21.765  24.865  1.00  0.00     0.188 C 
BRANCH  27  28
ATOM     28  O   UNL A   1      37.284  20.367  24.994  1.00  0.00    -0.376 OA
BRANCH  28  29
ATOM     29  C   UNL A   1      38.435  19.518  25.018  1.00  0.00     0.202 C 
BRANCH  29  30
ATOM     30  C   UNL A   1      39.654  20.150  25.698  1.00  0.00     0.261 C 
BRANCH  30  31
ATOM     31  O   UNL A   1      40.439  19.109  26.309  1.00  0.00    -0.460 OA
BRANCH  31  32
ATOM     32  C   UNL A   1      41.781  19.192  26.160  1.00  0.00     0.338 C 
ATOM     33  O   UNL A   1      42.534  18.331  25.733  1.00  0.00    -0.246 OA
BRANCH  32  34
ATOM     34  C   UNL A   1      42.176  20.604  26.357  1.00  0.00     0.060 A 
ATOM     35  C   UNL A   1      42.241  21.091  27.669  1.00  0.00     0.016 A 
ATOM     36  C   UNL A   1      42.541  21.422  25.283  1.00  0.00     0.016 A 
ATOM     37  C   UNL A   1      42.663  22.398  27.911  1.00  0.00     0.010 A 
ATOM     38  C   UNL A   1      42.951  22.733  25.524  1.00  0.00     0.010 A 
ATOM     39  C   UNL A   1      42.999  23.230  26.836  1.00  0.00    -0.014 A 
BRANCH  39  40
ATOM     40  C   UNL A   1      43.275  24.665  27.057  1.00  0.00     0.031 A 
ATOM     41  C   UNL A   1      44.671  25.170  26.844  1.00  0.00     0.074 A 
ATOM     42  C   UNL A   1      42.304  25.496  27.471  1.00  0.00     0.049 A 
ATOM     43  N   UNL A   1      45.169  26.356  27.075  1.00  0.00    -0.248 NA
ATOM     44  C   UNL A   1      45.637  24.203  26.295  1.00  0.00     0.031 C 
ATOM     45  C   UNL A   1      40.904  25.130  27.673  1.00  0.00     0.029 A 
ATOM     46  N   UNL A   1      42.360  26.823  27.816  1.00  0.00    -0.354 N 
ATOM     47  C   UNL A   1      46.501  26.281  26.698  1.00  0.00     0.074 A 
ATOM     48  C   UNL A   1      46.743  24.930  26.242  1.00  0.00     0.031 C 
ATOM     49  C   UNL A   1      40.236  26.203  28.131  1.00  0.00     0.029 A 
ATOM     50  C   UNL A   1      41.169  27.318  28.284  1.00  0.00     0.049 A 
ATOM     51  H   UNL A   1      43.176  27.367  27.735  1.00  0.00     0.167 HD
ATOM     52  C   UNL A   1      47.439  27.257  26.728  1.00  0.00     0.037 A 
ATOM     53  C   UNL A   1      40.880  28.524  28.807  1.00  0.00     0.037 A 
ATOM     54  C   UNL A   1      47.205  28.594  27.194  1.00  0.00     0.049 A 
ATOM     55  C   UNL A   1      41.968  29.558  28.930  1.00  0.00     0.074 A 
ATOM     56  C   UNL A   1      48.082  29.662  27.238  1.00  0.00     0.029 A 
ATOM     57  N   UNL A   1      45.999  29.041  27.714  1.00  0.00    -0.354 N 
ATOM     58  N   UNL A   1      43.222  29.489  28.554  1.00  0.00    -0.248 NA
ATOM     59  C   UNL A   1      41.603  30.832  29.566  1.00  0.00     0.031 C 
ATOM     60  C   UNL A   1      47.418  30.749  27.820  1.00  0.00     0.029 A 
ATOM     61  C   UNL A   1      46.120  30.362  28.113  1.00  0.00     0.049 A 
ATOM     62  H   UNL A   1      45.180  28.501  27.789  1.00  0.00     0.167 HD
ATOM     63  C   UNL A   1      43.791  30.709  28.895  1.00  0.00     0.074 A 
ATOM     64  C   UNL A   1      42.744  31.505  29.501  1.00  0.00     0.031 C 
ATOM     65  C   UNL A   1      45.067  31.131  28.723  1.00  0.00     0.037 A 
BRANCH  52  66
ATOM     66  C   UNL A   1      48.812  26.894  26.258  1.00  0.00     0.064 A 
ATOM     67  C   UNL A   1      49.186  27.045  24.917  1.00  0.00     0.173 A 
ATOM     68  C   UNL A   1      49.764  26.400  27.161  1.00  0.00     0.173 A 
ATOM     69  F   UNL A   1      48.301  27.495  24.015  1.00  0.00    -0.203 F 
ATOM     70  C   UNL A   1      50.465  26.699  24.490  1.00  0.00     0.198 A 
ATOM     71  C   UNL A   1      51.046  26.069  26.735  1.00  0.00     0.198 A 
ATOM     72  F   UNL A   1      49.447  26.232  28.454  1.00  0.00    -0.203 F 
ATOM     73  F   UNL A   1      50.794  26.817  23.196  1.00  0.00    -0.200 F 
ATOM     74  C   UNL A   1      51.395  26.215  25.400  1.00  0.00     0.200 A 
ATOM     75  F   UNL A   1      51.943  25.601  27.613  1.00  0.00    -0.200 F 
ATOM     76  F   UNL A   1      52.624  25.878  24.987  1.00  0.00    -0.200 F 
ENDBRANCH  52  66
BRANCH  53  77
ATOM     77  C   UNL A   1      39.509  28.812  29.295  1.00  0.00     0.064 A 
ATOM     78  C   UNL A   1      38.545  29.370  28.447  1.00  0.00     0.173 A 
ATOM     79  C   UNL A   1      39.146  28.557  30.625  1.00  0.00     0.173 A 
ATOM     80  F   UNL A   1      38.860  29.660  27.176  1.00  0.00    -0.203 F 
ATOM     81  C   UNL A   1      37.268  29.673  28.914  1.00  0.00     0.198 A 
ATOM     82  C   UNL A   1      37.863  28.843  31.086  1.00  0.00     0.198 A 
ATOM     83  F   UNL A   1      40.040  28.033  31.476  1.00  0.00    -0.203 F 
ATOM     84  F   UNL A   1      36.374  30.243  28.094  1.00  0.00    -0.200 F 
ATOM     85  C   UNL A   1      36.927  29.406  30.231  1.00  0.00     0.200 A 
ATOM     86  F   UNL A   1      37.538  28.584  32.360  1.00  0.00    -0.200 F 
ATOM     87  F   UNL A   1      35.700  29.703  30.682  1.00  0.00    -0.200 F 
ENDBRANCH  53  77
BRANCH  65  88
ATOM     88  C   UNL A   1      45.402  32.513  29.193  1.00  0.00     0.064 A 
ATOM     89  C   UNL A   1      45.204  33.628  28.366  1.00  0.00     0.173 A 
ATOM     90  C   UNL A   1      45.875  32.730  30.495  1.00  0.00     0.173 A 
ATOM     91  F   UNL A   1      44.768  33.465  27.108  1.00  0.00    -0.203 F 
ATOM     92  C   UNL A   1      45.477  34.912  28.825  1.00  0.00     0.198 A 
ATOM     93  C   UNL A   1      46.129  34.017  30.956  1.00  0.00     0.198 A 
ATOM     94  F   UNL A   1      46.076  31.694  31.321  1.00  0.00    -0.203 F 
ATOM     95  F   UNL A   1      45.305  35.964  28.011  1.00  0.00    -0.200 F 
ATOM     96  C   UNL A   1      45.932  35.108  30.121  1.00  0.00     0.200 A 
ATOM     97  F   UNL A   1      46.561  34.205  32.211  1.00  0.00    -0.200 F 
ATOM     98  F   UNL A   1      46.186  36.347  30.564  1.00  0.00    -0.200 F 
ENDBRANCH  65  88
ENDBRANCH  39  40
ENDBRANCH  32  34
ENDBRANCH  31  32
ENDBRANCH  30  31
ENDBRANCH  29  30
ENDBRANCH  28  29
ENDBRANCH  27  28
ENDBRANCH  26  27
ENDBRANCH   1  26
TORSDOF 24
ENDMDL
MODEL 3
REMARK VINA RESULT:      -9.3      1.527      2.987
REMARK SMILES C[C@@H](O)[C@@H](NC(=O)CN(C)C(=O)c1cccs1)C(=O)OCCOCCOCCOC(=O)c1ccc(-c2c3nc(c(-c4c(F)c(F)c(F)c(F)c4F)c4ccc([nH]4)c(-c4c(F)c(F)c(F)c(F)c4F)c4nc(c(-c5c(F)c(F)c(F)c(F)c5F)c5ccc2[nH]5)C=C4)C=C3)cc1
REMARK SMILES IDX 23 1 22 2 21 3 20 4 18 5 19 6 4 7 2 8 1 9 3 10 5 12 6 13
REMARK SMILES IDX 7 15 8 16 9 17 10 18 11 19 12 20 13 21 14 22 17 23 15 24
REMARK SMILES IDX 16 25 24 26 25 27 26 28 27 29 28 30 29 31 30 32 31 33 32 34
REMARK SMILES IDX 33 35 94 36 34 37 93 38 35 39 36 40 37 41 87 42 38 43 92 44
REMARK SMILES IDX 86 45 88 46 39 47 91 48 85 49 84 50 40 52 72 53 52 54 71 55
REMARK SMILES IDX 53 56 56 57 70 58 89 59 54 60 55 61 69 63 90 64 57 65 41 66
REMARK SMILES IDX 42 67 50 68 43 69 44 70 48 71 51 72 45 73 46 74 49 75 47 76
REMARK SMILES IDX 73 77 74 78 82 79 75 80 76 81 80 82 83 83 77 84 78 85 81 86
REMARK SMILES IDX 79 87 58 88 59 89 67 90 60 91 61 92 65 93 68 94 62 95 63 96
REMARK SMILES IDX 66 97 64 98
REMARK H PARENT 3 11 5 14 88 51 56 62
REMARK Flexibility Score: inf
ROOT
ATOM      1  O   UNL A   1      35.510  21.691  26.078  1.00  0.00    -0.376 OA
ENDROOT
BRANCH   1   2
ATOM      2  C   UNL A   1      34.339  22.501  25.963  1.00  0.00     0.202 C 
BRANCH   2   3
ATOM      3  C   UNL A   1      34.619  24.001  25.836  1.00  0.00     0.261 C 
BRANCH   3   4
ATOM      4  O   UNL A   1      35.190  24.265  24.535  1.00  0.00    -0.462 OA
BRANCH   4   5
ATOM      5  C   UNL A   1      34.345  24.171  23.478  1.00  0.00     0.331 C 
ATOM      6  O   UNL A   1      34.455  23.325  22.595  1.00  0.00    -0.250 OA
BRANCH   5   7
ATOM      7  C   UNL A   1      33.312  25.311  23.430  1.00  0.00     0.221 C 
BRANCH   7   8
ATOM      8  C   UNL A   1      33.281  26.173  22.144  1.00  0.00     0.145 C 
ATOM      9  C   UNL A   1      31.989  25.943  21.352  1.00  0.00     0.041 C 
BRANCH   8  10
ATOM     10  O   UNL A   1      33.372  27.567  22.443  1.00  0.00    -0.391 OA
ATOM     11  H   UNL A   1      34.274  27.780  22.727  1.00  0.00     0.211 HD
ENDBRANCH   8  10
ENDBRANCH   7   8
BRANCH   7  12
ATOM     12  N   UNL A   1      31.962  25.033  23.965  1.00  0.00    -0.339 N 
ATOM     13  C   UNL A   1      31.162  25.647  24.882  1.00  0.00     0.240 C 
ATOM     14  H   UNL A   1      31.551  24.229  23.573  1.00  0.00     0.164 HD
ATOM     15  O   UNL A   1      30.447  24.891  25.545  1.00  0.00    -0.273 OA
BRANCH  13  16
ATOM     16  C   UNL A   1      31.106  27.169  25.078  1.00  0.00     0.219 C 
BRANCH  16  17
ATOM     17  N   UNL A   1      30.285  27.943  24.141  1.00  0.00    -0.332 N 
ATOM     18  C   UNL A   1      29.182  27.265  23.497  1.00  0.00     0.147 C 
BRANCH  17  19
ATOM     19  C   UNL A   1      30.464  29.328  24.022  1.00  0.00     0.264 C 
ATOM     20  O   UNL A   1      31.234  29.952  24.747  1.00  0.00    -0.268 OA
BRANCH  19  21
ATOM     21  C   UNL A   1      29.631  29.983  23.021  1.00  0.00     0.092 A 
ATOM     22  C   UNL A   1      29.805  30.013  21.648  1.00  0.00     0.025 A 
ATOM     23  S   UNL A   1      28.295  30.927  23.511  1.00  0.00    -0.139 S 
ATOM     24  C   UNL A   1      28.897  30.906  21.011  1.00  0.00     0.012 A 
ATOM     25  C   UNL A   1      28.028  31.481  21.911  1.00  0.00     0.065 A 
ENDBRANCH  19  21
ENDBRANCH  17  19
ENDBRANCH  16  17
ENDBRANCH  13  16
ENDBRANCH   7  12
ENDBRANCH   5   7
ENDBRANCH   4   5
ENDBRANCH   3   4
ENDBRANCH   2   3
ENDBRANCH   1   2
BRANCH   1  26
ATOM     26  C   UNL A   1      35.758  20.748  25.036  1.00  0.00     0.188 C 
BRANCH  26  27
ATOM     27  C   UNL A   1      37.229  20.432  24.764  1.00  0.00     0.188 C 
BRANCH  27  28
ATOM     28  O   UNL A   1      38.164  21.476  25.032  1.00  0.00    -0.376 OA
BRANCH  28  29
ATOM     29  C   UNL A   1      39.146  21.207  26.036  1.00  0.00     0.202 C 
BRANCH  29  30
ATOM     30  C   UNL A   1      39.562  19.734  26.114  1.00  0.00     0.261 C 
BRANCH  30  31
ATOM     31  O   UNL A   1      40.793  19.559  25.389  1.00  0.00    -0.460 OA
BRANCH  31  32
ATOM     32  C   UNL A   1      41.916  19.400  26.127  1.00  0.00     0.338 C 
ATOM     33  O   UNL A   1      42.506  18.358  26.363  1.00  0.00    -0.246 OA
BRANCH  32  34
ATOM     34  C   UNL A   1      42.476  20.742  26.400  1.00  0.00     0.060 A 
ATOM     35  C   UNL A   1      42.548  21.164  27.734  1.00  0.00     0.016 A 
ATOM     36  C   UNL A   1      42.985  21.548  25.376  1.00  0.00     0.016 A 
ATOM     37  C   UNL A   1      43.121  22.396  28.048  1.00  0.00     0.010 A 
ATOM     38  C   UNL A   1      43.546  22.785  25.689  1.00  0.00     0.010 A 
ATOM     39  C   UNL A   1      43.603  23.220  27.023  1.00  0.00    -0.014 A 
BRANCH  39  40
ATOM     40  C   UNL A   1      44.047  24.599  27.316  1.00  0.00     0.031 A 
ATOM     41  C   UNL A   1      43.026  25.603  27.763  1.00  0.00     0.074 A 
ATOM     42  C   UNL A   1      45.331  24.957  27.154  1.00  0.00     0.049 A 
ATOM     43  N   UNL A   1      43.160  26.886  27.975  1.00  0.00    -0.248 NA
ATOM     44  C   UNL A   1      41.668  25.088  28.005  1.00  0.00     0.031 C 
ATOM     45  C   UNL A   1      46.418  24.062  26.764  1.00  0.00     0.029 A 
ATOM     46  N   UNL A   1      45.932  26.184  27.281  1.00  0.00    -0.354 N 
ATOM     47  C   UNL A   1      41.910  27.331  28.377  1.00  0.00     0.074 A 
ATOM     48  C   UNL A   1      41.023  26.189  28.361  1.00  0.00     0.031 C 
ATOM     49  C   UNL A   1      47.552  24.776  26.659  1.00  0.00     0.029 A 
ATOM     50  C   UNL A   1      47.262  26.180  26.943  1.00  0.00     0.049 A 
ATOM     51  H   UNL A   1      45.455  26.990  27.586  1.00  0.00     0.167 HD
ATOM     52  C   UNL A   1      41.537  28.583  28.730  1.00  0.00     0.037 A 
ATOM     53  C   UNL A   1      48.131  27.203  26.843  1.00  0.00     0.037 A 
ATOM     54  C   UNL A   1      42.413  29.721  28.730  1.00  0.00     0.049 A 
ATOM     55  C   UNL A   1      47.664  28.604  27.137  1.00  0.00     0.074 A 
ATOM     56  C   UNL A   1      42.137  31.025  29.099  1.00  0.00     0.029 A 
ATOM     57  N   UNL A   1      43.739  29.688  28.327  1.00  0.00    -0.354 N 
ATOM     58  N   UNL A   1      46.485  29.017  27.536  1.00  0.00    -0.248 NA
ATOM     59  C   UNL A   1      48.645  29.683  26.950  1.00  0.00     0.031 C 
ATOM     60  C   UNL A   1      43.288  31.792  28.882  1.00  0.00     0.029 A 
ATOM     61  C   UNL A   1      44.287  30.957  28.405  1.00  0.00     0.049 A 
ATOM     62  H   UNL A   1      44.220  28.883  28.029  1.00  0.00     0.167 HD
ATOM     63  C   UNL A   1      46.585  30.397  27.659  1.00  0.00     0.074 A 
ATOM     64  C   UNL A   1      47.943  30.752  27.301  1.00  0.00     0.031 C 
ATOM     65  C   UNL A   1      45.637  31.289  28.033  1.00  0.00     0.037 A 
BRANCH  52  66
ATOM     66  C   UNL A   1      40.108  28.781  29.124  1.00  0.00     0.064 A 
ATOM     67  C   UNL A   1      39.135  29.136  28.180  1.00  0.00     0.173 A 
ATOM     68  C   UNL A   1      39.707  28.604  30.455  1.00  0.00     0.173 A 
ATOM     69  F   UNL A   1      39.478  29.336  26.899  1.00  0.00    -0.203 F 
ATOM     70  C   UNL A   1      37.809  29.323  28.559  1.00  0.00     0.198 A 
ATOM     71  C   UNL A   1      38.378  28.777  30.828  1.00  0.00     0.198 A 
ATOM     72  F   UNL A   1      40.606  28.271  31.393  1.00  0.00    -0.203 F 
ATOM     73  F   UNL A   1      36.899  29.698  27.649  1.00  0.00    -0.200 F 
ATOM     74  C   UNL A   1      37.431  29.140  29.882  1.00  0.00     0.200 A 
ATOM     75  F   UNL A   1      38.013  28.601  32.105  1.00  0.00    -0.200 F 
ATOM     76  F   UNL A   1      36.155  29.325  30.246  1.00  0.00    -0.200 F 
ENDBRANCH  52  66
BRANCH  53  77
ATOM     77  C   UNL A   1      49.526  26.950  26.407  1.00  0.00     0.064 A 
ATOM     78  C   UNL A   1      49.874  26.980  25.051  1.00  0.00     0.173 A 
ATOM     79  C   UNL A   1      50.532  26.649  27.336  1.00  0.00     0.173 A 
ATOM     80  F   UNL A   1      48.936  27.233  24.126  1.00  0.00    -0.203 F 
ATOM     81  C   UNL A   1      51.176  26.708  24.638  1.00  0.00     0.198 A 
ATOM     82  C   UNL A   1      51.838  26.395  26.924  1.00  0.00     0.198 A 
ATOM     83  F   UNL A   1      50.243  26.598  28.645  1.00  0.00    -0.203 F 
ATOM     84  F   UNL A   1      51.476  26.705  23.332  1.00  0.00    -0.200 F 
ATOM     85  C   UNL A   1      52.158  26.420  25.575  1.00  0.00     0.200 A 
ATOM     86  F   UNL A   1      52.783  26.116  27.832  1.00  0.00    -0.200 F 
ATOM     87  F   UNL A   1      53.409  26.152  25.177  1.00  0.00    -0.200 F 
ENDBRANCH  53  77
BRANCH  65  88
ATOM     88  C   UNL A   1      46.033  32.733  28.077  1.00  0.00     0.064 A 
ATOM     89  C   UNL A   1      45.836  33.573  26.973  1.00  0.00     0.173 A 
ATOM     90  C   UNL A   1      46.564  33.292  29.248  1.00  0.00     0.173 A 
ATOM     91  F   UNL A   1      45.345  33.077  25.827  1.00  0.00    -0.203 F 
ATOM     92  C   UNL A   1      46.165  34.923  27.036  1.00  0.00     0.198 A 
ATOM     93  C   UNL A   1      46.876  34.646  29.314  1.00  0.00     0.198 A 
ATOM     94  F   UNL A   1      46.767  32.527  30.330  1.00  0.00    -0.203 F 
ATOM     95  F   UNL A   1      45.993  35.704  25.961  1.00  0.00    -0.200 F 
ATOM     96  C   UNL A   1      46.678  35.461  28.208  1.00  0.00     0.200 A 
ATOM     97  F   UNL A   1      47.364  35.166  30.449  1.00  0.00    -0.200 F 
ATOM     98  F   UNL A   1      46.988  36.763  28.270  1.00  0.00    -0.200 F 
ENDBRANCH  65  88
ENDBRANCH  39  40
ENDBRANCH  32  34
ENDBRANCH  31  32
ENDBRANCH  30  31
ENDBRANCH  29  30
ENDBRANCH  28  29
ENDBRANCH  27  28
ENDBRANCH  26  27
ENDBRANCH   1  26
TORSDOF 24
ENDMDL
