MODEL 1
REMARK VINA RESULT:     -14.1      0.000      0.000
REMARK SMILES Cc1ccc(CCC(=O)N2CCC3(CC2)[C@H](C(=O)OCCOCCOCCOC(=O)c2ccc(-c4c5nc(c(-c6c(F)c(F)c(F)c(F)c6F)c6ccc([nH]6)c(-c6c(F)c(F)c(F)c(F)c6F)c6nc(c(-c7c(F)c(F)c(F)c(F)c7F)c7ccc4[nH]7)C=C6)C=C5)cc2)CC(=O)N3C)cc1
REMARK SMILES IDX 23 1 22 2 21 3 20 4 19 5 17 6 18 7 16 8 8 9 9 10 10 11 11 12
REMARK SMILES IDX 15 13 12 14 14 15 13 16 97 17 94 18 95 19 98 20 96 21 7 22
REMARK SMILES IDX 6 23 5 24 1 25 2 26 3 27 100 28 4 29 99 30 24 31 25 32 26 33
REMARK SMILES IDX 27 34 28 35 29 36 30 37 31 38 32 39 93 40 33 41 92 42 34 43
REMARK SMILES IDX 35 44 36 45 86 46 37 47 91 48 85 49 87 50 38 51 90 52 84 53
REMARK SMILES IDX 83 54 39 56 71 57 51 58 70 59 52 60 55 61 69 62 88 63 53 64
REMARK SMILES IDX 54 65 68 67 89 68 56 69 40 70 41 71 49 72 42 73 43 74 47 75
REMARK SMILES IDX 50 76 44 77 45 78 48 79 46 80 72 81 73 82 81 83 74 84 75 85
REMARK SMILES IDX 79 86 82 87 76 88 77 89 80 90 78 91 57 92 58 93 66 94 59 95
REMARK SMILES IDX 60 96 64 97 67 98 61 99 62 100 65 101 63 102
REMARK H PARENT 87 55 55 66
REMARK Flexibility Score: inf
ROOT
ATOM      1  C   UNL A   1      33.247  34.795  28.443  1.00  0.00     0.188 C 
ENDROOT
BRANCH   1   2
ATOM      2  O   UNL A   1      32.224  33.925  27.912  1.00  0.00    -0.376 OA
BRANCH   2   3
ATOM      3  C   UNL A   1      32.433  32.973  26.855  1.00  0.00     0.202 C 
BRANCH   3   4
ATOM      4  C   UNL A   1      31.318  31.795  26.479  1.00  0.00     0.261 C 
BRANCH   4   5
ATOM      5  O   UNL A   1      31.443  30.132  25.947  1.00  0.00    -0.463 OA
BRANCH   5   6
ATOM      6  C   UNL A   1      32.262  29.343  25.091  1.00  0.00     0.311 C 
ATOM      7  O   UNL A   1      33.483  29.206  25.175  1.00  0.00    -0.252 OA
BRANCH   6   8
ATOM      8  C   UNL A   1      31.890  28.299  24.081  1.00  0.00     0.134 C 
ATOM      9  C   UNL A   1      31.786  23.819  25.931  1.00  0.00     0.222 C 
ATOM     10  O   UNL A   1      31.652  23.598  27.141  1.00  0.00    -0.275 OA
ATOM     11  N   UNL A   1      30.881  24.641  25.284  1.00  0.00    -0.343 N 
ATOM     12  C   UNL A   1      30.072  25.599  26.029  1.00  0.00     0.122 C 
ATOM     13  C   UNL A   1      30.688  24.752  23.864  1.00  0.00     0.122 C 
ATOM     14  C   UNL A   1      30.473  27.020  25.654  1.00  0.00     0.051 C 
ATOM     15  C   UNL A   1      31.323  26.030  23.391  1.00  0.00     0.051 C 
ATOM     16  C   UNL A   1      30.791  27.275  24.174  1.00  0.00     0.060 C 
ATOM     17  N   UNL A   1      29.727  27.923  23.390  1.00  0.00    -0.339 N 
ATOM     18  C   UNL A   1      31.662  28.992  22.683  1.00  0.00     0.118 C 
ATOM     19  C   UNL A   1      30.191  28.879  22.494  1.00  0.00     0.223 C 
ATOM     20  C   UNL A   1      28.343  27.530  23.377  1.00  0.00     0.147 C 
ATOM     21  O   UNL A   1      29.536  29.496  21.669  1.00  0.00    -0.275 OA
BRANCH   9  22
ATOM     22  C   UNL A   1      33.091  23.352  25.251  1.00  0.00     0.105 C 
BRANCH  22  23
ATOM     23  C   UNL A   1      34.177  24.315  24.740  1.00  0.00     0.045 C 
BRANCH  23  24
ATOM     24  C   UNL A   1      35.571  23.707  24.758  1.00  0.00    -0.047 A 
ATOM     25  C   UNL A   1      38.882  21.144  25.692  1.00  0.00     0.044 C 
ATOM     26  C   UNL A   1      37.834  22.129  25.268  1.00  0.00    -0.051 A 
ATOM     27  C   UNL A   1      37.610  23.297  26.003  1.00  0.00     0.004 A 
ATOM     28  C   UNL A   1      37.035  21.870  24.150  1.00  0.00     0.004 A 
ATOM     29  C   UNL A   1      36.503  24.100  25.726  1.00  0.00     0.004 A 
ATOM     30  C   UNL A   1      35.912  22.658  23.892  1.00  0.00     0.004 A 
ENDBRANCH  23  24
ENDBRANCH  22  23
ENDBRANCH   9  22
ENDBRANCH   6   8
ENDBRANCH   5   6
ENDBRANCH   4   5
ENDBRANCH   3   4
ENDBRANCH   2   3
ENDBRANCH   1   2
BRANCH   1  31
ATOM     31  C   UNL A   1      33.120  35.488  29.804  1.00  0.00     0.188 C 
BRANCH  31  32
ATOM     32  O   UNL A   1      33.308  34.541  30.837  1.00  0.00    -0.376 OA
BRANCH  32  33
ATOM     33  C   UNL A   1      34.639  34.131  31.097  1.00  0.00     0.202 C 
BRANCH  33  34
ATOM     34  C   UNL A   1      34.746  32.629  31.436  1.00  0.00     0.261 C 
BRANCH  34  35
ATOM     35  O   UNL A   1      35.815  31.996  30.686  1.00  0.00    -0.460 OA
BRANCH  35  36
ATOM     36  C   UNL A   1      35.505  31.315  29.521  1.00  0.00     0.338 C 
ATOM     37  O   UNL A   1      34.632  31.610  28.762  1.00  0.00    -0.246 OA
BRANCH  36  38
ATOM     38  C   UNL A   1      36.339  30.052  29.441  1.00  0.00     0.060 A 
ATOM     39  C   UNL A   1      36.994  29.363  30.471  1.00  0.00     0.016 A 
ATOM     40  C   UNL A   1      36.723  29.699  28.203  1.00  0.00     0.016 A 
ATOM     41  C   UNL A   1      38.177  28.520  30.219  1.00  0.00     0.010 A 
ATOM     42  C   UNL A   1      37.993  29.155  28.082  1.00  0.00     0.010 A 
ATOM     43  C   UNL A   1      38.825  28.471  28.977  1.00  0.00    -0.014 A 
BRANCH  43  44
ATOM     44  C   UNL A   1      40.344  27.874  28.605  1.00  0.00     0.031 A 
ATOM     45  C   UNL A   1      40.910  26.324  28.067  1.00  0.00     0.074 A 
ATOM     46  C   UNL A   1      41.353  28.682  28.987  1.00  0.00     0.049 A 
ATOM     47  N   UNL A   1      41.745  25.558  28.747  1.00  0.00    -0.248 NA
ATOM     48  C   UNL A   1      40.404  25.442  26.925  1.00  0.00     0.031 C 
ATOM     49  C   UNL A   1      42.783  28.461  28.825  1.00  0.00     0.029 A 
ATOM     50  N   UNL A   1      41.261  29.838  29.778  1.00  0.00    -0.354 N 
ATOM     51  C   UNL A   1      41.845  24.306  28.093  1.00  0.00     0.074 A 
ATOM     52  C   UNL A   1      40.805  24.213  27.162  1.00  0.00     0.031 C 
ATOM     53  C   UNL A   1      43.427  29.222  29.726  1.00  0.00     0.029 A 
ATOM     54  C   UNL A   1      42.417  29.849  30.567  1.00  0.00     0.049 A 
ATOM     55  H   UNL A   1      40.535  30.502  29.778  1.00  0.00     0.167 HD
ATOM     56  C   UNL A   1      42.932  23.491  28.088  1.00  0.00     0.037 A 
ATOM     57  C   UNL A   1      42.340  29.775  31.924  1.00  0.00     0.037 A 
ATOM     58  C   UNL A   1      43.958  24.149  28.827  1.00  0.00     0.049 A 
ATOM     59  C   UNL A   1      43.134  28.612  32.459  1.00  0.00     0.074 A 
ATOM     60  C   UNL A   1      44.859  25.123  28.433  1.00  0.00     0.029 A 
ATOM     61  N   UNL A   1      43.789  24.255  30.188  1.00  0.00    -0.354 N 
ATOM     62  N   UNL A   1      43.359  27.510  31.795  1.00  0.00    -0.248 NA
ATOM     63  C   UNL A   1      43.777  28.626  33.767  1.00  0.00     0.031 C 
ATOM     64  C   UNL A   1      45.201  25.863  29.587  1.00  0.00     0.029 A 
ATOM     65  C   UNL A   1      44.554  25.290  30.668  1.00  0.00     0.049 A 
ATOM     66  H   UNL A   1      43.209  23.677  30.734  1.00  0.00     0.167 HD
ATOM     67  C   UNL A   1      44.179  26.700  32.539  1.00  0.00     0.074 A 
ATOM     68  C   UNL A   1      44.407  27.439  33.763  1.00  0.00     0.031 C 
ATOM     69  C   UNL A   1      44.631  25.495  32.092  1.00  0.00     0.037 A 
BRANCH  56  70
ATOM     70  C   UNL A   1      43.126  22.398  27.044  1.00  0.00     0.064 A 
ATOM     71  C   UNL A   1      42.403  21.193  27.131  1.00  0.00     0.173 A 
ATOM     72  C   UNL A   1      44.084  22.440  26.002  1.00  0.00     0.173 A 
ATOM     73  F   UNL A   1      41.412  21.045  28.019  1.00  0.00    -0.203 F 
ATOM     74  C   UNL A   1      42.693  20.083  26.329  1.00  0.00     0.198 A 
ATOM     75  C   UNL A   1      44.418  21.309  25.243  1.00  0.00     0.198 A 
ATOM     76  F   UNL A   1      44.745  23.575  25.722  1.00  0.00    -0.203 F 
ATOM     77  F   UNL A   1      41.981  18.957  26.474  1.00  0.00    -0.200 F 
ATOM     78  C   UNL A   1      43.727  20.127  25.415  1.00  0.00     0.200 A 
ATOM     79  F   UNL A   1      45.435  21.360  24.368  1.00  0.00    -0.200 F 
ATOM     80  F   UNL A   1      44.048  19.038  24.702  1.00  0.00    -0.200 F 
ENDBRANCH  56  70
BRANCH  57  81
ATOM     81  C   UNL A   1      41.108  30.363  32.538  1.00  0.00     0.064 A 
ATOM     82  C   UNL A   1      40.866  31.747  32.378  1.00  0.00     0.173 A 
ATOM     83  C   UNL A   1      40.049  29.595  33.039  1.00  0.00     0.173 A 
ATOM     84  F   UNL A   1      41.840  32.550  31.918  1.00  0.00    -0.203 F 
ATOM     85  C   UNL A   1      39.609  32.311  32.597  1.00  0.00     0.198 A 
ATOM     86  C   UNL A   1      38.789  30.168  33.276  1.00  0.00     0.198 A 
ATOM     87  F   UNL A   1      40.179  28.270  33.185  1.00  0.00    -0.203 F 
ATOM     88  F   UNL A   1      39.395  33.603  32.311  1.00  0.00    -0.200 F 
ATOM     89  C   UNL A   1      38.567  31.517  33.035  1.00  0.00     0.200 A 
ATOM     90  F   UNL A   1      37.753  29.387  33.620  1.00  0.00    -0.200 F 
ATOM     91  F   UNL A   1      37.333  32.028  33.145  1.00  0.00    -0.200 F 
ENDBRANCH  57  81
BRANCH  69  92
ATOM     92  C   UNL A   1      45.251  24.383  32.905  1.00  0.00     0.064 A 
ATOM     93  C   UNL A   1      46.542  24.447  33.443  1.00  0.00     0.173 A 
ATOM     94  C   UNL A   1      44.461  23.283  33.347  1.00  0.00     0.173 A 
ATOM     95  F   UNL A   1      47.346  25.491  33.206  1.00  0.00    -0.203 F 
ATOM     96  C   UNL A   1      47.029  23.462  34.303  1.00  0.00     0.198 A 
ATOM     97  C   UNL A   1      44.922  22.354  34.273  1.00  0.00     0.198 A 
ATOM     98  F   UNL A   1      43.203  23.094  32.924  1.00  0.00    -0.203 F 
ATOM     99  F   UNL A   1      48.292  23.540  34.742  1.00  0.00    -0.200 F 
ATOM    100  C   UNL A   1      46.216  22.430  34.734  1.00  0.00     0.200 A 
ATOM    101  F   UNL A   1      44.094  21.402  34.729  1.00  0.00    -0.200 F 
ATOM    102  F   UNL A   1      46.673  21.523  35.606  1.00  0.00    -0.200 F 
ENDBRANCH  69  92
ENDBRANCH  43  44
ENDBRANCH  36  38
ENDBRANCH  35  36
ENDBRANCH  34  35
ENDBRANCH  33  34
ENDBRANCH  32  33
ENDBRANCH  31  32
ENDBRANCH   1  31
TORSDOF 20
ENDMDL
MODEL 2
REMARK VINA RESULT:     -13.7      1.289      1.848
REMARK SMILES Cc1ccc(CCC(=O)N2CCC3(CC2)[C@H](C(=O)OCCOCCOCCOC(=O)c2ccc(-c4c5nc(c(-c6c(F)c(F)c(F)c(F)c6F)c6ccc([nH]6)c(-c6c(F)c(F)c(F)c(F)c6F)c6nc(c(-c7c(F)c(F)c(F)c(F)c7F)c7ccc4[nH]7)C=C6)C=C5)cc2)CC(=O)N3C)cc1
REMARK SMILES IDX 23 1 22 2 21 3 20 4 19 5 17 6 18 7 16 8 8 9 9 10 10 11 11 12
REMARK SMILES IDX 15 13 12 14 14 15 13 16 97 17 94 18 95 19 98 20 96 21 7 22
REMARK SMILES IDX 6 23 5 24 1 25 2 26 3 27 100 28 4 29 99 30 24 31 25 32 26 33
REMARK SMILES IDX 27 34 28 35 29 36 30 37 31 38 32 39 93 40 33 41 92 42 34 43
REMARK SMILES IDX 35 44 36 45 86 46 37 47 91 48 85 49 87 50 38 51 90 52 84 53
REMARK SMILES IDX 83 54 39 56 71 57 51 58 70 59 52 60 55 61 69 62 88 63 53 64
REMARK SMILES IDX 54 65 68 67 89 68 56 69 40 70 41 71 49 72 42 73 43 74 47 75
REMARK SMILES IDX 50 76 44 77 45 78 48 79 46 80 72 81 73 82 81 83 74 84 75 85
REMARK SMILES IDX 79 86 82 87 76 88 77 89 80 90 78 91 57 92 58 93 66 94 59 95
REMARK SMILES IDX 60 96 64 97 67 98 61 99 62 100 65 101 63 102
REMARK H PARENT 87 55 55 66
REMARK Flexibility Score: inf
ROOT
ATOM      1  C   UNL A   1      34.639  33.588  27.831  1.00  0.00     0.188 C 
ENDROOT
BRANCH   1   2
ATOM      2  O   UNL A   1      34.754  32.218  27.389  1.00  0.00    -0.376 OA
BRANCH   2   3
ATOM      3  C   UNL A   1      33.940  31.136  27.875  1.00  0.00     0.202 C 
BRANCH   3   4
ATOM      4  C   UNL A   1      32.611  30.575  27.044  1.00  0.00     0.261 C 
BRANCH   4   5
ATOM      5  O   UNL A   1      32.367  29.942  25.429  1.00  0.00    -0.463 OA
BRANCH   5   6
ATOM      6  C   UNL A   1      32.903  28.926  24.589  1.00  0.00     0.311 C 
ATOM      7  O   UNL A   1      34.028  28.432  24.669  1.00  0.00    -0.252 OA
BRANCH   6   8
ATOM      8  C   UNL A   1      32.223  28.016  23.609  1.00  0.00     0.134 C 
ATOM      9  C   UNL A   1      31.783  23.467  25.226  1.00  0.00     0.222 C 
ATOM     10  O   UNL A   1      31.819  23.179  26.429  1.00  0.00    -0.275 OA
ATOM     11  N   UNL A   1      30.911  24.449  24.788  1.00  0.00    -0.343 N 
ATOM     12  C   UNL A   1      30.382  25.448  25.708  1.00  0.00     0.122 C 
ATOM     13  C   UNL A   1      30.504  24.687  23.430  1.00  0.00     0.122 C 
ATOM     14  C   UNL A   1      30.916  26.827  25.339  1.00  0.00     0.051 C 
ATOM     15  C   UNL A   1      31.230  25.900  22.917  1.00  0.00     0.051 C 
ATOM     16  C   UNL A   1      31.018  27.145  23.840  1.00  0.00     0.060 C 
ATOM     17  N   UNL A   1      29.945  27.984  23.286  1.00  0.00    -0.339 N 
ATOM     18  C   UNL A   1      31.869  28.834  22.307  1.00  0.00     0.118 C 
ATOM     19  C   UNL A   1      30.386  28.932  22.372  1.00  0.00     0.223 C 
ATOM     20  C   UNL A   1      28.535  27.781  23.494  1.00  0.00     0.147 C 
ATOM     21  O   UNL A   1      29.701  29.690  21.704  1.00  0.00    -0.275 OA
BRANCH   9  22
ATOM     22  C   UNL A   1      32.876  22.882  24.308  1.00  0.00     0.105 C 
BRANCH  22  23
ATOM     23  C   UNL A   1      34.198  23.603  23.989  1.00  0.00     0.045 C 
BRANCH  23  24
ATOM     24  C   UNL A   1      35.357  23.138  24.857  1.00  0.00    -0.047 A 
ATOM     25  C   UNL A   1      39.300  22.027  26.128  1.00  0.00     0.044 C 
ATOM     26  C   UNL A   1      37.870  22.372  25.841  1.00  0.00    -0.051 A 
ATOM     27  C   UNL A   1      36.987  21.411  25.341  1.00  0.00     0.004 A 
ATOM     28  C   UNL A   1      37.409  23.679  26.032  1.00  0.00     0.004 A 
ATOM     29  C   UNL A   1      35.724  21.787  24.883  1.00  0.00     0.004 A 
ATOM     30  C   UNL A   1      36.157  24.059  25.548  1.00  0.00     0.004 A 
ENDBRANCH  23  24
ENDBRANCH  22  23
ENDBRANCH   9  22
ENDBRANCH   6   8
ENDBRANCH   5   6
ENDBRANCH   4   5
ENDBRANCH   3   4
ENDBRANCH   2   3
ENDBRANCH   1   2
BRANCH   1  31
ATOM     31  C   UNL A   1      33.289  34.270  28.069  1.00  0.00     0.188 C 
BRANCH  31  32
ATOM     32  O   UNL A   1      32.983  34.249  29.450  1.00  0.00    -0.376 OA
BRANCH  32  33
ATOM     33  C   UNL A   1      33.850  34.966  30.310  1.00  0.00     0.202 C 
BRANCH  33  34
ATOM     34  C   UNL A   1      34.402  34.099  31.461  1.00  0.00     0.261 C 
BRANCH  34  35
ATOM     35  O   UNL A   1      34.584  32.722  31.039  1.00  0.00    -0.460 OA
BRANCH  35  36
ATOM     36  C   UNL A   1      35.523  31.940  31.689  1.00  0.00     0.338 C 
ATOM     37  O   UNL A   1      35.779  31.995  32.853  1.00  0.00    -0.246 OA
BRANCH  36  38
ATOM     38  C   UNL A   1      36.284  31.117  30.668  1.00  0.00     0.060 A 
ATOM     39  C   UNL A   1      36.395  29.723  30.567  1.00  0.00     0.016 A 
ATOM     40  C   UNL A   1      37.180  31.800  29.938  1.00  0.00     0.016 A 
ATOM     41  C   UNL A   1      37.551  29.074  29.923  1.00  0.00     0.010 A 
ATOM     42  C   UNL A   1      38.360  31.140  29.630  1.00  0.00     0.010 A 
ATOM     43  C   UNL A   1      38.689  29.783  29.513  1.00  0.00    -0.014 A 
BRANCH  43  44
ATOM     44  C   UNL A   1      40.204  29.198  29.106  1.00  0.00     0.031 A 
ATOM     45  C   UNL A   1      40.758  27.680  28.474  1.00  0.00     0.074 A 
ATOM     46  C   UNL A   1      41.219  29.974  29.535  1.00  0.00     0.049 A 
ATOM     47  N   UNL A   1      41.586  26.867  29.106  1.00  0.00    -0.248 NA
ATOM     48  C   UNL A   1      40.245  26.873  27.280  1.00  0.00     0.031 C 
ATOM     49  C   UNL A   1      42.647  29.752  29.361  1.00  0.00     0.029 A 
ATOM     50  N   UNL A   1      41.135  31.080  30.395  1.00  0.00    -0.354 N 
ATOM     51  C   UNL A   1      41.676  25.657  28.378  1.00  0.00     0.074 A 
ATOM     52  C   UNL A   1      40.637  25.629  27.442  1.00  0.00     0.031 C 
ATOM     53  C   UNL A   1      43.296  30.451  30.307  1.00  0.00     0.029 A 
ATOM     54  C   UNL A   1      42.290  31.034  31.184  1.00  0.00     0.049 A 
ATOM     55  H   UNL A   1      40.414  31.749  30.436  1.00  0.00     0.167 HD
ATOM     56  C   UNL A   1      42.757  24.835  28.323  1.00  0.00     0.037 A 
ATOM     57  C   UNL A   1      42.212  30.878  32.534  1.00  0.00     0.037 A 
ATOM     58  C   UNL A   1      43.787  25.439  29.101  1.00  0.00     0.049 A 
ATOM     59  C   UNL A   1      42.996  29.679  32.997  1.00  0.00     0.074 A 
ATOM     60  C   UNL A   1      44.696  26.428  28.767  1.00  0.00     0.029 A 
ATOM     61  N   UNL A   1      43.619  25.462  30.466  1.00  0.00    -0.354 N 
ATOM     62  N   UNL A   1      43.213  28.617  32.267  1.00  0.00    -0.248 NA
ATOM     63  C   UNL A   1      43.639  29.607  34.304  1.00  0.00     0.031 C 
ATOM     64  C   UNL A   1      45.044  27.094  29.964  1.00  0.00     0.029 A 
ATOM     65  C   UNL A   1      44.391  26.461  31.008  1.00  0.00     0.049 A 
ATOM     66  H   UNL A   1      43.034  24.857  30.975  1.00  0.00     0.167 HD
ATOM     67  C   UNL A   1      44.027  27.757  32.961  1.00  0.00     0.074 A 
ATOM     68  C   UNL A   1      44.259  28.418  34.227  1.00  0.00     0.031 C 
ATOM     69  C   UNL A   1      44.469  26.578  32.441  1.00  0.00     0.037 A 
BRANCH  56  70
ATOM     70  C   UNL A   1      42.943  23.806  27.214  1.00  0.00     0.064 A 
ATOM     71  C   UNL A   1      42.625  22.453  27.437  1.00  0.00     0.173 A 
ATOM     72  C   UNL A   1      43.530  24.077  25.954  1.00  0.00     0.173 A 
ATOM     73  F   UNL A   1      41.994  22.067  28.553  1.00  0.00    -0.203 F 
ATOM     74  C   UNL A   1      42.970  21.441  26.533  1.00  0.00     0.198 A 
ATOM     75  C   UNL A   1      43.934  23.058  25.080  1.00  0.00     0.198 A 
ATOM     76  F   UNL A   1      43.758  25.340  25.560  1.00  0.00    -0.203 F 
ATOM     77  F   UNL A   1      42.656  20.169  26.812  1.00  0.00    -0.200 F 
ATOM     78  C   UNL A   1      43.662  21.738  25.376  1.00  0.00     0.200 A 
ATOM     79  F   UNL A   1      44.619  23.358  23.964  1.00  0.00    -0.200 F 
ATOM     80  F   UNL A   1      44.056  20.757  24.551  1.00  0.00    -0.200 F 
ENDBRANCH  56  70
BRANCH  57  81
ATOM     81  C   UNL A   1      40.984  31.437  33.182  1.00  0.00     0.064 A 
ATOM     82  C   UNL A   1      39.836  30.616  33.278  1.00  0.00     0.173 A 
ATOM     83  C   UNL A   1      40.970  32.622  33.928  1.00  0.00     0.173 A 
ATOM     84  F   UNL A   1      39.770  29.470  32.578  1.00  0.00    -0.203 F 
ATOM     85  C   UNL A   1      38.789  30.903  34.153  1.00  0.00     0.198 A 
ATOM     86  C   UNL A   1      39.906  32.919  34.794  1.00  0.00     0.198 A 
ATOM     87  F   UNL A   1      42.031  33.440  33.925  1.00  0.00    -0.203 F 
ATOM     88  F   UNL A   1      37.782  30.031  34.302  1.00  0.00    -0.200 F 
ATOM     89  C   UNL A   1      38.830  32.050  34.920  1.00  0.00     0.200 A 
ATOM     90  F   UNL A   1      39.980  33.988  35.603  1.00  0.00    -0.200 F 
ATOM     91  F   UNL A   1      37.881  32.280  35.839  1.00  0.00    -0.200 F 
ENDBRANCH  57  81
BRANCH  69  92
ATOM     92  C   UNL A   1      45.080  25.413  33.186  1.00  0.00     0.064 A 
ATOM     93  C   UNL A   1      46.456  25.160  33.228  1.00  0.00     0.173 A 
ATOM     94  C   UNL A   1      44.288  24.623  34.068  1.00  0.00     0.173 A 
ATOM     95  F   UNL A   1      47.326  25.911  32.540  1.00  0.00    -0.203 F 
ATOM     96  C   UNL A   1      46.994  24.158  34.037  1.00  0.00     0.198 A 
ATOM     97  C   UNL A   1      44.839  23.688  34.936  1.00  0.00     0.198 A 
ATOM     98  F   UNL A   1      42.956  24.758  34.144  1.00  0.00    -0.203 F 
ATOM     99  F   UNL A   1      48.311  23.917  33.995  1.00  0.00    -0.200 F 
ATOM    100  C   UNL A   1      46.192  23.439  34.903  1.00  0.00     0.200 A 
ATOM    101  F   UNL A   1      44.053  23.051  35.816  1.00  0.00    -0.200 F 
ATOM    102  F   UNL A   1      46.726  22.521  35.719  1.00  0.00    -0.200 F 
ENDBRANCH  69  92
ENDBRANCH  43  44
ENDBRANCH  36  38
ENDBRANCH  35  36
ENDBRANCH  34  35
ENDBRANCH  33  34
ENDBRANCH  32  33
ENDBRANCH  31  32
ENDBRANCH   1  31
TORSDOF 20
ENDMDL
MODEL 3
REMARK VINA RESULT:     -13.7      2.239      2.856
REMARK SMILES Cc1ccc(CCC(=O)N2CCC3(CC2)[C@H](C(=O)OCCOCCOCCOC(=O)c2ccc(-c4c5nc(c(-c6c(F)c(F)c(F)c(F)c6F)c6ccc([nH]6)c(-c6c(F)c(F)c(F)c(F)c6F)c6nc(c(-c7c(F)c(F)c(F)c(F)c7F)c7ccc4[nH]7)C=C6)C=C5)cc2)CC(=O)N3C)cc1
REMARK SMILES IDX 23 1 22 2 21 3 20 4 19 5 17 6 18 7 16 8 8 9 9 10 10 11 11 12
REMARK SMILES IDX 15 13 12 14 14 15 13 16 97 17 94 18 95 19 98 20 96 21 7 22
REMARK SMILES IDX 6 23 5 24 1 25 2 26 3 27 100 28 4 29 99 30 24 31 25 32 26 33
REMARK SMILES IDX 27 34 28 35 29 36 30 37 31 38 32 39 93 40 33 41 92 42 34 43
REMARK SMILES IDX 35 44 36 45 86 46 37 47 91 48 85 49 87 50 38 51 90 52 84 53
REMARK SMILES IDX 83 54 39 56 71 57 51 58 70 59 52 60 55 61 69 62 88 63 53 64
REMARK SMILES IDX 54 65 68 67 89 68 56 69 40 70 41 71 49 72 42 73 43 74 47 75
REMARK SMILES IDX 50 76 44 77 45 78 48 79 46 80 72 81 73 82 81 83 74 84 75 85
REMARK SMILES IDX 79 86 82 87 76 88 77 89 80 90 78 91 57 92 58 93 66 94 59 95
REMARK SMILES IDX 60 96 64 97 67 98 61 99 62 100 65 101 63 102
REMARK H PARENT 87 55 55 66
REMARK Flexibility Score: inf
ROOT
ATOM      1  C   UNL A   1      32.829  30.400  26.804  1.00  0.00     0.188 C 
ENDROOT
BRANCH   1   2
ATOM      2  O   UNL A   1      32.861  29.963  25.428  1.00  0.00    -0.376 OA
BRANCH   2   3
ATOM      3  C   UNL A   1      33.769  28.976  24.909  1.00  0.00     0.202 C 
BRANCH   3   4
ATOM      4  C   UNL A   1      34.028  28.770  23.277  1.00  0.00     0.261 C 
BRANCH   4   5
ATOM      5  O   UNL A   1      33.857  27.414  22.183  1.00  0.00    -0.463 OA
BRANCH   5   6
ATOM      6  C   UNL A   1      33.190  26.158  22.136  1.00  0.00     0.311 C 
ATOM      7  O   UNL A   1      33.623  25.122  21.630  1.00  0.00    -0.252 OA
BRANCH   6   8
ATOM      8  C   UNL A   1      31.979  25.672  22.876  1.00  0.00     0.134 C 
ATOM      9  C   UNL A   1      32.881  21.817  25.673  1.00  0.00     0.222 C 
ATOM     10  O   UNL A   1      34.016  21.531  26.073  1.00  0.00    -0.275 OA
ATOM     11  N   UNL A   1      32.387  23.093  25.880  1.00  0.00    -0.343 N 
ATOM     12  C   UNL A   1      33.286  24.214  26.125  1.00  0.00     0.122 C 
ATOM     13  C   UNL A   1      31.013  23.505  25.781  1.00  0.00     0.122 C 
ATOM     14  C   UNL A   1      33.218  25.198  24.963  1.00  0.00     0.051 C 
ATOM     15  C   UNL A   1      30.828  24.254  24.491  1.00  0.00     0.051 C 
ATOM     16  C   UNL A   1      31.830  25.448  24.356  1.00  0.00     0.060 C 
ATOM     17  N   UNL A   1      31.162  26.692  24.770  1.00  0.00    -0.339 N 
ATOM     18  C   UNL A   1      30.744  26.573  22.490  1.00  0.00     0.118 C 
ATOM     19  C   UNL A   1      30.492  27.341  23.739  1.00  0.00     0.223 C 
ATOM     20  C   UNL A   1      31.028  27.156  26.125  1.00  0.00     0.147 C 
ATOM     21  O   UNL A   1      29.790  28.335  23.826  1.00  0.00    -0.275 OA
BRANCH   9  22
ATOM     22  C   UNL A   1      32.160  20.804  24.759  1.00  0.00     0.105 C 
BRANCH  22  23
ATOM     23  C   UNL A   1      32.887  19.903  23.745  1.00  0.00     0.045 C 
BRANCH  23  24
ATOM     24  C   UNL A   1      33.220  18.526  24.300  1.00  0.00    -0.047 A 
ATOM     25  C   UNL A   1      32.902  14.386  25.376  1.00  0.00     0.044 C 
ATOM     26  C   UNL A   1      33.165  15.832  25.078  1.00  0.00    -0.051 A 
ATOM     27  C   UNL A   1      32.772  16.830  25.973  1.00  0.00     0.004 A 
ATOM     28  C   UNL A   1      33.775  16.203  23.876  1.00  0.00     0.004 A 
ATOM     29  C   UNL A   1      32.831  18.173  25.598  1.00  0.00     0.004 A 
ATOM     30  C   UNL A   1      33.807  17.544  23.490  1.00  0.00     0.004 A 
ENDBRANCH  23  24
ENDBRANCH  22  23
ENDBRANCH   9  22
ENDBRANCH   6   8
ENDBRANCH   5   6
ENDBRANCH   4   5
ENDBRANCH   3   4
ENDBRANCH   2   3
ENDBRANCH   1   2
BRANCH   1  31
ATOM     31  C   UNL A   1      32.395  31.810  27.214  1.00  0.00     0.188 C 
BRANCH  31  32
ATOM     32  O   UNL A   1      33.530  32.561  27.602  1.00  0.00    -0.376 OA
BRANCH  32  33
ATOM     33  C   UNL A   1      33.291  33.829  28.186  1.00  0.00     0.202 C 
BRANCH  33  34
ATOM     34  C   UNL A   1      34.379  34.233  29.203  1.00  0.00     0.261 C 
BRANCH  34  35
ATOM     35  O   UNL A   1      35.376  33.188  29.348  1.00  0.00    -0.460 OA
BRANCH  35  36
ATOM     36  C   UNL A   1      35.170  32.189  30.283  1.00  0.00     0.338 C 
ATOM     37  O   UNL A   1      34.610  32.328  31.327  1.00  0.00    -0.246 OA
BRANCH  36  38
ATOM     38  C   UNL A   1      35.903  30.935  29.849  1.00  0.00     0.060 A 
ATOM     39  C   UNL A   1      36.355  29.863  30.631  1.00  0.00     0.016 A 
ATOM     40  C   UNL A   1      36.423  30.978  28.611  1.00  0.00     0.016 A 
ATOM     41  C   UNL A   1      37.490  29.018  30.220  1.00  0.00     0.010 A 
ATOM     42  C   UNL A   1      37.651  30.357  28.434  1.00  0.00     0.010 A 
ATOM     43  C   UNL A   1      38.295  29.314  29.111  1.00  0.00    -0.014 A 
BRANCH  43  44
ATOM     44  C   UNL A   1      39.799  28.697  28.708  1.00  0.00     0.031 A 
ATOM     45  C   UNL A   1      40.344  27.121  28.228  1.00  0.00     0.074 A 
ATOM     46  C   UNL A   1      40.821  29.523  29.004  1.00  0.00     0.049 A 
ATOM     47  N   UNL A   1      41.207  26.391  28.912  1.00  0.00    -0.248 NA
ATOM     48  C   UNL A   1      39.792  26.181  27.156  1.00  0.00     0.031 C 
ATOM     49  C   UNL A   1      42.244  29.293  28.794  1.00  0.00     0.029 A 
ATOM     50  N   UNL A   1      40.761  30.719  29.737  1.00  0.00    -0.354 N 
ATOM     51  C   UNL A   1      41.282  25.106  28.321  1.00  0.00     0.074 A 
ATOM     52  C   UNL A   1      40.204  24.966  27.440  1.00  0.00     0.031 C 
ATOM     53  C   UNL A   1      42.923  30.100  29.627  1.00  0.00     0.029 A 
ATOM     54  C   UNL A   1      41.948  30.771  30.476  1.00  0.00     0.049 A 
ATOM     55  H   UNL A   1      40.034  31.383  29.733  1.00  0.00     0.167 HD
ATOM     56  C   UNL A   1      42.369  24.291  28.313  1.00  0.00     0.037 A 
ATOM     57  C   UNL A   1      41.928  30.768  31.836  1.00  0.00     0.037 A 
ATOM     58  C   UNL A   1      43.424  24.986  28.973  1.00  0.00     0.049 A 
ATOM     59  C   UNL A   1      42.746  29.633  32.398  1.00  0.00     0.074 A 
ATOM     60  C   UNL A   1      44.306  25.938  28.491  1.00  0.00     0.029 A 
ATOM     61  N   UNL A   1      43.312  25.163  30.332  1.00  0.00    -0.354 N 
ATOM     62  N   UNL A   1      42.944  28.498  31.783  1.00  0.00    -0.248 NA
ATOM     63  C   UNL A   1      43.443  29.715  33.675  1.00  0.00     0.031 C 
ATOM     64  C   UNL A   1      44.695  26.737  29.590  1.00  0.00     0.029 A 
ATOM     65  C   UNL A   1      44.094  26.221  30.725  1.00  0.00     0.049 A 
ATOM     66  H   UNL A   1      42.755  24.615  30.931  1.00  0.00     0.167 HD
ATOM     67  C   UNL A   1      43.796  27.728  32.534  1.00  0.00     0.074 A 
ATOM     68  C   UNL A   1      44.074  28.529  33.707  1.00  0.00     0.031 C 
ATOM     69  C   UNL A   1      44.231  26.500  32.132  1.00  0.00     0.037 A 
BRANCH  56  70
ATOM     70  C   UNL A   1      42.520  23.145  27.320  1.00  0.00     0.064 A 
ATOM     71  C   UNL A   1      41.989  21.875  27.611  1.00  0.00     0.173 A 
ATOM     72  C   UNL A   1      43.270  23.213  26.120  1.00  0.00     0.173 A 
ATOM     73  F   UNL A   1      41.194  21.686  28.672  1.00  0.00    -0.203 F 
ATOM     74  C   UNL A   1      42.278  20.744  26.839  1.00  0.00     0.198 A 
ATOM     75  C   UNL A   1      43.613  22.069  25.384  1.00  0.00     0.198 A 
ATOM     76  F   UNL A   1      43.718  24.390  25.655  1.00  0.00    -0.203 F 
ATOM     77  F   UNL A   1      41.756  19.558  27.180  1.00  0.00    -0.200 F 
ATOM     78  C   UNL A   1      43.123  20.832  25.751  1.00  0.00     0.200 A 
ATOM     79  F   UNL A   1      44.448  22.166  24.337  1.00  0.00    -0.200 F 
ATOM     80  F   UNL A   1      43.457  19.733  25.060  1.00  0.00    -0.200 F 
ENDBRANCH  56  70
BRANCH  57  81
ATOM     81  C   UNL A   1      40.721  31.387  32.470  1.00  0.00     0.064 A 
ATOM     82  C   UNL A   1      40.562  32.790  32.393  1.00  0.00     0.173 A 
ATOM     83  C   UNL A   1      39.613  30.653  32.909  1.00  0.00     0.173 A 
ATOM     84  F   UNL A   1      41.587  33.562  31.995  1.00  0.00    -0.203 F 
ATOM     85  C   UNL A   1      39.335  33.411  32.629  1.00  0.00     0.198 A 
ATOM     86  C   UNL A   1      38.384  31.282  33.165  1.00  0.00     0.198 A 
ATOM     87  F   UNL A   1      39.664  29.316  32.976  1.00  0.00    -0.203 F 
ATOM     88  F   UNL A   1      39.200  34.729  32.421  1.00  0.00    -0.200 F 
ATOM     89  C   UNL A   1      38.243  32.655  33.005  1.00  0.00     0.200 A 
ATOM     90  F   UNL A   1      37.300  30.543  33.448  1.00  0.00    -0.200 F 
ATOM     91  F   UNL A   1      37.038  33.229  33.131  1.00  0.00    -0.200 F 
ENDBRANCH  57  81
BRANCH  69  92
ATOM     92  C   UNL A   1      44.885  25.432  32.976  1.00  0.00     0.064 A 
ATOM     93  C   UNL A   1      46.266  25.203  32.997  1.00  0.00     0.173 A 
ATOM     94  C   UNL A   1      44.137  24.731  33.964  1.00  0.00     0.173 A 
ATOM     95  F   UNL A   1      47.100  25.887  32.203  1.00  0.00    -0.203 F 
ATOM     96  C   UNL A   1      46.848  24.302  33.890  1.00  0.00     0.198 A 
ATOM     97  C   UNL A   1      44.733  23.902  34.909  1.00  0.00     0.198 A 
ATOM     98  F   UNL A   1      42.806  24.855  34.071  1.00  0.00    -0.203 F 
ATOM     99  F   UNL A   1      48.167  24.076  33.829  1.00  0.00    -0.200 F 
ATOM    100  C   UNL A   1      46.088  23.670  34.856  1.00  0.00     0.200 A 
ATOM    101  F   UNL A   1      43.987  23.354  35.879  1.00  0.00    -0.200 F 
ATOM    102  F   UNL A   1      46.664  22.853  35.747  1.00  0.00    -0.200 F 
ENDBRANCH  69  92
ENDBRANCH  43  44
ENDBRANCH  36  38
ENDBRANCH  35  36
ENDBRANCH  34  35
ENDBRANCH  33  34
ENDBRANCH  32  33
ENDBRANCH  31  32
ENDBRANCH   1  31
TORSDOF 20
ENDMDL
