MODEL 1
REMARK VINA RESULT:     -11.5      0.000      0.000
REMARK SMILES Cc1cc(Br)cc2c1O[C@H](C(F)(F)F)C(C(=O)OCCOCCOCCOC(=O)c1ccc(-c3c4nc(c(-c5c(F)c(F)c(F)c(F)c5F)c5ccc([nH]5)c(-c5c(F)c(F)c(F)c(F)c5F)c5nc(c(-c6c(F)c(F)c(F)c(F)c6F)c6ccc3[nH]6)C=C5)C=C4)cc1)=C2
REMARK SMILES IDX 23 1 22 2 21 3 20 4 19 5 18 6 16 7 17 8 15 9 1 10 2 11 3 12
REMARK SMILES IDX 8 13 4 14 7 15 9 16 5 17 6 18 93 19 10 20 11 21 12 22 13 23
REMARK SMILES IDX 14 24 24 25 25 26 26 27 27 28 28 29 29 30 30 31 31 32 92 33
REMARK SMILES IDX 32 34 91 35 33 36 34 37 35 38 85 39 36 40 90 41 84 42 86 43
REMARK SMILES IDX 37 44 89 45 83 46 82 47 38 49 70 50 50 51 69 52 51 53 54 54
REMARK SMILES IDX 68 55 87 56 52 57 53 58 67 60 88 61 55 62 39 63 40 64 48 65
REMARK SMILES IDX 41 66 42 67 46 68 49 69 43 70 44 71 47 72 45 73 71 74 72 75
REMARK SMILES IDX 80 76 73 77 74 78 78 79 81 80 75 81 76 82 79 83 77 84 56 85
REMARK SMILES IDX 57 86 65 87 58 88 59 89 63 90 66 91 60 92 61 93 64 94 62 95
REMARK H PARENT 86 48 54 59
REMARK Flexibility Score: inf
ROOT
ATOM      1  C   UNL A   1      34.648  21.380  24.653  1.00  0.00     0.188 C 
ENDROOT
BRANCH   1   2
ATOM      2  C   UNL A   1      35.020  22.726  23.997  1.00  0.00     0.188 C 
BRANCH   2   3
ATOM      3  O   UNL A   1      34.718  22.958  22.639  1.00  0.00    -0.376 OA
BRANCH   3   4
ATOM      4  C   UNL A   1      33.390  23.216  22.217  1.00  0.00     0.202 C 
BRANCH   4   5
ATOM      5  C   UNL A   1      32.138  22.619  22.881  1.00  0.00     0.261 C 
BRANCH   5   6
ATOM      6  O   UNL A   1      31.106  23.543  23.243  1.00  0.00    -0.460 OA
BRANCH   6   7
ATOM      7  C   UNL A   1      31.062  23.872  24.556  1.00  0.00     0.338 C 
ATOM      8  O   UNL A   1      31.223  23.122  25.504  1.00  0.00    -0.246 OA
BRANCH   7   9
ATOM      9  C   UNL A   1      30.951  25.338  24.695  1.00  0.00     0.087 C 
ATOM     10  C   UNL A   1      31.780  30.311  25.679  1.00  0.00     0.048 C 
ATOM     11  C   UNL A   1      30.903  29.513  24.756  1.00  0.00    -0.007 A 
ATOM     12  C   UNL A   1      30.111  30.195  23.819  1.00  0.00     0.023 A 
ATOM     13  C   UNL A   1      30.845  28.110  24.807  1.00  0.00     0.130 A 
ATOM     14  C   UNL A   1      29.289  29.489  22.944  1.00  0.00     0.019 A 
ATOM     15  C   UNL A   1      30.055  27.405  23.892  1.00  0.00     0.019 A 
ATOM     16  O   UNL A   1      31.585  27.492  25.775  1.00  0.00    -0.475 OA
ATOM     17  Br  UNL A   1      28.238  30.422  21.679  1.00  0.00    -0.051 Br
ATOM     18  C   UNL A   1      29.256  28.097  22.973  1.00  0.00     0.027 A 
ATOM     19  C   UNL A   1      30.120  25.955  23.845  1.00  0.00     0.027 C 
ATOM     20  C   UNL A   1      31.747  26.050  25.753  1.00  0.00     0.316 C 
BRANCH  20  21
ATOM     21  C   UNL A   1      33.246  25.737  25.663  1.00  0.00     0.430 C 
ATOM     22  F   UNL A   1      33.990  26.738  26.189  1.00  0.00    -0.167 F 
ATOM     23  F   UNL A   1      33.566  24.614  26.350  1.00  0.00    -0.167 F 
ATOM     24  F   UNL A   1      33.648  25.557  24.385  1.00  0.00    -0.167 F 
ENDBRANCH  20  21
ENDBRANCH   7   9
ENDBRANCH   6   7
ENDBRANCH   5   6
ENDBRANCH   4   5
ENDBRANCH   3   4
ENDBRANCH   2   3
ENDBRANCH   1   2
BRANCH   1  25
ATOM     25  O   UNL A   1      35.569  20.746  25.509  1.00  0.00    -0.376 OA
BRANCH  25  26
ATOM     26  C   UNL A   1      36.501  19.816  24.982  1.00  0.00     0.202 C 
BRANCH  26  27
ATOM     27  C   UNL A   1      38.031  20.008  24.974  1.00  0.00     0.261 C 
BRANCH  27  28
ATOM     28  O   UNL A   1      38.554  21.199  25.574  1.00  0.00    -0.460 OA
BRANCH  28  29
ATOM     29  C   UNL A   1      39.670  21.033  26.334  1.00  0.00     0.338 C 
ATOM     30  O   UNL A   1      40.333  20.025  26.467  1.00  0.00    -0.246 OA
BRANCH  29  31
ATOM     31  C   UNL A   1      40.096  22.355  26.838  1.00  0.00     0.060 A 
ATOM     32  C   UNL A   1      39.498  23.505  26.302  1.00  0.00     0.016 A 
ATOM     33  C   UNL A   1      41.077  22.460  27.823  1.00  0.00     0.016 A 
ATOM     34  C   UNL A   1      39.875  24.766  26.760  1.00  0.00     0.010 A 
ATOM     35  C   UNL A   1      41.476  23.728  28.259  1.00  0.00     0.010 A 
ATOM     36  C   UNL A   1      40.889  24.886  27.719  1.00  0.00    -0.014 A 
BRANCH  36  37
ATOM     37  C   UNL A   1      41.442  26.229  28.026  1.00  0.00     0.031 A 
ATOM     38  C   UNL A   1      42.846  26.544  27.593  1.00  0.00     0.074 A 
ATOM     39  C   UNL A   1      40.697  27.168  28.634  1.00  0.00     0.049 A 
ATOM     40  N   UNL A   1      43.527  27.653  27.726  1.00  0.00    -0.248 NA
ATOM     41  C   UNL A   1      43.581  25.464  26.915  1.00  0.00     0.031 C 
ATOM     42  C   UNL A   1      39.312  26.996  29.068  1.00  0.00     0.029 A 
ATOM     43  N   UNL A   1      41.002  28.461  28.987  1.00  0.00    -0.354 N 
ATOM     44  C   UNL A   1      44.761  27.409  27.139  1.00  0.00     0.074 A 
ATOM     45  C   UNL A   1      44.756  26.034  26.693  1.00  0.00     0.031 C 
ATOM     46  C   UNL A   1      38.885  28.143  29.625  1.00  0.00     0.029 A 
ATOM     47  C   UNL A   1      39.973  29.121  29.612  1.00  0.00     0.049 A 
ATOM     48  H   UNL A   1      41.878  28.875  28.808  1.00  0.00     0.167 HD
ATOM     49  C   UNL A   1      45.797  28.262  26.970  1.00  0.00     0.037 A 
ATOM     50  C   UNL A   1      39.920  30.370  30.120  1.00  0.00     0.037 A 
ATOM     51  C   UNL A   1      45.804  29.628  27.420  1.00  0.00     0.049 A 
ATOM     52  C   UNL A   1      41.124  31.272  30.006  1.00  0.00     0.074 A 
ATOM     53  C   UNL A   1      46.806  30.571  27.285  1.00  0.00     0.029 A 
ATOM     54  N   UNL A   1      44.762  30.242  28.100  1.00  0.00    -0.354 N 
ATOM     55  N   UNL A   1      42.274  31.046  29.416  1.00  0.00    -0.248 NA
ATOM     56  C   UNL A   1      41.026  32.603  30.624  1.00  0.00     0.031 C 
ATOM     57  C   UNL A   1      46.398  31.737  27.936  1.00  0.00     0.029 A 
ATOM     58  C   UNL A   1      45.113  31.543  28.419  1.00  0.00     0.049 A 
ATOM     59  H   UNL A   1      43.902  29.817  28.322  1.00  0.00     0.167 HD
ATOM     60  C   UNL A   1      43.018  32.210  29.562  1.00  0.00     0.074 A 
ATOM     61  C   UNL A   1      42.190  33.147  30.292  1.00  0.00     0.031 C 
ATOM     62  C   UNL A   1      44.273  32.476  29.128  1.00  0.00     0.037 A 
BRANCH  49  63
ATOM     63  C   UNL A   1      47.019  27.748  26.268  1.00  0.00     0.064 A 
ATOM     64  C   UNL A   1      48.101  27.211  26.981  1.00  0.00     0.173 A 
ATOM     65  C   UNL A   1      47.078  27.724  24.866  1.00  0.00     0.173 A 
ATOM     66  F   UNL A   1      48.098  27.222  28.323  1.00  0.00    -0.203 F 
ATOM     67  C   UNL A   1      49.204  26.681  26.317  1.00  0.00     0.198 A 
ATOM     68  C   UNL A   1      48.168  27.164  24.206  1.00  0.00     0.198 A 
ATOM     69  F   UNL A   1      46.067  28.220  24.137  1.00  0.00    -0.203 F 
ATOM     70  F   UNL A   1      50.241  26.205  27.019  1.00  0.00    -0.200 F 
ATOM     71  C   UNL A   1      49.231  26.647  24.930  1.00  0.00     0.200 A 
ATOM     72  F   UNL A   1      48.185  27.117  22.866  1.00  0.00    -0.200 F 
ATOM     73  F   UNL A   1      50.284  26.118  24.294  1.00  0.00    -0.200 F 
ENDBRANCH  49  63
BRANCH  50  74
ATOM     74  C   UNL A   1      38.670  30.851  30.771  1.00  0.00     0.064 A 
ATOM     75  C   UNL A   1      38.509  30.778  32.161  1.00  0.00     0.173 A 
ATOM     76  C   UNL A   1      37.617  31.394  30.020  1.00  0.00     0.173 A 
ATOM     77  F   UNL A   1      39.475  30.241  32.920  1.00  0.00    -0.203 F 
ATOM     78  C   UNL A   1      37.340  31.225  32.775  1.00  0.00     0.198 A 
ATOM     79  C   UNL A   1      36.461  31.867  30.639  1.00  0.00     0.198 A 
ATOM     80  F   UNL A   1      37.717  31.480  28.686  1.00  0.00    -0.203 F 
ATOM     81  F   UNL A   1      37.196  31.108  34.103  1.00  0.00    -0.200 F 
ATOM     82  C   UNL A   1      36.320  31.777  32.015  1.00  0.00     0.200 A 
ATOM     83  F   UNL A   1      35.483  32.410  29.899  1.00  0.00    -0.200 F 
ATOM     84  F   UNL A   1      35.201  32.216  32.607  1.00  0.00    -0.200 F 
ENDBRANCH  50  74
BRANCH  62  85
ATOM     85  C   UNL A   1      44.848  33.840  29.388  1.00  0.00     0.064 A 
ATOM     86  C   UNL A   1      45.648  34.097  30.508  1.00  0.00     0.173 A 
ATOM     87  C   UNL A   1      44.710  34.860  28.432  1.00  0.00     0.173 A 
ATOM     88  F   UNL A   1      45.804  33.159  31.456  1.00  0.00    -0.203 F 
ATOM     89  C   UNL A   1      46.293  35.321  30.662  1.00  0.00     0.198 A 
ATOM     90  C   UNL A   1      45.380  36.071  28.573  1.00  0.00     0.198 A 
ATOM     91  F   UNL A   1      43.963  34.661  27.335  1.00  0.00    -0.203 F 
ATOM     92  F   UNL A   1      47.044  35.550  31.748  1.00  0.00    -0.200 F 
ATOM     93  C   UNL A   1      46.171  36.301  29.687  1.00  0.00     0.200 A 
ATOM     94  F   UNL A   1      45.279  37.007  27.619  1.00  0.00    -0.200 F 
ATOM     95  F   UNL A   1      46.823  37.465  29.819  1.00  0.00    -0.200 F 
ENDBRANCH  62  85
ENDBRANCH  36  37
ENDBRANCH  29  31
ENDBRANCH  28  29
ENDBRANCH  27  28
ENDBRANCH  26  27
ENDBRANCH  25  26
ENDBRANCH   1  25
TORSDOF 18
ENDMDL
MODEL 2
REMARK VINA RESULT:     -11.4      2.947      8.405
REMARK SMILES Cc1cc(Br)cc2c1O[C@H](C(F)(F)F)C(C(=O)OCCOCCOCCOC(=O)c1ccc(-c3c4nc(c(-c5c(F)c(F)c(F)c(F)c5F)c5ccc([nH]5)c(-c5c(F)c(F)c(F)c(F)c5F)c5nc(c(-c6c(F)c(F)c(F)c(F)c6F)c6ccc3[nH]6)C=C5)C=C4)cc1)=C2
REMARK SMILES IDX 23 1 22 2 21 3 20 4 19 5 18 6 16 7 17 8 15 9 1 10 2 11 3 12
REMARK SMILES IDX 8 13 4 14 7 15 9 16 5 17 6 18 93 19 10 20 11 21 12 22 13 23
REMARK SMILES IDX 14 24 24 25 25 26 26 27 27 28 28 29 29 30 30 31 31 32 92 33
REMARK SMILES IDX 32 34 91 35 33 36 34 37 35 38 85 39 36 40 90 41 84 42 86 43
REMARK SMILES IDX 37 44 89 45 83 46 82 47 38 49 70 50 50 51 69 52 51 53 54 54
REMARK SMILES IDX 68 55 87 56 52 57 53 58 67 60 88 61 55 62 39 63 40 64 48 65
REMARK SMILES IDX 41 66 42 67 46 68 49 69 43 70 44 71 47 72 45 73 71 74 72 75
REMARK SMILES IDX 80 76 73 77 74 78 78 79 81 80 75 81 76 82 79 83 77 84 56 85
REMARK SMILES IDX 57 86 65 87 58 88 59 89 63 90 66 91 60 92 61 93 64 94 62 95
REMARK H PARENT 86 48 54 59
REMARK Flexibility Score: inf
ROOT
ATOM      1  C   UNL A   1      34.719  32.823  28.639  1.00  0.00     0.188 C 
ENDROOT
BRANCH   1   2
ATOM      2  C   UNL A   1      34.167  31.496  28.076  1.00  0.00     0.188 C 
BRANCH   2   3
ATOM      3  O   UNL A   1      35.000  30.650  27.316  1.00  0.00    -0.376 OA
BRANCH   3   4
ATOM      4  C   UNL A   1      34.579  29.349  26.941  1.00  0.00     0.202 C 
BRANCH   4   5
ATOM      5  C   UNL A   1      33.448  29.061  25.940  1.00  0.00     0.261 C 
BRANCH   5   6
ATOM      6  O   UNL A   1      33.846  28.644  24.630  1.00  0.00    -0.460 OA
BRANCH   6   7
ATOM      7  C   UNL A   1      33.320  27.467  24.214  1.00  0.00     0.338 C 
ATOM      8  O   UNL A   1      33.854  26.372  24.253  1.00  0.00    -0.246 OA
BRANCH   7   9
ATOM      9  C   UNL A   1      31.903  27.663  23.845  1.00  0.00     0.087 C 
ATOM     10  C   UNL A   1      26.768  27.717  23.705  1.00  0.00     0.048 C 
ATOM     11  C   UNL A   1      27.885  28.520  23.100  1.00  0.00    -0.007 A 
ATOM     12  C   UNL A   1      27.564  29.654  22.336  1.00  0.00     0.023 A 
ATOM     13  C   UNL A   1      29.235  28.170  23.269  1.00  0.00     0.130 A 
ATOM     14  C   UNL A   1      28.573  30.425  21.763  1.00  0.00     0.019 A 
ATOM     15  C   UNL A   1      30.244  28.979  22.732  1.00  0.00     0.019 A 
ATOM     16  O   UNL A   1      29.497  27.025  23.967  1.00  0.00    -0.475 OA
ATOM     17  Br  UNL A   1      28.125  31.956  20.747  1.00  0.00    -0.051 Br
ATOM     18  C   UNL A   1      29.911  30.096  21.957  1.00  0.00     0.027 A 
ATOM     19  C   UNL A   1      31.635  28.701  23.042  1.00  0.00     0.027 C 
ATOM     20  C   UNL A   1      30.858  26.717  24.367  1.00  0.00     0.316 C 
BRANCH  20  21
ATOM     21  C   UNL A   1      30.894  26.596  25.896  1.00  0.00     0.430 C 
ATOM     22  F   UNL A   1      29.787  25.973  26.366  1.00  0.00    -0.167 F 
ATOM     23  F   UNL A   1      31.957  25.871  26.317  1.00  0.00    -0.167 F 
ATOM     24  F   UNL A   1      30.966  27.806  26.496  1.00  0.00    -0.167 F 
ENDBRANCH  20  21
ENDBRANCH   7   9
ENDBRANCH   6   7
ENDBRANCH   5   6
ENDBRANCH   4   5
ENDBRANCH   3   4
ENDBRANCH   2   3
ENDBRANCH   1   2
BRANCH   1  25
ATOM     25  O   UNL A   1      33.921  33.597  29.502  1.00  0.00    -0.376 OA
BRANCH  25  26
ATOM     26  C   UNL A   1      34.435  34.013  30.757  1.00  0.00     0.202 C 
BRANCH  26  27
ATOM     27  C   UNL A   1      34.430  33.159  32.041  1.00  0.00     0.261 C 
BRANCH  27  28
ATOM     28  O   UNL A   1      35.165  31.929  32.023  1.00  0.00    -0.460 OA
BRANCH  28  29
ATOM     29  C   UNL A   1      36.286  31.904  32.794  1.00  0.00     0.338 C 
ATOM     30  O   UNL A   1      36.377  32.153  33.978  1.00  0.00    -0.246 OA
BRANCH  29  31
ATOM     31  C   UNL A   1      37.386  31.315  32.002  1.00  0.00     0.060 A 
ATOM     32  C   UNL A   1      38.447  30.697  32.679  1.00  0.00     0.016 A 
ATOM     33  C   UNL A   1      37.374  31.376  30.609  1.00  0.00     0.016 A 
ATOM     34  C   UNL A   1      39.497  30.129  31.961  1.00  0.00     0.010 A 
ATOM     35  C   UNL A   1      38.444  30.832  29.891  1.00  0.00     0.010 A 
ATOM     36  C   UNL A   1      39.518  30.220  30.564  1.00  0.00    -0.014 A 
BRANCH  36  37
ATOM     37  C   UNL A   1      40.743  29.822  29.828  1.00  0.00     0.031 A 
ATOM     38  C   UNL A   1      40.824  28.432  29.263  1.00  0.00     0.074 A 
ATOM     39  C   UNL A   1      41.747  30.693  29.623  1.00  0.00     0.049 A 
ATOM     40  N   UNL A   1      41.778  27.873  28.564  1.00  0.00    -0.248 NA
ATOM     41  C   UNL A   1      39.670  27.554  29.517  1.00  0.00     0.031 C 
ATOM     42  C   UNL A   1      41.772  32.077  30.088  1.00  0.00     0.029 A 
ATOM     43  N   UNL A   1      42.942  30.539  28.962  1.00  0.00    -0.354 N 
ATOM     44  C   UNL A   1      41.336  26.588  28.285  1.00  0.00     0.074 A 
ATOM     45  C   UNL A   1      40.051  26.429  28.930  1.00  0.00     0.031 C 
ATOM     46  C   UNL A   1      42.923  32.649  29.694  1.00  0.00     0.029 A 
ATOM     47  C   UNL A   1      43.729  31.664  28.971  1.00  0.00     0.049 A 
ATOM     48  H   UNL A   1      43.209  29.699  28.522  1.00  0.00     0.167 HD
ATOM     49  C   UNL A   1      41.938  25.632  27.541  1.00  0.00     0.037 A 
ATOM     50  C   UNL A   1      44.960  31.871  28.460  1.00  0.00     0.037 A 
ATOM     51  C   UNL A   1      43.219  25.788  26.905  1.00  0.00     0.049 A 
ATOM     52  C   UNL A   1      45.655  30.757  27.717  1.00  0.00     0.074 A 
ATOM     53  C   UNL A   1      43.905  24.877  26.123  1.00  0.00     0.029 A 
ATOM     54  N   UNL A   1      44.009  26.925  26.986  1.00  0.00    -0.354 N 
ATOM     55  N   UNL A   1      45.213  29.557  27.425  1.00  0.00    -0.248 NA
ATOM     56  C   UNL A   1      47.016  31.024  27.228  1.00  0.00     0.031 C 
ATOM     57  C   UNL A   1      45.137  25.438  25.781  1.00  0.00     0.029 A 
ATOM     58  C   UNL A   1      45.191  26.725  26.293  1.00  0.00     0.049 A 
ATOM     59  H   UNL A   1      43.766  27.751  27.464  1.00  0.00     0.167 HD
ATOM     60  C   UNL A   1      46.223  28.942  26.695  1.00  0.00     0.074 A 
ATOM     61  C   UNL A   1      47.301  29.901  26.580  1.00  0.00     0.031 C 
ATOM     62  C   UNL A   1      46.251  27.695  26.167  1.00  0.00     0.037 A 
BRANCH  49  63
ATOM     63  C   UNL A   1      41.224  24.324  27.369  1.00  0.00     0.064 A 
ATOM     64  C   UNL A   1      40.102  24.207  26.536  1.00  0.00     0.173 A 
ATOM     65  C   UNL A   1      41.711  23.160  27.984  1.00  0.00     0.173 A 
ATOM     66  F   UNL A   1      39.591  25.293  25.935  1.00  0.00    -0.203 F 
ATOM     67  C   UNL A   1      39.484  22.976  26.336  1.00  0.00     0.198 A 
ATOM     68  C   UNL A   1      41.110  21.926  27.756  1.00  0.00     0.198 A 
ATOM     69  F   UNL A   1      42.785  23.217  28.786  1.00  0.00    -0.203 F 
ATOM     70  F   UNL A   1      38.392  22.895  25.562  1.00  0.00    -0.200 F 
ATOM     71  C   UNL A   1      39.995  21.835  26.936  1.00  0.00     0.200 A 
ATOM     72  F   UNL A   1      41.615  20.822  28.322  1.00  0.00    -0.200 F 
ATOM     73  F   UNL A   1      39.412  20.648  26.724  1.00  0.00    -0.200 F 
ENDBRANCH  49  63
BRANCH  50  74
ATOM     74  C   UNL A   1      45.612  33.200  28.619  1.00  0.00     0.064 A 
ATOM     75  C   UNL A   1      45.444  34.205  27.657  1.00  0.00     0.173 A 
ATOM     76  C   UNL A   1      46.412  33.494  29.734  1.00  0.00     0.173 A 
ATOM     77  F   UNL A   1      44.712  33.965  26.559  1.00  0.00    -0.203 F 
ATOM     78  C   UNL A   1      46.054  35.450  27.801  1.00  0.00     0.198 A 
ATOM     79  C   UNL A   1      46.997  34.749  29.891  1.00  0.00     0.198 A 
ATOM     80  F   UNL A   1      46.612  32.566  30.681  1.00  0.00    -0.203 F 
ATOM     81  F   UNL A   1      45.907  36.380  26.846  1.00  0.00    -0.200 F 
ATOM     82  C   UNL A   1      46.823  35.725  28.921  1.00  0.00     0.200 A 
ATOM     83  F   UNL A   1      47.731  35.012  30.981  1.00  0.00    -0.200 F 
ATOM     84  F   UNL A   1      47.400  36.926  29.064  1.00  0.00    -0.200 F 
ENDBRANCH  50  74
BRANCH  62  85
ATOM     85  C   UNL A   1      47.462  27.275  25.382  1.00  0.00     0.064 A 
ATOM     86  C   UNL A   1      47.598  27.586  24.023  1.00  0.00     0.173 A 
ATOM     87  C   UNL A   1      48.555  26.679  26.033  1.00  0.00     0.173 A 
ATOM     88  F   UNL A   1      46.580  28.147  23.353  1.00  0.00    -0.203 F 
ATOM     89  C   UNL A   1      48.785  27.321  23.344  1.00  0.00     0.198 A 
ATOM     90  C   UNL A   1      49.749  26.444  25.360  1.00  0.00     0.198 A 
ATOM     91  F   UNL A   1      48.479  26.372  27.337  1.00  0.00    -0.203 F 
ATOM     92  F   UNL A   1      48.890  27.615  22.041  1.00  0.00    -0.200 F 
ATOM     93  C   UNL A   1      49.864  26.765  24.016  1.00  0.00     0.200 A 
ATOM     94  F   UNL A   1      50.797  25.928  26.017  1.00  0.00    -0.200 F 
ATOM     95  F   UNL A   1      51.018  26.546  23.370  1.00  0.00    -0.200 F 
ENDBRANCH  62  85
ENDBRANCH  36  37
ENDBRANCH  29  31
ENDBRANCH  28  29
ENDBRANCH  27  28
ENDBRANCH  26  27
ENDBRANCH  25  26
ENDBRANCH   1  25
TORSDOF 18
ENDMDL
MODEL 3
REMARK VINA RESULT:     -11.4      5.318     10.587
REMARK SMILES Cc1cc(Br)cc2c1O[C@H](C(F)(F)F)C(C(=O)OCCOCCOCCOC(=O)c1ccc(-c3c4nc(c(-c5c(F)c(F)c(F)c(F)c5F)c5ccc([nH]5)c(-c5c(F)c(F)c(F)c(F)c5F)c5nc(c(-c6c(F)c(F)c(F)c(F)c6F)c6ccc3[nH]6)C=C5)C=C4)cc1)=C2
REMARK SMILES IDX 23 1 22 2 21 3 20 4 19 5 18 6 16 7 17 8 15 9 1 10 2 11 3 12
REMARK SMILES IDX 8 13 4 14 7 15 9 16 5 17 6 18 93 19 10 20 11 21 12 22 13 23
REMARK SMILES IDX 14 24 24 25 25 26 26 27 27 28 28 29 29 30 30 31 31 32 92 33
REMARK SMILES IDX 32 34 91 35 33 36 34 37 35 38 85 39 36 40 90 41 84 42 86 43
REMARK SMILES IDX 37 44 89 45 83 46 82 47 38 49 70 50 50 51 69 52 51 53 54 54
REMARK SMILES IDX 68 55 87 56 52 57 53 58 67 60 88 61 55 62 39 63 40 64 48 65
REMARK SMILES IDX 41 66 42 67 46 68 49 69 43 70 44 71 47 72 45 73 71 74 72 75
REMARK SMILES IDX 80 76 73 77 74 78 78 79 81 80 75 81 76 82 79 83 77 84 56 85
REMARK SMILES IDX 57 86 65 87 58 88 59 89 63 90 66 91 60 92 61 93 64 94 62 95
REMARK H PARENT 86 48 54 59
REMARK Flexibility Score: inf
ROOT
ATOM      1  C   UNL A   1      34.421  32.701  29.013  1.00  0.00     0.188 C 
ENDROOT
BRANCH   1   2
ATOM      2  C   UNL A   1      35.018  31.731  27.972  1.00  0.00     0.188 C 
BRANCH   2   3
ATOM      3  O   UNL A   1      34.173  30.875  27.237  1.00  0.00    -0.376 OA
BRANCH   3   4
ATOM      4  C   UNL A   1      34.215  29.470  27.419  1.00  0.00     0.202 C 
BRANCH   4   5
ATOM      5  C   UNL A   1      34.362  28.453  26.276  1.00  0.00     0.261 C 
BRANCH   5   6
ATOM      6  O   UNL A   1      33.735  28.793  25.035  1.00  0.00    -0.460 OA
BRANCH   6   7
ATOM      7  C   UNL A   1      33.374  27.739  24.263  1.00  0.00     0.338 C 
ATOM      8  O   UNL A   1      34.042  26.749  24.019  1.00  0.00    -0.246 OA
BRANCH   7   9
ATOM      9  C   UNL A   1      31.956  27.875  23.874  1.00  0.00     0.087 C 
ATOM     10  C   UNL A   1      26.826  27.710  23.662  1.00  0.00     0.048 C 
ATOM     11  C   UNL A   1      27.916  28.559  23.071  1.00  0.00    -0.007 A 
ATOM     12  C   UNL A   1      27.558  29.677  22.299  1.00  0.00     0.023 A 
ATOM     13  C   UNL A   1      29.278  28.267  23.259  1.00  0.00     0.130 A 
ATOM     14  C   UNL A   1      28.541  30.489  21.739  1.00  0.00     0.019 A 
ATOM     15  C   UNL A   1      30.259  29.116  22.735  1.00  0.00     0.019 A 
ATOM     16  O   UNL A   1      29.578  27.136  23.964  1.00  0.00    -0.475 OA
ATOM     17  Br  UNL A   1      28.043  31.997  20.713  1.00  0.00    -0.051 Br
ATOM     18  C   UNL A   1      29.890  30.217  21.953  1.00  0.00     0.027 A 
ATOM     19  C   UNL A   1      31.656  28.899  23.065  1.00  0.00     0.027 C 
ATOM     20  C   UNL A   1      30.945  26.886  24.383  1.00  0.00     0.316 C 
BRANCH  20  21
ATOM     21  C   UNL A   1      30.964  26.769  25.913  1.00  0.00     0.430 C 
ATOM     22  F   UNL A   1      32.024  26.041  26.338  1.00  0.00    -0.167 F 
ATOM     23  F   UNL A   1      31.063  27.982  26.507  1.00  0.00    -0.167 F 
ATOM     24  F   UNL A   1      29.845  26.177  26.387  1.00  0.00    -0.167 F 
ENDBRANCH  20  21
ENDBRANCH   7   9
ENDBRANCH   6   7
ENDBRANCH   5   6
ENDBRANCH   4   5
ENDBRANCH   3   4
ENDBRANCH   2   3
ENDBRANCH   1   2
BRANCH   1  25
ATOM     25  O   UNL A   1      33.567  33.738  28.589  1.00  0.00    -0.376 OA
BRANCH  25  26
ATOM     26  C   UNL A   1      33.848  35.079  28.955  1.00  0.00     0.202 C 
BRANCH  26  27
ATOM     27  C   UNL A   1      32.864  36.021  29.678  1.00  0.00     0.261 C 
BRANCH  27  28
ATOM     28  O   UNL A   1      33.187  36.419  31.016  1.00  0.00    -0.460 OA
BRANCH  28  29
ATOM     29  C   UNL A   1      32.834  35.539  31.992  1.00  0.00     0.338 C 
ATOM     30  O   UNL A   1      31.714  35.222  32.334  1.00  0.00    -0.246 OA
BRANCH  29  31
ATOM     31  C   UNL A   1      34.052  34.846  32.461  1.00  0.00     0.060 A 
ATOM     32  C   UNL A   1      35.284  35.507  32.361  1.00  0.00     0.016 A 
ATOM     33  C   UNL A   1      33.980  33.557  32.990  1.00  0.00     0.016 A 
ATOM     34  C   UNL A   1      36.450  34.881  32.800  1.00  0.00     0.010 A 
ATOM     35  C   UNL A   1      35.154  32.920  33.401  1.00  0.00     0.010 A 
ATOM     36  C   UNL A   1      36.396  33.572  33.293  1.00  0.00    -0.014 A 
BRANCH  36  37
ATOM     37  C   UNL A   1      37.661  32.836  33.536  1.00  0.00     0.031 A 
ATOM     38  C   UNL A   1      38.422  33.112  34.802  1.00  0.00     0.074 A 
ATOM     39  C   UNL A   1      38.103  31.903  32.675  1.00  0.00     0.049 A 
ATOM     40  N   UNL A   1      39.532  32.573  35.240  1.00  0.00    -0.248 NA
ATOM     41  C   UNL A   1      37.855  34.133  35.698  1.00  0.00     0.031 C 
ATOM     42  C   UNL A   1      37.436  31.519  31.433  1.00  0.00     0.029 A 
ATOM     43  N   UNL A   1      39.220  31.104  32.718  1.00  0.00    -0.354 N 
ATOM     44  C   UNL A   1      39.786  33.178  36.463  1.00  0.00     0.074 A 
ATOM     45  C   UNL A   1      38.746  34.159  36.679  1.00  0.00     0.031 C 
ATOM     46  C   UNL A   1      38.155  30.553  30.833  1.00  0.00     0.029 A 
ATOM     47  C   UNL A   1      39.346  30.269  31.634  1.00  0.00     0.049 A 
ATOM     48  H   UNL A   1      39.871  31.128  33.457  1.00  0.00     0.167 HD
ATOM     49  C   UNL A   1      40.786  32.922  37.337  1.00  0.00     0.037 A 
ATOM     50  C   UNL A   1      40.315  29.384  31.324  1.00  0.00     0.037 A 
ATOM     51  C   UNL A   1      41.824  31.951  37.120  1.00  0.00     0.049 A 
ATOM     52  C   UNL A   1      41.474  29.186  32.270  1.00  0.00     0.074 A 
ATOM     53  C   UNL A   1      42.875  31.616  37.954  1.00  0.00     0.029 A 
ATOM     54  N   UNL A   1      41.947  31.165  35.983  1.00  0.00    -0.354 N 
ATOM     55  N   UNL A   1      41.686  29.734  33.443  1.00  0.00    -0.248 NA
ATOM     56  C   UNL A   1      42.527  28.246  31.854  1.00  0.00     0.031 C 
ATOM     57  C   UNL A   1      43.669  30.674  37.298  1.00  0.00     0.029 A 
ATOM     58  C   UNL A   1      43.075  30.370  36.082  1.00  0.00     0.049 A 
ATOM     59  H   UNL A   1      41.324  31.172  35.220  1.00  0.00     0.167 HD
ATOM     60  C   UNL A   1      42.871  29.184  33.916  1.00  0.00     0.074 A 
ATOM     61  C   UNL A   1      43.333  28.253  32.908  1.00  0.00     0.031 C 
ATOM     62  C   UNL A   1      43.516  29.430  35.082  1.00  0.00     0.037 A 
BRANCH  49  63
ATOM     63  C   UNL A   1      40.814  33.705  38.617  1.00  0.00     0.064 A 
ATOM     64  C   UNL A   1      40.030  33.335  39.719  1.00  0.00     0.173 A 
ATOM     65  C   UNL A   1      41.691  34.791  38.769  1.00  0.00     0.173 A 
ATOM     66  F   UNL A   1      39.167  32.311  39.619  1.00  0.00    -0.203 F 
ATOM     67  C   UNL A   1      40.109  34.032  40.921  1.00  0.00     0.198 A 
ATOM     68  C   UNL A   1      41.791  35.465  39.982  1.00  0.00     0.198 A 
ATOM     69  F   UNL A   1      42.468  35.182  37.747  1.00  0.00    -0.203 F 
ATOM     70  F   UNL A   1      39.324  33.681  41.950  1.00  0.00    -0.200 F 
ATOM     71  C   UNL A   1      40.998  35.088  41.056  1.00  0.00     0.200 A 
ATOM     72  F   UNL A   1      42.663  36.474  40.116  1.00  0.00    -0.200 F 
ATOM     73  F   UNL A   1      41.089  35.743  42.220  1.00  0.00    -0.200 F 
ENDBRANCH  49  63
BRANCH  50  74
ATOM     74  C   UNL A   1      40.222  28.599  30.063  1.00  0.00     0.064 A 
ATOM     75  C   UNL A   1      40.795  29.075  28.875  1.00  0.00     0.173 A 
ATOM     76  C   UNL A   1      39.565  27.360  30.018  1.00  0.00     0.173 A 
ATOM     77  F   UNL A   1      41.409  30.266  28.858  1.00  0.00    -0.203 F 
ATOM     78  C   UNL A   1      40.709  28.344  27.690  1.00  0.00     0.198 A 
ATOM     79  C   UNL A   1      39.506  26.617  28.840  1.00  0.00     0.198 A 
ATOM     80  F   UNL A   1      38.994  26.862  31.124  1.00  0.00    -0.203 F 
ATOM     81  F   UNL A   1      41.233  28.840  26.560  1.00  0.00    -0.200 F 
ATOM     82  C   UNL A   1      40.073  27.113  27.675  1.00  0.00     0.200 A 
ATOM     83  F   UNL A   1      38.898  25.423  28.834  1.00  0.00    -0.200 F 
ATOM     84  F   UNL A   1      40.000  26.406  26.539  1.00  0.00    -0.200 F 
ENDBRANCH  50  74
BRANCH  62  85
ATOM     85  C   UNL A   1      44.779  28.671  35.376  1.00  0.00     0.064 A 
ATOM     86  C   UNL A   1      46.040  29.199  35.067  1.00  0.00     0.173 A 
ATOM     87  C   UNL A   1      44.730  27.470  36.102  1.00  0.00     0.173 A 
ATOM     88  F   UNL A   1      46.141  30.340  34.367  1.00  0.00    -0.203 F 
ATOM     89  C   UNL A   1      47.205  28.555  35.475  1.00  0.00     0.198 A 
ATOM     90  C   UNL A   1      45.896  26.845  36.535  1.00  0.00     0.198 A 
ATOM     91  F   UNL A   1      43.549  26.929  36.434  1.00  0.00    -0.203 F 
ATOM     92  F   UNL A   1      48.401  29.071  35.157  1.00  0.00    -0.200 F 
ATOM     93  C   UNL A   1      47.132  27.388  36.222  1.00  0.00     0.200 A 
ATOM     94  F   UNL A   1      45.822  25.730  37.275  1.00  0.00    -0.200 F 
ATOM     95  F   UNL A   1      48.255  26.790  36.646  1.00  0.00    -0.200 F 
ENDBRANCH  62  85
ENDBRANCH  36  37
ENDBRANCH  29  31
ENDBRANCH  28  29
ENDBRANCH  27  28
ENDBRANCH  26  27
ENDBRANCH  25  26
ENDBRANCH   1  25
TORSDOF 18
ENDMDL
