MODEL 1
REMARK VINA RESULT:     -11.4      0.000      0.000
REMARK SMILES Cc1cc(C)cc(-c2ccc([C@@H](C)C(=O)OCCOCCOCCOC(=O)c3ccc(-c4c5nc(c(-c6c(F)c(F)c(F)c(F)c6F)c6ccc([nH]6)c(-c6c(F)c(F)c(F)c(F)c6F)c6nc(c(-c7c(F)c(F)c(F)c(F)c7F)c7ccc4[nH]7)C=C6)C=C5)cc3)cc2F)c1
REMARK SMILES IDX 20 1 19 2 18 3 17 4 16 5 14 6 15 7 12 8 13 9 11 10 8 11 9 12
REMARK SMILES IDX 92 13 10 14 91 15 93 16 7 17 1 18 2 19 3 20 94 21 4 22 5 23
REMARK SMILES IDX 6 24 21 25 22 26 23 27 24 28 25 29 26 30 27 31 28 32 29 33
REMARK SMILES IDX 90 34 30 35 89 36 31 37 32 38 33 39 83 40 34 41 88 42 82 43
REMARK SMILES IDX 84 44 35 45 87 46 81 47 80 48 36 50 68 51 48 52 67 53 49 54
REMARK SMILES IDX 52 55 66 56 85 57 50 58 51 59 65 61 86 62 53 63 37 64 38 65
REMARK SMILES IDX 46 66 39 67 40 68 44 69 47 70 41 71 42 72 45 73 43 74 69 75
REMARK SMILES IDX 70 76 78 77 71 78 72 79 76 80 79 81 73 82 74 83 77 84 75 85
REMARK SMILES IDX 54 86 55 87 63 88 56 89 57 90 61 91 64 92 58 93 59 94 62 95
REMARK SMILES IDX 60 96
REMARK H PARENT 84 49 52 60
REMARK Flexibility Score: inf
ROOT
ATOM      1  C   UNL A   1      32.052  28.321  26.274  1.00  0.00     0.188 C 
ENDROOT
BRANCH   1   2
ATOM      2  O   UNL A   1      33.274  27.677  25.931  1.00  0.00    -0.376 OA
BRANCH   2   3
ATOM      3  C   UNL A   1      33.919  28.010  24.708  1.00  0.00     0.202 C 
BRANCH   3   4
ATOM      4  C   UNL A   1      33.220  29.009  23.773  1.00  0.00     0.261 C 
BRANCH   4   5
ATOM      5  O   UNL A   1      32.456  28.423  22.694  1.00  0.00    -0.463 OA
BRANCH   5   6
ATOM      6  C   UNL A   1      31.108  28.416  22.845  1.00  0.00     0.313 C 
ATOM      7  O   UNL A   1      30.440  29.439  22.987  1.00  0.00    -0.252 OA
BRANCH   6   8
ATOM      8  C   UNL A   1      30.425  27.046  22.817  1.00  0.00     0.126 C 
ATOM      9  C   UNL A   1      29.104  27.143  23.577  1.00  0.00     0.025 C 
BRANCH   8  10
ATOM     10  C   UNL A   1      31.171  25.773  23.211  1.00  0.00    -0.031 A 
ATOM     11  C   UNL A   1      32.545  23.326  23.816  1.00  0.00     0.017 A 
ATOM     12  C   UNL A   1      31.826  24.033  24.797  1.00  0.00     0.012 A 
ATOM     13  C   UNL A   1      32.568  23.876  22.532  1.00  0.00     0.131 A 
ATOM     14  C   UNL A   1      31.145  25.230  24.502  1.00  0.00     0.005 A 
ATOM     15  C   UNL A   1      31.891  25.065  22.227  1.00  0.00     0.044 A 
ATOM     16  F   UNL A   1      33.232  23.261  21.539  1.00  0.00    -0.206 F 
BRANCH  11  17
ATOM     17  C   UNL A   1      33.193  22.035  24.130  1.00  0.00    -0.015 A 
ATOM     18  C   UNL A   1      32.410  18.286  24.273  1.00  0.00     0.044 C 
ATOM     19  C   UNL A   1      33.140  19.595  24.354  1.00  0.00    -0.050 A 
ATOM     20  C   UNL A   1      34.490  19.602  24.727  1.00  0.00     0.006 A 
ATOM     21  C   UNL A   1      32.500  20.814  24.062  1.00  0.00     0.012 A 
ATOM     22  C   UNL A   1      35.202  20.801  24.812  1.00  0.00    -0.050 A 
ATOM     23  C   UNL A   1      36.647  20.786  25.217  1.00  0.00     0.044 C 
ATOM     24  C   UNL A   1      34.548  22.005  24.511  1.00  0.00     0.012 A 
ENDBRANCH  11  17
ENDBRANCH   8  10
ENDBRANCH   6   8
ENDBRANCH   5   6
ENDBRANCH   4   5
ENDBRANCH   3   4
ENDBRANCH   2   3
ENDBRANCH   1   2
BRANCH   1  25
ATOM     25  C   UNL A   1      32.072  29.560  27.181  1.00  0.00     0.188 C 
BRANCH  25  26
ATOM     26  O   UNL A   1      32.408  30.762  26.521  1.00  0.00    -0.376 OA
BRANCH  26  27
ATOM     27  C   UNL A   1      31.434  31.787  26.550  1.00  0.00     0.202 C 
BRANCH  27  28
ATOM     28  C   UNL A   1      31.990  33.152  26.975  1.00  0.00     0.261 C 
BRANCH  28  29
ATOM     29  O   UNL A   1      32.935  33.119  28.064  1.00  0.00    -0.460 OA
BRANCH  29  30
ATOM     30  C   UNL A   1      34.039  33.891  27.937  1.00  0.00     0.338 C 
ATOM     31  O   UNL A   1      34.077  35.081  27.695  1.00  0.00    -0.246 OA
BRANCH  30  32
ATOM     32  C   UNL A   1      35.212  33.084  28.354  1.00  0.00     0.060 A 
ATOM     33  C   UNL A   1      35.019  31.740  28.704  1.00  0.00     0.016 A 
ATOM     34  C   UNL A   1      36.488  33.649  28.410  1.00  0.00     0.016 A 
ATOM     35  C   UNL A   1      36.098  30.970  29.147  1.00  0.00     0.010 A 
ATOM     36  C   UNL A   1      37.563  32.881  28.873  1.00  0.00     0.010 A 
ATOM     37  C   UNL A   1      37.368  31.548  29.277  1.00  0.00    -0.014 A 
BRANCH  37  38
ATOM     38  C   UNL A   1      38.441  30.825  30.007  1.00  0.00     0.031 A 
ATOM     39  C   UNL A   1      38.663  31.146  31.460  1.00  0.00     0.074 A 
ATOM     40  C   UNL A   1      39.192  29.883  29.409  1.00  0.00     0.049 A 
ATOM     41  N   UNL A   1      39.563  30.677  32.290  1.00  0.00    -0.248 NA
ATOM     42  C   UNL A   1      37.748  32.130  32.060  1.00  0.00     0.031 C 
ATOM     43  C   UNL A   1      39.052  29.446  28.023  1.00  0.00     0.029 A 
ATOM     44  N   UNL A   1      40.230  29.125  29.900  1.00  0.00    -0.354 N 
ATOM     45  C   UNL A   1      39.321  31.309  33.503  1.00  0.00     0.074 A 
ATOM     46  C   UNL A   1      38.216  32.219  33.296  1.00  0.00     0.031 C 
ATOM     47  C   UNL A   1      39.974  28.499  27.770  1.00  0.00     0.029 A 
ATOM     48  C   UNL A   1      40.789  28.287  28.967  1.00  0.00     0.049 A 
ATOM     49  H   UNL A   1      40.541  29.179  30.832  1.00  0.00     0.167 HD
ATOM     50  C   UNL A   1      39.956  31.137  34.686  1.00  0.00     0.037 A 
ATOM     51  C   UNL A   1      41.848  27.456  29.064  1.00  0.00     0.037 A 
ATOM     52  C   UNL A   1      41.053  30.229  34.897  1.00  0.00     0.049 A 
ATOM     53  C   UNL A   1      42.588  27.337  30.373  1.00  0.00     0.074 A 
ATOM     54  C   UNL A   1      41.747  29.978  36.068  1.00  0.00     0.029 A 
ATOM     55  N   UNL A   1      41.618  29.430  33.916  1.00  0.00    -0.354 N 
ATOM     56  N   UNL A   1      42.346  27.928  31.518  1.00  0.00    -0.248 NA
ATOM     57  C   UNL A   1      43.749  26.434  30.403  1.00  0.00     0.031 C 
ATOM     58  C   UNL A   1      42.769  29.069  35.782  1.00  0.00     0.029 A 
ATOM     59  C   UNL A   1      42.672  28.704  34.449  1.00  0.00     0.049 A 
ATOM     60  H   UNL A   1      41.316  29.383  32.979  1.00  0.00     0.167 HD
ATOM     61  C   UNL A   1      43.302  27.451  32.407  1.00  0.00     0.074 A 
ATOM     62  C   UNL A   1      44.121  26.510  31.673  1.00  0.00     0.031 C 
ATOM     63  C   UNL A   1      43.482  27.765  33.714  1.00  0.00     0.037 A 
BRANCH  50  64
ATOM     64  C   UNL A   1      39.494  31.959  35.853  1.00  0.00     0.064 A 
ATOM     65  C   UNL A   1      40.127  33.174  36.160  1.00  0.00     0.173 A 
ATOM     66  C   UNL A   1      38.477  31.514  36.710  1.00  0.00     0.173 A 
ATOM     67  F   UNL A   1      41.108  33.642  35.375  1.00  0.00    -0.203 F 
ATOM     68  C   UNL A   1      39.771  33.901  37.293  1.00  0.00     0.198 A 
ATOM     69  C   UNL A   1      38.103  32.259  37.825  1.00  0.00     0.198 A 
ATOM     70  F   UNL A   1      37.831  30.367  36.453  1.00  0.00    -0.203 F 
ATOM     71  F   UNL A   1      40.416  35.039  37.585  1.00  0.00    -0.200 F 
ATOM     72  C   UNL A   1      38.758  33.445  38.122  1.00  0.00     0.200 A 
ATOM     73  F   UNL A   1      37.106  31.831  38.613  1.00  0.00    -0.200 F 
ATOM     74  F   UNL A   1      38.411  34.151  39.207  1.00  0.00    -0.200 F 
ENDBRANCH  50  64
BRANCH  51  75
ATOM     75  C   UNL A   1      42.273  26.665  27.878  1.00  0.00     0.064 A 
ATOM     76  C   UNL A   1      43.237  27.154  26.984  1.00  0.00     0.173 A 
ATOM     77  C   UNL A   1      41.719  25.406  27.613  1.00  0.00     0.173 A 
ATOM     78  F   UNL A   1      43.805  28.350  27.197  1.00  0.00    -0.203 F 
ATOM     79  C   UNL A   1      43.610  26.425  25.857  1.00  0.00     0.198 A 
ATOM     80  C   UNL A   1      42.114  24.664  26.501  1.00  0.00     0.198 A 
ATOM     81  F   UNL A   1      40.817  24.880  28.456  1.00  0.00    -0.203 F 
ATOM     82  F   UNL A   1      44.510  26.930  25.002  1.00  0.00    -0.200 F 
ATOM     83  C   UNL A   1      43.052  25.179  25.618  1.00  0.00     0.200 A 
ATOM     84  F   UNL A   1      41.595  23.447  26.291  1.00  0.00    -0.200 F 
ATOM     85  F   UNL A   1      43.422  24.471  24.542  1.00  0.00    -0.200 F 
ENDBRANCH  51  75
BRANCH  63  86
ATOM     86  C   UNL A   1      44.589  27.075  34.459  1.00  0.00     0.064 A 
ATOM     87  C   UNL A   1      44.353  25.855  35.114  1.00  0.00     0.173 A 
ATOM     88  C   UNL A   1      45.860  27.653  34.593  1.00  0.00     0.173 A 
ATOM     89  F   UNL A   1      43.152  25.264  35.029  1.00  0.00    -0.203 F 
ATOM     90  C   UNL A   1      45.341  25.250  35.886  1.00  0.00     0.198 A 
ATOM     91  C   UNL A   1      46.858  27.028  35.339  1.00  0.00     0.198 A 
ATOM     92  F   UNL A   1      46.142  28.813  33.981  1.00  0.00    -0.203 F 
ATOM     93  F   UNL A   1      45.078  24.106  36.532  1.00  0.00    -0.200 F 
ATOM     94  C   UNL A   1      46.595  25.833  35.993  1.00  0.00     0.200 A 
ATOM     95  F   UNL A   1      48.075  27.581  35.422  1.00  0.00    -0.200 F 
ATOM     96  F   UNL A   1      47.550  25.244  36.725  1.00  0.00    -0.200 F 
ENDBRANCH  63  86
ENDBRANCH  37  38
ENDBRANCH  30  32
ENDBRANCH  29  30
ENDBRANCH  28  29
ENDBRANCH  27  28
ENDBRANCH  26  27
ENDBRANCH  25  26
ENDBRANCH   1  25
TORSDOF 19
ENDMDL
MODEL 2
REMARK VINA RESULT:     -11.0      4.216     10.020
REMARK SMILES Cc1cc(C)cc(-c2ccc([C@@H](C)C(=O)OCCOCCOCCOC(=O)c3ccc(-c4c5nc(c(-c6c(F)c(F)c(F)c(F)c6F)c6ccc([nH]6)c(-c6c(F)c(F)c(F)c(F)c6F)c6nc(c(-c7c(F)c(F)c(F)c(F)c7F)c7ccc4[nH]7)C=C6)C=C5)cc3)cc2F)c1
REMARK SMILES IDX 20 1 19 2 18 3 17 4 16 5 14 6 15 7 12 8 13 9 11 10 8 11 9 12
REMARK SMILES IDX 92 13 10 14 91 15 93 16 7 17 1 18 2 19 3 20 94 21 4 22 5 23
REMARK SMILES IDX 6 24 21 25 22 26 23 27 24 28 25 29 26 30 27 31 28 32 29 33
REMARK SMILES IDX 90 34 30 35 89 36 31 37 32 38 33 39 83 40 34 41 88 42 82 43
REMARK SMILES IDX 84 44 35 45 87 46 81 47 80 48 36 50 68 51 48 52 67 53 49 54
REMARK SMILES IDX 52 55 66 56 85 57 50 58 51 59 65 61 86 62 53 63 37 64 38 65
REMARK SMILES IDX 46 66 39 67 40 68 44 69 47 70 41 71 42 72 45 73 43 74 69 75
REMARK SMILES IDX 70 76 78 77 71 78 72 79 76 80 79 81 73 82 74 83 77 84 75 85
REMARK SMILES IDX 54 86 55 87 63 88 56 89 57 90 61 91 64 92 58 93 59 94 62 95
REMARK SMILES IDX 60 96
REMARK H PARENT 84 49 52 60
REMARK Flexibility Score: inf
ROOT
ATOM      1  C   UNL A   1      35.548  23.583  24.109  1.00  0.00     0.188 C 
ENDROOT
BRANCH   1   2
ATOM      2  O   UNL A   1      34.993  24.046  22.883  1.00  0.00    -0.376 OA
BRANCH   2   3
ATOM      3  C   UNL A   1      33.768  23.492  22.417  1.00  0.00     0.202 C 
BRANCH   3   4
ATOM      4  C   UNL A   1      32.537  24.409  22.364  1.00  0.00     0.261 C 
BRANCH   4   5
ATOM      5  O   UNL A   1      32.002  24.809  23.646  1.00  0.00    -0.463 OA
BRANCH   5   6
ATOM      6  C   UNL A   1      30.651  24.893  23.736  1.00  0.00     0.313 C 
ATOM      7  O   UNL A   1      29.888  24.121  23.159  1.00  0.00    -0.252 OA
BRANCH   6   8
ATOM      8  C   UNL A   1      30.094  26.011  24.622  1.00  0.00     0.126 C 
ATOM      9  C   UNL A   1      28.961  26.709  23.873  1.00  0.00     0.025 C 
BRANCH   8  10
ATOM     10  C   UNL A   1      31.010  27.042  25.278  1.00  0.00    -0.031 A 
ATOM     11  C   UNL A   1      32.820  28.971  26.393  1.00  0.00     0.017 A 
ATOM     12  C   UNL A   1      32.099  28.076  27.205  1.00  0.00     0.012 A 
ATOM     13  C   UNL A   1      32.607  28.884  25.015  1.00  0.00     0.131 A 
ATOM     14  C   UNL A   1      31.215  27.124  26.661  1.00  0.00     0.005 A 
ATOM     15  C   UNL A   1      31.732  27.937  24.463  1.00  0.00     0.044 A 
ATOM     16  F   UNL A   1      33.258  29.702  24.172  1.00  0.00    -0.206 F 
BRANCH  11  17
ATOM     17  C   UNL A   1      33.795  29.913  26.980  1.00  0.00    -0.015 A 
ATOM     18  C   UNL A   1      33.975  33.430  28.493  1.00  0.00     0.044 C 
ATOM     19  C   UNL A   1      34.367  32.068  27.997  1.00  0.00    -0.050 A 
ATOM     20  C   UNL A   1      35.704  31.662  28.103  1.00  0.00     0.006 A 
ATOM     21  C   UNL A   1      33.424  31.192  27.432  1.00  0.00     0.012 A 
ATOM     22  C   UNL A   1      36.105  30.401  27.653  1.00  0.00    -0.050 A 
ATOM     23  C   UNL A   1      37.542  29.987  27.773  1.00  0.00     0.044 C 
ATOM     24  C   UNL A   1      35.148  29.540  27.099  1.00  0.00     0.012 A 
ENDBRANCH  11  17
ENDBRANCH   8  10
ENDBRANCH   6   8
ENDBRANCH   5   6
ENDBRANCH   4   5
ENDBRANCH   3   4
ENDBRANCH   2   3
ENDBRANCH   1   2
BRANCH   1  25
ATOM     25  C   UNL A   1      34.816  22.501  24.916  1.00  0.00     0.188 C 
BRANCH  25  26
ATOM     26  O   UNL A   1      35.154  21.177  24.559  1.00  0.00    -0.376 OA
BRANCH  26  27
ATOM     27  C   UNL A   1      36.091  20.522  25.393  1.00  0.00     0.202 C 
BRANCH  27  28
ATOM     28  C   UNL A   1      37.530  20.579  24.864  1.00  0.00     0.261 C 
BRANCH  28  29
ATOM     29  O   UNL A   1      38.320  21.683  25.349  1.00  0.00    -0.460 OA
BRANCH  29  30
ATOM     30  C   UNL A   1      39.363  21.378  26.156  1.00  0.00     0.338 C 
ATOM     31  O   UNL A   1      39.939  20.311  26.237  1.00  0.00    -0.246 OA
BRANCH  30  32
ATOM     32  C   UNL A   1      39.838  22.635  26.784  1.00  0.00     0.060 A 
ATOM     33  C   UNL A   1      39.171  23.833  26.491  1.00  0.00     0.016 A 
ATOM     34  C   UNL A   1      40.936  22.635  27.647  1.00  0.00     0.016 A 
ATOM     35  C   UNL A   1      39.626  25.039  27.031  1.00  0.00     0.010 A 
ATOM     36  C   UNL A   1      41.403  23.847  28.170  1.00  0.00     0.010 A 
ATOM     37  C   UNL A   1      40.772  25.059  27.838  1.00  0.00    -0.014 A 
BRANCH  37  38
ATOM     38  C   UNL A   1      41.417  26.354  28.177  1.00  0.00     0.031 A 
ATOM     39  C   UNL A   1      42.806  26.620  27.663  1.00  0.00     0.074 A 
ATOM     40  C   UNL A   1      40.783  27.291  28.904  1.00  0.00     0.049 A 
ATOM     41  N   UNL A   1      43.585  27.655  27.862  1.00  0.00    -0.248 NA
ATOM     42  C   UNL A   1      43.398  25.578  26.808  1.00  0.00     0.031 C 
ATOM     43  C   UNL A   1      39.425  27.179  29.426  1.00  0.00     0.029 A 
ATOM     44  N   UNL A   1      41.210  28.526  29.333  1.00  0.00    -0.354 N 
ATOM     45  C   UNL A   1      44.754  27.386  27.161  1.00  0.00     0.074 A 
ATOM     46  C   UNL A   1      44.599  26.080  26.560  1.00  0.00     0.031 C 
ATOM     47  C   UNL A   1      39.128  28.298  30.110  1.00  0.00     0.029 A 
ATOM     48  C   UNL A   1      40.287  29.192  30.102  1.00  0.00     0.049 A 
ATOM     49  H   UNL A   1      42.093  28.899  29.108  1.00  0.00     0.167 HD
ATOM     50  C   UNL A   1      45.853  28.164  27.021  1.00  0.00     0.037 A 
ATOM     51  C   UNL A   1      40.375  30.377  30.740  1.00  0.00     0.037 A 
ATOM     52  C   UNL A   1      46.008  29.467  27.613  1.00  0.00     0.049 A 
ATOM     53  C   UNL A   1      41.639  31.193  30.631  1.00  0.00     0.074 A 
ATOM     54  C   UNL A   1      47.082  30.334  27.510  1.00  0.00     0.029 A 
ATOM     55  N   UNL A   1      45.068  30.086  28.420  1.00  0.00    -0.354 N 
ATOM     56  N   UNL A   1      42.734  30.939  29.957  1.00  0.00    -0.248 NA
ATOM     57  C   UNL A   1      41.678  32.464  31.372  1.00  0.00     0.031 C 
ATOM     58  C   UNL A   1      46.816  31.453  28.303  1.00  0.00     0.029 A 
ATOM     59  C   UNL A   1      45.550  31.314  28.847  1.00  0.00     0.049 A 
ATOM     60  H   UNL A   1      44.188  29.711  28.657  1.00  0.00     0.167 HD
ATOM     61  C   UNL A   1      43.578  32.023  30.169  1.00  0.00     0.074 A 
ATOM     62  C   UNL A   1      42.863  32.946  31.025  1.00  0.00     0.031 C 
ATOM     63  C   UNL A   1      44.831  32.232  29.695  1.00  0.00     0.037 A 
BRANCH  50  64
ATOM     64  C   UNL A   1      46.990  27.626  26.204  1.00  0.00     0.064 A 
ATOM     65  C   UNL A   1      47.021  27.824  24.814  1.00  0.00     0.173 A 
ATOM     66  C   UNL A   1      48.011  26.856  26.780  1.00  0.00     0.173 A 
ATOM     67  F   UNL A   1      46.067  28.550  24.214  1.00  0.00    -0.203 F 
ATOM     68  C   UNL A   1      48.020  27.253  24.031  1.00  0.00     0.198 A 
ATOM     69  C   UNL A   1      49.026  26.312  25.997  1.00  0.00     0.198 A 
ATOM     70  F   UNL A   1      48.036  26.650  28.105  1.00  0.00    -0.203 F 
ATOM     71  F   UNL A   1      48.006  27.425  22.702  1.00  0.00    -0.200 F 
ATOM     72  C   UNL A   1      49.023  26.500  24.623  1.00  0.00     0.200 A 
ATOM     73  F   UNL A   1      50.009  25.606  26.573  1.00  0.00    -0.200 F 
ATOM     74  F   UNL A   1      49.989  25.959  23.868  1.00  0.00    -0.200 F 
ENDBRANCH  50  64
BRANCH  51  75
ATOM     75  C   UNL A   1      39.222  30.867  31.542  1.00  0.00     0.064 A 
ATOM     76  C   UNL A   1      38.289  31.765  31.003  1.00  0.00     0.173 A 
ATOM     77  C   UNL A   1      39.034  30.451  32.867  1.00  0.00     0.173 A 
ATOM     78  F   UNL A   1      38.417  32.188  29.737  1.00  0.00    -0.203 F 
ATOM     79  C   UNL A   1      37.227  32.247  31.767  1.00  0.00     0.198 A 
ATOM     80  C   UNL A   1      37.956  30.911  33.621  1.00  0.00     0.198 A 
ATOM     81  F   UNL A   1      39.881  29.568  33.418  1.00  0.00    -0.203 F 
ATOM     82  F   UNL A   1      36.369  33.128  31.236  1.00  0.00    -0.200 F 
ATOM     83  C   UNL A   1      37.060  31.817  33.073  1.00  0.00     0.200 A 
ATOM     84  F   UNL A   1      37.779  30.468  34.873  1.00  0.00    -0.200 F 
ATOM     85  F   UNL A   1      36.030  32.268  33.803  1.00  0.00    -0.200 F 
ENDBRANCH  51  75
BRANCH  63  86
ATOM     86  C   UNL A   1      45.518  33.517  30.062  1.00  0.00     0.064 A 
ATOM     87  C   UNL A   1      45.457  34.626  29.202  1.00  0.00     0.173 A 
ATOM     88  C   UNL A   1      46.298  33.632  31.222  1.00  0.00     0.173 A 
ATOM     89  F   UNL A   1      44.735  34.567  28.073  1.00  0.00    -0.203 F 
ATOM     90  C   UNL A   1      46.165  35.793  29.481  1.00  0.00     0.198 A 
ATOM     91  C   UNL A   1      46.978  34.813  31.515  1.00  0.00     0.198 A 
ATOM     92  F   UNL A   1      46.383  32.607  32.082  1.00  0.00    -0.203 F 
ATOM     93  F   UNL A   1      46.121  36.822  28.624  1.00  0.00    -0.200 F 
ATOM     94  C   UNL A   1      46.919  35.888  30.640  1.00  0.00     0.200 A 
ATOM     95  F   UNL A   1      47.688  34.911  32.647  1.00  0.00    -0.200 F 
ATOM     96  F   UNL A   1      47.589  37.015  30.915  1.00  0.00    -0.200 F 
ENDBRANCH  63  86
ENDBRANCH  37  38
ENDBRANCH  30  32
ENDBRANCH  29  30
ENDBRANCH  28  29
ENDBRANCH  27  28
ENDBRANCH  26  27
ENDBRANCH  25  26
ENDBRANCH   1  25
TORSDOF 19
ENDMDL
MODEL 3
REMARK VINA RESULT:     -10.9      4.902      8.982
REMARK SMILES Cc1cc(C)cc(-c2ccc([C@@H](C)C(=O)OCCOCCOCCOC(=O)c3ccc(-c4c5nc(c(-c6c(F)c(F)c(F)c(F)c6F)c6ccc([nH]6)c(-c6c(F)c(F)c(F)c(F)c6F)c6nc(c(-c7c(F)c(F)c(F)c(F)c7F)c7ccc4[nH]7)C=C6)C=C5)cc3)cc2F)c1
REMARK SMILES IDX 20 1 19 2 18 3 17 4 16 5 14 6 15 7 12 8 13 9 11 10 8 11 9 12
REMARK SMILES IDX 92 13 10 14 91 15 93 16 7 17 1 18 2 19 3 20 94 21 4 22 5 23
REMARK SMILES IDX 6 24 21 25 22 26 23 27 24 28 25 29 26 30 27 31 28 32 29 33
REMARK SMILES IDX 90 34 30 35 89 36 31 37 32 38 33 39 83 40 34 41 88 42 82 43
REMARK SMILES IDX 84 44 35 45 87 46 81 47 80 48 36 50 68 51 48 52 67 53 49 54
REMARK SMILES IDX 52 55 66 56 85 57 50 58 51 59 65 61 86 62 53 63 37 64 38 65
REMARK SMILES IDX 46 66 39 67 40 68 44 69 47 70 41 71 42 72 45 73 43 74 69 75
REMARK SMILES IDX 70 76 78 77 71 78 72 79 76 80 79 81 73 82 74 83 77 84 75 85
REMARK SMILES IDX 54 86 55 87 63 88 56 89 57 90 61 91 64 92 58 93 59 94 62 95
REMARK SMILES IDX 60 96
REMARK H PARENT 84 49 52 60
REMARK Flexibility Score: inf
ROOT
ATOM      1  C   UNL A   1      35.925  23.060  24.957  1.00  0.00     0.188 C 
ENDROOT
BRANCH   1   2
ATOM      2  O   UNL A   1      35.392  23.752  26.080  1.00  0.00    -0.376 OA
BRANCH   2   3
ATOM      3  C   UNL A   1      34.425  23.108  26.902  1.00  0.00     0.202 C 
BRANCH   3   4
ATOM      4  C   UNL A   1      34.451  21.574  26.977  1.00  0.00     0.261 C 
BRANCH   4   5
ATOM      5  O   UNL A   1      33.270  20.906  26.478  1.00  0.00    -0.463 OA
BRANCH   5   6
ATOM      6  C   UNL A   1      33.271  20.587  25.159  1.00  0.00     0.313 C 
ATOM      7  O   UNL A   1      34.103  19.839  24.647  1.00  0.00    -0.252 OA
BRANCH   6   8
ATOM      8  C   UNL A   1      32.155  21.198  24.308  1.00  0.00     0.126 C 
ATOM      9  C   UNL A   1      32.259  20.639  22.890  1.00  0.00     0.025 C 
BRANCH   8  10
ATOM     10  C   UNL A   1      31.916  22.705  24.267  1.00  0.00    -0.031 A 
ATOM     11  C   UNL A   1      31.324  25.515  24.229  1.00  0.00     0.017 A 
ATOM     12  C   UNL A   1      32.252  24.941  23.339  1.00  0.00     0.012 A 
ATOM     13  C   UNL A   1      30.709  24.653  25.140  1.00  0.00     0.131 A 
ATOM     14  C   UNL A   1      32.539  23.563  23.351  1.00  0.00     0.005 A 
ATOM     15  C   UNL A   1      30.985  23.279  25.158  1.00  0.00     0.044 A 
ATOM     16  F   UNL A   1      29.811  25.122  26.022  1.00  0.00    -0.206 F 
BRANCH  11  17
ATOM     17  C   UNL A   1      30.984  26.950  24.152  1.00  0.00    -0.015 A 
ATOM     18  C   UNL A   1      28.631  29.343  22.300  1.00  0.00     0.044 C 
ATOM     19  C   UNL A   1      29.687  28.813  23.226  1.00  0.00    -0.050 A 
ATOM     20  C   UNL A   1      30.370  29.704  24.064  1.00  0.00     0.006 A 
ATOM     21  C   UNL A   1      30.002  27.443  23.274  1.00  0.00     0.012 A 
ATOM     22  C   UNL A   1      31.358  29.245  24.940  1.00  0.00    -0.050 A 
ATOM     23  C   UNL A   1      32.080  30.216  25.826  1.00  0.00     0.044 C 
ATOM     24  C   UNL A   1      31.653  27.875  24.977  1.00  0.00     0.012 A 
ENDBRANCH  11  17
ENDBRANCH   8  10
ENDBRANCH   6   8
ENDBRANCH   5   6
ENDBRANCH   4   5
ENDBRANCH   3   4
ENDBRANCH   2   3
ENDBRANCH   1   2
BRANCH   1  25
ATOM     25  C   UNL A   1      37.235  22.272  25.099  1.00  0.00     0.188 C 
BRANCH  25  26
ATOM     26  O   UNL A   1      37.228  21.009  24.468  1.00  0.00    -0.376 OA
BRANCH  26  27
ATOM     27  C   UNL A   1      38.192  20.076  24.918  1.00  0.00     0.202 C 
BRANCH  27  28
ATOM     28  C   UNL A   1      39.372  20.721  25.656  1.00  0.00     0.261 C 
BRANCH  28  29
ATOM     29  O   UNL A   1      40.150  19.824  26.474  1.00  0.00    -0.460 OA
BRANCH  29  30
ATOM     30  C   UNL A   1      41.454  19.674  26.144  1.00  0.00     0.338 C 
ATOM     31  O   UNL A   1      41.945  18.777  25.488  1.00  0.00    -0.246 OA
BRANCH  30  32
ATOM     32  C   UNL A   1      42.171  20.911  26.538  1.00  0.00     0.060 A 
ATOM     33  C   UNL A   1      42.241  21.249  27.897  1.00  0.00     0.016 A 
ATOM     34  C   UNL A   1      42.761  21.735  25.578  1.00  0.00     0.016 A 
ATOM     35  C   UNL A   1      42.868  22.434  28.294  1.00  0.00     0.010 A 
ATOM     36  C   UNL A   1      43.371  22.931  25.975  1.00  0.00     0.010 A 
ATOM     37  C   UNL A   1      43.398  23.304  27.331  1.00  0.00    -0.014 A 
BRANCH  37  38
ATOM     38  C   UNL A   1      43.806  24.679  27.719  1.00  0.00     0.031 A 
ATOM     39  C   UNL A   1      42.732  25.685  28.036  1.00  0.00     0.074 A 
ATOM     40  C   UNL A   1      45.100  25.031  27.816  1.00  0.00     0.049 A 
ATOM     41  N   UNL A   1      42.843  26.950  28.356  1.00  0.00    -0.248 NA
ATOM     42  C   UNL A   1      41.344  25.197  27.984  1.00  0.00     0.031 C 
ATOM     43  C   UNL A   1      46.236  24.146  27.579  1.00  0.00     0.029 A 
ATOM     44  N   UNL A   1      45.673  26.240  28.137  1.00  0.00    -0.354 N 
ATOM     45  C   UNL A   1      41.544  27.407  28.541  1.00  0.00     0.074 A 
ATOM     46  C   UNL A   1      40.659  26.296  28.264  1.00  0.00     0.031 C 
ATOM     47  C   UNL A   1      47.374  24.841  27.759  1.00  0.00     0.029 A 
ATOM     48  C   UNL A   1      47.046  26.228  28.091  1.00  0.00     0.049 A 
ATOM     49  H   UNL A   1      45.149  27.037  28.379  1.00  0.00     0.167 HD
ATOM     50  C   UNL A   1      41.127  28.638  28.918  1.00  0.00     0.037 A 
ATOM     51  C   UNL A   1      47.934  27.227  28.278  1.00  0.00     0.037 A 
ATOM     52  C   UNL A   1      42.004  29.744  29.199  1.00  0.00     0.049 A 
ATOM     53  C   UNL A   1      47.442  28.610  28.625  1.00  0.00     0.074 A 
ATOM     54  C   UNL A   1      41.670  31.024  29.605  1.00  0.00     0.029 A 
ATOM     55  N   UNL A   1      43.386  29.703  29.099  1.00  0.00    -0.354 N 
ATOM     56  N   UNL A   1      46.214  29.031  28.810  1.00  0.00    -0.248 NA
ATOM     57  C   UNL A   1      48.462  29.658  28.790  1.00  0.00     0.031 C 
ATOM     58  C   UNL A   1      42.845  31.774  29.694  1.00  0.00     0.029 A 
ATOM     59  C   UNL A   1      43.917  30.946  29.407  1.00  0.00     0.049 A 
ATOM     60  H   UNL A   1      43.913  28.910  28.845  1.00  0.00     0.167 HD
ATOM     61  C   UNL A   1      46.314  30.377  29.137  1.00  0.00     0.074 A 
ATOM     62  C   UNL A   1      47.724  30.703  29.140  1.00  0.00     0.031 C 
ATOM     63  C   UNL A   1      45.324  31.263  29.413  1.00  0.00     0.037 A 
BRANCH  50  64
ATOM     64  C   UNL A   1      39.650  28.869  29.040  1.00  0.00     0.064 A 
ATOM     65  C   UNL A   1      38.906  29.305  27.931  1.00  0.00     0.173 A 
ATOM     66  C   UNL A   1      38.981  28.731  30.265  1.00  0.00     0.173 A 
ATOM     67  F   UNL A   1      39.499  29.456  26.737  1.00  0.00    -0.203 F 
ATOM     68  C   UNL A   1      37.554  29.612  28.051  1.00  0.00     0.198 A 
ATOM     69  C   UNL A   1      37.621  29.010  30.374  1.00  0.00     0.198 A 
ATOM     70  F   UNL A   1      39.642  28.303  31.351  1.00  0.00    -0.203 F 
ATOM     71  F   UNL A   1      36.875  30.062  26.986  1.00  0.00    -0.200 F 
ATOM     72  C   UNL A   1      36.912  29.461  29.271  1.00  0.00     0.200 A 
ATOM     73  F   UNL A   1      36.995  28.840  31.546  1.00  0.00    -0.200 F 
ATOM     74  F   UNL A   1      35.608  29.749  29.381  1.00  0.00    -0.200 F 
ENDBRANCH  50  64
BRANCH  51  75
ATOM     75  C   UNL A   1      49.389  26.951  28.142  1.00  0.00     0.064 A 
ATOM     76  C   UNL A   1      50.174  26.616  29.257  1.00  0.00     0.173 A 
ATOM     77  C   UNL A   1      50.026  27.023  26.896  1.00  0.00     0.173 A 
ATOM     78  F   UNL A   1      49.613  26.524  30.470  1.00  0.00    -0.203 F 
ATOM     79  C   UNL A   1      51.543  26.388  29.131  1.00  0.00     0.198 A 
ATOM     80  C   UNL A   1      51.389  26.766  26.767  1.00  0.00     0.198 A 
ATOM     81  F   UNL A   1      49.313  27.307  25.796  1.00  0.00    -0.203 F 
ATOM     82  F   UNL A   1      52.274  26.101  30.217  1.00  0.00    -0.200 F 
ATOM     83  C   UNL A   1      52.149  26.460  27.887  1.00  0.00     0.200 A 
ATOM     84  F   UNL A   1      51.966  26.806  25.558  1.00  0.00    -0.200 F 
ATOM     85  F   UNL A   1      53.463  26.226  27.765  1.00  0.00    -0.200 F 
ENDBRANCH  51  75
BRANCH  63  86
ATOM     86  C   UNL A   1      45.714  32.670  29.766  1.00  0.00     0.064 A 
ATOM     87  C   UNL A   1      45.937  33.030  31.105  1.00  0.00     0.173 A 
ATOM     88  C   UNL A   1      45.793  33.680  28.796  1.00  0.00     0.173 A 
ATOM     89  F   UNL A   1      45.863  32.107  32.076  1.00  0.00    -0.203 F 
ATOM     90  C   UNL A   1      46.208  34.349  31.460  1.00  0.00     0.198 A 
ATOM     91  C   UNL A   1      46.097  34.993  29.150  1.00  0.00     0.198 A 
ATOM     92  F   UNL A   1      45.598  33.388  27.501  1.00  0.00    -0.203 F 
ATOM     93  F   UNL A   1      46.378  34.674  32.748  1.00  0.00    -0.200 F 
ATOM     94  C   UNL A   1      46.294  35.328  30.482  1.00  0.00     0.200 A 
ATOM     95  F   UNL A   1      46.203  35.933  28.201  1.00  0.00    -0.200 F 
ATOM     96  F   UNL A   1      46.567  36.596  30.821  1.00  0.00    -0.200 F 
ENDBRANCH  63  86
ENDBRANCH  37  38
ENDBRANCH  30  32
ENDBRANCH  29  30
ENDBRANCH  28  29
ENDBRANCH  27  28
ENDBRANCH  26  27
ENDBRANCH  25  26
ENDBRANCH   1  25
TORSDOF 19
ENDMDL
