MODEL 1
REMARK VINA RESULT:     -11.4      0.000      0.000
REMARK SMILES Cc1c(NCc2ccccn2)cccc1C(=O)N1CCOC[C@@H]1CC(=O)OCCOCCOCCOC(=O)c1ccc(-c2c3nc(c(-c4c(F)c(F)c(F)c(F)c4F)c4ccc([nH]4)c(-c4c(F)c(F)c(F)c(F)c4F)c4nc(c(-c5c(F)c(F)c(F)c(F)c5F)c5ccc2[nH]5)C=C4)C=C3)cc1
REMARK SMILES IDX 29 1 28 2 27 3 25 4 26 5 24 6 23 7 18 8 19 9 20 10 22 11
REMARK SMILES IDX 21 12 16 13 17 14 15 15 1 16 2 17 3 18 12 19 14 20 13 21
REMARK SMILES IDX 4 22 5 24 6 25 7 26 11 27 8 28 10 29 9 30 30 31 31 32 32 33
REMARK SMILES IDX 33 34 34 35 35 36 36 37 37 38 38 39 39 40 40 41 101 42 41 43
REMARK SMILES IDX 100 44 42 45 43 46 44 47 94 48 45 49 99 50 93 51 95 52 46 53
REMARK SMILES IDX 98 54 92 55 91 56 47 58 79 59 59 60 78 61 60 62 63 63 77 64
REMARK SMILES IDX 96 65 61 66 62 67 76 69 97 70 64 71 48 72 49 73 57 74 50 75
REMARK SMILES IDX 51 76 55 77 58 78 52 79 53 80 56 81 54 82 80 83 81 84 89 85
REMARK SMILES IDX 82 86 83 87 87 88 90 89 84 90 85 91 88 92 86 93 65 94 66 95
REMARK SMILES IDX 74 96 67 97 68 98 72 99 75 100 69 101 70 102 73 103 71 104
REMARK H PARENT 4 23 95 57 63 68
REMARK Flexibility Score: inf
ROOT
ATOM      1  C   UNL A   1      39.962  20.908  26.164  1.00  0.00     0.202 C 
ENDROOT
BRANCH   1   2
ATOM      2  C   UNL A   1      38.481  21.027  25.725  1.00  0.00     0.261 C 
BRANCH   2   3
ATOM      3  O   UNL A   1      38.091  22.238  24.998  1.00  0.00    -0.463 OA
BRANCH   3   4
ATOM      4  C   UNL A   1      37.283  23.062  25.742  1.00  0.00     0.308 C 
ATOM      5  O   UNL A   1      37.688  24.144  26.167  1.00  0.00    -0.252 OA
BRANCH   4   6
ATOM      6  C   UNL A   1      35.775  22.732  25.823  1.00  0.00     0.150 C 
BRANCH   6   7
ATOM      7  C   UNL A   1      34.712  21.990  24.998  1.00  0.00     0.122 C 
ATOM      8  N   UNL A   1      33.769  22.781  24.229  1.00  0.00    -0.330 N 
ATOM      9  C   UNL A   1      32.823  21.967  23.461  1.00  0.00     0.148 C 
ATOM     10  C   UNL A   1      32.137  20.939  24.357  1.00  0.00     0.181 C 
ATOM     11  C   UNL A   1      34.026  20.809  25.744  1.00  0.00     0.185 C 
ATOM     12  O   UNL A   1      33.130  20.061  24.902  1.00  0.00    -0.377 OA
BRANCH   8  13
ATOM     13  C   UNL A   1      34.288  23.886  23.573  1.00  0.00     0.254 C 
ATOM     14  O   UNL A   1      35.243  23.801  22.811  1.00  0.00    -0.269 OA
BRANCH  13  15
ATOM     15  C   UNL A   1      33.687  25.203  23.946  1.00  0.00     0.045 A 
ATOM     16  C   UNL A   1      32.465  25.480  21.716  1.00  0.00     0.047 C 
ATOM     17  C   UNL A   1      32.800  25.940  23.116  1.00  0.00    -0.015 A 
ATOM     18  C   UNL A   1      32.178  27.099  23.643  1.00  0.00     0.038 A 
ATOM     19  C   UNL A   1      32.479  27.497  24.955  1.00  0.00     0.026 A 
ATOM     20  C   UNL A   1      33.950  25.623  25.260  1.00  0.00     0.014 A 
ATOM     21  C   UNL A   1      33.334  26.757  25.768  1.00  0.00     0.003 A 
BRANCH  18  22
ATOM     22  N   UNL A   1      31.311  27.852  22.867  1.00  0.00    -0.379 N 
ATOM     23  H   UNL A   1      31.689  28.397  22.139  1.00  0.00     0.160 HD
BRANCH  22  24
ATOM     24  C   UNL A   1      29.870  27.876  23.073  1.00  0.00     0.169 C 
BRANCH  24  25
ATOM     25  C   UNL A   1      29.219  29.204  22.723  1.00  0.00     0.059 A 
ATOM     26  C   UNL A   1      28.224  29.789  23.510  1.00  0.00     0.026 A 
ATOM     27  N   UNL A   1      29.626  29.775  21.560  1.00  0.00    -0.259 NA
ATOM     28  C   UNL A   1      27.650  30.992  23.114  1.00  0.00     0.004 A 
ATOM     29  C   UNL A   1      29.037  30.934  21.189  1.00  0.00     0.111 A 
ATOM     30  C   UNL A   1      28.060  31.577  21.928  1.00  0.00     0.020 A 
ENDBRANCH  24  25
ENDBRANCH  22  24
ENDBRANCH  18  22
ENDBRANCH  13  15
ENDBRANCH   8  13
ENDBRANCH   6   7
ENDBRANCH   4   6
ENDBRANCH   3   4
ENDBRANCH   2   3
ENDBRANCH   1   2
BRANCH   1  31
ATOM     31  O   UNL A   1      40.559  19.605  26.140  1.00  0.00    -0.376 OA
BRANCH  31  32
ATOM     32  C   UNL A   1      41.898  19.471  26.590  1.00  0.00     0.188 C 
BRANCH  32  33
ATOM     33  C   UNL A   1      42.633  18.165  26.284  1.00  0.00     0.188 C 
BRANCH  33  34
ATOM     34  O   UNL A   1      43.999  18.461  26.003  1.00  0.00    -0.376 OA
BRANCH  34  35
ATOM     35  C   UNL A   1      44.284  18.829  24.656  1.00  0.00     0.202 C 
BRANCH  35  36
ATOM     36  C   UNL A   1      44.982  20.199  24.516  1.00  0.00     0.261 C 
BRANCH  36  37
ATOM     37  O   UNL A   1      44.393  21.124  25.461  1.00  0.00    -0.460 OA
BRANCH  37  38
ATOM     38  C   UNL A   1      43.953  22.325  24.970  1.00  0.00     0.338 C 
ATOM     39  O   UNL A   1      43.910  22.633  23.801  1.00  0.00    -0.246 OA
BRANCH  38  40
ATOM     40  C   UNL A   1      43.707  23.266  26.118  1.00  0.00     0.060 A 
ATOM     41  C   UNL A   1      42.643  23.199  27.039  1.00  0.00     0.016 A 
ATOM     42  C   UNL A   1      44.477  24.401  26.155  1.00  0.00     0.016 A 
ATOM     43  C   UNL A   1      42.358  24.281  27.958  1.00  0.00     0.010 A 
ATOM     44  C   UNL A   1      44.111  25.450  26.974  1.00  0.00     0.010 A 
ATOM     45  C   UNL A   1      43.097  25.462  27.922  1.00  0.00    -0.014 A 
BRANCH  45  46
ATOM     46  C   UNL A   1      42.868  26.870  28.426  1.00  0.00     0.031 A 
ATOM     47  C   UNL A   1      41.886  27.907  27.890  1.00  0.00     0.074 A 
ATOM     48  C   UNL A   1      43.027  26.897  29.780  1.00  0.00     0.049 A 
ATOM     49  N   UNL A   1      41.302  28.763  28.667  1.00  0.00    -0.248 NA
ATOM     50  C   UNL A   1      41.415  28.094  26.514  1.00  0.00     0.031 C 
ATOM     51  C   UNL A   1      42.313  27.634  30.825  1.00  0.00     0.029 A 
ATOM     52  N   UNL A   1      43.982  26.196  30.513  1.00  0.00    -0.354 N 
ATOM     53  C   UNL A   1      40.210  29.331  28.054  1.00  0.00     0.074 A 
ATOM     54  C   UNL A   1      40.351  28.915  26.680  1.00  0.00     0.031 C 
ATOM     55  C   UNL A   1      43.041  27.636  31.948  1.00  0.00     0.029 A 
ATOM     56  C   UNL A   1      44.302  27.025  31.616  1.00  0.00     0.049 A 
ATOM     57  H   UNL A   1      44.357  25.310  30.306  1.00  0.00     0.167 HD
ATOM     58  C   UNL A   1      39.324  30.028  28.843  1.00  0.00     0.037 A 
ATOM     59  C   UNL A   1      45.517  27.646  31.545  1.00  0.00     0.037 A 
ATOM     60  C   UNL A   1      40.009  30.492  30.051  1.00  0.00     0.049 A 
ATOM     61  C   UNL A   1      45.351  29.114  31.162  1.00  0.00     0.074 A 
ATOM     62  C   UNL A   1      39.999  30.330  31.423  1.00  0.00     0.029 A 
ATOM     63  N   UNL A   1      41.109  31.268  29.790  1.00  0.00    -0.354 N 
ATOM     64  N   UNL A   1      44.284  29.835  31.413  1.00  0.00    -0.248 NA
ATOM     65  C   UNL A   1      46.333  29.856  30.373  1.00  0.00     0.031 C 
ATOM     66  C   UNL A   1      41.252  30.862  31.919  1.00  0.00     0.029 A 
ATOM     67  C   UNL A   1      41.966  31.383  30.851  1.00  0.00     0.049 A 
ATOM     68  H   UNL A   1      41.268  31.701  28.920  1.00  0.00     0.167 HD
ATOM     69  C   UNL A   1      44.345  31.006  30.699  1.00  0.00     0.074 A 
ATOM     70  C   UNL A   1      45.678  31.000  30.117  1.00  0.00     0.031 C 
ATOM     71  C   UNL A   1      43.300  31.874  30.523  1.00  0.00     0.037 A 
BRANCH  58  72
ATOM     72  C   UNL A   1      37.883  30.416  28.562  1.00  0.00     0.064 A 
ATOM     73  C   UNL A   1      37.443  31.751  28.766  1.00  0.00     0.173 A 
ATOM     74  C   UNL A   1      36.864  29.508  28.222  1.00  0.00     0.173 A 
ATOM     75  F   UNL A   1      38.302  32.729  29.092  1.00  0.00    -0.203 F 
ATOM     76  C   UNL A   1      36.103  32.138  28.649  1.00  0.00     0.198 A 
ATOM     77  C   UNL A   1      35.523  29.904  28.084  1.00  0.00     0.198 A 
ATOM     78  F   UNL A   1      37.126  28.208  28.031  1.00  0.00    -0.203 F 
ATOM     79  F   UNL A   1      35.752  33.412  28.882  1.00  0.00    -0.200 F 
ATOM     80  C   UNL A   1      35.142  31.215  28.304  1.00  0.00     0.200 A 
ATOM     81  F   UNL A   1      34.591  29.001  27.742  1.00  0.00    -0.200 F 
ATOM     82  F   UNL A   1      33.858  31.585  28.187  1.00  0.00    -0.200 F 
ENDBRANCH  58  72
BRANCH  59  83
ATOM     83  C   UNL A   1      46.507  26.599  31.086  1.00  0.00     0.064 A 
ATOM     84  C   UNL A   1      46.935  26.749  29.736  1.00  0.00     0.173 A 
ATOM     85  C   UNL A   1      47.408  25.968  31.961  1.00  0.00     0.173 A 
ATOM     86  F   UNL A   1      46.144  27.387  28.856  1.00  0.00    -0.203 F 
ATOM     87  C   UNL A   1      48.250  26.491  29.350  1.00  0.00     0.198 A 
ATOM     88  C   UNL A   1      48.705  25.639  31.539  1.00  0.00     0.198 A 
ATOM     89  F   UNL A   1      47.120  25.832  33.262  1.00  0.00    -0.203 F 
ATOM     90  F   UNL A   1      48.682  26.885  28.142  1.00  0.00    -0.200 F 
ATOM     91  C   UNL A   1      49.141  25.957  30.260  1.00  0.00     0.200 A 
ATOM     92  F   UNL A   1      49.580  25.125  32.417  1.00  0.00    -0.200 F 
ATOM     93  F   UNL A   1      50.433  25.809  29.928  1.00  0.00    -0.200 F 
ENDBRANCH  59  83
BRANCH  71  94
ATOM     94  C   UNL A   1      43.497  33.216  29.834  1.00  0.00     0.064 A 
ATOM     95  C   UNL A   1      43.696  33.264  28.444  1.00  0.00     0.173 A 
ATOM     96  C   UNL A   1      43.585  34.465  30.495  1.00  0.00     0.173 A 
ATOM     97  F   UNL A   1      43.726  32.134  27.721  1.00  0.00    -0.203 F 
ATOM     98  C   UNL A   1      43.866  34.468  27.759  1.00  0.00     0.198 A 
ATOM     99  C   UNL A   1      43.817  35.661  29.817  1.00  0.00     0.198 A 
ATOM    100  F   UNL A   1      43.412  34.596  31.817  1.00  0.00    -0.203 F 
ATOM    101  F   UNL A   1      43.959  34.461  26.423  1.00  0.00    -0.200 F 
ATOM    102  C   UNL A   1      43.930  35.666  28.445  1.00  0.00     0.200 A 
ATOM    103  F   UNL A   1      43.909  36.806  30.507  1.00  0.00    -0.200 F 
ATOM    104  F   UNL A   1      44.095  36.821  27.788  1.00  0.00    -0.200 F 
ENDBRANCH  71  94
ENDBRANCH  45  46
ENDBRANCH  38  40
ENDBRANCH  37  38
ENDBRANCH  36  37
ENDBRANCH  35  36
ENDBRANCH  34  35
ENDBRANCH  33  34
ENDBRANCH  32  33
ENDBRANCH  31  32
ENDBRANCH   1  31
TORSDOF 23
ENDMDL
MODEL 2
REMARK VINA RESULT:     -10.9      2.696      5.511
REMARK SMILES Cc1c(NCc2ccccn2)cccc1C(=O)N1CCOC[C@@H]1CC(=O)OCCOCCOCCOC(=O)c1ccc(-c2c3nc(c(-c4c(F)c(F)c(F)c(F)c4F)c4ccc([nH]4)c(-c4c(F)c(F)c(F)c(F)c4F)c4nc(c(-c5c(F)c(F)c(F)c(F)c5F)c5ccc2[nH]5)C=C4)C=C3)cc1
REMARK SMILES IDX 29 1 28 2 27 3 25 4 26 5 24 6 23 7 18 8 19 9 20 10 22 11
REMARK SMILES IDX 21 12 16 13 17 14 15 15 1 16 2 17 3 18 12 19 14 20 13 21
REMARK SMILES IDX 4 22 5 24 6 25 7 26 11 27 8 28 10 29 9 30 30 31 31 32 32 33
REMARK SMILES IDX 33 34 34 35 35 36 36 37 37 38 38 39 39 40 40 41 101 42 41 43
REMARK SMILES IDX 100 44 42 45 43 46 44 47 94 48 45 49 99 50 93 51 95 52 46 53
REMARK SMILES IDX 98 54 92 55 91 56 47 58 79 59 59 60 78 61 60 62 63 63 77 64
REMARK SMILES IDX 96 65 61 66 62 67 76 69 97 70 64 71 48 72 49 73 57 74 50 75
REMARK SMILES IDX 51 76 55 77 58 78 52 79 53 80 56 81 54 82 80 83 81 84 89 85
REMARK SMILES IDX 82 86 83 87 87 88 90 89 84 90 85 91 88 92 86 93 65 94 66 95
REMARK SMILES IDX 74 96 67 97 68 98 72 99 75 100 69 101 70 102 73 103 71 104
REMARK H PARENT 4 23 95 57 63 68
REMARK Flexibility Score: inf
ROOT
ATOM      1  C   UNL A   1      35.924  23.350  23.553  1.00  0.00     0.202 C 
ENDROOT
BRANCH   1   2
ATOM      2  C   UNL A   1      34.734  24.339  23.495  1.00  0.00     0.261 C 
BRANCH   2   3
ATOM      3  O   UNL A   1      33.984  24.417  22.238  1.00  0.00    -0.463 OA
BRANCH   3   4
ATOM      4  C   UNL A   1      33.397  25.643  22.049  1.00  0.00     0.308 C 
ATOM      5  O   UNL A   1      33.401  26.193  20.947  1.00  0.00    -0.252 OA
BRANCH   4   6
ATOM      6  C   UNL A   1      32.505  26.212  23.176  1.00  0.00     0.150 C 
BRANCH   6   7
ATOM      7  C   UNL A   1      32.667  26.798  24.588  1.00  0.00     0.122 C 
ATOM      8  N   UNL A   1      31.515  26.782  25.470  1.00  0.00    -0.330 N 
ATOM      9  C   UNL A   1      31.795  27.340  26.796  1.00  0.00     0.148 C 
ATOM     10  C   UNL A   1      32.432  28.722  26.682  1.00  0.00     0.181 C 
ATOM     11  C   UNL A   1      33.437  28.149  24.640  1.00  0.00     0.185 C 
ATOM     12  O   UNL A   1      33.678  28.604  25.984  1.00  0.00    -0.377 OA
BRANCH   8  13
ATOM     13  C   UNL A   1      30.740  25.634  25.447  1.00  0.00     0.254 C 
ATOM     14  O   UNL A   1      29.525  25.672  25.295  1.00  0.00    -0.269 OA
BRANCH  13  15
ATOM     15  C   UNL A   1      31.462  24.358  25.739  1.00  0.00     0.045 A 
ATOM     16  C   UNL A   1      30.934  23.328  23.458  1.00  0.00     0.047 C 
ATOM     17  C   UNL A   1      31.604  23.290  24.812  1.00  0.00    -0.015 A 
ATOM     18  C   UNL A   1      32.440  22.199  25.153  1.00  0.00     0.038 A 
ATOM     19  C   UNL A   1      33.076  22.193  26.404  1.00  0.00     0.026 A 
ATOM     20  C   UNL A   1      32.129  24.325  26.974  1.00  0.00     0.014 A 
ATOM     21  C   UNL A   1      32.948  23.252  27.297  1.00  0.00     0.003 A 
BRANCH  18  22
ATOM     22  N   UNL A   1      32.602  21.132  24.282  1.00  0.00    -0.379 N 
ATOM     23  H   UNL A   1      33.153  21.266  23.477  1.00  0.00     0.160 HD
BRANCH  22  24
ATOM     24  C   UNL A   1      31.999  19.825  24.499  1.00  0.00     0.169 C 
BRANCH  24  25
ATOM     25  C   UNL A   1      32.986  18.671  24.426  1.00  0.00     0.059 A 
ATOM     26  C   UNL A   1      34.358  18.835  24.624  1.00  0.00     0.026 A 
ATOM     27  N   UNL A   1      32.459  17.462  24.103  1.00  0.00    -0.259 NA
ATOM     28  C   UNL A   1      35.207  17.740  24.513  1.00  0.00     0.004 A 
ATOM     29  C   UNL A   1      33.309  16.418  23.982  1.00  0.00     0.111 A 
ATOM     30  C   UNL A   1      34.676  16.505  24.181  1.00  0.00     0.020 A 
ENDBRANCH  24  25
ENDBRANCH  22  24
ENDBRANCH  18  22
ENDBRANCH  13  15
ENDBRANCH   8  13
ENDBRANCH   6   7
ENDBRANCH   4   6
ENDBRANCH   3   4
ENDBRANCH   2   3
ENDBRANCH   1   2
BRANCH   1  31
ATOM     31  O   UNL A   1      35.791  22.202  24.399  1.00  0.00    -0.376 OA
BRANCH  31  32
ATOM     32  C   UNL A   1      36.912  21.344  24.549  1.00  0.00     0.188 C 
BRANCH  32  33
ATOM     33  C   UNL A   1      38.101  21.849  25.369  1.00  0.00     0.188 C 
BRANCH  33  34
ATOM     34  O   UNL A   1      38.916  20.737  25.729  1.00  0.00    -0.376 OA
BRANCH  34  35
ATOM     35  C   UNL A   1      40.049  21.041  26.539  1.00  0.00     0.202 C 
BRANCH  35  36
ATOM     36  C   UNL A   1      41.302  20.204  26.201  1.00  0.00     0.261 C 
BRANCH  36  37
ATOM     37  O   UNL A   1      42.473  20.885  26.711  1.00  0.00    -0.460 OA
BRANCH  37  38
ATOM     38  C   UNL A   1      43.367  21.368  25.791  1.00  0.00     0.338 C 
ATOM     39  O   UNL A   1      44.216  20.716  25.228  1.00  0.00    -0.246 OA
BRANCH  38  40
ATOM     40  C   UNL A   1      43.249  22.867  25.730  1.00  0.00     0.060 A 
ATOM     41  C   UNL A   1      43.920  23.720  24.832  1.00  0.00     0.016 A 
ATOM     42  C   UNL A   1      42.580  23.471  26.764  1.00  0.00     0.016 A 
ATOM     43  C   UNL A   1      43.927  25.158  25.004  1.00  0.00     0.010 A 
ATOM     44  C   UNL A   1      42.696  24.834  26.951  1.00  0.00     0.010 A 
ATOM     45  C   UNL A   1      43.315  25.748  26.109  1.00  0.00    -0.014 A 
BRANCH  45  46
ATOM     46  C   UNL A   1      43.433  27.092  26.792  1.00  0.00     0.031 A 
ATOM     47  C   UNL A   1      42.311  28.061  27.150  1.00  0.00     0.074 A 
ATOM     48  C   UNL A   1      44.447  27.049  27.703  1.00  0.00     0.049 A 
ATOM     49  N   UNL A   1      42.362  28.806  28.209  1.00  0.00    -0.248 NA
ATOM     50  C   UNL A   1      41.042  28.288  26.452  1.00  0.00     0.031 C 
ATOM     51  C   UNL A   1      44.582  27.646  29.033  1.00  0.00     0.029 A 
ATOM     52  N   UNL A   1      45.670  26.399  27.546  1.00  0.00    -0.354 N 
ATOM     53  C   UNL A   1      41.120  29.303  28.530  1.00  0.00     0.074 A 
ATOM     54  C   UNL A   1      40.329  28.990  27.365  1.00  0.00     0.031 C 
ATOM     55  C   UNL A   1      45.870  27.648  29.396  1.00  0.00     0.029 A 
ATOM     56  C   UNL A   1      46.614  27.183  28.253  1.00  0.00     0.049 A 
ATOM     57  H   UNL A   1      45.841  25.568  27.048  1.00  0.00     0.167 HD
ATOM     58  C   UNL A   1      40.956  29.860  29.778  1.00  0.00     0.037 A 
ATOM     59  C   UNL A   1      47.458  27.923  27.473  1.00  0.00     0.037 A 
ATOM     60  C   UNL A   1      42.254  30.311  30.283  1.00  0.00     0.049 A 
ATOM     61  C   UNL A   1      47.035  29.389  27.459  1.00  0.00     0.074 A 
ATOM     62  C   UNL A   1      43.160  30.063  31.297  1.00  0.00     0.029 A 
ATOM     63  N   UNL A   1      42.882  31.204  29.454  1.00  0.00    -0.354 N 
ATOM     64  N   UNL A   1      46.379  29.986  28.426  1.00  0.00    -0.248 NA
ATOM     65  C   UNL A   1      47.225  30.270  26.309  1.00  0.00     0.031 C 
ATOM     66  C   UNL A   1      44.410  30.680  30.906  1.00  0.00     0.029 A 
ATOM     67  C   UNL A   1      44.223  31.335  29.698  1.00  0.00     0.049 A 
ATOM     68  H   UNL A   1      42.412  31.705  28.748  1.00  0.00     0.167 HD
ATOM     69  C   UNL A   1      45.916  31.200  27.983  1.00  0.00     0.074 A 
ATOM     70  C   UNL A   1      46.530  31.360  26.674  1.00  0.00     0.031 C 
ATOM     71  C   UNL A   1      44.989  31.972  28.633  1.00  0.00     0.037 A 
BRANCH  58  72
ATOM     72  C   UNL A   1      39.680  30.123  30.555  1.00  0.00     0.064 A 
ATOM     73  C   UNL A   1      39.161  29.141  31.441  1.00  0.00     0.173 A 
ATOM     74  C   UNL A   1      38.856  31.250  30.381  1.00  0.00     0.173 A 
ATOM     75  F   UNL A   1      39.836  28.012  31.709  1.00  0.00    -0.203 F 
ATOM     76  C   UNL A   1      37.925  29.272  32.085  1.00  0.00     0.198 A 
ATOM     77  C   UNL A   1      37.626  31.389  31.047  1.00  0.00     0.198 A 
ATOM     78  F   UNL A   1      39.202  32.242  29.551  1.00  0.00    -0.203 F 
ATOM     79  F   UNL A   1      37.481  28.293  32.889  1.00  0.00    -0.200 F 
ATOM     80  C   UNL A   1      37.158  30.399  31.892  1.00  0.00     0.200 A 
ATOM     81  F   UNL A   1      36.885  32.491  30.858  1.00  0.00    -0.200 F 
ATOM     82  F   UNL A   1      35.976  30.529  32.512  1.00  0.00    -0.200 F 
ENDBRANCH  58  72
BRANCH  59  83
ATOM     83  C   UNL A   1      47.928  27.007  26.365  1.00  0.00     0.064 A 
ATOM     84  C   UNL A   1      47.369  27.299  25.088  1.00  0.00     0.173 A 
ATOM     85  C   UNL A   1      49.193  26.395  26.369  1.00  0.00     0.173 A 
ATOM     86  F   UNL A   1      46.184  27.929  25.010  1.00  0.00    -0.203 F 
ATOM     87  C   UNL A   1      48.120  27.191  23.917  1.00  0.00     0.198 A 
ATOM     88  C   UNL A   1      49.907  26.218  25.174  1.00  0.00     0.198 A 
ATOM     89  F   UNL A   1      49.826  26.134  27.521  1.00  0.00    -0.203 F 
ATOM     90  F   UNL A   1      47.652  27.714  22.773  1.00  0.00    -0.200 F 
ATOM     91  C   UNL A   1      49.398  26.671  23.965  1.00  0.00     0.200 A 
ATOM     92  F   UNL A   1      51.153  25.719  25.211  1.00  0.00    -0.200 F 
ATOM     93  F   UNL A   1      50.163  26.665  22.863  1.00  0.00    -0.200 F 
ENDBRANCH  59  83
BRANCH  71  94
ATOM     94  C   UNL A   1      44.640  33.368  28.139  1.00  0.00     0.064 A 
ATOM     95  C   UNL A   1      43.929  33.524  26.938  1.00  0.00     0.173 A 
ATOM     96  C   UNL A   1      45.049  34.575  28.754  1.00  0.00     0.173 A 
ATOM     97  F   UNL A   1      43.566  32.452  26.216  1.00  0.00    -0.203 F 
ATOM     98  C   UNL A   1      43.567  34.780  26.446  1.00  0.00     0.198 A 
ATOM     99  C   UNL A   1      44.742  35.829  28.229  1.00  0.00     0.198 A 
ATOM    100  F   UNL A   1      45.728  34.603  29.908  1.00  0.00    -0.203 F 
ATOM    101  F   UNL A   1      42.810  34.866  25.345  1.00  0.00    -0.200 F 
ATOM    102  C   UNL A   1      43.977  35.932  27.089  1.00  0.00     0.200 A 
ATOM    103  F   UNL A   1      45.178  36.934  28.852  1.00  0.00    -0.200 F 
ATOM    104  F   UNL A   1      43.632  37.137  26.616  1.00  0.00    -0.200 F 
ENDBRANCH  71  94
ENDBRANCH  45  46
ENDBRANCH  38  40
ENDBRANCH  37  38
ENDBRANCH  36  37
ENDBRANCH  35  36
ENDBRANCH  34  35
ENDBRANCH  33  34
ENDBRANCH  32  33
ENDBRANCH  31  32
ENDBRANCH   1  31
TORSDOF 23
ENDMDL
MODEL 3
REMARK VINA RESULT:     -10.5      1.818      2.902
REMARK SMILES Cc1c(NCc2ccccn2)cccc1C(=O)N1CCOC[C@@H]1CC(=O)OCCOCCOCCOC(=O)c1ccc(-c2c3nc(c(-c4c(F)c(F)c(F)c(F)c4F)c4ccc([nH]4)c(-c4c(F)c(F)c(F)c(F)c4F)c4nc(c(-c5c(F)c(F)c(F)c(F)c5F)c5ccc2[nH]5)C=C4)C=C3)cc1
REMARK SMILES IDX 29 1 28 2 27 3 25 4 26 5 24 6 23 7 18 8 19 9 20 10 22 11
REMARK SMILES IDX 21 12 16 13 17 14 15 15 1 16 2 17 3 18 12 19 14 20 13 21
REMARK SMILES IDX 4 22 5 24 6 25 7 26 11 27 8 28 10 29 9 30 30 31 31 32 32 33
REMARK SMILES IDX 33 34 34 35 35 36 36 37 37 38 38 39 39 40 40 41 101 42 41 43
REMARK SMILES IDX 100 44 42 45 43 46 44 47 94 48 45 49 99 50 93 51 95 52 46 53
REMARK SMILES IDX 98 54 92 55 91 56 47 58 79 59 59 60 78 61 60 62 63 63 77 64
REMARK SMILES IDX 96 65 61 66 62 67 76 69 97 70 64 71 48 72 49 73 57 74 50 75
REMARK SMILES IDX 51 76 55 77 58 78 52 79 53 80 56 81 54 82 80 83 81 84 89 85
REMARK SMILES IDX 82 86 83 87 87 88 90 89 84 90 85 91 88 92 86 93 65 94 66 95
REMARK SMILES IDX 74 96 67 97 68 98 72 99 75 100 69 101 70 102 73 103 71 104
REMARK H PARENT 4 23 95 57 63 68
REMARK Flexibility Score: inf
ROOT
ATOM      1  C   UNL A   1      40.749  21.535  26.498  1.00  0.00     0.202 C 
ENDROOT
BRANCH   1   2
ATOM      2  C   UNL A   1      39.545  22.215  25.802  1.00  0.00     0.261 C 
BRANCH   2   3
ATOM      3  O   UNL A   1      38.206  21.729  26.147  1.00  0.00    -0.463 OA
BRANCH   3   4
ATOM      4  C   UNL A   1      37.617  21.032  25.122  1.00  0.00     0.308 C 
ATOM      5  O   UNL A   1      37.913  19.860  24.890  1.00  0.00    -0.252 OA
BRANCH   4   6
ATOM      6  C   UNL A   1      36.389  21.656  24.420  1.00  0.00     0.150 C 
BRANCH   6   7
ATOM      7  C   UNL A   1      34.889  21.366  24.250  1.00  0.00     0.122 C 
ATOM      8  N   UNL A   1      33.982  22.495  24.158  1.00  0.00    -0.330 N 
ATOM      9  C   UNL A   1      32.584  22.098  23.968  1.00  0.00     0.148 C 
ATOM     10  C   UNL A   1      32.158  21.084  25.026  1.00  0.00     0.181 C 
ATOM     11  C   UNL A   1      34.343  20.238  25.171  1.00  0.00     0.185 C 
ATOM     12  O   UNL A   1      32.969  19.909  24.897  1.00  0.00    -0.377 OA
BRANCH   8  13
ATOM     13  C   UNL A   1      34.415  23.569  23.397  1.00  0.00     0.254 C 
ATOM     14  O   UNL A   1      35.216  23.435  22.480  1.00  0.00    -0.269 OA
BRANCH  13  15
ATOM     15  C   UNL A   1      33.936  24.913  23.841  1.00  0.00     0.045 A 
ATOM     16  C   UNL A   1      32.556  25.319  21.726  1.00  0.00     0.047 C 
ATOM     17  C   UNL A   1      33.034  25.725  23.100  1.00  0.00    -0.015 A 
ATOM     18  C   UNL A   1      32.537  26.909  23.697  1.00  0.00     0.038 A 
ATOM     19  C   UNL A   1      32.971  27.258  24.985  1.00  0.00     0.026 A 
ATOM     20  C   UNL A   1      34.333  25.286  25.135  1.00  0.00     0.014 A 
ATOM     21  C   UNL A   1      33.838  26.447  25.712  1.00  0.00     0.003 A 
BRANCH  18  22
ATOM     22  N   UNL A   1      31.661  27.735  23.008  1.00  0.00    -0.379 N 
ATOM     23  H   UNL A   1      32.020  28.549  22.586  1.00  0.00     0.160 HD
BRANCH  22  24
ATOM     24  C   UNL A   1      30.237  27.458  22.878  1.00  0.00     0.169 C 
BRANCH  24  25
ATOM     25  C   UNL A   1      29.387  28.696  22.647  1.00  0.00     0.059 A 
ATOM     26  C   UNL A   1      29.879  29.848  22.031  1.00  0.00     0.026 A 
ATOM     27  N   UNL A   1      28.117  28.638  23.124  1.00  0.00    -0.259 NA
ATOM     28  C   UNL A   1      29.053  30.956  21.879  1.00  0.00     0.004 A 
ATOM     29  C   UNL A   1      27.341  29.736  22.981  1.00  0.00     0.111 A 
ATOM     30  C   UNL A   1      27.758  30.904  22.366  1.00  0.00     0.020 A 
ENDBRANCH  24  25
ENDBRANCH  22  24
ENDBRANCH  18  22
ENDBRANCH  13  15
ENDBRANCH   8  13
ENDBRANCH   6   7
ENDBRANCH   4   6
ENDBRANCH   3   4
ENDBRANCH   2   3
ENDBRANCH   1   2
BRANCH   1  31
ATOM     31  O   UNL A   1      40.711  20.111  26.650  1.00  0.00    -0.376 OA
BRANCH  31  32
ATOM     32  C   UNL A   1      41.877  19.454  27.123  1.00  0.00     0.188 C 
BRANCH  32  33
ATOM     33  C   UNL A   1      42.571  18.458  26.192  1.00  0.00     0.188 C 
BRANCH  33  34
ATOM     34  O   UNL A   1      43.069  19.162  25.056  1.00  0.00    -0.376 OA
BRANCH  34  35
ATOM     35  C   UNL A   1      44.484  19.336  25.013  1.00  0.00     0.202 C 
BRANCH  35  36
ATOM     36  C   UNL A   1      44.933  20.615  24.276  1.00  0.00     0.261 C 
BRANCH  36  37
ATOM     37  O   UNL A   1      45.255  21.632  25.255  1.00  0.00    -0.460 OA
BRANCH  37  38
ATOM     38  C   UNL A   1      46.045  22.672  24.841  1.00  0.00     0.338 C 
ATOM     39  O   UNL A   1      46.777  22.659  23.878  1.00  0.00    -0.246 OA
BRANCH  38  40
ATOM     40  C   UNL A   1      46.002  23.765  25.875  1.00  0.00     0.060 A 
ATOM     41  C   UNL A   1      45.482  23.658  27.180  1.00  0.00     0.016 A 
ATOM     42  C   UNL A   1      46.320  25.028  25.444  1.00  0.00     0.016 A 
ATOM     43  C   UNL A   1      45.268  24.822  28.014  1.00  0.00     0.010 A 
ATOM     44  C   UNL A   1      46.006  26.118  26.230  1.00  0.00     0.010 A 
ATOM     45  C   UNL A   1      45.515  26.105  27.529  1.00  0.00    -0.014 A 
BRANCH  45  46
ATOM     46  C   UNL A   1      45.078  27.494  27.938  1.00  0.00     0.031 A 
ATOM     47  C   UNL A   1      43.693  28.118  27.799  1.00  0.00     0.074 A 
ATOM     48  C   UNL A   1      45.748  27.866  29.065  1.00  0.00     0.049 A 
ATOM     49  N   UNL A   1      43.233  28.964  28.665  1.00  0.00    -0.248 NA
ATOM     50  C   UNL A   1      42.678  27.869  26.771  1.00  0.00     0.031 C 
ATOM     51  C   UNL A   1      45.322  28.628  30.240  1.00  0.00     0.029 A 
ATOM     52  N   UNL A   1      47.084  27.597  29.357  1.00  0.00    -0.354 N 
ATOM     53  C   UNL A   1      41.869  29.101  28.555  1.00  0.00     0.074 A 
ATOM     54  C   UNL A   1      41.571  28.429  27.314  1.00  0.00     0.031 C 
ATOM     55  C   UNL A   1      46.398  29.060  30.910  1.00  0.00     0.029 A 
ATOM     56  C   UNL A   1      47.542  28.707  30.109  1.00  0.00     0.049 A 
ATOM     57  H   UNL A   1      47.602  26.803  29.094  1.00  0.00     0.167 HD
ATOM     58  C   UNL A   1      41.203  29.727  29.583  1.00  0.00     0.037 A 
ATOM     59  C   UNL A   1      48.365  29.567  29.438  1.00  0.00     0.037 A 
ATOM     60  C   UNL A   1      42.131  30.603  30.301  1.00  0.00     0.049 A 
ATOM     61  C   UNL A   1      47.609  30.826  29.025  1.00  0.00     0.074 A 
ATOM     62  C   UNL A   1      42.723  30.760  31.540  1.00  0.00     0.029 A 
ATOM     63  N   UNL A   1      42.731  31.538  29.497  1.00  0.00    -0.354 N 
ATOM     64  N   UNL A   1      46.564  31.310  29.655  1.00  0.00    -0.248 NA
ATOM     65  C   UNL A   1      47.905  31.581  27.809  1.00  0.00     0.031 C 
ATOM     66  C   UNL A   1      43.834  31.673  31.365  1.00  0.00     0.029 A 
ATOM     67  C   UNL A   1      43.858  32.092  30.043  1.00  0.00     0.049 A 
ATOM     68  H   UNL A   1      42.384  31.788  28.611  1.00  0.00     0.167 HD
ATOM     69  C   UNL A   1      45.964  32.268  28.876  1.00  0.00     0.074 A 
ATOM     70  C   UNL A   1      46.880  32.447  27.761  1.00  0.00     0.031 C 
ATOM     71  C   UNL A   1      44.721  32.798  29.103  1.00  0.00     0.037 A 
BRANCH  58  72
ATOM     72  C   UNL A   1      39.730  29.686  29.943  1.00  0.00     0.064 A 
ATOM     73  C   UNL A   1      39.309  29.182  31.203  1.00  0.00     0.173 A 
ATOM     74  C   UNL A   1      38.682  30.000  29.058  1.00  0.00     0.173 A 
ATOM     75  F   UNL A   1      40.195  28.842  32.152  1.00  0.00    -0.203 F 
ATOM     76  C   UNL A   1      37.963  28.999  31.541  1.00  0.00     0.198 A 
ATOM     77  C   UNL A   1      37.331  29.836  29.408  1.00  0.00     0.198 A 
ATOM     78  F   UNL A   1      38.929  30.456  27.823  1.00  0.00    -0.203 F 
ATOM     79  F   UNL A   1      37.636  28.492  32.739  1.00  0.00    -0.200 F 
ATOM     80  C   UNL A   1      36.972  29.331  30.644  1.00  0.00     0.200 A 
ATOM     81  F   UNL A   1      36.369  30.165  28.532  1.00  0.00    -0.200 F 
ATOM     82  F   UNL A   1      35.681  29.161  30.967  1.00  0.00    -0.200 F 
ENDBRANCH  58  72
BRANCH  59  83
ATOM     83  C   UNL A   1      49.362  28.709  28.691  1.00  0.00     0.064 A 
ATOM     84  C   UNL A   1      50.277  28.010  29.528  1.00  0.00     0.173 A 
ATOM     85  C   UNL A   1      49.076  28.121  27.446  1.00  0.00     0.173 A 
ATOM     86  F   UNL A   1      50.557  28.490  30.752  1.00  0.00    -0.203 F 
ATOM     87  C   UNL A   1      50.695  26.711  29.233  1.00  0.00     0.198 A 
ATOM     88  C   UNL A   1      49.569  26.846  27.127  1.00  0.00     0.198 A 
ATOM     89  F   UNL A   1      48.185  28.675  26.613  1.00  0.00    -0.203 F 
ATOM     90  F   UNL A   1      51.343  25.992  30.162  1.00  0.00    -0.200 F 
ATOM     91  C   UNL A   1      50.321  26.123  28.041  1.00  0.00     0.200 A 
ATOM     92  F   UNL A   1      49.207  26.263  25.974  1.00  0.00    -0.200 F 
ATOM     93  F   UNL A   1      50.628  24.839  27.802  1.00  0.00    -0.200 F 
ENDBRANCH  59  83
BRANCH  71  94
ATOM     94  C   UNL A   1      44.194  33.956  28.268  1.00  0.00     0.064 A 
ATOM     95  C   UNL A   1      43.976  35.207  28.870  1.00  0.00     0.173 A 
ATOM     96  C   UNL A   1      43.809  33.870  26.909  1.00  0.00     0.173 A 
ATOM     97  F   UNL A   1      44.218  35.385  30.178  1.00  0.00    -0.203 F 
ATOM     98  C   UNL A   1      43.510  36.308  28.148  1.00  0.00     0.198 A 
ATOM     99  C   UNL A   1      43.284  34.953  26.205  1.00  0.00     0.198 A 
ATOM    100  F   UNL A   1      43.956  32.752  26.186  1.00  0.00    -0.203 F 
ATOM    101  F   UNL A   1      43.410  37.499  28.751  1.00  0.00    -0.200 F 
ATOM    102  C   UNL A   1      43.160  36.180  26.817  1.00  0.00     0.200 A 
ATOM    103  F   UNL A   1      42.921  34.798  24.924  1.00  0.00    -0.200 F 
ATOM    104  F   UNL A   1      42.711  37.235  26.126  1.00  0.00    -0.200 F 
ENDBRANCH  71  94
ENDBRANCH  45  46
ENDBRANCH  38  40
ENDBRANCH  37  38
ENDBRANCH  36  37
ENDBRANCH  35  36
ENDBRANCH  34  35
ENDBRANCH  33  34
ENDBRANCH  32  33
ENDBRANCH  31  32
ENDBRANCH   1  31
TORSDOF 23
ENDMDL
