MODEL 1
REMARK VINA RESULT:     -10.2      0.000      0.000
REMARK SMILES C[NH+](C)[C@@H]1CC[N@@H+](Cc2ccc(C(=O)OCCOCCOCCOC(=O)c3ccc(-c4c5nc(c(-c6c(F)c(F)c(F)c(F)c6F)c6ccc([nH]6)c(-c6c(F)c(F)c(F)c(F)c6F)c6nc(c(-c7c(F)c(F)c(F)c(F)c7F)c7ccc4[nH]7)C=C6)C=C5)cc3)cn2)C1
REMARK SMILES IDX 19 1 18 2 17 3 16 4 15 5 13 6 14 7 12 8 9 9 10 10 91 11
REMARK SMILES IDX 11 12 90 13 8 14 7 15 4 16 5 17 92 18 6 19 2 21 1 22 3 23
REMARK SMILES IDX 20 25 21 26 22 27 23 28 24 29 25 30 26 31 27 32 28 33 89 34
REMARK SMILES IDX 29 35 88 36 30 37 31 38 32 39 82 40 33 41 87 42 81 43 83 44
REMARK SMILES IDX 34 45 86 46 80 47 79 48 35 50 67 51 47 52 66 53 48 54 51 55
REMARK SMILES IDX 65 56 84 57 49 58 50 59 64 61 85 62 52 63 36 64 37 65 45 66
REMARK SMILES IDX 38 67 39 68 43 69 46 70 40 71 41 72 44 73 42 74 68 75 69 76
REMARK SMILES IDX 77 77 70 78 71 79 75 80 78 81 72 82 73 83 76 84 74 85 53 86
REMARK SMILES IDX 54 87 62 88 55 89 56 90 60 91 63 92 57 93 58 94 61 95 59 96
REMARK H PARENT 7 20 2 24 83 49 51 60
REMARK Flexibility Score: inf
ROOT
ATOM      1  C   UNL A   1      34.000  35.556  28.830  1.00  0.00     0.188 C 
ENDROOT
BRANCH   1   2
ATOM      2  O   UNL A   1      33.800  34.398  28.032  1.00  0.00    -0.376 OA
BRANCH   2   3
ATOM      3  C   UNL A   1      34.775  33.360  28.021  1.00  0.00     0.202 C 
BRANCH   3   4
ATOM      4  C   UNL A   1      34.386  31.939  28.451  1.00  0.00     0.261 C 
BRANCH   4   5
ATOM      5  O   UNL A   1      34.387  30.997  27.370  1.00  0.00    -0.460 OA
BRANCH   5   6
ATOM      6  C   UNL A   1      33.160  30.662  26.895  1.00  0.00     0.339 C 
ATOM      7  O   UNL A   1      32.177  31.370  26.831  1.00  0.00    -0.246 OA
BRANCH   6   8
ATOM      8  C   UNL A   1      33.231  29.337  26.256  1.00  0.00     0.078 A 
ATOM      9  C   UNL A   1      33.265  26.974  24.862  1.00  0.00     0.095 A 
ATOM     10  C   UNL A   1      33.819  27.011  26.143  1.00  0.00     0.031 A 
ATOM     11  N   UNL A   1      32.799  28.087  24.239  1.00  0.00    -0.254 NA
ATOM     12  C   UNL A   1      33.778  28.205  26.859  1.00  0.00     0.019 A 
ATOM     13  C   UNL A   1      32.786  29.238  24.947  1.00  0.00     0.127 A 
BRANCH   9  14
ATOM     14  C   UNL A   1      32.983  25.646  24.183  1.00  0.00     0.319 C 
BRANCH  14  15
ATOM     15  N   UNL A   1      33.086  24.440  25.027  1.00  0.00    -0.325 N 
ATOM     16  C   UNL A   1      33.310  22.303  23.867  1.00  0.00     0.245 C 
ATOM     17  C   UNL A   1      34.698  22.853  24.211  1.00  0.00     0.132 C 
ATOM     18  C   UNL A   1      32.323  23.273  24.565  1.00  0.00     0.328 C 
ATOM     19  C   UNL A   1      34.459  23.959  25.227  1.00  0.00     0.269 C 
ATOM     20  H   UNL A   1      32.686  24.794  25.897  1.00  0.00     0.348 HD
BRANCH  16  21
ATOM     21  N   UNL A   1      33.267  20.858  24.149  1.00  0.00    -0.333 N 
ATOM     22  C   UNL A   1      34.517  20.284  24.631  1.00  0.00     0.332 C 
ATOM     23  C   UNL A   1      32.149  20.482  25.006  1.00  0.00     0.332 C 
ATOM     24  H   UNL A   1      33.114  20.440  23.231  1.00  0.00     0.348 HD
ENDBRANCH  16  21
ENDBRANCH  14  15
ENDBRANCH   9  14
ENDBRANCH   6   8
ENDBRANCH   5   6
ENDBRANCH   4   5
ENDBRANCH   3   4
ENDBRANCH   2   3
ENDBRANCH   1   2
BRANCH   1  25
ATOM     25  C   UNL A   1      33.273  35.704  30.182  1.00  0.00     0.188 C 
BRANCH  25  26
ATOM     26  O   UNL A   1      33.280  34.575  31.016  1.00  0.00    -0.376 OA
BRANCH  26  27
ATOM     27  C   UNL A   1      34.149  34.517  32.134  1.00  0.00     0.202 C 
BRANCH  27  28
ATOM     28  C   UNL A   1      34.515  33.249  32.934  1.00  0.00     0.261 C 
BRANCH  28  29
ATOM     29  O   UNL A   1      35.435  32.317  32.361  1.00  0.00    -0.460 OA
BRANCH  29  30
ATOM     30  C   UNL A   1      36.534  32.033  33.102  1.00  0.00     0.338 C 
ATOM     31  O   UNL A   1      36.651  32.103  34.312  1.00  0.00    -0.246 OA
BRANCH  30  32
ATOM     32  C   UNL A   1      37.551  31.436  32.214  1.00  0.00     0.060 A 
ATOM     33  C   UNL A   1      38.637  30.762  32.790  1.00  0.00     0.016 A 
ATOM     34  C   UNL A   1      37.447  31.564  30.829  1.00  0.00     0.016 A 
ATOM     35  C   UNL A   1      39.640  30.235  31.976  1.00  0.00     0.010 A 
ATOM     36  C   UNL A   1      38.463  31.053  30.017  1.00  0.00     0.010 A 
ATOM     37  C   UNL A   1      39.578  30.412  30.588  1.00  0.00    -0.014 A 
BRANCH  37  38
ATOM     38  C   UNL A   1      40.752  30.083  29.742  1.00  0.00     0.031 A 
ATOM     39  C   UNL A   1      40.832  28.714  29.127  1.00  0.00     0.074 A 
ATOM     40  C   UNL A   1      41.729  30.979  29.525  1.00  0.00     0.049 A 
ATOM     41  N   UNL A   1      41.784  28.178  28.405  1.00  0.00    -0.248 NA
ATOM     42  C   UNL A   1      39.682  27.826  29.361  1.00  0.00     0.031 C 
ATOM     43  C   UNL A   1      41.746  32.350  30.027  1.00  0.00     0.029 A 
ATOM     44  N   UNL A   1      42.905  30.859  28.826  1.00  0.00    -0.354 N 
ATOM     45  C   UNL A   1      41.355  26.891  28.113  1.00  0.00     0.074 A 
ATOM     46  C   UNL A   1      40.069  26.716  28.753  1.00  0.00     0.031 C 
ATOM     47  C   UNL A   1      42.884  32.945  29.626  1.00  0.00     0.029 A 
ATOM     48  C   UNL A   1      43.688  31.985  28.871  1.00  0.00     0.049 A 
ATOM     49  H   UNL A   1      43.162  30.042  28.341  1.00  0.00     0.167 HD
ATOM     50  C   UNL A   1      41.976  25.942  27.373  1.00  0.00     0.037 A 
ATOM     51  C   UNL A   1      44.922  32.205  28.374  1.00  0.00     0.037 A 
ATOM     52  C   UNL A   1      43.253  26.117  26.734  1.00  0.00     0.049 A 
ATOM     53  C   UNL A   1      45.627  31.102  27.624  1.00  0.00     0.074 A 
ATOM     54  C   UNL A   1      43.946  25.229  25.931  1.00  0.00     0.029 A 
ATOM     55  N   UNL A   1      44.036  27.259  26.836  1.00  0.00    -0.354 N 
ATOM     56  N   UNL A   1      45.201  29.901  27.318  1.00  0.00    -0.248 NA
ATOM     57  C   UNL A   1      46.990  31.390  27.152  1.00  0.00     0.031 C 
ATOM     58  C   UNL A   1      45.176  25.807  25.600  1.00  0.00     0.029 A 
ATOM     59  C   UNL A   1      45.222  27.081  26.142  1.00  0.00     0.049 A 
ATOM     60  H   UNL A   1      43.785  28.073  27.329  1.00  0.00     0.167 HD
ATOM     61  C   UNL A   1      46.223  29.305  26.588  1.00  0.00     0.074 A 
ATOM     62  C   UNL A   1      47.289  30.280  26.492  1.00  0.00     0.031 C 
ATOM     63  C   UNL A   1      46.272  28.064  26.044  1.00  0.00     0.037 A 
BRANCH  50  64
ATOM     64  C   UNL A   1      41.297  24.608  27.249  1.00  0.00     0.064 A 
ATOM     65  C   UNL A   1      41.766  23.470  27.922  1.00  0.00     0.173 A 
ATOM     66  C   UNL A   1      40.144  24.475  26.459  1.00  0.00     0.173 A 
ATOM     67  F   UNL A   1      42.873  23.541  28.677  1.00  0.00    -0.203 F 
ATOM     68  C   UNL A   1      41.124  22.241  27.784  1.00  0.00     0.198 A 
ATOM     69  C   UNL A   1      39.487  23.253  26.349  1.00  0.00     0.198 A 
ATOM     70  F   UNL A   1      39.651  25.532  25.797  1.00  0.00    -0.203 F 
ATOM     71  F   UNL A   1      41.622  21.157  28.393  1.00  0.00    -0.200 F 
ATOM     72  C   UNL A   1      39.983  22.135  27.004  1.00  0.00     0.200 A 
ATOM     73  F   UNL A   1      38.378  23.154  25.605  1.00  0.00    -0.200 F 
ATOM     74  F   UNL A   1      39.365  20.954  26.876  1.00  0.00    -0.200 F 
ENDBRANCH  50  64
BRANCH  51  75
ATOM     75  C   UNL A   1      45.580  33.523  28.568  1.00  0.00     0.064 A 
ATOM     76  C   UNL A   1      46.430  33.749  29.660  1.00  0.00     0.173 A 
ATOM     77  C   UNL A   1      45.352  34.591  27.689  1.00  0.00     0.173 A 
ATOM     78  F   UNL A   1      46.654  32.767  30.547  1.00  0.00    -0.203 F 
ATOM     79  C   UNL A   1      47.013  34.995  29.875  1.00  0.00     0.198 A 
ATOM     80  C   UNL A   1      45.958  35.831  27.889  1.00  0.00     0.198 A 
ATOM     81  F   UNL A   1      44.539  34.432  26.635  1.00  0.00    -0.203 F 
ATOM     82  F   UNL A   1      47.781  35.197  30.954  1.00  0.00    -0.200 F 
ATOM     83  C   UNL A   1      46.781  36.034  28.985  1.00  0.00     0.200 A 
ATOM     84  F   UNL A   1      45.736  36.829  27.023  1.00  0.00    -0.200 F 
ATOM     85  F   UNL A   1      47.341  37.233  29.192  1.00  0.00    -0.200 F 
ENDBRANCH  51  75
BRANCH  63  86
ATOM     86  C   UNL A   1      47.497  27.700  25.252  1.00  0.00     0.064 A 
ATOM     87  C   UNL A   1      48.648  27.182  25.865  1.00  0.00     0.173 A 
ATOM     88  C   UNL A   1      47.501  27.829  23.854  1.00  0.00     0.173 A 
ATOM     89  F   UNL A   1      48.702  27.052  27.199  1.00  0.00    -0.203 F 
ATOM     90  C   UNL A   1      49.765  26.833  25.109  1.00  0.00     0.198 A 
ATOM     91  C   UNL A   1      48.607  27.449  23.100  1.00  0.00     0.198 A 
ATOM     92  F   UNL A   1      46.423  28.311  23.216  1.00  0.00    -0.203 F 
ATOM     93  F   UNL A   1      50.871  26.386  25.721  1.00  0.00    -0.200 F 
ATOM     94  C   UNL A   1      49.741  26.958  23.729  1.00  0.00     0.200 A 
ATOM     95  F   UNL A   1      48.575  27.555  21.764  1.00  0.00    -0.200 F 
ATOM     96  F   UNL A   1      50.814  26.612  23.004  1.00  0.00    -0.200 F 
ENDBRANCH  63  86
ENDBRANCH  37  38
ENDBRANCH  30  32
ENDBRANCH  29  30
ENDBRANCH  28  29
ENDBRANCH  27  28
ENDBRANCH  26  27
ENDBRANCH  25  26
ENDBRANCH   1  25
TORSDOF 20
ENDMDL
MODEL 2
REMARK VINA RESULT:     -10.1      4.637      9.392
REMARK SMILES C[NH+](C)[C@@H]1CC[N@@H+](Cc2ccc(C(=O)OCCOCCOCCOC(=O)c3ccc(-c4c5nc(c(-c6c(F)c(F)c(F)c(F)c6F)c6ccc([nH]6)c(-c6c(F)c(F)c(F)c(F)c6F)c6nc(c(-c7c(F)c(F)c(F)c(F)c7F)c7ccc4[nH]7)C=C6)C=C5)cc3)cn2)C1
REMARK SMILES IDX 19 1 18 2 17 3 16 4 15 5 13 6 14 7 12 8 9 9 10 10 91 11
REMARK SMILES IDX 11 12 90 13 8 14 7 15 4 16 5 17 92 18 6 19 2 21 1 22 3 23
REMARK SMILES IDX 20 25 21 26 22 27 23 28 24 29 25 30 26 31 27 32 28 33 89 34
REMARK SMILES IDX 29 35 88 36 30 37 31 38 32 39 82 40 33 41 87 42 81 43 83 44
REMARK SMILES IDX 34 45 86 46 80 47 79 48 35 50 67 51 47 52 66 53 48 54 51 55
REMARK SMILES IDX 65 56 84 57 49 58 50 59 64 61 85 62 52 63 36 64 37 65 45 66
REMARK SMILES IDX 38 67 39 68 43 69 46 70 40 71 41 72 44 73 42 74 68 75 69 76
REMARK SMILES IDX 77 77 70 78 71 79 75 80 78 81 72 82 73 83 76 84 74 85 53 86
REMARK SMILES IDX 54 87 62 88 55 89 56 90 60 91 63 92 57 93 58 94 61 95 59 96
REMARK H PARENT 7 20 2 24 83 49 51 60
REMARK Flexibility Score: inf
ROOT
ATOM      1  C   UNL A   1      31.650  29.244  25.979  1.00  0.00     0.188 C 
ENDROOT
BRANCH   1   2
ATOM      2  O   UNL A   1      31.095  29.982  24.900  1.00  0.00    -0.376 OA
BRANCH   2   3
ATOM      3  C   UNL A   1      30.744  29.322  23.688  1.00  0.00     0.202 C 
BRANCH   3   4
ATOM      4  C   UNL A   1      31.129  27.851  23.479  1.00  0.00     0.261 C 
BRANCH   4   5
ATOM      5  O   UNL A   1      32.287  27.678  22.653  1.00  0.00    -0.460 OA
BRANCH   5   6
ATOM      6  C   UNL A   1      33.471  27.644  23.317  1.00  0.00     0.339 C 
ATOM      7  O   UNL A   1      34.214  28.575  23.543  1.00  0.00    -0.246 OA
BRANCH   6   8
ATOM      8  C   UNL A   1      33.648  26.316  23.929  1.00  0.00     0.078 A 
ATOM      9  C   UNL A   1      33.967  23.746  24.836  1.00  0.00     0.095 A 
ATOM     10  C   UNL A   1      34.030  24.798  25.750  1.00  0.00     0.031 A 
ATOM     11  N   UNL A   1      33.852  23.951  23.498  1.00  0.00    -0.254 NA
ATOM     12  C   UNL A   1      33.844  26.100  25.292  1.00  0.00     0.019 A 
ATOM     13  C   UNL A   1      33.689  25.224  23.075  1.00  0.00     0.127 A 
BRANCH   9  14
ATOM     14  C   UNL A   1      33.829  22.314  25.318  1.00  0.00     0.319 C 
BRANCH  14  15
ATOM     15  N   UNL A   1      33.920  21.261  24.287  1.00  0.00    -0.325 N 
ATOM     16  C   UNL A   1      33.564  18.962  25.031  1.00  0.00     0.245 C 
ATOM     17  C   UNL A   1      32.242  19.555  24.533  1.00  0.00     0.132 C 
ATOM     18  C   UNL A   1      34.628  20.038  24.688  1.00  0.00     0.328 C 
ATOM     19  C   UNL A   1      32.623  20.812  23.767  1.00  0.00     0.269 C 
ATOM     20  H   UNL A   1      34.457  21.754  23.573  1.00  0.00     0.348 HD
BRANCH  16  21
ATOM     21  N   UNL A   1      33.707  17.582  24.534  1.00  0.00    -0.333 N 
ATOM     22  C   UNL A   1      33.318  17.383  23.144  1.00  0.00     0.332 C 
ATOM     23  C   UNL A   1      35.025  17.018  24.801  1.00  0.00     0.332 C 
ATOM     24  H   UNL A   1      33.024  17.060  25.083  1.00  0.00     0.348 HD
ENDBRANCH  16  21
ENDBRANCH  14  15
ENDBRANCH   9  14
ENDBRANCH   6   8
ENDBRANCH   5   6
ENDBRANCH   4   5
ENDBRANCH   3   4
ENDBRANCH   2   3
ENDBRANCH   1   2
BRANCH   1  25
ATOM     25  C   UNL A   1      32.164  29.972  27.238  1.00  0.00     0.188 C 
BRANCH  25  26
ATOM     26  O   UNL A   1      33.455  30.516  27.153  1.00  0.00    -0.376 OA
BRANCH  26  27
ATOM     27  C   UNL A   1      33.680  31.876  27.481  1.00  0.00     0.202 C 
BRANCH  27  28
ATOM     28  C   UNL A   1      32.598  32.912  27.854  1.00  0.00     0.261 C 
BRANCH  28  29
ATOM     29  O   UNL A   1      32.850  34.294  27.592  1.00  0.00    -0.460 OA
BRANCH  29  30
ATOM     30  C   UNL A   1      33.073  35.074  28.677  1.00  0.00     0.338 C 
ATOM     31  O   UNL A   1      32.386  35.994  29.083  1.00  0.00    -0.246 OA
BRANCH  30  32
ATOM     32  C   UNL A   1      34.215  34.514  29.426  1.00  0.00     0.060 A 
ATOM     33  C   UNL A   1      35.496  34.595  28.863  1.00  0.00     0.016 A 
ATOM     34  C   UNL A   1      34.017  33.889  30.658  1.00  0.00     0.016 A 
ATOM     35  C   UNL A   1      36.584  34.026  29.525  1.00  0.00     0.010 A 
ATOM     36  C   UNL A   1      35.106  33.302  31.309  1.00  0.00     0.010 A 
ATOM     37  C   UNL A   1      36.389  33.343  30.732  1.00  0.00    -0.014 A 
BRANCH  37  38
ATOM     38  C   UNL A   1      37.483  32.524  31.309  1.00  0.00     0.031 A 
ATOM     39  C   UNL A   1      37.985  32.863  32.684  1.00  0.00     0.074 A 
ATOM     40  C   UNL A   1      38.022  31.499  30.628  1.00  0.00     0.049 A 
ATOM     41  N   UNL A   1      38.967  32.333  33.369  1.00  0.00    -0.248 NA
ATOM     42  C   UNL A   1      37.285  33.954  33.382  1.00  0.00     0.031 C 
ATOM     43  C   UNL A   1      37.595  31.042  29.308  1.00  0.00     0.029 A 
ATOM     44  N   UNL A   1      39.061  30.661  30.957  1.00  0.00    -0.354 N 
ATOM     45  C   UNL A   1      39.011  33.033  34.567  1.00  0.00     0.074 A 
ATOM     46  C   UNL A   1      37.975  34.040  34.509  1.00  0.00     0.031 C 
ATOM     47  C   UNL A   1      38.371  30.009  28.934  1.00  0.00     0.029 A 
ATOM     48  C   UNL A   1      39.370  29.757  29.972  1.00  0.00     0.049 A 
ATOM     49  H   UNL A   1      39.538  30.707  31.816  1.00  0.00     0.167 HD
ATOM     50  C   UNL A   1      39.839  32.848  35.622  1.00  0.00     0.037 A 
ATOM     51  C   UNL A   1      40.361  28.845  29.912  1.00  0.00     0.037 A 
ATOM     52  C   UNL A   1      40.868  31.844  35.681  1.00  0.00     0.049 A 
ATOM     53  C   UNL A   1      41.322  28.716  31.067  1.00  0.00     0.074 A 
ATOM     54  C   UNL A   1      41.732  31.553  36.721  1.00  0.00     0.029 A 
ATOM     55  N   UNL A   1      41.179  30.973  34.646  1.00  0.00    -0.354 N 
ATOM     56  N   UNL A   1      41.335  29.353  32.213  1.00  0.00    -0.248 NA
ATOM     57  C   UNL A   1      42.409  27.737  30.917  1.00  0.00     0.031 C 
ATOM     58  C   UNL A   1      42.608  30.549  36.294  1.00  0.00     0.029 A 
ATOM     59  C   UNL A   1      42.249  30.170  35.011  1.00  0.00     0.049 A 
ATOM     60  H   UNL A   1      40.710  30.932  33.782  1.00  0.00     0.167 HD
ATOM     61  C   UNL A   1      42.404  28.829  32.932  1.00  0.00     0.074 A 
ATOM     62  C   UNL A   1      43.011  27.815  32.095  1.00  0.00     0.031 C 
ATOM     63  C   UNL A   1      42.838  29.155  34.174  1.00  0.00     0.037 A 
BRANCH  50  64
ATOM     64  C   UNL A   1      39.692  33.784  36.788  1.00  0.00     0.064 A 
ATOM     65  C   UNL A   1      38.901  33.465  37.901  1.00  0.00     0.173 A 
ATOM     66  C   UNL A   1      40.374  35.010  36.797  1.00  0.00     0.173 A 
ATOM     67  F   UNL A   1      38.217  32.310  37.935  1.00  0.00    -0.203 F 
ATOM     68  C   UNL A   1      38.773  34.352  38.967  1.00  0.00     0.198 A 
ATOM     69  C   UNL A   1      40.269  35.881  37.878  1.00  0.00     0.198 A 
ATOM     70  F   UNL A   1      41.147  35.364  35.759  1.00  0.00    -0.203 F 
ATOM     71  F   UNL A   1      37.969  34.049  39.995  1.00  0.00    -0.200 F 
ATOM     72  C   UNL A   1      39.461  35.555  38.957  1.00  0.00     0.200 A 
ATOM     73  F   UNL A   1      40.944  37.038  37.873  1.00  0.00    -0.200 F 
ATOM     74  F   UNL A   1      39.341  36.407  39.985  1.00  0.00    -0.200 F 
ENDBRANCH  50  64
BRANCH  51  75
ATOM     75  C   UNL A   1      40.503  27.977  28.713  1.00  0.00     0.064 A 
ATOM     76  C   UNL A   1      41.256  28.396  27.608  1.00  0.00     0.173 A 
ATOM     77  C   UNL A   1      39.868  26.729  28.634  1.00  0.00     0.173 A 
ATOM     78  F   UNL A   1      41.856  29.596  27.623  1.00  0.00    -0.203 F 
ATOM     79  C   UNL A   1      41.356  27.609  26.463  1.00  0.00     0.198 A 
ATOM     80  C   UNL A   1      39.991  25.930  27.499  1.00  0.00     0.198 A 
ATOM     81  F   UNL A   1      39.127  26.286  29.659  1.00  0.00    -0.203 F 
ATOM     82  F   UNL A   1      42.040  28.056  25.402  1.00  0.00    -0.200 F 
ATOM     83  C   UNL A   1      40.728  26.373  26.412  1.00  0.00     0.200 A 
ATOM     84  F   UNL A   1      39.388  24.734  27.456  1.00  0.00    -0.200 F 
ATOM     85  F   UNL A   1      40.823  25.617  25.311  1.00  0.00    -0.200 F 
ENDBRANCH  51  75
BRANCH  63  86
ATOM     86  C   UNL A   1      43.999  28.379  34.730  1.00  0.00     0.064 A 
ATOM     87  C   UNL A   1      43.822  27.161  35.403  1.00  0.00     0.173 A 
ATOM     88  C   UNL A   1      45.312  28.843  34.549  1.00  0.00     0.173 A 
ATOM     89  F   UNL A   1      42.587  26.681  35.615  1.00  0.00    -0.203 F 
ATOM     90  C   UNL A   1      44.914  26.448  35.894  1.00  0.00     0.198 A 
ATOM     91  C   UNL A   1      46.402  28.112  35.013  1.00  0.00     0.198 A 
ATOM     92  F   UNL A   1      45.539  29.998  33.906  1.00  0.00    -0.203 F 
ATOM     93  F   UNL A   1      44.717  25.311  36.574  1.00  0.00    -0.200 F 
ATOM     94  C   UNL A   1      46.202  26.920  35.692  1.00  0.00     0.200 A 
ATOM     95  F   UNL A   1      47.648  28.561  34.801  1.00  0.00    -0.200 F 
ATOM     96  F   UNL A   1      47.251  26.227  36.156  1.00  0.00    -0.200 F 
ENDBRANCH  63  86
ENDBRANCH  37  38
ENDBRANCH  30  32
ENDBRANCH  29  30
ENDBRANCH  28  29
ENDBRANCH  27  28
ENDBRANCH  26  27
ENDBRANCH  25  26
ENDBRANCH   1  25
TORSDOF 20
ENDMDL
MODEL 3
REMARK VINA RESULT:     -10.1      4.730      7.537
REMARK SMILES C[NH+](C)[C@@H]1CC[N@@H+](Cc2ccc(C(=O)OCCOCCOCCOC(=O)c3ccc(-c4c5nc(c(-c6c(F)c(F)c(F)c(F)c6F)c6ccc([nH]6)c(-c6c(F)c(F)c(F)c(F)c6F)c6nc(c(-c7c(F)c(F)c(F)c(F)c7F)c7ccc4[nH]7)C=C6)C=C5)cc3)cn2)C1
REMARK SMILES IDX 19 1 18 2 17 3 16 4 15 5 13 6 14 7 12 8 9 9 10 10 91 11
REMARK SMILES IDX 11 12 90 13 8 14 7 15 4 16 5 17 92 18 6 19 2 21 1 22 3 23
REMARK SMILES IDX 20 25 21 26 22 27 23 28 24 29 25 30 26 31 27 32 28 33 89 34
REMARK SMILES IDX 29 35 88 36 30 37 31 38 32 39 82 40 33 41 87 42 81 43 83 44
REMARK SMILES IDX 34 45 86 46 80 47 79 48 35 50 67 51 47 52 66 53 48 54 51 55
REMARK SMILES IDX 65 56 84 57 49 58 50 59 64 61 85 62 52 63 36 64 37 65 45 66
REMARK SMILES IDX 38 67 39 68 43 69 46 70 40 71 41 72 44 73 42 74 68 75 69 76
REMARK SMILES IDX 77 77 70 78 71 79 75 80 78 81 72 82 73 83 76 84 74 85 53 86
REMARK SMILES IDX 54 87 62 88 55 89 56 90 60 91 63 92 57 93 58 94 61 95 59 96
REMARK H PARENT 7 20 2 24 83 49 51 60
REMARK Flexibility Score: inf
ROOT
ATOM      1  C   UNL A   1      31.479  28.905  26.020  1.00  0.00     0.188 C 
ENDROOT
BRANCH   1   2
ATOM      2  O   UNL A   1      31.116  29.733  24.924  1.00  0.00    -0.376 OA
BRANCH   2   3
ATOM      3  C   UNL A   1      31.067  29.195  23.607  1.00  0.00     0.202 C 
BRANCH   3   4
ATOM      4  C   UNL A   1      31.391  27.712  23.374  1.00  0.00     0.261 C 
BRANCH   4   5
ATOM      5  O   UNL A   1      32.720  27.491  22.883  1.00  0.00    -0.460 OA
BRANCH   5   6
ATOM      6  C   UNL A   1      33.679  27.385  23.839  1.00  0.00     0.339 C 
ATOM      7  O   UNL A   1      34.335  28.281  24.325  1.00  0.00    -0.246 OA
BRANCH   6   8
ATOM      8  C   UNL A   1      33.680  26.013  24.376  1.00  0.00     0.078 A 
ATOM      9  C   UNL A   1      33.760  23.382  25.150  1.00  0.00     0.095 A 
ATOM     10  C   UNL A   1      33.439  24.356  26.097  1.00  0.00     0.031 A 
ATOM     11  N   UNL A   1      34.132  23.696  23.882  1.00  0.00    -0.254 NA
ATOM     12  C   UNL A   1      33.374  25.688  25.697  1.00  0.00     0.019 A 
ATOM     13  C   UNL A   1      34.078  24.997  23.521  1.00  0.00     0.127 A 
BRANCH   9  14
ATOM     14  C   UNL A   1      33.520  21.913  25.444  1.00  0.00     0.319 C 
BRANCH  14  15
ATOM     15  N   UNL A   1      33.820  20.966  24.353  1.00  0.00    -0.325 N 
ATOM     16  C   UNL A   1      33.908  18.598  24.945  1.00  0.00     0.245 C 
ATOM     17  C   UNL A   1      32.500  18.958  24.458  1.00  0.00     0.132 C 
ATOM     18  C   UNL A   1      34.747  19.878  24.691  1.00  0.00     0.328 C 
ATOM     19  C   UNL A   1      32.637  20.312  23.780  1.00  0.00     0.269 C 
ATOM     20  H   UNL A   1      34.258  21.597  23.681  1.00  0.00     0.348 HD
BRANCH  16  21
ATOM     21  N   UNL A   1      34.317  17.306  24.367  1.00  0.00    -0.333 N 
ATOM     22  C   UNL A   1      34.652  16.273  25.338  1.00  0.00     0.332 C 
ATOM     23  C   UNL A   1      33.375  16.809  23.371  1.00  0.00     0.332 C 
ATOM     24  H   UNL A   1      35.192  17.525  23.891  1.00  0.00     0.348 HD
ENDBRANCH  16  21
ENDBRANCH  14  15
ENDBRANCH   9  14
ENDBRANCH   6   8
ENDBRANCH   5   6
ENDBRANCH   4   5
ENDBRANCH   3   4
ENDBRANCH   2   3
ENDBRANCH   1   2
BRANCH   1  25
ATOM     25  C   UNL A   1      32.195  29.506  27.247  1.00  0.00     0.188 C 
BRANCH  25  26
ATOM     26  O   UNL A   1      33.469  30.048  27.015  1.00  0.00    -0.376 OA
BRANCH  26  27
ATOM     27  C   UNL A   1      33.794  31.341  27.496  1.00  0.00     0.202 C 
BRANCH  27  28
ATOM     28  C   UNL A   1      32.811  32.518  27.671  1.00  0.00     0.261 C 
BRANCH  28  29
ATOM     29  O   UNL A   1      33.300  33.851  27.511  1.00  0.00    -0.460 OA
BRANCH  29  30
ATOM     30  C   UNL A   1      33.322  34.616  28.630  1.00  0.00     0.338 C 
ATOM     31  O   UNL A   1      32.457  35.375  29.027  1.00  0.00    -0.246 OA
BRANCH  30  32
ATOM     32  C   UNL A   1      34.513  34.249  29.421  1.00  0.00     0.060 A 
ATOM     33  C   UNL A   1      35.780  34.400  28.841  1.00  0.00     0.016 A 
ATOM     34  C   UNL A   1      34.377  33.735  30.711  1.00  0.00     0.016 A 
ATOM     35  C   UNL A   1      36.919  34.010  29.547  1.00  0.00     0.010 A 
ATOM     36  C   UNL A   1      35.518  33.326  31.407  1.00  0.00     0.010 A 
ATOM     37  C   UNL A   1      36.791  33.435  30.817  1.00  0.00    -0.014 A 
BRANCH  37  38
ATOM     38  C   UNL A   1      37.960  32.791  31.464  1.00  0.00     0.031 A 
ATOM     39  C   UNL A   1      38.563  31.578  30.813  1.00  0.00     0.074 A 
ATOM     40  C   UNL A   1      38.478  33.270  32.608  1.00  0.00     0.049 A 
ATOM     41  N   UNL A   1      39.545  30.813  31.220  1.00  0.00    -0.248 NA
ATOM     42  C   UNL A   1      37.977  31.170  29.526  1.00  0.00     0.031 C 
ATOM     43  C   UNL A   1      38.013  34.461  33.313  1.00  0.00     0.029 A 
ATOM     44  N   UNL A   1      39.509  32.798  33.383  1.00  0.00    -0.354 N 
ATOM     45  C   UNL A   1      39.681  29.829  30.251  1.00  0.00     0.074 A 
ATOM     46  C   UNL A   1      38.670  30.078  29.247  1.00  0.00     0.031 C 
ATOM     47  C   UNL A   1      38.753  34.624  34.424  1.00  0.00     0.029 A 
ATOM     48  C   UNL A   1      39.717  33.530  34.525  1.00  0.00     0.049 A 
ATOM     49  H   UNL A   1      40.046  32.009  33.142  1.00  0.00     0.167 HD
ATOM     50  C   UNL A   1      40.574  28.812  30.200  1.00  0.00     0.037 A 
ATOM     51  C   UNL A   1      40.577  33.324  35.543  1.00  0.00     0.037 A 
ATOM     52  C   UNL A   1      41.582  28.566  31.197  1.00  0.00     0.049 A 
ATOM     53  C   UNL A   1      41.504  32.135  35.502  1.00  0.00     0.074 A 
ATOM     54  C   UNL A   1      42.557  27.585  31.216  1.00  0.00     0.029 A 
ATOM     55  N   UNL A   1      41.735  29.305  32.362  1.00  0.00    -0.354 N 
ATOM     56  N   UNL A   1      41.656  31.231  34.566  1.00  0.00    -0.248 NA
ATOM     57  C   UNL A   1      42.381  31.940  36.667  1.00  0.00     0.031 C 
ATOM     58  C   UNL A   1      43.260  27.690  32.421  1.00  0.00     0.029 A 
ATOM     59  C   UNL A   1      42.765  28.776  33.124  1.00  0.00     0.049 A 
ATOM     60  H   UNL A   1      41.193  30.088  32.610  1.00  0.00     0.167 HD
ATOM     61  C   UNL A   1      42.667  30.384  35.008  1.00  0.00     0.074 A 
ATOM     62  C   UNL A   1      43.096  30.888  36.296  1.00  0.00     0.031 C 
ATOM     63  C   UNL A   1      43.192  29.293  34.401  1.00  0.00     0.037 A 
BRANCH  50  64
ATOM     64  C   UNL A   1      40.472  27.859  29.043  1.00  0.00     0.064 A 
ATOM     65  C   UNL A   1      39.651  26.723  29.086  1.00  0.00     0.173 A 
ATOM     66  C   UNL A   1      41.195  28.103  27.865  1.00  0.00     0.173 A 
ATOM     67  F   UNL A   1      38.951  26.437  30.195  1.00  0.00    -0.203 F 
ATOM     68  C   UNL A   1      39.580  25.850  28.004  1.00  0.00     0.198 A 
ATOM     69  C   UNL A   1      41.097  27.245  26.774  1.00  0.00     0.198 A 
ATOM     70  F   UNL A   1      41.993  29.177  27.769  1.00  0.00    -0.203 F 
ATOM     71  F   UNL A   1      38.830  24.742  28.087  1.00  0.00    -0.200 F 
ATOM     72  C   UNL A   1      40.297  26.114  26.847  1.00  0.00     0.200 A 
ATOM     73  F   UNL A   1      41.781  27.509  25.652  1.00  0.00    -0.200 F 
ATOM     74  F   UNL A   1      40.225  25.275  25.805  1.00  0.00    -0.200 F 
ENDBRANCH  50  64
BRANCH  51  75
ATOM     75  C   UNL A   1      40.605  34.262  36.696  1.00  0.00     0.064 A 
ATOM     76  C   UNL A   1      39.735  34.091  37.783  1.00  0.00     0.173 A 
ATOM     77  C   UNL A   1      41.475  35.360  36.725  1.00  0.00     0.173 A 
ATOM     78  F   UNL A   1      38.861  33.073  37.787  1.00  0.00    -0.203 F 
ATOM     79  C   UNL A   1      39.723  34.992  38.845  1.00  0.00     0.198 A 
ATOM     80  C   UNL A   1      41.482  36.246  37.801  1.00  0.00     0.198 A 
ATOM     81  F   UNL A   1      42.320  35.575  35.706  1.00  0.00    -0.203 F 
ATOM     82  F   UNL A   1      38.847  34.834  39.846  1.00  0.00    -0.200 F 
ATOM     83  C   UNL A   1      40.601  36.066  38.856  1.00  0.00     0.200 A 
ATOM     84  F   UNL A   1      42.336  37.278  37.811  1.00  0.00    -0.200 F 
ATOM     85  F   UNL A   1      40.589  36.933  39.877  1.00  0.00    -0.200 F 
ENDBRANCH  51  75
BRANCH  63  86
ATOM     86  C   UNL A   1      44.326  28.590  35.093  1.00  0.00     0.064 A 
ATOM     87  C   UNL A   1      44.107  27.515  35.968  1.00  0.00     0.173 A 
ATOM     88  C   UNL A   1      45.654  28.971  34.842  1.00  0.00     0.173 A 
ATOM     89  F   UNL A   1      42.857  27.121  36.253  1.00  0.00    -0.203 F 
ATOM     90  C   UNL A   1      45.174  26.865  36.585  1.00  0.00     0.198 A 
ATOM     91  C   UNL A   1      46.719  28.298  35.436  1.00  0.00     0.198 A 
ATOM     92  F   UNL A   1      45.920  29.986  34.008  1.00  0.00    -0.203 F 
ATOM     93  F   UNL A   1      44.938  25.872  37.454  1.00  0.00    -0.200 F 
ATOM     94  C   UNL A   1      46.477  27.251  36.312  1.00  0.00     0.200 A 
ATOM     95  F   UNL A   1      47.979  28.661  35.157  1.00  0.00    -0.200 F 
ATOM     96  F   UNL A   1      47.503  26.617  36.899  1.00  0.00    -0.200 F 
ENDBRANCH  63  86
ENDBRANCH  37  38
ENDBRANCH  30  32
ENDBRANCH  29  30
ENDBRANCH  28  29
ENDBRANCH  27  28
ENDBRANCH  26  27
ENDBRANCH  25  26
ENDBRANCH   1  25
TORSDOF 20
ENDMDL
