MODEL 1
REMARK VINA RESULT:     -10.6      0.000      0.000
REMARK SMILES C[C@@H](C(=O)OCCOCCOCCOC(=O)c1ccc(-c2c3nc(c(-c4c(F)c(F)c(F)c(F)c4F)c4ccc([nH]4)c(-c4c(F)c(F)c(F)c(F)c4F)c4nc(c(-c5c(F)c(F)c(F)c(F)c5F)c5ccc2[nH]5)C=C4)C=C3)cc1)c1ccc(-c2cccc(OC(=O)NCCC3CCCCC3)c2)c(F)c1
REMARK SMILES IDX 7 1 6 2 5 3 3 4 4 5 2 6 1 7 80 8 81 9 104 10 82 11 102 12
REMARK SMILES IDX 83 13 103 14 84 15 85 16 101 17 86 18 88 19 87 20 89 21
REMARK SMILES IDX 90 22 91 23 92 24 93 26 94 27 95 28 96 29 100 30 97 31 99 32
REMARK SMILES IDX 98 33 8 34 9 35 10 36 11 37 12 38 13 39 14 40 15 41 16 42
REMARK SMILES IDX 17 43 18 44 79 45 19 46 78 47 20 48 21 49 22 50 72 51 23 52
REMARK SMILES IDX 77 53 71 54 73 55 24 56 76 57 70 58 69 59 25 61 57 62 37 63
REMARK SMILES IDX 56 64 38 65 41 66 55 67 74 68 39 69 40 70 54 72 75 73 42 74
REMARK SMILES IDX 26 75 27 76 35 77 28 78 29 79 33 80 36 81 30 82 31 83 34 84
REMARK SMILES IDX 32 85 58 86 59 87 67 88 60 89 61 90 65 91 68 92 62 93 63 94
REMARK SMILES IDX 66 95 64 96 43 97 44 98 52 99 45 100 46 101 50 102 53 103
REMARK SMILES IDX 47 104 48 105 51 106 49 107
REMARK H PARENT 92 25 73 60 41 71
REMARK Flexibility Score: inf
ROOT
ATOM      1  C   UNL A   1      42.448  18.904  26.763  1.00  0.00     0.202 C 
ENDROOT
BRANCH   1   2
ATOM      2  C   UNL A   1      41.912  20.267  26.282  1.00  0.00     0.261 C 
BRANCH   2   3
ATOM      3  O   UNL A   1      40.670  20.675  26.896  1.00  0.00    -0.463 OA
BRANCH   3   4
ATOM      4  C   UNL A   1      40.631  21.929  27.417  1.00  0.00     0.313 C 
ATOM      5  O   UNL A   1      41.028  22.207  28.546  1.00  0.00    -0.252 OA
BRANCH   4   6
ATOM      6  C   UNL A   1      40.118  23.001  26.436  1.00  0.00     0.126 C 
ATOM      7  C   UNL A   1      40.545  24.434  26.788  1.00  0.00     0.025 C 
BRANCH   6   8
ATOM      8  C   UNL A   1      38.651  22.808  26.025  1.00  0.00    -0.031 A 
ATOM      9  C   UNL A   1      37.771  23.900  26.090  1.00  0.00     0.005 A 
ATOM     10  C   UNL A   1      38.089  21.565  25.693  1.00  0.00     0.044 A 
ATOM     11  C   UNL A   1      36.395  23.752  25.880  1.00  0.00     0.012 A 
ATOM     12  C   UNL A   1      36.708  21.425  25.480  1.00  0.00     0.131 A 
ATOM     13  C   UNL A   1      35.822  22.502  25.601  1.00  0.00     0.018 A 
ATOM     14  F   UNL A   1      36.246  20.203  25.165  1.00  0.00    -0.206 F 
BRANCH  13  15
ATOM     15  C   UNL A   1      34.352  22.357  25.536  1.00  0.00    -0.012 A 
ATOM     16  C   UNL A   1      33.731  21.854  24.384  1.00  0.00     0.009 A 
ATOM     17  C   UNL A   1      33.517  22.825  26.567  1.00  0.00     0.056 A 
ATOM     18  C   UNL A   1      32.343  21.820  24.264  1.00  0.00     0.004 A 
ATOM     19  C   UNL A   1      32.127  22.836  26.415  1.00  0.00     0.133 A 
ATOM     20  C   UNL A   1      31.533  22.302  25.280  1.00  0.00     0.047 A 
BRANCH  19  21
ATOM     21  O   UNL A   1      31.228  23.407  27.336  1.00  0.00    -0.410 OA
BRANCH  21  22
ATOM     22  C   UNL A   1      29.866  23.400  27.079  1.00  0.00     0.412 C 
ATOM     23  O   UNL A   1      29.077  22.489  27.320  1.00  0.00    -0.224 OA
ATOM     24  N   UNL A   1      29.408  24.563  26.537  1.00  0.00    -0.321 N 
ATOM     25  H   UNL A   1      28.453  24.586  26.300  1.00  0.00     0.167 HD
BRANCH  24  26
ATOM     26  C   UNL A   1      30.161  25.771  26.268  1.00  0.00     0.119 C 
BRANCH  26  27
ATOM     27  C   UNL A   1      30.075  26.172  24.797  1.00  0.00     0.025 C 
BRANCH  27  28
ATOM     28  C   UNL A   1      31.223  25.618  23.925  1.00  0.00    -0.009 C 
ATOM     29  C   UNL A   1      31.128  26.098  22.467  1.00  0.00     0.003 C 
ATOM     30  C   UNL A   1      32.579  26.002  24.537  1.00  0.00     0.003 C 
ATOM     31  C   UNL A   1      32.305  25.605  21.627  1.00  0.00     0.000 C 
ATOM     32  C   UNL A   1      33.740  25.485  23.692  1.00  0.00     0.000 C 
ATOM     33  C   UNL A   1      33.643  25.978  22.252  1.00  0.00     0.000 C 
ENDBRANCH  27  28
ENDBRANCH  26  27
ENDBRANCH  24  26
ENDBRANCH  21  22
ENDBRANCH  19  21
ENDBRANCH  13  15
ENDBRANCH   6   8
ENDBRANCH   4   6
ENDBRANCH   3   4
ENDBRANCH   2   3
ENDBRANCH   1   2
BRANCH   1  34
ATOM     34  O   UNL A   1      43.181  18.080  25.857  1.00  0.00    -0.376 OA
BRANCH  34  35
ATOM     35  C   UNL A   1      43.971  18.712  24.859  1.00  0.00     0.188 C 
BRANCH  35  36
ATOM     36  C   UNL A   1      45.451  18.997  25.159  1.00  0.00     0.188 C 
BRANCH  36  37
ATOM     37  O   UNL A   1      45.751  20.338  25.457  1.00  0.00    -0.376 OA
BRANCH  37  38
ATOM     38  C   UNL A   1      46.418  21.142  24.499  1.00  0.00     0.202 C 
BRANCH  38  39
ATOM     39  C   UNL A   1      46.126  22.645  24.312  1.00  0.00     0.261 C 
BRANCH  39  40
ATOM     40  O   UNL A   1      45.814  23.423  25.477  1.00  0.00    -0.460 OA
BRANCH  40  41
ATOM     41  C   UNL A   1      44.541  23.872  25.597  1.00  0.00     0.338 C 
ATOM     42  O   UNL A   1      43.519  23.216  25.518  1.00  0.00    -0.246 OA
BRANCH  41  43
ATOM     43  C   UNL A   1      44.609  25.272  26.084  1.00  0.00     0.060 A 
ATOM     44  C   UNL A   1      45.217  25.539  27.319  1.00  0.00     0.016 A 
ATOM     45  C   UNL A   1      44.089  26.314  25.315  1.00  0.00     0.016 A 
ATOM     46  C   UNL A   1      45.296  26.851  27.796  1.00  0.00     0.010 A 
ATOM     47  C   UNL A   1      44.141  27.623  25.807  1.00  0.00     0.010 A 
ATOM     48  C   UNL A   1      44.722  27.895  27.060  1.00  0.00    -0.014 A 
BRANCH  48  49
ATOM     49  C   UNL A   1      44.547  29.235  27.679  1.00  0.00     0.031 A 
ATOM     50  C   UNL A   1      45.636  30.251  27.480  1.00  0.00     0.074 A 
ATOM     51  C   UNL A   1      43.470  29.532  28.429  1.00  0.00     0.049 A 
ATOM     52  N   UNL A   1      45.747  31.462  27.964  1.00  0.00    -0.248 NA
ATOM     53  C   UNL A   1      46.771  29.832  26.640  1.00  0.00     0.031 C 
ATOM     54  C   UNL A   1      42.357  28.627  28.692  1.00  0.00     0.029 A 
ATOM     55  N   UNL A   1      43.137  30.680  29.110  1.00  0.00    -0.354 N 
ATOM     56  C   UNL A   1      46.979  31.930  27.525  1.00  0.00     0.074 A 
ATOM     57  C   UNL A   1      47.581  30.875  26.738  1.00  0.00     0.031 C 
ATOM     58  C   UNL A   1      41.456  29.259  29.465  1.00  0.00     0.029 A 
ATOM     59  C   UNL A   1      41.926  30.612  29.762  1.00  0.00     0.049 A 
ATOM     60  H   UNL A   1      43.712  31.479  29.129  1.00  0.00     0.167 HD
ATOM     61  C   UNL A   1      47.561  33.127  27.772  1.00  0.00     0.037 A 
ATOM     62  C   UNL A   1      41.274  31.544  30.491  1.00  0.00     0.037 A 
ATOM     63  C   UNL A   1      46.950  34.175  28.546  1.00  0.00     0.049 A 
ATOM     64  C   UNL A   1      41.933  32.889  30.702  1.00  0.00     0.074 A 
ATOM     65  C   UNL A   1      47.450  35.430  28.843  1.00  0.00     0.029 A 
ATOM     66  N   UNL A   1      45.704  34.087  29.148  1.00  0.00    -0.354 N 
ATOM     67  N   UNL A   1      43.068  33.346  30.229  1.00  0.00    -0.248 NA
ATOM     68  C   UNL A   1      41.217  33.851  31.554  1.00  0.00     0.031 C 
ATOM     69  C   UNL A   1      46.536  36.079  29.679  1.00  0.00     0.029 A 
ATOM     70  C   UNL A   1      45.433  35.256  29.843  1.00  0.00     0.049 A 
ATOM     71  H   UNL A   1      45.101  33.312  29.091  1.00  0.00     0.167 HD
ATOM     72  C   UNL A   1      43.193  34.644  30.713  1.00  0.00     0.074 A 
ATOM     73  C   UNL A   1      41.989  34.923  31.465  1.00  0.00     0.031 C 
ATOM     74  C   UNL A   1      44.220  35.518  30.576  1.00  0.00     0.037 A 
BRANCH  61  75
ATOM     75  C   UNL A   1      48.953  33.345  27.254  1.00  0.00     0.064 A 
ATOM     76  C   UNL A   1      50.086  32.867  27.930  1.00  0.00     0.173 A 
ATOM     77  C   UNL A   1      49.152  34.020  26.040  1.00  0.00     0.173 A 
ATOM     78  F   UNL A   1      49.955  32.230  29.102  1.00  0.00    -0.203 F 
ATOM     79  C   UNL A   1      51.365  33.083  27.423  1.00  0.00     0.198 A 
ATOM     80  C   UNL A   1      50.429  34.203  25.518  1.00  0.00     0.198 A 
ATOM     81  F   UNL A   1      48.103  34.495  25.350  1.00  0.00    -0.203 F 
ATOM     82  F   UNL A   1      52.436  32.665  28.112  1.00  0.00    -0.200 F 
ATOM     83  C   UNL A   1      51.535  33.742  26.214  1.00  0.00     0.200 A 
ATOM     84  F   UNL A   1      50.588  34.824  24.342  1.00  0.00    -0.200 F 
ATOM     85  F   UNL A   1      52.766  33.938  25.722  1.00  0.00    -0.200 F 
ENDBRANCH  61  75
BRANCH  62  86
ATOM     86  C   UNL A   1      39.898  31.287  31.025  1.00  0.00     0.064 A 
ATOM     87  C   UNL A   1      39.716  30.725  32.303  1.00  0.00     0.173 A 
ATOM     88  C   UNL A   1      38.738  31.591  30.299  1.00  0.00     0.173 A 
ATOM     89  F   UNL A   1      40.783  30.387  33.044  1.00  0.00    -0.203 F 
ATOM     90  C   UNL A   1      38.449  30.493  32.832  1.00  0.00     0.198 A 
ATOM     91  C   UNL A   1      37.467  31.386  30.840  1.00  0.00     0.198 A 
ATOM     92  F   UNL A   1      38.833  32.107  29.065  1.00  0.00    -0.203 F 
ATOM     93  F   UNL A   1      38.324  29.937  34.045  1.00  0.00    -0.200 F 
ATOM     94  C   UNL A   1      37.323  30.836  32.104  1.00  0.00     0.200 A 
ATOM     95  F   UNL A   1      36.380  31.729  30.136  1.00  0.00    -0.200 F 
ATOM     96  F   UNL A   1      36.103  30.630  32.617  1.00  0.00    -0.200 F 
ENDBRANCH  62  86
BRANCH  74  97
ATOM     97  C   UNL A   1      44.083  36.859  31.243  1.00  0.00     0.064 A 
ATOM     98  C   UNL A   1      43.714  38.006  30.522  1.00  0.00     0.173 A 
ATOM     99  C   UNL A   1      44.282  36.993  32.626  1.00  0.00     0.173 A 
ATOM    100  F   UNL A   1      43.520  37.937  29.196  1.00  0.00    -0.203 F 
ATOM    101  C   UNL A   1      43.586  39.240  31.152  1.00  0.00     0.198 A 
ATOM    102  C   UNL A   1      44.115  38.222  33.259  1.00  0.00     0.198 A 
ATOM    103  F   UNL A   1      44.624  35.929  33.367  1.00  0.00    -0.203 F 
ATOM    104  F   UNL A   1      43.292  40.332  30.431  1.00  0.00    -0.200 F 
ATOM    105  C   UNL A   1      43.778  39.346  32.521  1.00  0.00     0.200 A 
ATOM    106  F   UNL A   1      44.282  38.318  34.585  1.00  0.00    -0.200 F 
ATOM    107  F   UNL A   1      43.646  40.534  33.128  1.00  0.00    -0.200 F 
ENDBRANCH  74  97
ENDBRANCH  48  49
ENDBRANCH  41  43
ENDBRANCH  40  41
ENDBRANCH  39  40
ENDBRANCH  38  39
ENDBRANCH  37  38
ENDBRANCH  36  37
ENDBRANCH  35  36
ENDBRANCH  34  35
ENDBRANCH   1  34
TORSDOF 24
ENDMDL
MODEL 2
REMARK VINA RESULT:     -10.3      4.754      7.241
REMARK SMILES C[C@@H](C(=O)OCCOCCOCCOC(=O)c1ccc(-c2c3nc(c(-c4c(F)c(F)c(F)c(F)c4F)c4ccc([nH]4)c(-c4c(F)c(F)c(F)c(F)c4F)c4nc(c(-c5c(F)c(F)c(F)c(F)c5F)c5ccc2[nH]5)C=C4)C=C3)cc1)c1ccc(-c2cccc(OC(=O)NCCC3CCCCC3)c2)c(F)c1
REMARK SMILES IDX 7 1 6 2 5 3 3 4 4 5 2 6 1 7 80 8 81 9 104 10 82 11 102 12
REMARK SMILES IDX 83 13 103 14 84 15 85 16 101 17 86 18 88 19 87 20 89 21
REMARK SMILES IDX 90 22 91 23 92 24 93 26 94 27 95 28 96 29 100 30 97 31 99 32
REMARK SMILES IDX 98 33 8 34 9 35 10 36 11 37 12 38 13 39 14 40 15 41 16 42
REMARK SMILES IDX 17 43 18 44 79 45 19 46 78 47 20 48 21 49 22 50 72 51 23 52
REMARK SMILES IDX 77 53 71 54 73 55 24 56 76 57 70 58 69 59 25 61 57 62 37 63
REMARK SMILES IDX 56 64 38 65 41 66 55 67 74 68 39 69 40 70 54 72 75 73 42 74
REMARK SMILES IDX 26 75 27 76 35 77 28 78 29 79 33 80 36 81 30 82 31 83 34 84
REMARK SMILES IDX 32 85 58 86 59 87 67 88 60 89 61 90 65 91 68 92 62 93 63 94
REMARK SMILES IDX 66 95 64 96 43 97 44 98 52 99 45 100 46 101 50 102 53 103
REMARK SMILES IDX 47 104 48 105 51 106 49 107
REMARK H PARENT 92 25 73 60 41 71
REMARK Flexibility Score: inf
ROOT
ATOM      1  C   UNL A   1      42.247  21.657  26.963  1.00  0.00     0.202 C 
ENDROOT
BRANCH   1   2
ATOM      2  C   UNL A   1      41.846  22.435  28.232  1.00  0.00     0.261 C 
BRANCH   2   3
ATOM      3  O   UNL A   1      40.920  23.520  28.003  1.00  0.00    -0.463 OA
BRANCH   3   4
ATOM      4  C   UNL A   1      41.416  24.779  28.117  1.00  0.00     0.313 C 
ATOM      5  O   UNL A   1      42.526  25.031  28.578  1.00  0.00    -0.252 OA
BRANCH   4   6
ATOM      6  C   UNL A   1      40.495  25.872  27.539  1.00  0.00     0.126 C 
ATOM      7  C   UNL A   1      40.900  26.364  26.142  1.00  0.00     0.025 C 
BRANCH   6   8
ATOM      8  C   UNL A   1      40.111  26.954  28.559  1.00  0.00    -0.031 A 
ATOM      9  C   UNL A   1      40.912  28.101  28.676  1.00  0.00     0.005 A 
ATOM     10  C   UNL A   1      39.060  26.822  29.481  1.00  0.00     0.044 A 
ATOM     11  C   UNL A   1      40.705  29.045  29.689  1.00  0.00     0.012 A 
ATOM     12  C   UNL A   1      38.856  27.775  30.492  1.00  0.00     0.131 A 
ATOM     13  C   UNL A   1      39.690  28.890  30.646  1.00  0.00     0.018 A 
ATOM     14  F   UNL A   1      37.830  27.579  31.336  1.00  0.00    -0.206 F 
BRANCH  13  15
ATOM     15  C   UNL A   1      39.597  29.824  31.788  1.00  0.00    -0.012 A 
ATOM     16  C   UNL A   1      39.879  29.394  33.092  1.00  0.00     0.009 A 
ATOM     17  C   UNL A   1      39.110  31.135  31.632  1.00  0.00     0.056 A 
ATOM     18  C   UNL A   1      39.686  30.230  34.189  1.00  0.00     0.004 A 
ATOM     19  C   UNL A   1      38.868  31.947  32.744  1.00  0.00     0.133 A 
ATOM     20  C   UNL A   1      39.188  31.512  34.024  1.00  0.00     0.047 A 
BRANCH  19  21
ATOM     21  O   UNL A   1      38.259  33.216  32.689  1.00  0.00    -0.410 OA
BRANCH  21  22
ATOM     22  C   UNL A   1      38.330  33.976  31.533  1.00  0.00     0.412 C 
ATOM     23  O   UNL A   1      39.350  34.383  30.982  1.00  0.00    -0.224 OA
ATOM     24  N   UNL A   1      37.113  34.236  30.978  1.00  0.00    -0.321 N 
ATOM     25  H   UNL A   1      37.115  34.810  30.177  1.00  0.00     0.167 HD
BRANCH  24  26
ATOM     26  C   UNL A   1      35.817  33.769  31.426  1.00  0.00     0.119 C 
BRANCH  26  27
ATOM     27  C   UNL A   1      35.692  32.252  31.298  1.00  0.00     0.025 C 
BRANCH  27  28
ATOM     28  C   UNL A   1      35.870  31.725  29.858  1.00  0.00    -0.009 C 
ATOM     29  C   UNL A   1      36.272  30.241  29.829  1.00  0.00     0.003 C 
ATOM     30  C   UNL A   1      34.582  31.956  29.051  1.00  0.00     0.003 C 
ATOM     31  C   UNL A   1      36.377  29.706  28.402  1.00  0.00     0.000 C 
ATOM     32  C   UNL A   1      34.716  31.430  27.624  1.00  0.00     0.000 C 
ATOM     33  C   UNL A   1      35.101  29.955  27.608  1.00  0.00     0.000 C 
ENDBRANCH  27  28
ENDBRANCH  26  27
ENDBRANCH  24  26
ENDBRANCH  21  22
ENDBRANCH  19  21
ENDBRANCH  13  15
ENDBRANCH   6   8
ENDBRANCH   4   6
ENDBRANCH   3   4
ENDBRANCH   2   3
ENDBRANCH   1   2
BRANCH   1  34
ATOM     34  O   UNL A   1      43.509  21.921  26.350  1.00  0.00    -0.376 OA
BRANCH  34  35
ATOM     35  C   UNL A   1      43.967  21.032  25.339  1.00  0.00     0.188 C 
BRANCH  35  36
ATOM     36  C   UNL A   1      45.420  20.538  25.392  1.00  0.00     0.188 C 
BRANCH  36  37
ATOM     37  O   UNL A   1      46.378  21.451  24.915  1.00  0.00    -0.376 OA
BRANCH  37  38
ATOM     38  C   UNL A   1      46.297  22.816  25.285  1.00  0.00     0.202 C 
BRANCH  38  39
ATOM     39  C   UNL A   1      45.968  23.942  24.281  1.00  0.00     0.261 C 
BRANCH  39  40
ATOM     40  O   UNL A   1      45.455  25.178  24.798  1.00  0.00    -0.460 OA
BRANCH  40  41
ATOM     41  C   UNL A   1      46.286  26.247  24.779  1.00  0.00     0.338 C 
ATOM     42  O   UNL A   1      47.150  26.493  23.957  1.00  0.00    -0.246 OA
BRANCH  41  43
ATOM     43  C   UNL A   1      45.803  27.204  25.806  1.00  0.00     0.060 A 
ATOM     44  C   UNL A   1      46.733  27.985  26.507  1.00  0.00     0.016 A 
ATOM     45  C   UNL A   1      44.438  27.338  26.060  1.00  0.00     0.016 A 
ATOM     46  C   UNL A   1      46.301  28.896  27.474  1.00  0.00     0.010 A 
ATOM     47  C   UNL A   1      44.008  28.227  27.051  1.00  0.00     0.010 A 
ATOM     48  C   UNL A   1      44.937  28.993  27.780  1.00  0.00    -0.014 A 
BRANCH  48  49
ATOM     49  C   UNL A   1      44.495  29.736  28.988  1.00  0.00     0.031 A 
ATOM     50  C   UNL A   1      44.219  31.207  28.849  1.00  0.00     0.074 A 
ATOM     51  C   UNL A   1      44.377  29.133  30.186  1.00  0.00     0.049 A 
ATOM     52  N   UNL A   1      43.882  32.083  29.760  1.00  0.00    -0.248 NA
ATOM     53  C   UNL A   1      44.373  31.772  27.498  1.00  0.00     0.031 C 
ATOM     54  C   UNL A   1      44.620  27.718  30.438  1.00  0.00     0.029 A 
ATOM     55  N   UNL A   1      44.023  29.638  31.416  1.00  0.00    -0.354 N 
ATOM     56  C   UNL A   1      43.827  33.306  29.103  1.00  0.00     0.074 A 
ATOM     57  C   UNL A   1      44.167  33.061  27.718  1.00  0.00     0.031 C 
ATOM     58  C   UNL A   1      44.395  27.464  31.740  1.00  0.00     0.029 A 
ATOM     59  C   UNL A   1      43.997  28.697  32.419  1.00  0.00     0.049 A 
ATOM     60  H   UNL A   1      43.808  30.588  31.564  1.00  0.00     0.167 HD
ATOM     61  C   UNL A   1      43.535  34.524  29.616  1.00  0.00     0.037 A 
ATOM     62  C   UNL A   1      43.668  28.821  33.725  1.00  0.00     0.037 A 
ATOM     63  C   UNL A   1      43.186  34.757  30.992  1.00  0.00     0.049 A 
ATOM     64  C   UNL A   1      43.297  30.190  34.249  1.00  0.00     0.074 A 
ATOM     65  C   UNL A   1      42.859  35.951  31.609  1.00  0.00     0.029 A 
ATOM     66  N   UNL A   1      43.122  33.772  31.967  1.00  0.00    -0.354 N 
ATOM     67  N   UNL A   1      43.184  31.329  33.607  1.00  0.00    -0.248 NA
ATOM     68  C   UNL A   1      43.009  30.292  35.688  1.00  0.00     0.031 C 
ATOM     69  C   UNL A   1      42.661  35.701  32.970  1.00  0.00     0.029 A 
ATOM     70  C   UNL A   1      42.793  34.338  33.188  1.00  0.00     0.049 A 
ATOM     71  H   UNL A   1      43.286  32.813  31.815  1.00  0.00     0.167 HD
ATOM     72  C   UNL A   1      42.801  32.270  34.556  1.00  0.00     0.074 A 
ATOM     73  C   UNL A   1      42.641  31.559  35.806  1.00  0.00     0.031 C 
ATOM     74  C   UNL A   1      42.625  33.608  34.419  1.00  0.00     0.037 A 
BRANCH  61  75
ATOM     75  C   UNL A   1      43.641  35.709  28.699  1.00  0.00     0.064 A 
ATOM     76  C   UNL A   1      42.526  36.240  28.032  1.00  0.00     0.173 A 
ATOM     77  C   UNL A   1      44.879  36.342  28.510  1.00  0.00     0.173 A 
ATOM     78  F   UNL A   1      41.323  35.664  28.164  1.00  0.00    -0.203 F 
ATOM     79  C   UNL A   1      42.655  37.341  27.189  1.00  0.00     0.198 A 
ATOM     80  C   UNL A   1      44.997  37.464  27.696  1.00  0.00     0.198 A 
ATOM     81  F   UNL A   1      45.977  35.877  29.127  1.00  0.00    -0.203 F 
ATOM     82  F   UNL A   1      41.588  37.799  26.521  1.00  0.00    -0.200 F 
ATOM     83  C   UNL A   1      43.887  37.957  27.030  1.00  0.00     0.200 A 
ATOM     84  F   UNL A   1      46.186  38.067  27.558  1.00  0.00    -0.200 F 
ATOM     85  F   UNL A   1      44.006  39.025  26.228  1.00  0.00    -0.200 F 
ENDBRANCH  61  75
BRANCH  62  86
ATOM     86  C   UNL A   1      43.603  27.625  34.625  1.00  0.00     0.064 A 
ATOM     87  C   UNL A   1      44.700  27.274  35.434  1.00  0.00     0.173 A 
ATOM     88  C   UNL A   1      42.467  26.809  34.713  1.00  0.00     0.173 A 
ATOM     89  F   UNL A   1      45.830  27.997  35.383  1.00  0.00    -0.203 F 
ATOM     90  C   UNL A   1      44.660  26.180  36.294  1.00  0.00     0.198 A 
ATOM     91  C   UNL A   1      42.416  25.729  35.597  1.00  0.00     0.198 A 
ATOM     92  F   UNL A   1      41.392  27.068  33.955  1.00  0.00    -0.203 F 
ATOM     93  F   UNL A   1      45.736  25.871  37.032  1.00  0.00    -0.200 F 
ATOM     94  C   UNL A   1      43.512  25.414  36.385  1.00  0.00     0.200 A 
ATOM     95  F   UNL A   1      41.297  24.996  35.689  1.00  0.00    -0.200 F 
ATOM     96  F   UNL A   1      43.464  24.370  37.224  1.00  0.00    -0.200 F 
ENDBRANCH  62  86
BRANCH  74  97
ATOM     97  C   UNL A   1      42.231  34.385  35.645  1.00  0.00     0.064 A 
ATOM     98  C   UNL A   1      40.898  34.755  35.885  1.00  0.00     0.173 A 
ATOM     99  C   UNL A   1      43.189  34.728  36.612  1.00  0.00     0.173 A 
ATOM    100  F   UNL A   1      39.944  34.460  34.989  1.00  0.00    -0.203 F 
ATOM    101  C   UNL A   1      40.546  35.470  37.026  1.00  0.00     0.198 A 
ATOM    102  C   UNL A   1      42.827  35.410  37.770  1.00  0.00     0.198 A 
ATOM    103  F   UNL A   1      44.476  34.389  36.441  1.00  0.00    -0.203 F 
ATOM    104  F   UNL A   1      39.277  35.864  37.203  1.00  0.00    -0.200 F 
ATOM    105  C   UNL A   1      41.508  35.789  37.972  1.00  0.00     0.200 A 
ATOM    106  F   UNL A   1      43.754  35.701  38.693  1.00  0.00    -0.200 F 
ATOM    107  F   UNL A   1      41.166  36.471  39.074  1.00  0.00    -0.200 F 
ENDBRANCH  74  97
ENDBRANCH  48  49
ENDBRANCH  41  43
ENDBRANCH  40  41
ENDBRANCH  39  40
ENDBRANCH  38  39
ENDBRANCH  37  38
ENDBRANCH  36  37
ENDBRANCH  35  36
ENDBRANCH  34  35
ENDBRANCH   1  34
TORSDOF 24
ENDMDL
MODEL 3
REMARK VINA RESULT:     -10.2      5.173     11.618
REMARK SMILES C[C@@H](C(=O)OCCOCCOCCOC(=O)c1ccc(-c2c3nc(c(-c4c(F)c(F)c(F)c(F)c4F)c4ccc([nH]4)c(-c4c(F)c(F)c(F)c(F)c4F)c4nc(c(-c5c(F)c(F)c(F)c(F)c5F)c5ccc2[nH]5)C=C4)C=C3)cc1)c1ccc(-c2cccc(OC(=O)NCCC3CCCCC3)c2)c(F)c1
REMARK SMILES IDX 7 1 6 2 5 3 3 4 4 5 2 6 1 7 80 8 81 9 104 10 82 11 102 12
REMARK SMILES IDX 83 13 103 14 84 15 85 16 101 17 86 18 88 19 87 20 89 21
REMARK SMILES IDX 90 22 91 23 92 24 93 26 94 27 95 28 96 29 100 30 97 31 99 32
REMARK SMILES IDX 98 33 8 34 9 35 10 36 11 37 12 38 13 39 14 40 15 41 16 42
REMARK SMILES IDX 17 43 18 44 79 45 19 46 78 47 20 48 21 49 22 50 72 51 23 52
REMARK SMILES IDX 77 53 71 54 73 55 24 56 76 57 70 58 69 59 25 61 57 62 37 63
REMARK SMILES IDX 56 64 38 65 41 66 55 67 74 68 39 69 40 70 54 72 75 73 42 74
REMARK SMILES IDX 26 75 27 76 35 77 28 78 29 79 33 80 36 81 30 82 31 83 34 84
REMARK SMILES IDX 32 85 58 86 59 87 67 88 60 89 61 90 65 91 68 92 62 93 63 94
REMARK SMILES IDX 66 95 64 96 43 97 44 98 52 99 45 100 46 101 50 102 53 103
REMARK SMILES IDX 47 104 48 105 51 106 49 107
REMARK H PARENT 92 25 73 60 41 71
REMARK Flexibility Score: inf
ROOT
ATOM      1  C   UNL A   1      36.721  33.621  30.221  1.00  0.00     0.202 C 
ENDROOT
BRANCH   1   2
ATOM      2  C   UNL A   1      37.795  33.051  29.273  1.00  0.00     0.261 C 
BRANCH   2   3
ATOM      3  O   UNL A   1      38.529  31.926  29.805  1.00  0.00    -0.463 OA
BRANCH   3   4
ATOM      4  C   UNL A   1      37.933  30.710  29.710  1.00  0.00     0.313 C 
ATOM      5  O   UNL A   1      37.235  30.226  30.597  1.00  0.00    -0.252 OA
BRANCH   4   6
ATOM      6  C   UNL A   1      38.137  30.013  28.350  1.00  0.00     0.126 C 
ATOM      7  C   UNL A   1      36.934  29.184  27.878  1.00  0.00     0.025 C 
BRANCH   6   8
ATOM      8  C   UNL A   1      39.519  29.360  28.196  1.00  0.00    -0.031 A 
ATOM      9  C   UNL A   1      39.979  29.023  26.912  1.00  0.00     0.005 A 
ATOM     10  C   UNL A   1      40.321  28.962  29.277  1.00  0.00     0.044 A 
ATOM     11  C   UNL A   1      41.154  28.288  26.719  1.00  0.00     0.012 A 
ATOM     12  C   UNL A   1      41.501  28.227  29.075  1.00  0.00     0.131 A 
ATOM     13  C   UNL A   1      41.931  27.841  27.800  1.00  0.00     0.018 A 
ATOM     14  F   UNL A   1      42.215  27.884  30.160  1.00  0.00    -0.206 F 
BRANCH  13  15
ATOM     15  C   UNL A   1      43.079  26.940  27.566  1.00  0.00    -0.012 A 
ATOM     16  C   UNL A   1      44.374  27.455  27.408  1.00  0.00     0.009 A 
ATOM     17  C   UNL A   1      42.906  25.558  27.375  1.00  0.00     0.056 A 
ATOM     18  C   UNL A   1      45.446  26.630  27.074  1.00  0.00     0.004 A 
ATOM     19  C   UNL A   1      43.978  24.748  26.986  1.00  0.00     0.133 A 
ATOM     20  C   UNL A   1      45.258  25.272  26.869  1.00  0.00     0.047 A 
BRANCH  19  21
ATOM     21  O   UNL A   1      43.867  23.386  26.644  1.00  0.00    -0.410 OA
BRANCH  21  22
ATOM     22  C   UNL A   1      43.351  23.014  25.413  1.00  0.00     0.412 C 
ATOM     23  O   UNL A   1      43.600  23.530  24.326  1.00  0.00    -0.224 OA
ATOM     24  N   UNL A   1      42.516  21.939  25.475  1.00  0.00    -0.321 N 
ATOM     25  H   UNL A   1      42.094  21.668  24.628  1.00  0.00     0.167 HD
BRANCH  24  26
ATOM     26  C   UNL A   1      42.177  21.148  26.640  1.00  0.00     0.119 C 
BRANCH  26  27
ATOM     27  C   UNL A   1      40.665  20.993  26.794  1.00  0.00     0.025 C 
BRANCH  27  28
ATOM     28  C   UNL A   1      39.851  22.179  26.233  1.00  0.00    -0.009 C 
ATOM     29  C   UNL A   1      38.435  21.759  25.804  1.00  0.00     0.003 C 
ATOM     30  C   UNL A   1      39.792  23.312  27.269  1.00  0.00     0.003 C 
ATOM     31  C   UNL A   1      37.610  22.949  25.317  1.00  0.00     0.000 C 
ATOM     32  C   UNL A   1      38.978  24.497  26.755  1.00  0.00     0.000 C 
ATOM     33  C   UNL A   1      37.572  24.072  26.346  1.00  0.00     0.000 C 
ENDBRANCH  27  28
ENDBRANCH  26  27
ENDBRANCH  24  26
ENDBRANCH  21  22
ENDBRANCH  19  21
ENDBRANCH  13  15
ENDBRANCH   6   8
ENDBRANCH   4   6
ENDBRANCH   3   4
ENDBRANCH   2   3
ENDBRANCH   1   2
BRANCH   1  34
ATOM     34  O   UNL A   1      35.521  34.166  29.672  1.00  0.00    -0.376 OA
BRANCH  34  35
ATOM     35  C   UNL A   1      34.388  34.293  30.520  1.00  0.00     0.188 C 
BRANCH  35  36
ATOM     36  C   UNL A   1      34.454  33.696  31.934  1.00  0.00     0.188 C 
BRANCH  36  37
ATOM     37  O   UNL A   1      35.151  34.472  32.877  1.00  0.00    -0.376 OA
BRANCH  37  38
ATOM     38  C   UNL A   1      35.270  34.019  34.214  1.00  0.00     0.202 C 
BRANCH  38  39
ATOM     39  C   UNL A   1      36.599  33.514  34.816  1.00  0.00     0.261 C 
BRANCH  39  40
ATOM     40  O   UNL A   1      36.835  32.099  34.841  1.00  0.00    -0.460 OA
BRANCH  40  41
ATOM     41  C   UNL A   1      37.812  31.650  35.664  1.00  0.00     0.338 C 
ATOM     42  O   UNL A   1      37.703  31.347  36.838  1.00  0.00    -0.246 OA
BRANCH  41  43
ATOM     43  C   UNL A   1      39.001  31.358  34.825  1.00  0.00     0.060 A 
ATOM     44  C   UNL A   1      38.862  30.522  33.708  1.00  0.00     0.016 A 
ATOM     45  C   UNL A   1      40.239  31.922  35.132  1.00  0.00     0.016 A 
ATOM     46  C   UNL A   1      39.966  30.236  32.900  1.00  0.00     0.010 A 
ATOM     47  C   UNL A   1      41.351  31.610  34.342  1.00  0.00     0.010 A 
ATOM     48  C   UNL A   1      41.226  30.747  33.236  1.00  0.00    -0.014 A 
BRANCH  48  49
ATOM     49  C   UNL A   1      42.445  30.228  32.564  1.00  0.00     0.031 A 
ATOM     50  C   UNL A   1      43.097  29.002  33.138  1.00  0.00     0.074 A 
ATOM     51  C   UNL A   1      42.981  30.846  31.496  1.00  0.00     0.049 A 
ATOM     52  N   UNL A   1      44.196  28.392  32.772  1.00  0.00    -0.248 NA
ATOM     53  C   UNL A   1      42.432  28.396  34.303  1.00  0.00     0.031 C 
ATOM     54  C   UNL A   1      42.438  32.040  30.859  1.00  0.00     0.029 A 
ATOM     55  N   UNL A   1      44.107  30.555  30.760  1.00  0.00    -0.354 N 
ATOM     56  C   UNL A   1      44.375  27.362  33.687  1.00  0.00     0.074 A 
ATOM     57  C   UNL A   1      43.276  27.428  34.625  1.00  0.00     0.031 C 
ATOM     58  C   UNL A   1      43.221  32.372  29.817  1.00  0.00     0.029 A 
ATOM     59  C   UNL A   1      44.329  31.421  29.714  1.00  0.00     0.049 A 
ATOM     60  H   UNL A   1      44.700  29.796  30.963  1.00  0.00     0.167 HD
ATOM     61  C   UNL A   1      45.378  26.455  33.745  1.00  0.00     0.037 A 
ATOM     62  C   UNL A   1      45.302  31.426  28.775  1.00  0.00     0.037 A 
ATOM     63  C   UNL A   1      46.461  26.388  32.800  1.00  0.00     0.049 A 
ATOM     64  C   UNL A   1      46.376  30.363  28.843  1.00  0.00     0.074 A 
ATOM     65  C   UNL A   1      47.520  25.498  32.763  1.00  0.00     0.029 A 
ATOM     66  N   UNL A   1      46.626  27.250  31.727  1.00  0.00    -0.354 N 
ATOM     67  N   UNL A   1      46.502  29.354  29.672  1.00  0.00    -0.248 NA
ATOM     68  C   UNL A   1      47.451  30.443  27.841  1.00  0.00     0.031 C 
ATOM     69  C   UNL A   1      48.359  25.860  31.706  1.00  0.00     0.029 A 
ATOM     70  C   UNL A   1      47.787  26.932  31.040  1.00  0.00     0.049 A 
ATOM     71  H   UNL A   1      46.010  27.980  31.488  1.00  0.00     0.167 HD
ATOM     72  C   UNL A   1      47.653  28.678  29.284  1.00  0.00     0.074 A 
ATOM     73  C   UNL A   1      48.156  29.354  28.108  1.00  0.00     0.031 C 
ATOM     74  C   UNL A   1      48.261  27.612  29.861  1.00  0.00     0.037 A 
BRANCH  61  75
ATOM     75  C   UNL A   1      45.385  25.499  34.903  1.00  0.00     0.064 A 
ATOM     76  C   UNL A   1      44.924  24.179  34.787  1.00  0.00     0.173 A 
ATOM     77  C   UNL A   1      45.893  25.906  36.147  1.00  0.00     0.173 A 
ATOM     78  F   UNL A   1      44.413  23.742  33.626  1.00  0.00    -0.203 F 
ATOM     79  C   UNL A   1      44.945  23.314  35.878  1.00  0.00     0.198 A 
ATOM     80  C   UNL A   1      45.946  25.029  37.226  1.00  0.00     0.198 A 
ATOM     81  F   UNL A   1      46.350  27.157  36.314  1.00  0.00    -0.203 F 
ATOM     82  F   UNL A   1      44.450  22.075  35.758  1.00  0.00    -0.200 F 
ATOM     83  C   UNL A   1      45.464  23.737  37.093  1.00  0.00     0.200 A 
ATOM     84  F   UNL A   1      46.464  25.436  38.392  1.00  0.00    -0.200 F 
ATOM     85  F   UNL A   1      45.495  22.899  38.139  1.00  0.00    -0.200 F 
ENDBRANCH  61  75
BRANCH  62  86
ATOM     86  C   UNL A   1      45.288  32.413  27.648  1.00  0.00     0.064 A 
ATOM     87  C   UNL A   1      46.121  33.547  27.676  1.00  0.00     0.173 A 
ATOM     88  C   UNL A   1      44.465  32.262  26.524  1.00  0.00     0.173 A 
ATOM     89  F   UNL A   1      46.918  33.768  28.734  1.00  0.00    -0.203 F 
ATOM     90  C   UNL A   1      46.143  34.471  26.634  1.00  0.00     0.198 A 
ATOM     91  C   UNL A   1      44.507  33.172  25.465  1.00  0.00     0.198 A 
ATOM     92  F   UNL A   1      43.627  31.218  26.438  1.00  0.00    -0.203 F 
ATOM     93  F   UNL A   1      46.937  35.547  26.713  1.00  0.00    -0.200 F 
ATOM     94  C   UNL A   1      45.344  34.276  25.522  1.00  0.00     0.200 A 
ATOM     95  F   UNL A   1      43.739  32.974  24.385  1.00  0.00    -0.200 F 
ATOM     96  F   UNL A   1      45.375  35.154  24.510  1.00  0.00    -0.200 F 
ENDBRANCH  62  86
BRANCH  74  97
ATOM     97  C   UNL A   1      49.527  27.107  29.225  1.00  0.00     0.064 A 
ATOM     98  C   UNL A   1      50.788  27.588  29.612  1.00  0.00     0.173 A 
ATOM     99  C   UNL A   1      49.483  26.102  28.247  1.00  0.00     0.173 A 
ATOM    100  F   UNL A   1      50.887  28.555  30.537  1.00  0.00    -0.203 F 
ATOM    101  C   UNL A   1      51.952  27.109  29.019  1.00  0.00     0.198 A 
ATOM    102  C   UNL A   1      50.653  25.598  27.682  1.00  0.00     0.198 A 
ATOM    103  F   UNL A   1      48.307  25.597  27.846  1.00  0.00    -0.203 F 
ATOM    104  F   UNL A   1      53.140  27.628  29.362  1.00  0.00    -0.200 F 
ATOM    105  C   UNL A   1      51.885  26.109  28.061  1.00  0.00     0.200 A 
ATOM    106  F   UNL A   1      50.587  24.618  26.771  1.00  0.00    -0.200 F 
ATOM    107  F   UNL A   1      53.008  25.644  27.496  1.00  0.00    -0.200 F 
ENDBRANCH  74  97
ENDBRANCH  48  49
ENDBRANCH  41  43
ENDBRANCH  40  41
ENDBRANCH  39  40
ENDBRANCH  38  39
ENDBRANCH  37  38
ENDBRANCH  36  37
ENDBRANCH  35  36
ENDBRANCH  34  35
ENDBRANCH   1  34
TORSDOF 24
ENDMDL
