MODEL 1
REMARK VINA RESULT:     -12.4      0.000      0.000
REMARK SMILES O=C(OCCOCCOCCOC(=O)[C@@H]1[C@H](C(=O)Nc2ccc(Cn3cncn3)cc2)[C@@H]2C=C[C@H]1CC2)c1ccc(-c2c3nc(c(-c4c(F)c(F)c(F)c(F)c4F)c4ccc([nH]4)c(-c4c(F)c(F)c(F)c(F)c4F)c4nc(c(-c5c(F)c(F)c(F)c(F)c5F)c5ccc2[nH]5)C=C4)C=C3)cc1
REMARK SMILES IDX 8 1 7 2 6 3 5 4 4 5 3 6 2 7 1 8 38 9 39 10 100 11 40 12
REMARK SMILES IDX 99 13 41 14 42 15 43 16 93 17 44 18 98 19 92 20 94 21 45 22
REMARK SMILES IDX 97 23 91 24 90 25 46 27 78 28 58 29 77 30 59 31 62 32 76 33
REMARK SMILES IDX 95 34 60 35 61 36 75 38 96 39 63 40 47 41 48 42 56 43 49 44
REMARK SMILES IDX 50 45 54 46 57 47 51 48 52 49 55 50 53 51 79 52 80 53 88 54
REMARK SMILES IDX 81 55 82 56 86 57 89 58 83 59 84 60 87 61 85 62 64 63 65 64
REMARK SMILES IDX 73 65 66 66 67 67 71 68 74 69 68 70 69 71 72 72 70 73 9 74
REMARK SMILES IDX 10 75 11 76 12 77 13 78 14 79 15 80 16 81 35 82 32 83 34 84
REMARK SMILES IDX 36 85 33 86 37 87 17 88 18 89 19 90 20 92 21 93 31 94 22 95
REMARK SMILES IDX 30 96 23 97 24 98 25 99 26 100 29 101 27 102 28 103
REMARK H PARENT 94 26 62 37 19 91
REMARK Flexibility Score: inf
ROOT
ATOM      1  C   UNL A   1      38.902  22.245  26.158  1.00  0.00     0.188 C 
ENDROOT
BRANCH   1   2
ATOM      2  C   UNL A   1      39.698  20.919  26.111  1.00  0.00     0.188 C 
BRANCH   2   3
ATOM      3  O   UNL A   1      41.116  20.884  26.116  1.00  0.00    -0.376 OA
BRANCH   3   4
ATOM      4  C   UNL A   1      41.788  19.843  26.800  1.00  0.00     0.202 C 
BRANCH   4   5
ATOM      5  C   UNL A   1      42.776  18.974  26.026  1.00  0.00     0.261 C 
BRANCH   5   6
ATOM      6  O   UNL A   1      43.381  19.658  24.922  1.00  0.00    -0.460 OA
BRANCH   6   7
ATOM      7  C   UNL A   1      44.452  20.480  24.822  1.00  0.00     0.338 C 
ATOM      8  O   UNL A   1      45.458  20.040  24.294  1.00  0.00    -0.246 OA
BRANCH   7   9
ATOM      9  C   UNL A   1      44.486  21.894  25.317  1.00  0.00     0.060 A 
ATOM     10  C   UNL A   1      45.278  22.402  26.346  1.00  0.00     0.016 A 
ATOM     11  C   UNL A   1      43.600  22.776  24.668  1.00  0.00     0.016 A 
ATOM     12  C   UNL A   1      45.013  23.655  26.878  1.00  0.00     0.010 A 
ATOM     13  C   UNL A   1      43.371  24.056  25.154  1.00  0.00     0.010 A 
ATOM     14  C   UNL A   1      44.013  24.452  26.318  1.00  0.00    -0.014 A 
BRANCH  14  15
ATOM     15  C   UNL A   1      43.725  25.721  26.967  1.00  0.00     0.031 A 
ATOM     16  C   UNL A   1      44.699  26.808  26.694  1.00  0.00     0.074 A 
ATOM     17  C   UNL A   1      42.638  25.917  27.737  1.00  0.00     0.049 A 
ATOM     18  N   UNL A   1      45.458  27.425  27.539  1.00  0.00    -0.248 NA
ATOM     19  C   UNL A   1      44.928  27.188  25.293  1.00  0.00     0.031 C 
ATOM     20  C   UNL A   1      41.471  25.047  27.892  1.00  0.00     0.029 A 
ATOM     21  N   UNL A   1      42.315  27.005  28.493  1.00  0.00    -0.354 N 
ATOM     22  C   UNL A   1      46.148  28.388  26.807  1.00  0.00     0.074 A 
ATOM     23  C   UNL A   1      45.875  28.118  25.420  1.00  0.00     0.031 C 
ATOM     24  C   UNL A   1      40.483  25.734  28.511  1.00  0.00     0.029 A 
ATOM     25  C   UNL A   1      40.994  27.033  28.914  1.00  0.00     0.049 A 
ATOM     26  H   UNL A   1      42.963  27.710  28.720  1.00  0.00     0.167 HD
ATOM     27  C   UNL A   1      46.725  29.458  27.422  1.00  0.00     0.037 A 
ATOM     28  C   UNL A   1      40.352  28.076  29.498  1.00  0.00     0.037 A 
ATOM     29  C   UNL A   1      46.963  29.190  28.818  1.00  0.00     0.049 A 
ATOM     30  C   UNL A   1      41.383  28.986  30.056  1.00  0.00     0.074 A 
ATOM     31  C   UNL A   1      47.703  28.251  29.513  1.00  0.00     0.029 A 
ATOM     32  N   UNL A   1      46.123  29.750  29.747  1.00  0.00    -0.354 N 
ATOM     33  N   UNL A   1      42.122  28.706  31.092  1.00  0.00    -0.248 NA
ATOM     34  C   UNL A   1      41.882  30.052  29.201  1.00  0.00     0.031 C 
ATOM     35  C   UNL A   1      46.932  27.956  30.674  1.00  0.00     0.029 A 
ATOM     36  C   UNL A   1      45.800  28.770  30.645  1.00  0.00     0.049 A 
ATOM     37  H   UNL A   1      45.810  30.683  29.762  1.00  0.00     0.167 HD
ATOM     38  C   UNL A   1      43.367  29.228  30.781  1.00  0.00     0.074 A 
ATOM     39  C   UNL A   1      43.133  30.133  29.660  1.00  0.00     0.031 C 
ATOM     40  C   UNL A   1      44.507  28.662  31.274  1.00  0.00     0.037 A 
BRANCH  27  41
ATOM     41  C   UNL A   1      46.721  30.864  26.862  1.00  0.00     0.064 A 
ATOM     42  C   UNL A   1      47.912  31.618  26.904  1.00  0.00     0.173 A 
ATOM     43  C   UNL A   1      45.548  31.604  26.597  1.00  0.00     0.173 A 
ATOM     44  F   UNL A   1      49.091  31.025  27.144  1.00  0.00    -0.203 F 
ATOM     45  C   UNL A   1      47.911  33.013  26.811  1.00  0.00     0.198 A 
ATOM     46  C   UNL A   1      45.557  32.990  26.453  1.00  0.00     0.198 A 
ATOM     47  F   UNL A   1      44.334  31.042  26.573  1.00  0.00    -0.203 F 
ATOM     48  F   UNL A   1      49.048  33.693  27.006  1.00  0.00    -0.200 F 
ATOM     49  C   UNL A   1      46.730  33.699  26.601  1.00  0.00     0.200 A 
ATOM     50  F   UNL A   1      44.400  33.639  26.258  1.00  0.00    -0.200 F 
ATOM     51  F   UNL A   1      46.713  35.038  26.587  1.00  0.00    -0.200 F 
ENDBRANCH  27  41
BRANCH  28  52
ATOM     52  C   UNL A   1      38.934  28.483  29.364  1.00  0.00     0.064 A 
ATOM     53  C   UNL A   1      38.128  28.680  30.498  1.00  0.00     0.173 A 
ATOM     54  C   UNL A   1      38.425  28.965  28.144  1.00  0.00     0.173 A 
ATOM     55  F   UNL A   1      38.557  28.290  31.708  1.00  0.00    -0.203 F 
ATOM     56  C   UNL A   1      36.902  29.347  30.420  1.00  0.00     0.198 A 
ATOM     57  C   UNL A   1      37.196  29.622  28.064  1.00  0.00     0.198 A 
ATOM     58  F   UNL A   1      39.152  28.898  27.020  1.00  0.00    -0.203 F 
ATOM     59  F   UNL A   1      36.193  29.578  31.534  1.00  0.00    -0.200 F 
ATOM     60  C   UNL A   1      36.443  29.828  29.205  1.00  0.00     0.200 A 
ATOM     61  F   UNL A   1      36.781  30.114  26.889  1.00  0.00    -0.200 F 
ATOM     62  F   UNL A   1      35.300  30.525  29.139  1.00  0.00    -0.200 F 
ENDBRANCH  28  52
BRANCH  40  63
ATOM     63  C   UNL A   1      44.374  27.672  32.394  1.00  0.00     0.064 A 
ATOM     64  C   UNL A   1      44.176  26.292  32.210  1.00  0.00     0.173 A 
ATOM     65  C   UNL A   1      44.595  28.125  33.703  1.00  0.00     0.173 A 
ATOM     66  F   UNL A   1      44.065  25.766  30.984  1.00  0.00    -0.203 F 
ATOM     67  C   UNL A   1      44.148  25.418  33.297  1.00  0.00     0.198 A 
ATOM     68  C   UNL A   1      44.607  27.245  34.780  1.00  0.00     0.198 A 
ATOM     69  F   UNL A   1      44.845  29.424  33.932  1.00  0.00    -0.203 F 
ATOM     70  F   UNL A   1      43.941  24.108  33.100  1.00  0.00    -0.200 F 
ATOM     71  C   UNL A   1      44.372  25.895  34.578  1.00  0.00     0.200 A 
ATOM     72  F   UNL A   1      44.874  27.702  36.011  1.00  0.00    -0.200 F 
ATOM     73  F   UNL A   1      44.387  25.048  35.617  1.00  0.00    -0.200 F 
ENDBRANCH  40  63
ENDBRANCH  14  15
ENDBRANCH   7   9
ENDBRANCH   6   7
ENDBRANCH   5   6
ENDBRANCH   4   5
ENDBRANCH   3   4
ENDBRANCH   2   3
ENDBRANCH   1   2
BRANCH   1  74
ATOM     74  O   UNL A   1      37.575  22.370  25.679  1.00  0.00    -0.376 OA
BRANCH  74  75
ATOM     75  C   UNL A   1      37.032  23.648  25.426  1.00  0.00     0.202 C 
BRANCH  75  76
ATOM     76  C   UNL A   1      35.702  23.757  24.680  1.00  0.00     0.261 C 
BRANCH  76  77
ATOM     77  O   UNL A   1      34.676  24.415  25.440  1.00  0.00    -0.463 OA
BRANCH  77  78
ATOM     78  C   UNL A   1      33.903  25.285  24.744  1.00  0.00     0.310 C 
ATOM     79  O   UNL A   1      33.970  25.412  23.531  1.00  0.00    -0.252 OA
BRANCH  78  80
ATOM     80  C   UNL A   1      33.058  26.161  25.658  1.00  0.00     0.119 C 
ATOM     81  C   UNL A   1      31.510  26.419  25.554  1.00  0.00     0.100 C 
ATOM     82  C   UNL A   1      33.787  27.534  25.838  1.00  0.00     0.026 C 
ATOM     83  C   UNL A   1      31.223  27.942  25.800  1.00  0.00     0.025 C 
ATOM     84  C   UNL A   1      33.314  28.493  24.764  1.00  0.00    -0.027 C 
ATOM     85  C   UNL A   1      33.334  28.127  27.190  1.00  0.00     0.009 C 
ATOM     86  C   UNL A   1      31.993  28.728  24.767  1.00  0.00    -0.027 C 
ATOM     87  C   UNL A   1      31.804  28.334  27.182  1.00  0.00     0.009 C 
BRANCH  81  88
ATOM     88  C   UNL A   1      30.425  25.895  24.576  1.00  0.00     0.228 C 
ATOM     89  O   UNL A   1      29.548  26.700  24.220  1.00  0.00    -0.274 OA
ATOM     90  N   UNL A   1      30.461  24.719  23.882  1.00  0.00    -0.326 N 
ATOM     91  H   UNL A   1      29.957  24.725  23.036  1.00  0.00     0.169 HD
BRANCH  90  92
ATOM     92  C   UNL A   1      31.094  23.514  24.177  1.00  0.00     0.041 A 
ATOM     93  C   UNL A   1      31.748  22.797  23.183  1.00  0.00     0.026 A 
ATOM     94  C   UNL A   1      31.052  22.995  25.455  1.00  0.00     0.026 A 
ATOM     95  C   UNL A   1      32.595  21.744  23.549  1.00  0.00     0.008 A 
ATOM     96  C   UNL A   1      31.899  21.969  25.841  1.00  0.00     0.008 A 
ATOM     97  C   UNL A   1      32.750  21.394  24.900  1.00  0.00    -0.026 A 
BRANCH  97  98
ATOM     98  C   UNL A   1      33.819  20.445  25.367  1.00  0.00     0.181 C 
BRANCH  98  99
ATOM     99  N   UNL A   1      33.479  19.069  25.087  1.00  0.00    -0.249 N 
ATOM    100  C   UNL A   1      34.200  18.172  24.363  1.00  0.00     0.220 A 
ATOM    101  N   UNL A   1      32.384  18.495  25.622  1.00  0.00    -0.160 NA
ATOM    102  N   UNL A   1      33.601  17.005  24.392  1.00  0.00    -0.224 NA
ATOM    103  C   UNL A   1      32.498  17.247  25.161  1.00  0.00     0.246 A 
ENDBRANCH  98  99
ENDBRANCH  97  98
ENDBRANCH  90  92
ENDBRANCH  81  88
ENDBRANCH  78  80
ENDBRANCH  77  78
ENDBRANCH  76  77
ENDBRANCH  75  76
ENDBRANCH  74  75
ENDBRANCH   1  74
TORSDOF 21
ENDMDL
MODEL 2
REMARK VINA RESULT:     -11.9      1.191      2.003
REMARK SMILES O=C(OCCOCCOCCOC(=O)[C@@H]1[C@H](C(=O)Nc2ccc(Cn3cncn3)cc2)[C@@H]2C=C[C@H]1CC2)c1ccc(-c2c3nc(c(-c4c(F)c(F)c(F)c(F)c4F)c4ccc([nH]4)c(-c4c(F)c(F)c(F)c(F)c4F)c4nc(c(-c5c(F)c(F)c(F)c(F)c5F)c5ccc2[nH]5)C=C4)C=C3)cc1
REMARK SMILES IDX 8 1 7 2 6 3 5 4 4 5 3 6 2 7 1 8 38 9 39 10 100 11 40 12
REMARK SMILES IDX 99 13 41 14 42 15 43 16 93 17 44 18 98 19 92 20 94 21 45 22
REMARK SMILES IDX 97 23 91 24 90 25 46 27 78 28 58 29 77 30 59 31 62 32 76 33
REMARK SMILES IDX 95 34 60 35 61 36 75 38 96 39 63 40 47 41 48 42 56 43 49 44
REMARK SMILES IDX 50 45 54 46 57 47 51 48 52 49 55 50 53 51 79 52 80 53 88 54
REMARK SMILES IDX 81 55 82 56 86 57 89 58 83 59 84 60 87 61 85 62 64 63 65 64
REMARK SMILES IDX 73 65 66 66 67 67 71 68 74 69 68 70 69 71 72 72 70 73 9 74
REMARK SMILES IDX 10 75 11 76 12 77 13 78 14 79 15 80 16 81 35 82 32 83 34 84
REMARK SMILES IDX 36 85 33 86 37 87 17 88 18 89 19 90 20 92 21 93 31 94 22 95
REMARK SMILES IDX 30 96 23 97 24 98 25 99 26 100 29 101 27 102 28 103
REMARK H PARENT 94 26 62 37 19 91
REMARK Flexibility Score: inf
ROOT
ATOM      1  C   UNL A   1      39.574  21.925  26.489  1.00  0.00     0.188 C 
ENDROOT
BRANCH   1   2
ATOM      2  C   UNL A   1      40.989  21.375  26.785  1.00  0.00     0.188 C 
BRANCH   2   3
ATOM      3  O   UNL A   1      41.203  20.200  27.549  1.00  0.00    -0.376 OA
BRANCH   3   4
ATOM      4  C   UNL A   1      42.326  19.382  27.277  1.00  0.00     0.202 C 
BRANCH   4   5
ATOM      5  C   UNL A   1      42.592  18.957  25.834  1.00  0.00     0.261 C 
BRANCH   5   6
ATOM      6  O   UNL A   1      43.924  19.253  25.397  1.00  0.00    -0.460 OA
BRANCH   6   7
ATOM      7  C   UNL A   1      44.459  20.292  24.713  1.00  0.00     0.338 C 
ATOM      8  O   UNL A   1      44.925  20.064  23.610  1.00  0.00    -0.246 OA
BRANCH   7   9
ATOM      9  C   UNL A   1      44.518  21.701  25.218  1.00  0.00     0.060 A 
ATOM     10  C   UNL A   1      45.344  22.194  26.227  1.00  0.00     0.016 A 
ATOM     11  C   UNL A   1      43.619  22.595  24.604  1.00  0.00     0.016 A 
ATOM     12  C   UNL A   1      45.103  23.445  26.777  1.00  0.00     0.010 A 
ATOM     13  C   UNL A   1      43.413  23.871  25.108  1.00  0.00     0.010 A 
ATOM     14  C   UNL A   1      44.093  24.253  26.255  1.00  0.00    -0.014 A 
BRANCH  14  15
ATOM     15  C   UNL A   1      43.834  25.518  26.923  1.00  0.00     0.031 A 
ATOM     16  C   UNL A   1      44.824  26.592  26.654  1.00  0.00     0.074 A 
ATOM     17  C   UNL A   1      42.757  25.723  27.706  1.00  0.00     0.049 A 
ATOM     18  N   UNL A   1      45.601  27.185  27.501  1.00  0.00    -0.248 NA
ATOM     19  C   UNL A   1      45.046  26.985  25.256  1.00  0.00     0.031 C 
ATOM     20  C   UNL A   1      41.576  24.872  27.861  1.00  0.00     0.029 A 
ATOM     21  N   UNL A   1      42.460  26.807  28.478  1.00  0.00    -0.354 N 
ATOM     22  C   UNL A   1      46.302  28.145  26.775  1.00  0.00     0.074 A 
ATOM     23  C   UNL A   1      46.011  27.897  25.387  1.00  0.00     0.031 C 
ATOM     24  C   UNL A   1      40.606  25.568  28.498  1.00  0.00     0.029 A 
ATOM     25  C   UNL A   1      41.144  26.853  28.913  1.00  0.00     0.049 A 
ATOM     26  H   UNL A   1      43.123  27.498  28.708  1.00  0.00     0.167 HD
ATOM     27  C   UNL A   1      46.903  29.196  27.398  1.00  0.00     0.037 A 
ATOM     28  C   UNL A   1      40.526  27.898  29.516  1.00  0.00     0.037 A 
ATOM     29  C   UNL A   1      47.149  28.905  28.787  1.00  0.00     0.049 A 
ATOM     30  C   UNL A   1      41.578  28.783  30.076  1.00  0.00     0.074 A 
ATOM     31  C   UNL A   1      47.879  27.945  29.463  1.00  0.00     0.029 A 
ATOM     32  N   UNL A   1      46.327  29.468  29.731  1.00  0.00    -0.354 N 
ATOM     33  N   UNL A   1      42.321  28.476  31.101  1.00  0.00    -0.248 NA
ATOM     34  C   UNL A   1      42.088  29.852  29.230  1.00  0.00     0.031 C 
ATOM     35  C   UNL A   1      47.113  27.648  30.628  1.00  0.00     0.029 A 
ATOM     36  C   UNL A   1      45.996  28.482  30.620  1.00  0.00     0.049 A 
ATOM     37  H   UNL A   1      46.031  30.406  29.762  1.00  0.00     0.167 HD
ATOM     38  C   UNL A   1      43.572  28.981  30.785  1.00  0.00     0.074 A 
ATOM     39  C   UNL A   1      43.344  29.904  29.678  1.00  0.00     0.031 C 
ATOM     40  C   UNL A   1      44.707  28.389  31.260  1.00  0.00     0.037 A 
BRANCH  27  41
ATOM     41  C   UNL A   1      46.919  30.609  26.856  1.00  0.00     0.064 A 
ATOM     42  C   UNL A   1      48.122  31.343  26.900  1.00  0.00     0.173 A 
ATOM     43  C   UNL A   1      45.756  31.372  26.608  1.00  0.00     0.173 A 
ATOM     44  F   UNL A   1      49.293  30.728  27.125  1.00  0.00    -0.203 F 
ATOM     45  C   UNL A   1      48.143  32.739  26.825  1.00  0.00     0.198 A 
ATOM     46  C   UNL A   1      45.787  32.759  26.482  1.00  0.00     0.198 A 
ATOM     47  F   UNL A   1      44.533  30.830  26.584  1.00  0.00    -0.203 F 
ATOM     48  F   UNL A   1      49.292  33.398  27.021  1.00  0.00    -0.200 F 
ATOM     49  C   UNL A   1      46.973  33.446  26.631  1.00  0.00     0.200 A 
ATOM     50  F   UNL A   1      44.640  33.429  26.302  1.00  0.00    -0.200 F 
ATOM     51  F   UNL A   1      46.977  34.786  26.635  1.00  0.00    -0.200 F 
ENDBRANCH  27  41
BRANCH  28  52
ATOM     52  C   UNL A   1      39.114  28.332  29.401  1.00  0.00     0.064 A 
ATOM     53  C   UNL A   1      38.313  28.499  30.544  1.00  0.00     0.173 A 
ATOM     54  C   UNL A   1      38.610  28.867  28.201  1.00  0.00     0.173 A 
ATOM     55  F   UNL A   1      38.739  28.057  31.737  1.00  0.00    -0.203 F 
ATOM     56  C   UNL A   1      37.098  29.188  30.493  1.00  0.00     0.198 A 
ATOM     57  C   UNL A   1      37.392  29.546  28.149  1.00  0.00     0.198 A 
ATOM     58  F   UNL A   1      39.334  28.832  27.073  1.00  0.00    -0.203 F 
ATOM     59  F   UNL A   1      36.395  29.387  31.617  1.00  0.00    -0.200 F 
ATOM     60  C   UNL A   1      36.644  29.720  29.298  1.00  0.00     0.200 A 
ATOM     61  F   UNL A   1      36.983  30.088  26.993  1.00  0.00    -0.200 F 
ATOM     62  F   UNL A   1      35.512  30.438  29.261  1.00  0.00    -0.200 F 
ENDBRANCH  28  52
BRANCH  40  63
ATOM     63  C   UNL A   1      44.567  27.387  32.368  1.00  0.00     0.064 A 
ATOM     64  C   UNL A   1      44.477  27.723  33.731  1.00  0.00     0.173 A 
ATOM     65  C   UNL A   1      44.381  26.042  32.020  1.00  0.00     0.173 A 
ATOM     66  F   UNL A   1      44.537  28.998  34.136  1.00  0.00    -0.203 F 
ATOM     67  C   UNL A   1      44.261  26.743  34.701  1.00  0.00     0.198 A 
ATOM     68  C   UNL A   1      44.126  25.074  32.986  1.00  0.00     0.198 A 
ATOM     69  F   UNL A   1      44.401  25.672  30.730  1.00  0.00    -0.203 F 
ATOM     70  F   UNL A   1      44.196  27.084  35.996  1.00  0.00    -0.200 F 
ATOM     71  C   UNL A   1      44.078  25.422  34.326  1.00  0.00     0.200 A 
ATOM     72  F   UNL A   1      43.898  23.806  32.615  1.00  0.00    -0.200 F 
ATOM     73  F   UNL A   1      43.829  24.489  35.254  1.00  0.00    -0.200 F 
ENDBRANCH  40  63
ENDBRANCH  14  15
ENDBRANCH   7   9
ENDBRANCH   6   7
ENDBRANCH   5   6
ENDBRANCH   4   5
ENDBRANCH   3   4
ENDBRANCH   2   3
ENDBRANCH   1   2
BRANCH   1  74
ATOM     74  O   UNL A   1      38.620  21.230  25.706  1.00  0.00    -0.376 OA
BRANCH  74  75
ATOM     75  C   UNL A   1      37.666  21.947  24.953  1.00  0.00     0.202 C 
BRANCH  75  76
ATOM     76  C   UNL A   1      36.209  21.485  24.963  1.00  0.00     0.261 C 
BRANCH  76  77
ATOM     77  O   UNL A   1      35.271  22.556  24.774  1.00  0.00    -0.463 OA
BRANCH  77  78
ATOM     78  C   UNL A   1      34.763  23.093  25.911  1.00  0.00     0.310 C 
ATOM     79  O   UNL A   1      34.892  22.573  27.009  1.00  0.00    -0.252 OA
BRANCH  78  80
ATOM     80  C   UNL A   1      33.912  24.325  25.635  1.00  0.00     0.119 C 
ATOM     81  C   UNL A   1      32.367  24.482  25.885  1.00  0.00     0.100 C 
ATOM     82  C   UNL A   1      34.245  24.843  24.196  1.00  0.00     0.026 C 
ATOM     83  C   UNL A   1      31.720  25.224  24.663  1.00  0.00     0.025 C 
ATOM     84  C   UNL A   1      33.311  24.185  23.202  1.00  0.00    -0.027 C 
ATOM     85  C   UNL A   1      33.932  26.356  24.163  1.00  0.00     0.009 C 
ATOM     86  C   UNL A   1      32.007  24.411  23.425  1.00  0.00    -0.027 C 
ATOM     87  C   UNL A   1      32.438  26.585  24.479  1.00  0.00     0.009 C 
BRANCH  81  88
ATOM     88  C   UNL A   1      31.297  23.518  26.462  1.00  0.00     0.228 C 
ATOM     89  O   UNL A   1      30.482  23.995  27.270  1.00  0.00    -0.274 OA
ATOM     90  N   UNL A   1      31.004  22.265  26.003  1.00  0.00    -0.326 N 
ATOM     91  H   UNL A   1      30.081  21.970  26.171  1.00  0.00     0.169 HD
BRANCH  90  92
ATOM     92  C   UNL A   1      31.802  21.338  25.337  1.00  0.00     0.041 A 
ATOM     93  C   UNL A   1      32.593  20.445  26.049  1.00  0.00     0.026 A 
ATOM     94  C   UNL A   1      31.847  21.314  23.958  1.00  0.00     0.026 A 
ATOM     95  C   UNL A   1      33.170  19.361  25.377  1.00  0.00     0.008 A 
ATOM     96  C   UNL A   1      32.393  20.238  23.276  1.00  0.00     0.008 A 
ATOM     97  C   UNL A   1      32.982  19.201  23.994  1.00  0.00    -0.026 A 
BRANCH  97  98
ATOM     98  C   UNL A   1      33.367  17.940  23.272  1.00  0.00     0.181 C 
BRANCH  98  99
ATOM     99  N   UNL A   1      33.887  16.938  24.173  1.00  0.00    -0.249 N 
ATOM    100  C   UNL A   1      33.236  15.847  24.658  1.00  0.00     0.220 A 
ATOM    101  N   UNL A   1      35.172  16.957  24.576  1.00  0.00    -0.160 NA
ATOM    102  N   UNL A   1      34.061  15.136  25.391  1.00  0.00    -0.224 NA
ATOM    103  C   UNL A   1      35.224  15.850  25.321  1.00  0.00     0.246 A 
ENDBRANCH  98  99
ENDBRANCH  97  98
ENDBRANCH  90  92
ENDBRANCH  81  88
ENDBRANCH  78  80
ENDBRANCH  77  78
ENDBRANCH  76  77
ENDBRANCH  75  76
ENDBRANCH  74  75
ENDBRANCH   1  74
TORSDOF 21
ENDMDL
MODEL 3
REMARK VINA RESULT:     -11.4      1.593      3.275
REMARK SMILES O=C(OCCOCCOCCOC(=O)[C@@H]1[C@H](C(=O)Nc2ccc(Cn3cncn3)cc2)[C@@H]2C=C[C@H]1CC2)c1ccc(-c2c3nc(c(-c4c(F)c(F)c(F)c(F)c4F)c4ccc([nH]4)c(-c4c(F)c(F)c(F)c(F)c4F)c4nc(c(-c5c(F)c(F)c(F)c(F)c5F)c5ccc2[nH]5)C=C4)C=C3)cc1
REMARK SMILES IDX 8 1 7 2 6 3 5 4 4 5 3 6 2 7 1 8 38 9 39 10 100 11 40 12
REMARK SMILES IDX 99 13 41 14 42 15 43 16 93 17 44 18 98 19 92 20 94 21 45 22
REMARK SMILES IDX 97 23 91 24 90 25 46 27 78 28 58 29 77 30 59 31 62 32 76 33
REMARK SMILES IDX 95 34 60 35 61 36 75 38 96 39 63 40 47 41 48 42 56 43 49 44
REMARK SMILES IDX 50 45 54 46 57 47 51 48 52 49 55 50 53 51 79 52 80 53 88 54
REMARK SMILES IDX 81 55 82 56 86 57 89 58 83 59 84 60 87 61 85 62 64 63 65 64
REMARK SMILES IDX 73 65 66 66 67 67 71 68 74 69 68 70 69 71 72 72 70 73 9 74
REMARK SMILES IDX 10 75 11 76 12 77 13 78 14 79 15 80 16 81 35 82 32 83 34 84
REMARK SMILES IDX 36 85 33 86 37 87 17 88 18 89 19 90 20 92 21 93 31 94 22 95
REMARK SMILES IDX 30 96 23 97 24 98 25 99 26 100 29 101 27 102 28 103
REMARK H PARENT 94 26 62 37 19 91
REMARK Flexibility Score: inf
ROOT
ATOM      1  C   UNL A   1      40.190  21.731  26.634  1.00  0.00     0.188 C 
ENDROOT
BRANCH   1   2
ATOM      2  C   UNL A   1      41.587  21.065  26.629  1.00  0.00     0.188 C 
BRANCH   2   3
ATOM      3  O   UNL A   1      41.907  19.979  25.775  1.00  0.00    -0.376 OA
BRANCH   3   4
ATOM      4  C   UNL A   1      42.671  18.897  26.276  1.00  0.00     0.202 C 
BRANCH   4   5
ATOM      5  C   UNL A   1      43.897  18.438  25.490  1.00  0.00     0.261 C 
BRANCH   5   6
ATOM      6  O   UNL A   1      44.846  19.488  25.267  1.00  0.00    -0.460 OA
BRANCH   6   7
ATOM      7  C   UNL A   1      44.822  20.604  24.500  1.00  0.00     0.338 C 
ATOM      8  O   UNL A   1      44.786  20.460  23.290  1.00  0.00    -0.246 OA
BRANCH   7   9
ATOM      9  C   UNL A   1      44.834  22.003  25.036  1.00  0.00     0.060 A 
ATOM     10  C   UNL A   1      45.624  22.493  26.074  1.00  0.00     0.016 A 
ATOM     11  C   UNL A   1      43.928  22.888  24.419  1.00  0.00     0.016 A 
ATOM     12  C   UNL A   1      45.339  23.725  26.645  1.00  0.00     0.010 A 
ATOM     13  C   UNL A   1      43.680  24.148  24.944  1.00  0.00     0.010 A 
ATOM     14  C   UNL A   1      44.322  24.521  26.116  1.00  0.00    -0.014 A 
BRANCH  14  15
ATOM     15  C   UNL A   1      44.016  25.765  26.804  1.00  0.00     0.031 A 
ATOM     16  C   UNL A   1      44.976  26.873  26.567  1.00  0.00     0.074 A 
ATOM     17  C   UNL A   1      42.925  25.921  27.578  1.00  0.00     0.049 A 
ATOM     18  N   UNL A   1      45.725  27.473  27.434  1.00  0.00    -0.248 NA
ATOM     19  C   UNL A   1      45.201  27.299  25.179  1.00  0.00     0.031 C 
ATOM     20  C   UNL A   1      41.769  25.032  27.703  1.00  0.00     0.029 A 
ATOM     21  N   UNL A   1      42.586  26.980  28.366  1.00  0.00    -0.354 N 
ATOM     22  C   UNL A   1      46.404  28.468  26.734  1.00  0.00     0.074 A 
ATOM     23  C   UNL A   1      46.136  28.237  25.338  1.00  0.00     0.031 C 
ATOM     24  C   UNL A   1      40.771  25.685  28.341  1.00  0.00     0.029 A 
ATOM     25  C   UNL A   1      41.264  26.978  28.786  1.00  0.00     0.049 A 
ATOM     26  H   UNL A   1      43.224  27.687  28.617  1.00  0.00     0.167 HD
ATOM     27  C   UNL A   1      46.964  29.525  27.383  1.00  0.00     0.037 A 
ATOM     28  C   UNL A   1      40.608  27.993  29.401  1.00  0.00     0.037 A 
ATOM     29  C   UNL A   1      47.204  29.216  28.770  1.00  0.00     0.049 A 
ATOM     30  C   UNL A   1      41.625  28.899  29.990  1.00  0.00     0.074 A 
ATOM     31  C   UNL A   1      47.956  28.266  29.437  1.00  0.00     0.029 A 
ATOM     32  N   UNL A   1      46.354  29.735  29.715  1.00  0.00    -0.354 N 
ATOM     33  N   UNL A   1      42.366  28.595  31.017  1.00  0.00    -0.248 NA
ATOM     34  C   UNL A   1      42.112  29.998  29.170  1.00  0.00     0.031 C 
ATOM     35  C   UNL A   1      47.186  27.924  30.587  1.00  0.00     0.029 A 
ATOM     36  C   UNL A   1      46.044  28.723  30.581  1.00  0.00     0.049 A 
ATOM     37  H   UNL A   1      46.029  30.663  29.759  1.00  0.00     0.167 HD
ATOM     38  C   UNL A   1      43.604  29.144  30.726  1.00  0.00     0.074 A 
ATOM     39  C   UNL A   1      43.360  30.080  29.634  1.00  0.00     0.031 C 
ATOM     40  C   UNL A   1      44.751  28.578  31.204  1.00  0.00     0.037 A 
BRANCH  27  41
ATOM     41  C   UNL A   1      46.943  30.948  26.868  1.00  0.00     0.064 A 
ATOM     42  C   UNL A   1      48.126  31.714  26.930  1.00  0.00     0.173 A 
ATOM     43  C   UNL A   1      45.760  31.683  26.630  1.00  0.00     0.173 A 
ATOM     44  F   UNL A   1      49.312  31.127  27.147  1.00  0.00    -0.203 F 
ATOM     45  C   UNL A   1      48.108  33.111  26.881  1.00  0.00     0.198 A 
ATOM     46  C   UNL A   1      45.753  33.073  26.530  1.00  0.00     0.198 A 
ATOM     47  F   UNL A   1      44.553  31.108  26.592  1.00  0.00    -0.203 F 
ATOM     48  F   UNL A   1      49.237  33.798  27.094  1.00  0.00    -0.200 F 
ATOM     49  C   UNL A   1      46.919  33.789  26.696  1.00  0.00     0.200 A 
ATOM     50  F   UNL A   1      44.588  33.713  26.359  1.00  0.00    -0.200 F 
ATOM     51  F   UNL A   1      46.886  35.128  26.725  1.00  0.00    -0.200 F 
ENDBRANCH  27  41
BRANCH  28  52
ATOM     52  C   UNL A   1      39.184  28.385  29.277  1.00  0.00     0.064 A 
ATOM     53  C   UNL A   1      38.363  28.494  30.412  1.00  0.00     0.173 A 
ATOM     54  C   UNL A   1      38.680  28.937  28.085  1.00  0.00     0.173 A 
ATOM     55  F   UNL A   1      38.785  28.033  31.599  1.00  0.00    -0.203 F 
ATOM     56  C   UNL A   1      37.127  29.146  30.363  1.00  0.00     0.198 A 
ATOM     57  C   UNL A   1      37.442  29.579  28.034  1.00  0.00     0.198 A 
ATOM     58  F   UNL A   1      39.420  28.956  26.967  1.00  0.00    -0.203 F 
ATOM     59  F   UNL A   1      36.402  29.292  31.481  1.00  0.00    -0.200 F 
ATOM     60  C   UNL A   1      36.673  29.697  29.176  1.00  0.00     0.200 A 
ATOM     61  F   UNL A   1      37.031  30.140  26.888  1.00  0.00    -0.200 F 
ATOM     62  F   UNL A   1      35.519  30.379  29.142  1.00  0.00    -0.200 F 
ENDBRANCH  28  52
BRANCH  40  63
ATOM     63  C   UNL A   1      44.630  27.551  32.292  1.00  0.00     0.064 A 
ATOM     64  C   UNL A   1      44.385  26.185  32.065  1.00  0.00     0.173 A 
ATOM     65  C   UNL A   1      44.911  27.949  33.606  1.00  0.00     0.173 A 
ATOM     66  F   UNL A   1      44.213  25.708  30.826  1.00  0.00    -0.203 F 
ATOM     67  C   UNL A   1      44.370  25.273  33.120  1.00  0.00     0.198 A 
ATOM     68  C   UNL A   1      44.936  27.030  34.650  1.00  0.00     0.198 A 
ATOM     69  F   UNL A   1      45.208  29.231  33.872  1.00  0.00    -0.203 F 
ATOM     70  F   UNL A   1      44.117  23.978  32.884  1.00  0.00    -0.200 F 
ATOM     71  C   UNL A   1      44.654  25.695  34.409  1.00  0.00     0.200 A 
ATOM     72  F   UNL A   1      45.261  27.433  35.886  1.00  0.00    -0.200 F 
ATOM     73  F   UNL A   1      44.682  24.811  35.415  1.00  0.00    -0.200 F 
ENDBRANCH  40  63
ENDBRANCH  14  15
ENDBRANCH   7   9
ENDBRANCH   6   7
ENDBRANCH   5   6
ENDBRANCH   4   5
ENDBRANCH   3   4
ENDBRANCH   2   3
ENDBRANCH   1   2
BRANCH   1  74
ATOM     74  O   UNL A   1      39.144  21.344  25.760  1.00  0.00    -0.376 OA
BRANCH  74  75
ATOM     75  C   UNL A   1      37.986  22.143  25.646  1.00  0.00     0.202 C 
BRANCH  75  76
ATOM     76  C   UNL A   1      37.055  21.938  24.451  1.00  0.00     0.261 C 
BRANCH  76  77
ATOM     77  O   UNL A   1      36.697  23.162  23.791  1.00  0.00    -0.463 OA
BRANCH  77  78
ATOM     78  C   UNL A   1      35.373  23.333  23.559  1.00  0.00     0.310 C 
ATOM     79  O   UNL A   1      34.939  23.957  22.602  1.00  0.00    -0.252 OA
BRANCH  78  80
ATOM     80  C   UNL A   1      34.515  22.781  24.688  1.00  0.00     0.119 C 
ATOM     81  C   UNL A   1      33.033  22.261  24.582  1.00  0.00     0.100 C 
ATOM     82  C   UNL A   1      34.621  23.752  25.911  1.00  0.00     0.026 C 
ATOM     83  C   UNL A   1      32.213  22.788  25.812  1.00  0.00     0.025 C 
ATOM     84  C   UNL A   1      33.526  24.794  25.816  1.00  0.00    -0.027 C 
ATOM     85  C   UNL A   1      34.338  22.928  27.186  1.00  0.00     0.009 C 
ATOM     86  C   UNL A   1      32.280  24.295  25.799  1.00  0.00    -0.027 C 
ATOM     87  C   UNL A   1      32.920  22.322  27.110  1.00  0.00     0.009 C 
BRANCH  81  88
ATOM     88  C   UNL A   1      32.051  22.136  23.388  1.00  0.00     0.228 C 
ATOM     89  O   UNL A   1      31.841  20.995  22.945  1.00  0.00    -0.274 OA
ATOM     90  N   UNL A   1      31.213  23.111  22.925  1.00  0.00    -0.326 N 
ATOM     91  H   UNL A   1      30.400  22.778  22.481  1.00  0.00     0.169 HD
BRANCH  90  92
ATOM     92  C   UNL A   1      31.323  24.498  22.978  1.00  0.00     0.041 A 
ATOM     93  C   UNL A   1      30.392  25.256  23.676  1.00  0.00     0.026 A 
ATOM     94  C   UNL A   1      32.341  25.146  22.308  1.00  0.00     0.026 A 
ATOM     95  C   UNL A   1      30.669  26.602  23.940  1.00  0.00     0.008 A 
ATOM     96  C   UNL A   1      32.644  26.472  22.573  1.00  0.00     0.008 A 
ATOM     97  C   UNL A   1      31.856  27.188  23.470  1.00  0.00    -0.026 A 
BRANCH  97  98
ATOM     98  C   UNL A   1      32.316  28.545  23.925  1.00  0.00     0.181 C 
BRANCH  98  99
ATOM     99  N   UNL A   1      32.619  28.568  25.337  1.00  0.00    -0.249 N 
ATOM    100  C   UNL A   1      33.815  28.305  25.929  1.00  0.00     0.220 A 
ATOM    101  N   UNL A   1      31.702  28.954  26.245  1.00  0.00    -0.160 NA
ATOM    102  N   UNL A   1      33.713  28.498  27.224  1.00  0.00    -0.224 NA
ATOM    103  C   UNL A   1      32.411  28.884  27.374  1.00  0.00     0.246 A 
ENDBRANCH  98  99
ENDBRANCH  97  98
ENDBRANCH  90  92
ENDBRANCH  81  88
ENDBRANCH  78  80
ENDBRANCH  77  78
ENDBRANCH  76  77
ENDBRANCH  75  76
ENDBRANCH  74  75
ENDBRANCH   1  74
TORSDOF 21
ENDMDL
