MODEL 1
REMARK VINA RESULT:     -10.9      0.000      0.000
REMARK SMILES Cc1cc(C[N@H+]2CC[C@](C)(C(=O)OCCOCCOCCOC(=O)c3ccc(-c4c5nc(c(-c6c(F)c(F)c(F)c(F)c6F)c6ccc([nH]6)c(-c6c(F)c(F)c(F)c(F)c6F)c6nc(c(-c7c(F)c(F)c(F)c(F)c7F)c7ccc4[nH]7)C=C6)C=C5)cc3)C2)c2ccccc2n1
REMARK SMILES IDX 17 1 16 2 15 3 14 4 13 5 11 6 12 7 9 8 6 9 7 10 88 11 8 13
REMARK SMILES IDX 10 14 5 15 4 16 1 17 2 18 3 19 95 20 94 21 89 22 93 23 90 24
REMARK SMILES IDX 92 25 91 26 18 27 19 28 20 29 21 30 22 31 23 32 24 33 25 34
REMARK SMILES IDX 26 35 87 36 27 37 86 38 28 39 29 40 30 41 80 42 31 43 85 44
REMARK SMILES IDX 79 45 81 46 32 47 84 48 78 49 77 50 33 52 65 53 45 54 64 55
REMARK SMILES IDX 46 56 49 57 63 58 82 59 47 60 48 61 62 63 83 64 50 65 34 66
REMARK SMILES IDX 35 67 43 68 36 69 37 70 41 71 44 72 38 73 39 74 42 75 40 76
REMARK SMILES IDX 66 77 67 78 75 79 68 80 69 81 73 82 76 83 70 84 71 85 74 86
REMARK SMILES IDX 72 87 51 88 52 89 60 90 53 91 54 92 58 93 61 94 55 95 56 96
REMARK SMILES IDX 59 97 57 98
REMARK H PARENT 6 12 81 51 49 62
REMARK Flexibility Score: inf
ROOT
ATOM      1  C   UNL A   1      40.543  22.517  27.301  1.00  0.00     0.188 C 
ENDROOT
BRANCH   1   2
ATOM      2  O   UNL A   1      39.330  23.002  26.738  1.00  0.00    -0.376 OA
BRANCH   2   3
ATOM      3  C   UNL A   1      38.549  22.160  25.904  1.00  0.00     0.202 C 
BRANCH   3   4
ATOM      4  C   UNL A   1      37.241  22.704  25.307  1.00  0.00     0.261 C 
BRANCH   4   5
ATOM      5  O   UNL A   1      36.036  22.447  26.054  1.00  0.00    -0.463 OA
BRANCH   5   6
ATOM      6  C   UNL A   1      35.290  21.388  25.643  1.00  0.00     0.317 C 
ATOM      7  O   UNL A   1      35.758  20.394  25.095  1.00  0.00    -0.251 OA
BRANCH   6   8
ATOM      8  C   UNL A   1      33.788  21.543  25.873  1.00  0.00     0.119 C 
ATOM      9  N   UNL A   1      32.412  23.543  25.759  1.00  0.00    -0.330 N 
ATOM     10  C   UNL A   1      32.250  22.973  27.092  1.00  0.00     0.263 C 
ATOM     11  C   UNL A   1      32.993  22.463  24.934  1.00  0.00     0.281 C 
ATOM     12  H   UNL A   1      33.045  24.343  25.766  1.00  0.00     0.348 HD
ATOM     13  C   UNL A   1      33.532  22.166  27.256  1.00  0.00     0.086 C 
ATOM     14  C   UNL A   1      33.190  20.125  25.776  1.00  0.00     0.030 C 
BRANCH   9  15
ATOM     15  C   UNL A   1      31.197  24.208  25.219  1.00  0.00     0.299 C 
BRANCH  15  16
ATOM     16  C   UNL A   1      31.438  25.340  24.225  1.00  0.00     0.017 A 
ATOM     17  C   UNL A   1      32.489  25.729  20.604  1.00  0.00     0.067 C 
ATOM     18  C   UNL A   1      32.237  25.993  22.058  1.00  0.00     0.038 A 
ATOM     19  C   UNL A   1      31.676  25.028  22.879  1.00  0.00     0.033 A 
ATOM     20  N   UNL A   1      32.663  27.184  22.534  1.00  0.00    -0.253 NA
ATOM     21  C   UNL A   1      32.404  27.500  23.815  1.00  0.00     0.071 A 
ATOM     22  C   UNL A   1      31.656  26.669  24.666  1.00  0.00     0.009 A 
ATOM     23  C   UNL A   1      32.969  28.649  24.356  1.00  0.00     0.029 A 
ATOM     24  C   UNL A   1      31.300  27.146  25.954  1.00  0.00     0.011 A 
ATOM     25  C   UNL A   1      32.748  29.032  25.683  1.00  0.00     0.002 A 
ATOM     26  C   UNL A   1      31.869  28.305  26.470  1.00  0.00     0.001 A 
ENDBRANCH  15  16
ENDBRANCH   9  15
ENDBRANCH   6   8
ENDBRANCH   5   6
ENDBRANCH   4   5
ENDBRANCH   3   4
ENDBRANCH   2   3
ENDBRANCH   1   2
BRANCH   1  27
ATOM     27  C   UNL A   1      40.789  21.005  27.424  1.00  0.00     0.188 C 
BRANCH  27  28
ATOM     28  O   UNL A   1      41.812  20.508  26.592  1.00  0.00    -0.376 OA
BRANCH  28  29
ATOM     29  C   UNL A   1      42.274  19.196  26.847  1.00  0.00     0.202 C 
BRANCH  29  30
ATOM     30  C   UNL A   1      43.158  18.546  25.772  1.00  0.00     0.261 C 
BRANCH  30  31
ATOM     31  O   UNL A   1      43.412  19.331  24.591  1.00  0.00    -0.460 OA
BRANCH  31  32
ATOM     32  C   UNL A   1      44.702  19.573  24.265  1.00  0.00     0.338 C 
ATOM     33  O   UNL A   1      45.441  18.853  23.614  1.00  0.00    -0.246 OA
BRANCH  32  34
ATOM     34  C   UNL A   1      45.013  20.975  24.640  1.00  0.00     0.060 A 
ATOM     35  C   UNL A   1      45.448  21.253  25.945  1.00  0.00     0.016 A 
ATOM     36  C   UNL A   1      44.894  22.010  23.710  1.00  0.00     0.016 A 
ATOM     37  C   UNL A   1      45.734  22.568  26.328  1.00  0.00     0.010 A 
ATOM     38  C   UNL A   1      45.159  23.328  24.102  1.00  0.00     0.010 A 
ATOM     39  C   UNL A   1      45.553  23.620  25.421  1.00  0.00    -0.014 A 
BRANCH  39  40
ATOM     40  C   UNL A   1      45.586  25.032  25.892  1.00  0.00     0.031 A 
ATOM     41  C   UNL A   1      46.904  25.762  25.869  1.00  0.00     0.074 A 
ATOM     42  C   UNL A   1      44.480  25.669  26.319  1.00  0.00     0.049 A 
ATOM     43  N   UNL A   1      47.205  26.959  26.307  1.00  0.00    -0.248 NA
ATOM     44  C   UNL A   1      48.038  25.041  25.266  1.00  0.00     0.031 C 
ATOM     45  C   UNL A   1      43.133  25.105  26.349  1.00  0.00     0.029 A 
ATOM     46  N   UNL A   1      44.323  26.939  26.824  1.00  0.00    -0.354 N 
ATOM     47  C   UNL A   1      48.556  27.132  26.032  1.00  0.00     0.074 A 
ATOM     48  C   UNL A   1      49.027  25.907  25.424  1.00  0.00     0.031 C 
ATOM     49  C   UNL A   1      42.290  26.017  26.868  1.00  0.00     0.029 A 
ATOM     50  C   UNL A   1      43.042  27.214  27.240  1.00  0.00     0.049 A 
ATOM     51  H   UNL A   1      45.059  27.590  26.883  1.00  0.00     0.167 HD
ATOM     52  C   UNL A   1      49.333  28.220  26.249  1.00  0.00     0.037 A 
ATOM     53  C   UNL A   1      42.545  28.295  27.876  1.00  0.00     0.037 A 
ATOM     54  C   UNL A   1      48.875  29.439  26.862  1.00  0.00     0.049 A 
ATOM     55  C   UNL A   1      43.460  29.454  28.202  1.00  0.00     0.074 A 
ATOM     56  C   UNL A   1      49.596  30.587  27.141  1.00  0.00     0.029 A 
ATOM     57  N   UNL A   1      47.577  29.667  27.292  1.00  0.00    -0.354 N 
ATOM     58  N   UNL A   1      44.731  29.616  27.926  1.00  0.00    -0.248 NA
ATOM     59  C   UNL A   1      42.863  30.588  28.925  1.00  0.00     0.031 C 
ATOM     60  C   UNL A   1      48.747  31.494  27.781  1.00  0.00     0.029 A 
ATOM     61  C   UNL A   1      47.482  30.933  27.847  1.00  0.00     0.049 A 
ATOM     62  H   UNL A   1      46.835  29.026  27.214  1.00  0.00     0.167 HD
ATOM     63  C   UNL A   1      45.072  30.876  28.404  1.00  0.00     0.074 A 
ATOM     64  C   UNL A   1      43.870  31.448  28.970  1.00  0.00     0.031 C 
ATOM     65  C   UNL A   1      46.273  31.506  28.381  1.00  0.00     0.037 A 
BRANCH  52  66
ATOM     66  C   UNL A   1      50.771  28.145  25.828  1.00  0.00     0.064 A 
ATOM     67  C   UNL A   1      51.796  27.925  26.761  1.00  0.00     0.173 A 
ATOM     68  C   UNL A   1      51.124  28.226  24.472  1.00  0.00     0.173 A 
ATOM     69  F   UNL A   1      51.513  27.856  28.071  1.00  0.00    -0.203 F 
ATOM     70  C   UNL A   1      53.121  27.802  26.353  1.00  0.00     0.198 A 
ATOM     71  C   UNL A   1      52.446  28.072  24.065  1.00  0.00     0.198 A 
ATOM     72  F   UNL A   1      50.182  28.431  23.539  1.00  0.00    -0.203 F 
ATOM     73  F   UNL A   1      54.087  27.627  27.265  1.00  0.00    -0.200 F 
ATOM     74  C   UNL A   1      53.444  27.864  25.006  1.00  0.00     0.200 A 
ATOM     75  F   UNL A   1      52.754  28.117  22.762  1.00  0.00    -0.200 F 
ATOM     76  F   UNL A   1      54.717  27.726  24.614  1.00  0.00    -0.200 F 
ENDBRANCH  52  66
BRANCH  53  77
ATOM     77  C   UNL A   1      41.115  28.341  28.294  1.00  0.00     0.064 A 
ATOM     78  C   UNL A   1      40.135  28.912  27.468  1.00  0.00     0.173 A 
ATOM     79  C   UNL A   1      40.715  27.899  29.564  1.00  0.00     0.173 A 
ATOM     80  F   UNL A   1      40.470  29.381  26.256  1.00  0.00    -0.203 F 
ATOM     81  C   UNL A   1      38.823  29.079  27.912  1.00  0.00     0.198 A 
ATOM     82  C   UNL A   1      39.395  28.032  29.992  1.00  0.00     0.198 A 
ATOM     83  F   UNL A   1      41.610  27.354  30.398  1.00  0.00    -0.203 F 
ATOM     84  F   UNL A   1      37.930  29.705  27.134  1.00  0.00    -0.200 F 
ATOM     85  C   UNL A   1      38.454  28.637  29.172  1.00  0.00     0.200 A 
ATOM     86  F   UNL A   1      39.041  27.596  31.208  1.00  0.00    -0.200 F 
ATOM     87  F   UNL A   1      37.198  28.812  29.605  1.00  0.00    -0.200 F 
ENDBRANCH  53  77
BRANCH  65  88
ATOM     88  C   UNL A   1      46.339  32.907  28.922  1.00  0.00     0.064 A 
ATOM     89  C   UNL A   1      46.685  33.174  30.255  1.00  0.00     0.173 A 
ATOM     90  C   UNL A   1      46.086  34.003  28.081  1.00  0.00     0.173 A 
ATOM     91  F   UNL A   1      46.927  32.164  31.105  1.00  0.00    -0.203 F 
ATOM     92  C   UNL A   1      46.740  34.481  30.734  1.00  0.00     0.198 A 
ATOM     93  C   UNL A   1      46.177  35.309  28.554  1.00  0.00     0.198 A 
ATOM     94  F   UNL A   1      45.762  33.807  26.794  1.00  0.00    -0.203 F 
ATOM     95  F   UNL A   1      47.016  34.707  32.026  1.00  0.00    -0.200 F 
ATOM     96  C   UNL A   1      46.493  35.546  29.882  1.00  0.00     0.200 A 
ATOM     97  F   UNL A   1      45.957  36.338  27.724  1.00  0.00    -0.200 F 
ATOM     98  F   UNL A   1      46.553  36.803  30.344  1.00  0.00    -0.200 F 
ENDBRANCH  65  88
ENDBRANCH  39  40
ENDBRANCH  32  34
ENDBRANCH  31  32
ENDBRANCH  30  31
ENDBRANCH  29  30
ENDBRANCH  28  29
ENDBRANCH  27  28
ENDBRANCH   1  27
TORSDOF 19
ENDMDL
MODEL 2
REMARK VINA RESULT:     -10.8      4.765      7.165
REMARK SMILES Cc1cc(C[N@H+]2CC[C@](C)(C(=O)OCCOCCOCCOC(=O)c3ccc(-c4c5nc(c(-c6c(F)c(F)c(F)c(F)c6F)c6ccc([nH]6)c(-c6c(F)c(F)c(F)c(F)c6F)c6nc(c(-c7c(F)c(F)c(F)c(F)c7F)c7ccc4[nH]7)C=C6)C=C5)cc3)C2)c2ccccc2n1
REMARK SMILES IDX 17 1 16 2 15 3 14 4 13 5 11 6 12 7 9 8 6 9 7 10 88 11 8 13
REMARK SMILES IDX 10 14 5 15 4 16 1 17 2 18 3 19 95 20 94 21 89 22 93 23 90 24
REMARK SMILES IDX 92 25 91 26 18 27 19 28 20 29 21 30 22 31 23 32 24 33 25 34
REMARK SMILES IDX 26 35 87 36 27 37 86 38 28 39 29 40 30 41 80 42 31 43 85 44
REMARK SMILES IDX 79 45 81 46 32 47 84 48 78 49 77 50 33 52 65 53 45 54 64 55
REMARK SMILES IDX 46 56 49 57 63 58 82 59 47 60 48 61 62 63 83 64 50 65 34 66
REMARK SMILES IDX 35 67 43 68 36 69 37 70 41 71 44 72 38 73 39 74 42 75 40 76
REMARK SMILES IDX 66 77 67 78 75 79 68 80 69 81 73 82 76 83 70 84 71 85 74 86
REMARK SMILES IDX 72 87 51 88 52 89 60 90 53 91 54 92 58 93 61 94 55 95 56 96
REMARK SMILES IDX 59 97 57 98
REMARK H PARENT 6 12 81 51 49 62
REMARK Flexibility Score: inf
ROOT
ATOM      1  C   UNL A   1      41.095  22.591  26.678  1.00  0.00     0.188 C 
ENDROOT
BRANCH   1   2
ATOM      2  O   UNL A   1      39.720  22.268  26.853  1.00  0.00    -0.376 OA
BRANCH   2   3
ATOM      3  C   UNL A   1      39.120  21.266  26.045  1.00  0.00     0.202 C 
BRANCH   3   4
ATOM      4  C   UNL A   1      37.928  21.643  25.151  1.00  0.00     0.261 C 
BRANCH   4   5
ATOM      5  O   UNL A   1      36.615  21.471  25.720  1.00  0.00    -0.463 OA
BRANCH   5   6
ATOM      6  C   UNL A   1      35.901  22.607  25.934  1.00  0.00     0.317 C 
ATOM      7  O   UNL A   1      36.409  23.703  26.154  1.00  0.00    -0.251 OA
BRANCH   6   8
ATOM      8  C   UNL A   1      34.386  22.414  25.928  1.00  0.00     0.119 C 
ATOM      9  N   UNL A   1      32.621  24.081  26.048  1.00  0.00    -0.330 N 
ATOM     10  C   UNL A   1      32.430  23.157  27.161  1.00  0.00     0.263 C 
ATOM     11  C   UNL A   1      33.526  23.386  25.107  1.00  0.00     0.281 C 
ATOM     12  H   UNL A   1      33.054  24.952  26.352  1.00  0.00     0.348 HD
ATOM     13  C   UNL A   1      33.830  22.587  27.352  1.00  0.00     0.086 C 
ATOM     14  C   UNL A   1      34.137  20.987  25.398  1.00  0.00     0.030 C 
BRANCH   9  15
ATOM     15  C   UNL A   1      31.364  24.628  25.475  1.00  0.00     0.299 C 
BRANCH  15  16
ATOM     16  C   UNL A   1      31.527  25.659  24.362  1.00  0.00     0.017 A 
ATOM     17  C   UNL A   1      32.428  25.707  20.681  1.00  0.00     0.067 C 
ATOM     18  C   UNL A   1      32.221  26.111  22.109  1.00  0.00     0.038 A 
ATOM     19  C   UNL A   1      31.726  25.218  23.047  1.00  0.00     0.033 A 
ATOM     20  N   UNL A   1      32.621  27.358  22.445  1.00  0.00    -0.253 NA
ATOM     21  C   UNL A   1      32.399  27.796  23.696  1.00  0.00     0.071 A 
ATOM     22  C   UNL A   1      31.713  27.033  24.657  1.00  0.00     0.009 A 
ATOM     23  C   UNL A   1      32.943  29.011  24.095  1.00  0.00     0.029 A 
ATOM     24  C   UNL A   1      31.389  27.628  25.904  1.00  0.00     0.011 A 
ATOM     25  C   UNL A   1      32.758  29.521  25.384  1.00  0.00     0.002 A 
ATOM     26  C   UNL A   1      31.935  28.852  26.276  1.00  0.00     0.001 A 
ENDBRANCH  15  16
ENDBRANCH   9  15
ENDBRANCH   6   8
ENDBRANCH   5   6
ENDBRANCH   4   5
ENDBRANCH   3   4
ENDBRANCH   2   3
ENDBRANCH   1   2
BRANCH   1  27
ATOM     27  C   UNL A   1      42.157  21.481  26.682  1.00  0.00     0.188 C 
BRANCH  27  28
ATOM     28  O   UNL A   1      42.703  21.187  25.416  1.00  0.00    -0.376 OA
BRANCH  28  29
ATOM     29  C   UNL A   1      44.049  21.555  25.191  1.00  0.00     0.202 C 
BRANCH  29  30
ATOM     30  C   UNL A   1      44.301  22.729  24.232  1.00  0.00     0.261 C 
BRANCH  30  31
ATOM     31  O   UNL A   1      44.017  24.045  24.744  1.00  0.00    -0.460 OA
BRANCH  31  32
ATOM     32  C   UNL A   1      45.063  24.799  25.151  1.00  0.00     0.338 C 
ATOM     33  O   UNL A   1      46.116  24.972  24.559  1.00  0.00    -0.246 OA
BRANCH  32  34
ATOM     34  C   UNL A   1      44.635  25.570  26.344  1.00  0.00     0.060 A 
ATOM     35  C   UNL A   1      43.796  24.959  27.289  1.00  0.00     0.016 A 
ATOM     36  C   UNL A   1      45.069  26.883  26.543  1.00  0.00     0.016 A 
ATOM     37  C   UNL A   1      43.367  25.669  28.416  1.00  0.00     0.010 A 
ATOM     38  C   UNL A   1      44.620  27.599  27.660  1.00  0.00     0.010 A 
ATOM     39  C   UNL A   1      43.742  27.008  28.589  1.00  0.00    -0.014 A 
BRANCH  39  40
ATOM     40  C   UNL A   1      43.077  27.847  29.622  1.00  0.00     0.031 A 
ATOM     41  C   UNL A   1      43.722  27.954  30.980  1.00  0.00     0.074 A 
ATOM     42  C   UNL A   1      41.936  28.517  29.374  1.00  0.00     0.049 A 
ATOM     43  N   UNL A   1      43.294  28.547  32.065  1.00  0.00    -0.248 NA
ATOM     44  C   UNL A   1      45.033  27.301  31.131  1.00  0.00     0.031 C 
ATOM     45  C   UNL A   1      41.230  28.545  28.096  1.00  0.00     0.029 A 
ATOM     46  N   UNL A   1      41.162  29.296  30.202  1.00  0.00    -0.354 N 
ATOM     47  C   UNL A   1      44.279  28.341  33.023  1.00  0.00     0.074 A 
ATOM     48  C   UNL A   1      45.310  27.537  32.404  1.00  0.00     0.031 C 
ATOM     49  C   UNL A   1      40.114  29.285  28.230  1.00  0.00     0.029 A 
ATOM     50  C   UNL A   1      40.007  29.752  29.613  1.00  0.00     0.049 A 
ATOM     51  H   UNL A   1      41.412  29.506  31.131  1.00  0.00     0.167 HD
ATOM     52  C   UNL A   1      44.331  28.794  34.298  1.00  0.00     0.037 A 
ATOM     53  C   UNL A   1      38.973  30.440  30.138  1.00  0.00     0.037 A 
ATOM     54  C   UNL A   1      43.306  29.586  34.924  1.00  0.00     0.049 A 
ATOM     55  C   UNL A   1      39.008  30.842  31.595  1.00  0.00     0.074 A 
ATOM     56  C   UNL A   1      43.263  30.074  36.219  1.00  0.00     0.029 A 
ATOM     57  N   UNL A   1      42.140  30.005  34.300  1.00  0.00    -0.354 N 
ATOM     58  N   UNL A   1      39.950  30.655  32.488  1.00  0.00    -0.248 NA
ATOM     59  C   UNL A   1      37.834  31.560  32.115  1.00  0.00     0.031 C 
ATOM     60  C   UNL A   1      42.051  30.750  36.393  1.00  0.00     0.029 A 
ATOM     61  C   UNL A   1      41.367  30.733  35.189  1.00  0.00     0.049 A 
ATOM     62  H   UNL A   1      41.900  29.813  33.366  1.00  0.00     0.167 HD
ATOM     63  C   UNL A   1      39.499  31.263  33.655  1.00  0.00     0.074 A 
ATOM     64  C   UNL A   1      38.210  31.844  33.353  1.00  0.00     0.031 C 
ATOM     65  C   UNL A   1      40.097  31.334  34.870  1.00  0.00     0.037 A 
BRANCH  52  66
ATOM     66  C   UNL A   1      45.538  28.439  35.115  1.00  0.00     0.064 A 
ATOM     67  C   UNL A   1      45.590  27.257  35.868  1.00  0.00     0.173 A 
ATOM     68  C   UNL A   1      46.681  29.254  35.093  1.00  0.00     0.173 A 
ATOM     69  F   UNL A   1      44.519  26.451  35.934  1.00  0.00    -0.203 F 
ATOM     70  C   UNL A   1      46.736  26.909  36.578  1.00  0.00     0.198 A 
ATOM     71  C   UNL A   1      47.835  28.888  35.781  1.00  0.00     0.198 A 
ATOM     72  F   UNL A   1      46.685  30.394  34.386  1.00  0.00    -0.203 F 
ATOM     73  F   UNL A   1      46.749  25.792  37.319  1.00  0.00    -0.200 F 
ATOM     74  C   UNL A   1      47.860  27.719  36.526  1.00  0.00     0.200 A 
ATOM     75  F   UNL A   1      48.926  29.664  35.715  1.00  0.00    -0.200 F 
ATOM     76  F   UNL A   1      48.968  27.373  37.195  1.00  0.00    -0.200 F 
ENDBRANCH  52  66
BRANCH  53  77
ATOM     77  C   UNL A   1      37.779  30.771  29.308  1.00  0.00     0.064 A 
ATOM     78  C   UNL A   1      37.543  32.080  28.865  1.00  0.00     0.173 A 
ATOM     79  C   UNL A   1      36.804  29.804  29.020  1.00  0.00     0.173 A 
ATOM     80  F   UNL A   1      38.428  33.051  29.142  1.00  0.00    -0.203 F 
ATOM     81  C   UNL A   1      36.362  32.419  28.206  1.00  0.00     0.198 A 
ATOM     82  C   UNL A   1      35.641  30.136  28.328  1.00  0.00     0.198 A 
ATOM     83  F   UNL A   1      36.972  28.538  29.427  1.00  0.00    -0.203 F 
ATOM     84  F   UNL A   1      36.127  33.695  27.870  1.00  0.00    -0.200 F 
ATOM     85  C   UNL A   1      35.413  31.446  27.935  1.00  0.00     0.200 A 
ATOM     86  F   UNL A   1      34.730  29.190  28.062  1.00  0.00    -0.200 F 
ATOM     87  F   UNL A   1      34.270  31.774  27.318  1.00  0.00    -0.200 F 
ENDBRANCH  53  77
BRANCH  65  88
ATOM     88  C   UNL A   1      39.400  32.117  35.948  1.00  0.00     0.064 A 
ATOM     89  C   UNL A   1      38.449  31.530  36.796  1.00  0.00     0.173 A 
ATOM     90  C   UNL A   1      39.717  33.468  36.158  1.00  0.00     0.173 A 
ATOM     91  F   UNL A   1      38.101  30.244  36.634  1.00  0.00    -0.203 F 
ATOM     92  C   UNL A   1      37.817  32.276  37.789  1.00  0.00     0.198 A 
ATOM     93  C   UNL A   1      39.109  34.201  37.173  1.00  0.00     0.198 A 
ATOM     94  F   UNL A   1      40.628  34.078  35.384  1.00  0.00    -0.203 F 
ATOM     95  F   UNL A   1      36.870  31.707  38.548  1.00  0.00    -0.200 F 
ATOM     96  C   UNL A   1      38.152  33.607  37.981  1.00  0.00     0.200 A 
ATOM     97  F   UNL A   1      39.449  35.482  37.370  1.00  0.00    -0.200 F 
ATOM     98  F   UNL A   1      37.547  34.320  38.941  1.00  0.00    -0.200 F 
ENDBRANCH  65  88
ENDBRANCH  39  40
ENDBRANCH  32  34
ENDBRANCH  31  32
ENDBRANCH  30  31
ENDBRANCH  29  30
ENDBRANCH  28  29
ENDBRANCH  27  28
ENDBRANCH   1  27
TORSDOF 19
ENDMDL
MODEL 3
REMARK VINA RESULT:     -10.8      2.526      8.363
REMARK SMILES Cc1cc(C[N@H+]2CC[C@](C)(C(=O)OCCOCCOCCOC(=O)c3ccc(-c4c5nc(c(-c6c(F)c(F)c(F)c(F)c6F)c6ccc([nH]6)c(-c6c(F)c(F)c(F)c(F)c6F)c6nc(c(-c7c(F)c(F)c(F)c(F)c7F)c7ccc4[nH]7)C=C6)C=C5)cc3)C2)c2ccccc2n1
REMARK SMILES IDX 17 1 16 2 15 3 14 4 13 5 11 6 12 7 9 8 6 9 7 10 88 11 8 13
REMARK SMILES IDX 10 14 5 15 4 16 1 17 2 18 3 19 95 20 94 21 89 22 93 23 90 24
REMARK SMILES IDX 92 25 91 26 18 27 19 28 20 29 21 30 22 31 23 32 24 33 25 34
REMARK SMILES IDX 26 35 87 36 27 37 86 38 28 39 29 40 30 41 80 42 31 43 85 44
REMARK SMILES IDX 79 45 81 46 32 47 84 48 78 49 77 50 33 52 65 53 45 54 64 55
REMARK SMILES IDX 46 56 49 57 63 58 82 59 47 60 48 61 62 63 83 64 50 65 34 66
REMARK SMILES IDX 35 67 43 68 36 69 37 70 41 71 44 72 38 73 39 74 42 75 40 76
REMARK SMILES IDX 66 77 67 78 75 79 68 80 69 81 73 82 76 83 70 84 71 85 74 86
REMARK SMILES IDX 72 87 51 88 52 89 60 90 53 91 54 92 58 93 61 94 55 95 56 96
REMARK SMILES IDX 59 97 57 98
REMARK H PARENT 6 12 81 51 49 62
REMARK Flexibility Score: inf
ROOT
ATOM      1  C   UNL A   1      33.543  22.250  24.463  1.00  0.00     0.188 C 
ENDROOT
BRANCH   1   2
ATOM      2  O   UNL A   1      32.706  23.114  25.222  1.00  0.00    -0.376 OA
BRANCH   2   3
ATOM      3  C   UNL A   1      31.311  23.155  24.964  1.00  0.00     0.202 C 
BRANCH   3   4
ATOM      4  C   UNL A   1      30.576  24.502  25.044  1.00  0.00     0.261 C 
BRANCH   4   5
ATOM      5  O   UNL A   1      30.492  25.264  23.824  1.00  0.00    -0.463 OA
BRANCH   5   6
ATOM      6  C   UNL A   1      31.670  25.712  23.315  1.00  0.00     0.317 C 
ATOM      7  O   UNL A   1      32.333  25.098  22.483  1.00  0.00    -0.251 OA
BRANCH   6   8
ATOM      8  C   UNL A   1      32.148  27.041  23.896  1.00  0.00     0.119 C 
ATOM      9  N   UNL A   1      31.470  28.157  25.946  1.00  0.00    -0.330 N 
ATOM     10  C   UNL A   1      31.221  29.077  24.841  1.00  0.00     0.263 C 
ATOM     11  C   UNL A   1      32.393  27.135  25.409  1.00  0.00     0.281 C 
ATOM     12  H   UNL A   1      30.612  27.707  26.262  1.00  0.00     0.348 HD
ATOM     13  C   UNL A   1      31.087  28.129  23.656  1.00  0.00     0.086 C 
ATOM     14  C   UNL A   1      33.469  27.376  23.173  1.00  0.00     0.030 C 
BRANCH   9  15
ATOM     15  C   UNL A   1      31.875  28.812  27.217  1.00  0.00     0.299 C 
BRANCH  15  16
ATOM     16  C   UNL A   1      33.160  29.635  27.168  1.00  0.00     0.017 A 
ATOM     17  C   UNL A   1      36.852  29.127  27.855  1.00  0.00     0.067 C 
ATOM     18  C   UNL A   1      35.504  29.755  27.667  1.00  0.00     0.038 A 
ATOM     19  C   UNL A   1      34.390  28.991  27.358  1.00  0.00     0.033 A 
ATOM     20  N   UNL A   1      35.423  31.084  27.898  1.00  0.00    -0.253 NA
ATOM     21  C   UNL A   1      34.254  31.710  27.682  1.00  0.00     0.071 A 
ATOM     22  C   UNL A   1      33.124  31.051  27.167  1.00  0.00     0.009 A 
ATOM     23  C   UNL A   1      34.116  33.040  28.062  1.00  0.00     0.029 A 
ATOM     24  C   UNL A   1      31.978  31.816  26.825  1.00  0.00     0.011 A 
ATOM     25  C   UNL A   1      32.925  33.748  27.873  1.00  0.00     0.002 A 
ATOM     26  C   UNL A   1      31.868  33.149  27.206  1.00  0.00     0.001 A 
ENDBRANCH  15  16
ENDBRANCH   9  15
ENDBRANCH   6   8
ENDBRANCH   5   6
ENDBRANCH   4   5
ENDBRANCH   3   4
ENDBRANCH   2   3
ENDBRANCH   1   2
BRANCH   1  27
ATOM     27  C   UNL A   1      33.537  20.737  24.730  1.00  0.00     0.188 C 
BRANCH  27  28
ATOM     28  O   UNL A   1      34.811  20.132  24.701  1.00  0.00    -0.376 OA
BRANCH  28  29
ATOM     29  C   UNL A   1      35.863  20.809  25.358  1.00  0.00     0.202 C 
BRANCH  29  30
ATOM     30  C   UNL A   1      37.296  20.360  25.028  1.00  0.00     0.261 C 
BRANCH  30  31
ATOM     31  O   UNL A   1      38.340  21.320  25.276  1.00  0.00    -0.460 OA
BRANCH  31  32
ATOM     32  C   UNL A   1      39.263  21.015  26.216  1.00  0.00     0.338 C 
ATOM     33  O   UNL A   1      39.677  19.903  26.503  1.00  0.00    -0.246 OA
BRANCH  32  34
ATOM     34  C   UNL A   1      39.861  22.284  26.699  1.00  0.00     0.060 A 
ATOM     35  C   UNL A   1      39.394  23.501  26.182  1.00  0.00     0.016 A 
ATOM     36  C   UNL A   1      40.867  22.278  27.669  1.00  0.00     0.016 A 
ATOM     37  C   UNL A   1      39.951  24.711  26.611  1.00  0.00     0.010 A 
ATOM     38  C   UNL A   1      41.439  23.489  28.081  1.00  0.00     0.010 A 
ATOM     39  C   UNL A   1      41.006  24.711  27.533  1.00  0.00    -0.014 A 
BRANCH  39  40
ATOM     40  C   UNL A   1      41.784  25.956  27.785  1.00  0.00     0.031 A 
ATOM     41  C   UNL A   1      41.128  27.061  28.571  1.00  0.00     0.074 A 
ATOM     42  C   UNL A   1      43.046  26.111  27.346  1.00  0.00     0.049 A 
ATOM     43  N   UNL A   1      41.563  28.266  28.844  1.00  0.00    -0.248 NA
ATOM     44  C   UNL A   1      39.797  26.764  29.128  1.00  0.00     0.031 C 
ATOM     45  C   UNL A   1      43.821  25.109  26.618  1.00  0.00     0.029 A 
ATOM     46  N   UNL A   1      43.897  27.188  27.441  1.00  0.00    -0.354 N 
ATOM     47  C   UNL A   1      40.564  28.865  29.602  1.00  0.00     0.074 A 
ATOM     48  C   UNL A   1      39.486  27.909  29.716  1.00  0.00     0.031 C 
ATOM     49  C   UNL A   1      45.025  25.626  26.313  1.00  0.00     0.029 A 
ATOM     50  C   UNL A   1      45.094  27.007  26.791  1.00  0.00     0.049 A 
ATOM     51  H   UNL A   1      43.669  28.011  27.930  1.00  0.00     0.167 HD
ATOM     52  C   UNL A   1      40.553  30.096  30.167  1.00  0.00     0.037 A 
ATOM     53  C   UNL A   1      46.111  27.867  26.580  1.00  0.00     0.037 A 
ATOM     54  C   UNL A   1      41.617  31.057  30.051  1.00  0.00     0.049 A 
ATOM     55  C   UNL A   1      46.025  29.272  27.134  1.00  0.00     0.074 A 
ATOM     56  C   UNL A   1      41.685  32.337  30.573  1.00  0.00     0.029 A 
ATOM     57  N   UNL A   1      42.801  30.844  29.361  1.00  0.00    -0.354 N 
ATOM     58  N   UNL A   1      45.085  29.825  27.860  1.00  0.00    -0.248 NA
ATOM     59  C   UNL A   1      47.153  30.171  26.841  1.00  0.00     0.031 C 
ATOM     60  C   UNL A   1      42.889  32.916  30.163  1.00  0.00     0.029 A 
ATOM     61  C   UNL A   1      43.598  31.975  29.435  1.00  0.00     0.049 A 
ATOM     62  H   UNL A   1      43.039  30.013  28.891  1.00  0.00     0.167 HD
ATOM     63  C   UNL A   1      45.524  31.115  28.141  1.00  0.00     0.074 A 
ATOM     64  C   UNL A   1      46.824  31.257  27.525  1.00  0.00     0.031 C 
ATOM     65  C   UNL A   1      44.906  32.096  28.843  1.00  0.00     0.037 A 
BRANCH  52  66
ATOM     66  C   UNL A   1      39.342  30.485  30.964  1.00  0.00     0.064 A 
ATOM     67  C   UNL A   1      39.209  30.125  32.313  1.00  0.00     0.173 A 
ATOM     68  C   UNL A   1      38.337  31.282  30.395  1.00  0.00     0.173 A 
ATOM     69  F   UNL A   1      40.135  29.351  32.900  1.00  0.00    -0.203 F 
ATOM     70  C   UNL A   1      38.108  30.537  33.059  1.00  0.00     0.198 A 
ATOM     71  C   UNL A   1      37.253  31.718  31.152  1.00  0.00     0.198 A 
ATOM     72  F   UNL A   1      38.419  31.657  29.109  1.00  0.00    -0.203 F 
ATOM     73  F   UNL A   1      37.985  30.152  34.337  1.00  0.00    -0.200 F 
ATOM     74  C   UNL A   1      37.138  31.342  32.482  1.00  0.00     0.200 A 
ATOM     75  F   UNL A   1      36.324  32.508  30.596  1.00  0.00    -0.200 F 
ATOM     76  F   UNL A   1      36.089  31.753  33.206  1.00  0.00    -0.200 F 
ENDBRANCH  52  66
BRANCH  53  77
ATOM     77  C   UNL A   1      47.298  27.460  25.776  1.00  0.00     0.064 A 
ATOM     78  C   UNL A   1      48.464  26.982  26.392  1.00  0.00     0.173 A 
ATOM     79  C   UNL A   1      47.324  27.628  24.383  1.00  0.00     0.173 A 
ATOM     80  F   UNL A   1      48.505  26.835  27.725  1.00  0.00    -0.203 F 
ATOM     81  C   UNL A   1      49.620  26.730  25.654  1.00  0.00     0.198 A 
ATOM     82  C   UNL A   1      48.468  27.339  23.642  1.00  0.00     0.198 A 
ATOM     83  F   UNL A   1      46.241  28.090  23.742  1.00  0.00    -0.203 F 
ATOM     84  F   UNL A   1      50.744  26.356  26.281  1.00  0.00    -0.200 F 
ATOM     85  C   UNL A   1      49.621  26.906  24.279  1.00  0.00     0.200 A 
ATOM     86  F   UNL A   1      48.461  27.503  22.312  1.00  0.00    -0.200 F 
ATOM     87  F   UNL A   1      50.736  26.680  23.573  1.00  0.00    -0.200 F 
ENDBRANCH  53  77
BRANCH  65  88
ATOM     88  C   UNL A   1      45.649  33.388  29.043  1.00  0.00     0.064 A 
ATOM     89  C   UNL A   1      45.575  34.439  28.117  1.00  0.00     0.173 A 
ATOM     90  C   UNL A   1      46.420  33.589  30.199  1.00  0.00     0.173 A 
ATOM     91  F   UNL A   1      44.860  34.297  26.990  1.00  0.00    -0.203 F 
ATOM     92  C   UNL A   1      46.272  35.627  28.323  1.00  0.00     0.198 A 
ATOM     93  C   UNL A   1      47.087  34.791  30.418  1.00  0.00     0.198 A 
ATOM     94  F   UNL A   1      46.518  32.623  31.123  1.00  0.00    -0.203 F 
ATOM     95  F   UNL A   1      46.231  36.594  27.396  1.00  0.00    -0.200 F 
ATOM     96  C   UNL A   1      47.021  35.805  29.476  1.00  0.00     0.200 A 
ATOM     97  F   UNL A   1      47.795  34.968  31.543  1.00  0.00    -0.200 F 
ATOM     98  F   UNL A   1      47.686  36.952  29.675  1.00  0.00    -0.200 F 
ENDBRANCH  65  88
ENDBRANCH  39  40
ENDBRANCH  32  34
ENDBRANCH  31  32
ENDBRANCH  30  31
ENDBRANCH  29  30
ENDBRANCH  28  29
ENDBRANCH  27  28
ENDBRANCH   1  27
TORSDOF 19
ENDMDL
