MODEL 1
REMARK VINA RESULT:     -11.4      0.000      0.000
REMARK SMILES CCCSc1nc2n(n1)[C@@H](c1ccccc1C(=O)OCCOCCOCCOC(=O)c1ccc(-c3c4nc(c(-c5c(F)c(F)c(F)c(F)c5F)c5ccc([nH]5)c(-c5c(F)c(F)c(F)c(F)c5F)c5nc(c(-c6c(F)c(F)c(F)c(F)c6F)c6ccc3[nH]6)C=C5)C=C4)cc1)C(C(=O)Nc1cccc(C)c1C)=C(C)N2
REMARK SMILES IDX 23 1 22 2 21 3 20 4 19 5 17 6 18 7 16 8 11 9 12 10 13 11
REMARK SMILES IDX 15 12 14 13 10 14 5 15 6 16 9 17 7 18 8 19 108 20 106 21
REMARK SMILES IDX 94 23 107 24 4 25 3 26 2 27 1 28 95 29 96 30 97 31 98 33
REMARK SMILES IDX 99 34 104 35 100 36 102 37 105 38 101 39 103 40 24 41 25 42
REMARK SMILES IDX 26 43 27 44 28 45 29 46 30 47 31 48 32 49 93 50 33 51 92 52
REMARK SMILES IDX 34 53 35 54 36 55 86 56 37 57 91 58 85 59 87 60 38 61 90 62
REMARK SMILES IDX 84 63 83 64 39 66 71 67 51 68 70 69 52 70 55 71 69 72 88 73
REMARK SMILES IDX 53 74 54 75 68 77 89 78 56 79 40 80 41 81 49 82 42 83 43 84
REMARK SMILES IDX 47 85 50 86 44 87 45 88 48 89 46 90 72 91 73 92 81 93 74 94
REMARK SMILES IDX 75 95 79 96 82 97 76 98 77 99 80 100 78 101 57 102 58 103
REMARK SMILES IDX 66 104 59 105 60 106 64 107 67 108 61 109 62 110 65 111
REMARK SMILES IDX 63 112
REMARK H PARENT 108 22 97 32 87 65 55 76
REMARK Flexibility Score: inf
ROOT
ATOM      1  C   UNL A   1      33.242  31.222  27.275  1.00  0.00     0.188 C 
ENDROOT
BRANCH   1   2
ATOM      2  O   UNL A   1      32.986  29.851  27.535  1.00  0.00    -0.376 OA
BRANCH   2   3
ATOM      3  C   UNL A   1      33.869  28.964  26.855  1.00  0.00     0.202 C 
BRANCH   3   4
ATOM      4  C   UNL A   1      33.322  27.549  26.634  1.00  0.00     0.261 C 
BRANCH   4   5
ATOM      5  O   UNL A   1      34.211  26.609  26.002  1.00  0.00    -0.460 OA
BRANCH   5   6
ATOM      6  C   UNL A   1      33.939  25.296  26.153  1.00  0.00     0.338 C 
ATOM      7  O   UNL A   1      33.017  24.855  26.820  1.00  0.00    -0.246 OA
BRANCH   6   8
ATOM      8  C   UNL A   1      34.836  24.458  25.286  1.00  0.00     0.065 A 
ATOM      9  C   UNL A   1      34.451  23.709  24.140  1.00  0.00    -0.004 A 
ATOM     10  C   UNL A   1      35.479  22.995  23.468  1.00  0.00     0.007 A 
ATOM     11  C   UNL A   1      36.804  22.999  23.908  1.00  0.00     0.000 A 
ATOM     12  C   UNL A   1      36.188  24.473  25.695  1.00  0.00     0.016 A 
ATOM     13  C   UNL A   1      37.161  23.743  25.018  1.00  0.00     0.001 A 
BRANCH   9  14
ATOM     14  C   UNL A   1      33.019  23.720  23.547  1.00  0.00     0.180 C 
ATOM     15  C   UNL A   1      32.177  20.314  23.207  1.00  0.00     0.210 A 
ATOM     16  N   UNL A   1      32.151  20.640  21.877  1.00  0.00    -0.185 NA
ATOM     17  N   UNL A   1      32.393  21.334  24.048  1.00  0.00    -0.141 NA
ATOM     18  C   UNL A   1      32.396  21.924  21.887  1.00  0.00     0.227 A 
ATOM     19  N   UNL A   1      32.568  22.354  23.179  1.00  0.00    -0.218 N 
ATOM     20  N   UNL A   1      32.522  22.796  20.874  1.00  0.00    -0.328 N 
ATOM     21  C   UNL A   1      32.757  24.149  21.064  1.00  0.00     0.026 C 
ATOM     22  H   UNL A   1      32.442  22.459  19.953  1.00  0.00     0.169 HD
ATOM     23  C   UNL A   1      32.918  24.631  22.318  1.00  0.00     0.065 C 
ATOM     24  C   UNL A   1      32.828  24.980  19.810  1.00  0.00     0.065 C 
BRANCH  15  25
ATOM     25  S   UNL A   1      31.998  18.679  23.784  1.00  0.00    -0.084 SA
BRANCH  25  26
ATOM     26  C   UNL A   1      33.103  17.781  22.651  1.00  0.00     0.078 C 
BRANCH  26  27
ATOM     27  C   UNL A   1      34.075  16.851  23.381  1.00  0.00     0.008 C 
ATOM     28  C   UNL A   1      35.007  17.550  24.359  1.00  0.00     0.005 C 
ENDBRANCH  26  27
ENDBRANCH  25  26
ENDBRANCH  15  25
BRANCH  23  29
ATOM     29  C   UNL A   1      33.123  26.072  22.543  1.00  0.00     0.255 C 
ATOM     30  O   UNL A   1      33.997  26.673  21.924  1.00  0.00    -0.269 OA
ATOM     31  N   UNL A   1      32.376  26.726  23.494  1.00  0.00    -0.322 N 
ATOM     32  H   UNL A   1      32.818  27.111  24.285  1.00  0.00     0.170 HD
BRANCH  31  33
ATOM     33  C   UNL A   1      30.978  26.846  23.342  1.00  0.00     0.044 A 
ATOM     34  C   UNL A   1      30.238  25.782  23.877  1.00  0.00     0.026 A 
ATOM     35  C   UNL A   1      30.342  27.992  22.839  1.00  0.00    -0.025 A 
ATOM     36  C   UNL A   1      28.872  25.912  24.070  1.00  0.00     0.002 A 
ATOM     37  C   UNL A   1      28.965  28.150  23.108  1.00  0.00    -0.046 A 
ATOM     38  C   UNL A   1      31.084  29.004  22.006  1.00  0.00     0.047 C 
ATOM     39  C   UNL A   1      28.250  27.108  23.732  1.00  0.00     0.004 A 
ATOM     40  C   UNL A   1      28.227  29.439  22.867  1.00  0.00     0.044 C 
ENDBRANCH  31  33
ENDBRANCH  23  29
ENDBRANCH   9  14
ENDBRANCH   6   8
ENDBRANCH   5   6
ENDBRANCH   4   5
ENDBRANCH   3   4
ENDBRANCH   2   3
ENDBRANCH   1   2
BRANCH   1  41
ATOM     41  C   UNL A   1      34.431  31.836  28.041  1.00  0.00     0.188 C 
BRANCH  41  42
ATOM     42  O   UNL A   1      35.000  33.082  27.666  1.00  0.00    -0.376 OA
BRANCH  42  43
ATOM     43  C   UNL A   1      35.226  34.114  28.616  1.00  0.00     0.202 C 
BRANCH  43  44
ATOM     44  C   UNL A   1      34.073  35.022  29.039  1.00  0.00     0.261 C 
BRANCH  44  45
ATOM     45  O   UNL A   1      33.347  34.505  30.147  1.00  0.00    -0.460 OA
BRANCH  45  46
ATOM     46  C   UNL A   1      33.694  35.041  31.336  1.00  0.00     0.338 C 
ATOM     47  O   UNL A   1      33.220  36.025  31.872  1.00  0.00    -0.246 OA
BRANCH  46  48
ATOM     48  C   UNL A   1      34.745  34.214  31.953  1.00  0.00     0.060 A 
ATOM     49  C   UNL A   1      35.947  34.855  32.268  1.00  0.00     0.016 A 
ATOM     50  C   UNL A   1      34.595  32.827  32.098  1.00  0.00     0.016 A 
ATOM     51  C   UNL A   1      37.061  34.085  32.524  1.00  0.00     0.010 A 
ATOM     52  C   UNL A   1      35.709  32.055  32.358  1.00  0.00     0.010 A 
ATOM     53  C   UNL A   1      36.945  32.693  32.465  1.00  0.00    -0.014 A 
BRANCH  53  54
ATOM     54  C   UNL A   1      38.179  31.938  32.341  1.00  0.00     0.031 A 
ATOM     55  C   UNL A   1      39.020  31.845  33.544  1.00  0.00     0.074 A 
ATOM     56  C   UNL A   1      38.507  31.350  31.172  1.00  0.00     0.049 A 
ATOM     57  N   UNL A   1      40.224  32.288  33.692  1.00  0.00    -0.248 NA
ATOM     58  C   UNL A   1      38.446  31.220  34.743  1.00  0.00     0.031 C 
ATOM     59  C   UNL A   1      37.619  31.153  30.020  1.00  0.00     0.029 A 
ATOM     60  N   UNL A   1      39.666  30.730  30.790  1.00  0.00    -0.354 N 
ATOM     61  C   UNL A   1      40.639  31.819  34.931  1.00  0.00     0.074 A 
ATOM     62  C   UNL A   1      39.472  31.286  35.591  1.00  0.00     0.031 C 
ATOM     63  C   UNL A   1      38.201  30.301  29.152  1.00  0.00     0.029 A 
ATOM     64  C   UNL A   1      39.547  30.004  29.614  1.00  0.00     0.049 A 
ATOM     65  H   UNL A   1      40.504  30.792  31.301  1.00  0.00     0.167 HD
ATOM     66  C   UNL A   1      41.958  31.639  35.194  1.00  0.00     0.037 A 
ATOM     67  C   UNL A   1      40.463  29.189  29.045  1.00  0.00     0.037 A 
ATOM     68  C   UNL A   1      42.809  32.341  34.273  1.00  0.00     0.049 A 
ATOM     69  C   UNL A   1      41.808  29.545  29.547  1.00  0.00     0.074 A 
ATOM     70  C   UNL A   1      43.349  33.601  34.157  1.00  0.00     0.029 A 
ATOM     71  N   UNL A   1      42.992  31.710  33.076  1.00  0.00    -0.354 N 
ATOM     72  N   UNL A   1      42.436  30.641  29.229  1.00  0.00    -0.248 NA
ATOM     73  C   UNL A   1      42.394  28.784  30.648  1.00  0.00     0.031 C 
ATOM     74  C   UNL A   1      43.801  33.733  32.808  1.00  0.00     0.029 A 
ATOM     75  C   UNL A   1      43.518  32.553  32.133  1.00  0.00     0.049 A 
ATOM     76  H   UNL A   1      42.772  30.765  32.910  1.00  0.00     0.167 HD
ATOM     77  C   UNL A   1      43.220  30.911  30.330  1.00  0.00     0.074 A 
ATOM     78  C   UNL A   1      43.302  29.666  31.076  1.00  0.00     0.031 C 
ATOM     79  C   UNL A   1      43.430  32.191  30.739  1.00  0.00     0.037 A 
BRANCH  66  80
ATOM     80  C   UNL A   1      42.488  30.467  35.978  1.00  0.00     0.064 A 
ATOM     81  C   UNL A   1      43.460  30.681  36.972  1.00  0.00     0.173 A 
ATOM     82  C   UNL A   1      42.311  29.128  35.564  1.00  0.00     0.173 A 
ATOM     83  F   UNL A   1      43.733  31.922  37.402  1.00  0.00    -0.203 F 
ATOM     84  C   UNL A   1      44.225  29.631  37.487  1.00  0.00     0.198 A 
ATOM     85  C   UNL A   1      43.038  28.077  36.120  1.00  0.00     0.198 A 
ATOM     86  F   UNL A   1      41.521  28.807  34.531  1.00  0.00    -0.203 F 
ATOM     87  F   UNL A   1      45.212  29.891  38.354  1.00  0.00    -0.200 F 
ATOM     88  C   UNL A   1      44.012  28.331  37.062  1.00  0.00     0.200 A 
ATOM     89  F   UNL A   1      42.837  26.829  35.675  1.00  0.00    -0.200 F 
ATOM     90  F   UNL A   1      44.774  27.331  37.522  1.00  0.00    -0.200 F 
ENDBRANCH  66  80
BRANCH  67  91
ATOM     91  C   UNL A   1      40.238  28.026  28.163  1.00  0.00     0.064 A 
ATOM     92  C   UNL A   1      40.904  27.900  26.936  1.00  0.00     0.173 A 
ATOM     93  C   UNL A   1      39.543  26.891  28.626  1.00  0.00     0.173 A 
ATOM     94  F   UNL A   1      41.621  28.922  26.446  1.00  0.00    -0.203 F 
ATOM     95  C   UNL A   1      40.899  26.698  26.224  1.00  0.00     0.198 A 
ATOM     96  C   UNL A   1      39.526  25.697  27.907  1.00  0.00     0.198 A 
ATOM     97  F   UNL A   1      38.944  26.895  29.826  1.00  0.00    -0.203 F 
ATOM     98  F   UNL A   1      41.599  26.594  25.086  1.00  0.00    -0.200 F 
ATOM     99  C   UNL A   1      40.217  25.597  26.713  1.00  0.00     0.200 A 
ATOM    100  F   UNL A   1      38.888  24.630  28.407  1.00  0.00    -0.200 F 
ATOM    101  F   UNL A   1      40.257  24.429  26.058  1.00  0.00    -0.200 F 
ENDBRANCH  67  91
BRANCH  79 102
ATOM    102  C   UNL A   1      43.350  33.258  29.700  1.00  0.00     0.064 A 
ATOM    103  C   UNL A   1      44.376  33.534  28.783  1.00  0.00     0.173 A 
ATOM    104  C   UNL A   1      42.182  34.028  29.627  1.00  0.00     0.173 A 
ATOM    105  F   UNL A   1      45.489  32.787  28.753  1.00  0.00    -0.203 F 
ATOM    106  C   UNL A   1      44.255  34.580  27.870  1.00  0.00     0.198 A 
ATOM    107  C   UNL A   1      42.052  35.050  28.693  1.00  0.00     0.198 A 
ATOM    108  F   UNL A   1      41.157  33.778  30.458  1.00  0.00    -0.203 F 
ATOM    109  F   UNL A   1      45.260  34.854  27.026  1.00  0.00    -0.200 F 
ATOM    110  C   UNL A   1      43.093  35.336  27.825  1.00  0.00     0.200 A 
ATOM    111  F   UNL A   1      40.914  35.756  28.631  1.00  0.00    -0.200 F 
ATOM    112  F   UNL A   1      42.972  36.332  26.938  1.00  0.00    -0.200 F 
ENDBRANCH  79 102
ENDBRANCH  53  54
ENDBRANCH  46  48
ENDBRANCH  45  46
ENDBRANCH  44  45
ENDBRANCH  43  44
ENDBRANCH  42  43
ENDBRANCH  41  42
ENDBRANCH   1  41
TORSDOF 23
ENDMDL
MODEL 2
REMARK VINA RESULT:     -11.2      3.094      7.524
REMARK SMILES CCCSc1nc2n(n1)[C@@H](c1ccccc1C(=O)OCCOCCOCCOC(=O)c1ccc(-c3c4nc(c(-c5c(F)c(F)c(F)c(F)c5F)c5ccc([nH]5)c(-c5c(F)c(F)c(F)c(F)c5F)c5nc(c(-c6c(F)c(F)c(F)c(F)c6F)c6ccc3[nH]6)C=C5)C=C4)cc1)C(C(=O)Nc1cccc(C)c1C)=C(C)N2
REMARK SMILES IDX 23 1 22 2 21 3 20 4 19 5 17 6 18 7 16 8 11 9 12 10 13 11
REMARK SMILES IDX 15 12 14 13 10 14 5 15 6 16 9 17 7 18 8 19 108 20 106 21
REMARK SMILES IDX 94 23 107 24 4 25 3 26 2 27 1 28 95 29 96 30 97 31 98 33
REMARK SMILES IDX 99 34 104 35 100 36 102 37 105 38 101 39 103 40 24 41 25 42
REMARK SMILES IDX 26 43 27 44 28 45 29 46 30 47 31 48 32 49 93 50 33 51 92 52
REMARK SMILES IDX 34 53 35 54 36 55 86 56 37 57 91 58 85 59 87 60 38 61 90 62
REMARK SMILES IDX 84 63 83 64 39 66 71 67 51 68 70 69 52 70 55 71 69 72 88 73
REMARK SMILES IDX 53 74 54 75 68 77 89 78 56 79 40 80 41 81 49 82 42 83 43 84
REMARK SMILES IDX 47 85 50 86 44 87 45 88 48 89 46 90 72 91 73 92 81 93 74 94
REMARK SMILES IDX 75 95 79 96 82 97 76 98 77 99 80 100 78 101 57 102 58 103
REMARK SMILES IDX 66 104 59 105 60 106 64 107 67 108 61 109 62 110 65 111
REMARK SMILES IDX 63 112
REMARK H PARENT 108 22 97 32 87 65 55 76
REMARK Flexibility Score: inf
ROOT
ATOM      1  C   UNL A   1      31.950  29.487  26.019  1.00  0.00     0.188 C 
ENDROOT
BRANCH   1   2
ATOM      2  O   UNL A   1      32.428  28.152  26.040  1.00  0.00    -0.376 OA
BRANCH   2   3
ATOM      3  C   UNL A   1      31.709  27.299  26.926  1.00  0.00     0.202 C 
BRANCH   3   4
ATOM      4  C   UNL A   1      32.118  25.823  26.879  1.00  0.00     0.261 C 
BRANCH   4   5
ATOM      5  O   UNL A   1      33.395  25.530  26.283  1.00  0.00    -0.460 OA
BRANCH   5   6
ATOM      6  C   UNL A   1      33.897  24.290  26.462  1.00  0.00     0.338 C 
ATOM      7  O   UNL A   1      33.544  23.524  27.345  1.00  0.00    -0.246 OA
BRANCH   6   8
ATOM      8  C   UNL A   1      34.845  23.929  25.354  1.00  0.00     0.065 A 
ATOM      9  C   UNL A   1      34.500  23.602  24.013  1.00  0.00    -0.004 A 
ATOM     10  C   UNL A   1      35.574  23.300  23.133  1.00  0.00     0.007 A 
ATOM     11  C   UNL A   1      36.907  23.299  23.549  1.00  0.00     0.000 A 
ATOM     12  C   UNL A   1      36.202  23.952  25.746  1.00  0.00     0.016 A 
ATOM     13  C   UNL A   1      37.222  23.631  24.854  1.00  0.00     0.001 A 
BRANCH   9  14
ATOM     14  C   UNL A   1      33.054  23.659  23.460  1.00  0.00     0.180 C 
ATOM     15  C   UNL A   1      32.193  20.290  22.887  1.00  0.00     0.210 A 
ATOM     16  N   UNL A   1      32.134  20.714  21.586  1.00  0.00    -0.185 NA
ATOM     17  N   UNL A   1      32.432  21.244  23.796  1.00  0.00    -0.141 NA
ATOM     18  C   UNL A   1      32.383  21.993  21.686  1.00  0.00     0.227 A 
ATOM     19  N   UNL A   1      32.589  22.325  23.002  1.00  0.00    -0.218 N 
ATOM     20  N   UNL A   1      32.487  22.939  20.739  1.00  0.00    -0.328 N 
ATOM     21  C   UNL A   1      32.732  24.273  21.023  1.00  0.00     0.026 C 
ATOM     22  H   UNL A   1      32.383  22.672  19.797  1.00  0.00     0.169 HD
ATOM     23  C   UNL A   1      32.926  24.660  22.305  1.00  0.00     0.065 C 
ATOM     24  C   UNL A   1      32.774  25.196  19.834  1.00  0.00     0.065 C 
BRANCH  15  25
ATOM     25  S   UNL A   1      32.022  18.617  23.344  1.00  0.00    -0.084 SA
BRANCH  25  26
ATOM     26  C   UNL A   1      33.531  18.363  24.330  1.00  0.00     0.078 C 
BRANCH  26  27
ATOM     27  C   UNL A   1      34.146  16.976  24.130  1.00  0.00     0.008 C 
ATOM     28  C   UNL A   1      33.381  15.842  24.797  1.00  0.00     0.005 C 
ENDBRANCH  26  27
ENDBRANCH  25  26
ENDBRANCH  15  25
BRANCH  23  29
ATOM     29  C   UNL A   1      33.141  26.079  22.632  1.00  0.00     0.255 C 
ATOM     30  O   UNL A   1      34.055  26.702  22.098  1.00  0.00    -0.269 OA
ATOM     31  N   UNL A   1      32.356  26.686  23.584  1.00  0.00    -0.322 N 
ATOM     32  H   UNL A   1      32.762  27.012  24.419  1.00  0.00     0.170 HD
BRANCH  31  33
ATOM     33  C   UNL A   1      30.970  26.843  23.368  1.00  0.00     0.044 A 
ATOM     34  C   UNL A   1      30.186  25.762  23.799  1.00  0.00     0.026 A 
ATOM     35  C   UNL A   1      30.379  28.028  22.906  1.00  0.00    -0.025 A 
ATOM     36  C   UNL A   1      28.815  25.906  23.930  1.00  0.00     0.002 A 
ATOM     37  C   UNL A   1      28.992  28.196  23.114  1.00  0.00    -0.046 A 
ATOM     38  C   UNL A   1      31.179  29.074  22.175  1.00  0.00     0.047 C 
ATOM     39  C   UNL A   1      28.230  27.132  23.635  1.00  0.00     0.004 A 
ATOM     40  C   UNL A   1      28.289  29.511  22.916  1.00  0.00     0.044 C 
ENDBRANCH  31  33
ENDBRANCH  23  29
ENDBRANCH   9  14
ENDBRANCH   6   8
ENDBRANCH   5   6
ENDBRANCH   4   5
ENDBRANCH   3   4
ENDBRANCH   2   3
ENDBRANCH   1   2
BRANCH   1  41
ATOM     41  C   UNL A   1      32.403  30.376  27.196  1.00  0.00     0.188 C 
BRANCH  41  42
ATOM     42  O   UNL A   1      33.490  31.282  27.075  1.00  0.00    -0.376 OA
BRANCH  42  43
ATOM     43  C   UNL A   1      33.726  32.297  28.042  1.00  0.00     0.202 C 
BRANCH  43  44
ATOM     44  C   UNL A   1      34.854  32.129  29.057  1.00  0.00     0.261 C 
BRANCH  44  45
ATOM     45  O   UNL A   1      35.802  31.144  28.666  1.00  0.00    -0.460 OA
BRANCH  45  46
ATOM     46  C   UNL A   1      36.408  30.517  29.696  1.00  0.00     0.338 C 
ATOM     47  O   UNL A   1      36.147  30.616  30.880  1.00  0.00    -0.246 OA
BRANCH  46  48
ATOM     48  C   UNL A   1      37.452  29.620  29.173  1.00  0.00     0.060 A 
ATOM     49  C   UNL A   1      37.929  28.634  30.042  1.00  0.00     0.016 A 
ATOM     50  C   UNL A   1      38.031  29.827  27.913  1.00  0.00     0.016 A 
ATOM     51  C   UNL A   1      39.115  28.001  29.738  1.00  0.00     0.010 A 
ATOM     52  C   UNL A   1      39.216  29.190  27.605  1.00  0.00     0.010 A 
ATOM     53  C   UNL A   1      39.792  28.364  28.570  1.00  0.00    -0.014 A 
BRANCH  53  54
ATOM     54  C   UNL A   1      41.192  27.989  28.481  1.00  0.00     0.031 A 
ATOM     55  C   UNL A   1      41.490  26.690  27.858  1.00  0.00     0.074 A 
ATOM     56  C   UNL A   1      42.153  28.815  28.943  1.00  0.00     0.049 A 
ATOM     57  N   UNL A   1      42.061  25.671  28.409  1.00  0.00    -0.248 NA
ATOM     58  C   UNL A   1      41.069  26.478  26.467  1.00  0.00     0.031 C 
ATOM     59  C   UNL A   1      41.979  30.223  29.319  1.00  0.00     0.029 A 
ATOM     60  N   UNL A   1      43.497  28.609  29.098  1.00  0.00    -0.354 N 
ATOM     61  C   UNL A   1      42.260  24.761  27.380  1.00  0.00     0.074 A 
ATOM     62  C   UNL A   1      41.518  25.243  26.242  1.00  0.00     0.031 C 
ATOM     63  C   UNL A   1      43.191  30.795  29.471  1.00  0.00     0.029 A 
ATOM     64  C   UNL A   1      44.214  29.770  29.342  1.00  0.00     0.049 A 
ATOM     65  H   UNL A   1      43.915  27.720  29.041  1.00  0.00     0.167 HD
ATOM     66  C   UNL A   1      43.256  23.841  27.458  1.00  0.00     0.037 A 
ATOM     67  C   UNL A   1      45.556  29.916  29.417  1.00  0.00     0.037 A 
ATOM     68  C   UNL A   1      43.747  23.663  28.796  1.00  0.00     0.049 A 
ATOM     69  C   UNL A   1      46.173  28.606  29.713  1.00  0.00     0.074 A 
ATOM     70  C   UNL A   1      43.420  22.907  29.899  1.00  0.00     0.029 A 
ATOM     71  N   UNL A   1      44.635  24.616  29.206  1.00  0.00    -0.354 N 
ATOM     72  N   UNL A   1      46.073  27.998  30.861  1.00  0.00    -0.248 NA
ATOM     73  C   UNL A   1      46.717  27.799  28.623  1.00  0.00     0.031 C 
ATOM     74  C   UNL A   1      44.094  23.493  31.014  1.00  0.00     0.029 A 
ATOM     75  C   UNL A   1      44.808  24.597  30.565  1.00  0.00     0.049 A 
ATOM     76  H   UNL A   1      45.094  25.240  28.599  1.00  0.00     0.167 HD
ATOM     77  C   UNL A   1      46.142  26.660  30.540  1.00  0.00     0.074 A 
ATOM     78  C   UNL A   1      46.719  26.598  29.207  1.00  0.00     0.031 C 
ATOM     79  C   UNL A   1      45.398  25.742  31.214  1.00  0.00     0.037 A 
BRANCH  66  80
ATOM     80  C   UNL A   1      44.106  23.449  26.277  1.00  0.00     0.064 A 
ATOM     81  C   UNL A   1      44.156  22.101  25.877  1.00  0.00     0.173 A 
ATOM     82  C   UNL A   1      45.106  24.290  25.743  1.00  0.00     0.173 A 
ATOM     83  F   UNL A   1      43.276  21.213  26.364  1.00  0.00    -0.203 F 
ATOM     84  C   UNL A   1      45.161  21.625  25.031  1.00  0.00     0.198 A 
ATOM     85  C   UNL A   1      46.073  23.823  24.855  1.00  0.00     0.198 A 
ATOM     86  F   UNL A   1      45.255  25.558  26.149  1.00  0.00    -0.203 F 
ATOM     87  F   UNL A   1      45.237  20.316  24.759  1.00  0.00    -0.200 F 
ATOM     88  C   UNL A   1      46.117  22.486  24.520  1.00  0.00     0.200 A 
ATOM     89  F   UNL A   1      47.008  24.666  24.394  1.00  0.00    -0.200 F 
ATOM     90  F   UNL A   1      47.106  22.023  23.745  1.00  0.00    -0.200 F 
ENDBRANCH  66  80
BRANCH  67  91
ATOM     91  C   UNL A   1      46.366  31.118  29.133  1.00  0.00     0.064 A 
ATOM     92  C   UNL A   1      47.133  31.735  30.132  1.00  0.00     0.173 A 
ATOM     93  C   UNL A   1      46.595  31.540  27.809  1.00  0.00     0.173 A 
ATOM     94  F   UNL A   1      47.002  31.361  31.414  1.00  0.00    -0.203 F 
ATOM     95  C   UNL A   1      48.093  32.701  29.823  1.00  0.00     0.198 A 
ATOM     96  C   UNL A   1      47.544  32.515  27.502  1.00  0.00     0.198 A 
ATOM     97  F   UNL A   1      45.966  30.951  26.782  1.00  0.00    -0.203 F 
ATOM     98  F   UNL A   1      48.851  33.224  30.796  1.00  0.00    -0.200 F 
ATOM     99  C   UNL A   1      48.303  33.084  28.509  1.00  0.00     0.200 A 
ATOM    100  F   UNL A   1      47.757  32.854  26.224  1.00  0.00    -0.200 F 
ATOM    101  F   UNL A   1      49.261  33.970  28.206  1.00  0.00    -0.200 F 
ENDBRANCH  67  91
BRANCH  79 102
ATOM    102  C   UNL A   1      45.021  26.073  32.619  1.00  0.00     0.064 A 
ATOM    103  C   UNL A   1      45.815  25.763  33.734  1.00  0.00     0.173 A 
ATOM    104  C   UNL A   1      43.808  26.736  32.843  1.00  0.00     0.173 A 
ATOM    105  F   UNL A   1      47.020  25.194  33.582  1.00  0.00    -0.203 F 
ATOM    106  C   UNL A   1      45.379  26.056  35.025  1.00  0.00     0.198 A 
ATOM    107  C   UNL A   1      43.391  27.056  34.131  1.00  0.00     0.198 A 
ATOM    108  F   UNL A   1      43.030  27.087  31.806  1.00  0.00    -0.203 F 
ATOM    109  F   UNL A   1      46.133  25.720  36.081  1.00  0.00    -0.200 F 
ATOM    110  C   UNL A   1      44.168  26.703  35.221  1.00  0.00     0.200 A 
ATOM    111  F   UNL A   1      42.236  27.712  34.314  1.00  0.00    -0.200 F 
ATOM    112  F   UNL A   1      43.756  26.998  36.462  1.00  0.00    -0.200 F 
ENDBRANCH  79 102
ENDBRANCH  53  54
ENDBRANCH  46  48
ENDBRANCH  45  46
ENDBRANCH  44  45
ENDBRANCH  43  44
ENDBRANCH  42  43
ENDBRANCH  41  42
ENDBRANCH   1  41
TORSDOF 23
ENDMDL
MODEL 3
REMARK VINA RESULT:     -10.5      6.193     10.956
REMARK SMILES CCCSc1nc2n(n1)[C@@H](c1ccccc1C(=O)OCCOCCOCCOC(=O)c1ccc(-c3c4nc(c(-c5c(F)c(F)c(F)c(F)c5F)c5ccc([nH]5)c(-c5c(F)c(F)c(F)c(F)c5F)c5nc(c(-c6c(F)c(F)c(F)c(F)c6F)c6ccc3[nH]6)C=C5)C=C4)cc1)C(C(=O)Nc1cccc(C)c1C)=C(C)N2
REMARK SMILES IDX 23 1 22 2 21 3 20 4 19 5 17 6 18 7 16 8 11 9 12 10 13 11
REMARK SMILES IDX 15 12 14 13 10 14 5 15 6 16 9 17 7 18 8 19 108 20 106 21
REMARK SMILES IDX 94 23 107 24 4 25 3 26 2 27 1 28 95 29 96 30 97 31 98 33
REMARK SMILES IDX 99 34 104 35 100 36 102 37 105 38 101 39 103 40 24 41 25 42
REMARK SMILES IDX 26 43 27 44 28 45 29 46 30 47 31 48 32 49 93 50 33 51 92 52
REMARK SMILES IDX 34 53 35 54 36 55 86 56 37 57 91 58 85 59 87 60 38 61 90 62
REMARK SMILES IDX 84 63 83 64 39 66 71 67 51 68 70 69 52 70 55 71 69 72 88 73
REMARK SMILES IDX 53 74 54 75 68 77 89 78 56 79 40 80 41 81 49 82 42 83 43 84
REMARK SMILES IDX 47 85 50 86 44 87 45 88 48 89 46 90 72 91 73 92 81 93 74 94
REMARK SMILES IDX 75 95 79 96 82 97 76 98 77 99 80 100 78 101 57 102 58 103
REMARK SMILES IDX 66 104 59 105 60 106 64 107 67 108 61 109 62 110 65 111
REMARK SMILES IDX 63 112
REMARK H PARENT 108 22 97 32 87 65 55 76
REMARK Flexibility Score: inf
ROOT
ATOM      1  C   UNL A   1      46.047  34.547  25.974  1.00  0.00     0.188 C 
ENDROOT
BRANCH   1   2
ATOM      2  O   UNL A   1      45.280  34.218  24.827  1.00  0.00    -0.376 OA
BRANCH   2   3
ATOM      3  C   UNL A   1      44.183  33.353  25.099  1.00  0.00     0.202 C 
BRANCH   3   4
ATOM      4  C   UNL A   1      44.232  32.652  26.462  1.00  0.00     0.261 C 
BRANCH   4   5
ATOM      5  O   UNL A   1      44.246  31.212  26.442  1.00  0.00    -0.460 OA
BRANCH   5   6
ATOM      6  C   UNL A   1      45.448  30.601  26.429  1.00  0.00     0.338 C 
ATOM      7  O   UNL A   1      46.144  30.468  25.435  1.00  0.00    -0.246 OA
BRANCH   6   8
ATOM      8  C   UNL A   1      45.875  30.226  27.820  1.00  0.00     0.065 A 
ATOM      9  C   UNL A   1      45.682  28.969  28.459  1.00  0.00    -0.004 A 
ATOM     10  C   UNL A   1      46.181  28.842  29.783  1.00  0.00     0.007 A 
ATOM     11  C   UNL A   1      46.814  29.892  30.450  1.00  0.00     0.000 A 
ATOM     12  C   UNL A   1      46.547  31.265  28.502  1.00  0.00     0.016 A 
ATOM     13  C   UNL A   1      47.003  31.103  29.807  1.00  0.00     0.001 A 
BRANCH   9  14
ATOM     14  C   UNL A   1      45.060  27.736  27.757  1.00  0.00     0.180 C 
ATOM     15  C   UNL A   1      47.387  26.879  25.252  1.00  0.00     0.210 A 
ATOM     16  N   UNL A   1      46.343  27.202  24.425  1.00  0.00    -0.185 NA
ATOM     17  N   UNL A   1      47.117  26.913  26.563  1.00  0.00    -0.141 NA
ATOM     18  C   UNL A   1      45.383  27.485  25.266  1.00  0.00     0.227 A 
ATOM     19  N   UNL A   1      45.836  27.341  26.553  1.00  0.00    -0.218 N 
ATOM     20  N   UNL A   1      44.125  27.897  25.047  1.00  0.00    -0.328 N 
ATOM     21  C   UNL A   1      43.214  28.128  26.066  1.00  0.00     0.026 C 
ATOM     22  H   UNL A   1      43.833  28.041  24.118  1.00  0.00     0.169 HD
ATOM     23  C   UNL A   1      43.602  27.985  27.355  1.00  0.00     0.065 C 
ATOM     24  C   UNL A   1      41.835  28.546  25.627  1.00  0.00     0.065 C 
BRANCH  15  25
ATOM     25  S   UNL A   1      48.980  26.497  24.657  1.00  0.00    -0.084 SA
BRANCH  25  26
ATOM     26  C   UNL A   1      49.976  26.687  26.168  1.00  0.00     0.078 C 
BRANCH  26  27
ATOM     27  C   UNL A   1      50.450  25.350  26.741  1.00  0.00     0.008 C 
ATOM     28  C   UNL A   1      49.696  24.890  27.981  1.00  0.00     0.005 C 
ENDBRANCH  26  27
ENDBRANCH  25  26
ENDBRANCH  15  25
BRANCH  23  29
ATOM     29  C   UNL A   1      42.637  28.181  28.450  1.00  0.00     0.255 C 
ATOM     30  O   UNL A   1      42.270  29.313  28.752  1.00  0.00    -0.269 OA
ATOM     31  N   UNL A   1      42.199  27.096  29.174  1.00  0.00    -0.322 N 
ATOM     32  H   UNL A   1      42.418  27.026  30.131  1.00  0.00     0.170 HD
BRANCH  31  33
ATOM     33  C   UNL A   1      41.437  26.085  28.550  1.00  0.00     0.044 A 
ATOM     34  C   UNL A   1      40.126  26.459  28.222  1.00  0.00     0.026 A 
ATOM     35  C   UNL A   1      41.963  24.851  28.139  1.00  0.00    -0.025 A 
ATOM     36  C   UNL A   1      39.380  25.687  27.347  1.00  0.00     0.002 A 
ATOM     37  C   UNL A   1      41.230  24.108  27.188  1.00  0.00    -0.046 A 
ATOM     38  C   UNL A   1      43.245  24.309  28.717  1.00  0.00     0.047 C 
ATOM     39  C   UNL A   1      39.949  24.545  26.796  1.00  0.00     0.004 A 
ATOM     40  C   UNL A   1      41.799  22.915  26.467  1.00  0.00     0.044 C 
ENDBRANCH  31  33
ENDBRANCH  23  29
ENDBRANCH   9  14
ENDBRANCH   6   8
ENDBRANCH   5   6
ENDBRANCH   4   5
ENDBRANCH   3   4
ENDBRANCH   2   3
ENDBRANCH   1   2
BRANCH   1  41
ATOM     41  C   UNL A   1      46.239  36.054  26.237  1.00  0.00     0.188 C 
BRANCH  41  42
ATOM     42  O   UNL A   1      45.310  36.804  27.007  1.00  0.00    -0.376 OA
BRANCH  42  43
ATOM     43  C   UNL A   1      45.315  38.225  27.004  1.00  0.00     0.202 C 
BRANCH  43  44
ATOM     44  C   UNL A   1      46.137  38.983  28.045  1.00  0.00     0.261 C 
BRANCH  44  45
ATOM     45  O   UNL A   1      46.291  38.256  29.257  1.00  0.00    -0.460 OA
BRANCH  45  46
ATOM     46  C   UNL A   1      45.430  38.615  30.233  1.00  0.00     0.338 C 
ATOM     47  O   UNL A   1      45.062  39.739  30.519  1.00  0.00    -0.246 OA
BRANCH  46  48
ATOM     48  C   UNL A   1      44.937  37.407  30.915  1.00  0.00     0.060 A 
ATOM     49  C   UNL A   1      45.238  36.179  30.320  1.00  0.00     0.016 A 
ATOM     50  C   UNL A   1      44.096  37.491  32.034  1.00  0.00     0.016 A 
ATOM     51  C   UNL A   1      44.533  35.062  30.710  1.00  0.00     0.010 A 
ATOM     52  C   UNL A   1      43.392  36.371  32.430  1.00  0.00     0.010 A 
ATOM     53  C   UNL A   1      43.547  35.198  31.693  1.00  0.00    -0.014 A 
BRANCH  53  54
ATOM     54  C   UNL A   1      42.572  34.127  31.794  1.00  0.00     0.031 A 
ATOM     55  C   UNL A   1      41.335  34.285  31.014  1.00  0.00     0.074 A 
ATOM     56  C   UNL A   1      42.818  33.046  32.562  1.00  0.00     0.049 A 
ATOM     57  N   UNL A   1      40.129  34.368  31.468  1.00  0.00    -0.248 NA
ATOM     58  C   UNL A   1      41.449  34.404  29.554  1.00  0.00     0.031 C 
ATOM     59  C   UNL A   1      44.113  32.673  33.145  1.00  0.00     0.029 A 
ATOM     60  N   UNL A   1      41.999  32.010  32.919  1.00  0.00    -0.354 N 
ATOM     61  C   UNL A   1      39.311  34.343  30.347  1.00  0.00     0.074 A 
ATOM     62  C   UNL A   1      40.168  34.499  29.197  1.00  0.00     0.031 C 
ATOM     63  C   UNL A   1      44.041  31.411  33.614  1.00  0.00     0.029 A 
ATOM     64  C   UNL A   1      42.671  30.941  33.492  1.00  0.00     0.049 A 
ATOM     65  H   UNL A   1      41.025  32.021  32.780  1.00  0.00     0.167 HD
ATOM     66  C   UNL A   1      38.031  33.901  30.438  1.00  0.00     0.037 A 
ATOM     67  C   UNL A   1      42.170  29.733  33.833  1.00  0.00     0.037 A 
ATOM     68  C   UNL A   1      37.544  33.878  31.789  1.00  0.00     0.049 A 
ATOM     69  C   UNL A   1      40.704  29.842  33.998  1.00  0.00     0.074 A 
ATOM     70  C   UNL A   1      36.946  34.759  32.662  1.00  0.00     0.029 A 
ATOM     71  N   UNL A   1      37.940  32.793  32.517  1.00  0.00    -0.354 N 
ATOM     72  N   UNL A   1      40.128  30.472  34.982  1.00  0.00    -0.248 NA
ATOM     73  C   UNL A   1      39.823  29.458  32.898  1.00  0.00     0.031 C 
ATOM     74  C   UNL A   1      37.065  34.190  33.967  1.00  0.00     0.029 A 
ATOM     75  C   UNL A   1      37.740  32.981  33.859  1.00  0.00     0.049 A 
ATOM     76  H   UNL A   1      38.323  31.975  32.125  1.00  0.00     0.167 HD
ATOM     77  C   UNL A   1      38.940  30.919  34.445  1.00  0.00     0.074 A 
ATOM     78  C   UNL A   1      38.718  30.122  33.250  1.00  0.00     0.031 C 
ATOM     79  C   UNL A   1      38.426  32.128  34.798  1.00  0.00     0.037 A 
BRANCH  66  80
ATOM     80  C   UNL A   1      37.378  33.049  29.380  1.00  0.00     0.064 A 
ATOM     81  C   UNL A   1      36.163  33.466  28.808  1.00  0.00     0.173 A 
ATOM     82  C   UNL A   1      37.740  31.703  29.153  1.00  0.00     0.173 A 
ATOM     83  F   UNL A   1      35.711  34.714  29.002  1.00  0.00    -0.203 F 
ATOM     84  C   UNL A   1      35.350  32.583  28.091  1.00  0.00     0.198 A 
ATOM     85  C   UNL A   1      36.953  30.841  28.391  1.00  0.00     0.198 A 
ATOM     86  F   UNL A   1      38.798  31.144  29.755  1.00  0.00    -0.203 F 
ATOM     87  F   UNL A   1      34.151  32.989  27.653  1.00  0.00    -0.200 F 
ATOM     88  C   UNL A   1      35.747  31.274  27.882  1.00  0.00     0.200 A 
ATOM     89  F   UNL A   1      37.340  29.569  28.224  1.00  0.00    -0.200 F 
ATOM     90  F   UNL A   1      34.949  30.416  27.233  1.00  0.00    -0.200 F 
ENDBRANCH  66  80
BRANCH  67  91
ATOM     91  C   UNL A   1      42.874  28.437  33.920  1.00  0.00     0.064 A 
ATOM     92  C   UNL A   1      42.770  27.624  35.058  1.00  0.00     0.173 A 
ATOM     93  C   UNL A   1      43.468  27.859  32.782  1.00  0.00     0.173 A 
ATOM     94  F   UNL A   1      42.181  28.088  36.171  1.00  0.00    -0.203 F 
ATOM     95  C   UNL A   1      43.212  26.299  35.051  1.00  0.00     0.198 A 
ATOM     96  C   UNL A   1      43.921  26.541  32.779  1.00  0.00     0.198 A 
ATOM     97  F   UNL A   1      43.537  28.534  31.625  1.00  0.00    -0.203 F 
ATOM     98  F   UNL A   1      43.039  25.532  36.136  1.00  0.00    -0.200 F 
ATOM     99  C   UNL A   1      43.780  25.756  33.910  1.00  0.00     0.200 A 
ATOM    100  F   UNL A   1      44.442  26.019  31.660  1.00  0.00    -0.200 F 
ATOM    101  F   UNL A   1      44.153  24.470  33.885  1.00  0.00    -0.200 F 
ENDBRANCH  67  91
BRANCH  79 102
ATOM    102  C   UNL A   1      38.787  32.651  36.147  1.00  0.00     0.064 A 
ATOM    103  C   UNL A   1      38.228  32.176  37.344  1.00  0.00     0.173 A 
ATOM    104  C   UNL A   1      39.743  33.671  36.231  1.00  0.00     0.173 A 
ATOM    105  F   UNL A   1      37.362  31.153  37.339  1.00  0.00    -0.203 F 
ATOM    106  C   UNL A   1      38.574  32.745  38.569  1.00  0.00     0.198 A 
ATOM    107  C   UNL A   1      40.110  34.214  37.458  1.00  0.00     0.198 A 
ATOM    108  F   UNL A   1      40.334  34.133  35.117  1.00  0.00    -0.203 F 
ATOM    109  F   UNL A   1      38.003  32.305  39.699  1.00  0.00    -0.200 F 
ATOM    110  C   UNL A   1      39.514  33.763  38.624  1.00  0.00     0.200 A 
ATOM    111  F   UNL A   1      41.044  35.174  37.509  1.00  0.00    -0.200 F 
ATOM    112  F   UNL A   1      39.857  34.299  39.803  1.00  0.00    -0.200 F 
ENDBRANCH  79 102
ENDBRANCH  53  54
ENDBRANCH  46  48
ENDBRANCH  45  46
ENDBRANCH  44  45
ENDBRANCH  43  44
ENDBRANCH  42  43
ENDBRANCH  41  42
ENDBRANCH   1  41
TORSDOF 23
ENDMDL
