MODEL 1
REMARK VINA RESULT:      -9.7      0.000      0.000
REMARK SMILES CCC1C[NH+]([C@H](CCOC)C(=O)OCCOCCOCCOC(=O)c2ccc(-c3c4nc(c(-c5c(F)c(F)c(F)c(F)c5F)c5ccc([nH]5)c(-c5c(F)c(F)c(F)c(F)c5F)c5nc(c(-c6c(F)c(F)c(F)c(F)c6F)c6ccc3[nH]6)C=C5)C=C4)cc2)C1
REMARK SMILES IDX 17 1 16 2 15 3 14 4 13 5 11 6 12 7 6 8 5 9 3 10 4 11 88 12
REMARK SMILES IDX 2 14 1 15 7 16 8 17 9 18 10 19 18 20 19 21 20 22 21 23 22 24
REMARK SMILES IDX 23 25 24 26 25 27 26 28 87 29 27 30 86 31 28 32 29 33 30 34
REMARK SMILES IDX 80 35 31 36 85 37 79 38 81 39 32 40 84 41 78 42 77 43 33 45
REMARK SMILES IDX 65 46 45 47 64 48 46 49 49 50 63 51 82 52 47 53 48 54 62 56
REMARK SMILES IDX 83 57 50 58 34 59 35 60 43 61 36 62 37 63 41 64 44 65 38 66
REMARK SMILES IDX 39 67 42 68 40 69 66 70 67 71 75 72 68 73 69 74 73 75 76 76
REMARK SMILES IDX 70 77 71 78 74 79 72 80 51 81 52 82 60 83 53 84 54 85 58 86
REMARK SMILES IDX 61 87 55 88 56 89 59 90 57 91
REMARK H PARENT 5 13 81 44 49 55
REMARK Flexibility Score: inf
ROOT
ATOM      1  C   UNL A   1      34.224  21.694  25.244  1.00  0.00     0.188 C 
ENDROOT
BRANCH   1   2
ATOM      2  O   UNL A   1      33.088  20.899  25.464  1.00  0.00    -0.376 OA
BRANCH   2   3
ATOM      3  C   UNL A   1      31.856  21.553  25.739  1.00  0.00     0.202 C 
BRANCH   3   4
ATOM      4  C   UNL A   1      31.779  23.069  26.036  1.00  0.00     0.261 C 
BRANCH   4   5
ATOM      5  O   UNL A   1      31.173  23.893  25.012  1.00  0.00    -0.459 OA
BRANCH   5   6
ATOM      6  C   UNL A   1      30.649  25.066  25.444  1.00  0.00     0.365 C 
ATOM      7  O   UNL A   1      29.921  25.135  26.437  1.00  0.00    -0.245 OA
BRANCH   6   8
ATOM      8  C   UNL A   1      31.057  26.349  24.659  1.00  0.00     0.297 C 
BRANCH   8   9
ATOM      9  N   UNL A   1      30.751  27.395  25.599  1.00  0.00    -0.322 N 
ATOM     10  C   UNL A   1      32.093  29.809  26.575  1.00  0.00     0.099 C 
ATOM     11  C   UNL A   1      31.101  29.158  24.793  1.00  0.00     0.272 C 
ATOM     12  C   UNL A   1      31.792  27.769  27.247  1.00  0.00     0.272 C 
ATOM     13  H   UNL A   1      29.827  27.034  25.833  1.00  0.00     0.348 HD
BRANCH  10  14
ATOM     14  C   UNL A   1      33.523  30.399  26.422  1.00  0.00     0.012 C 
ATOM     15  C   UNL A   1      34.022  30.858  27.784  1.00  0.00     0.004 C 
ENDBRANCH  10  14
ENDBRANCH   8   9
BRANCH   8  16
ATOM     16  C   UNL A   1      30.559  26.792  23.336  1.00  0.00     0.106 C 
BRANCH  16  17
ATOM     17  C   UNL A   1      31.510  26.211  22.364  1.00  0.00     0.166 C 
BRANCH  17  18
ATOM     18  O   UNL A   1      32.809  26.884  22.250  1.00  0.00    -0.384 OA
ATOM     19  C   UNL A   1      34.029  28.579  22.582  1.00  0.00     0.194 C 
ENDBRANCH  17  18
ENDBRANCH  16  17
ENDBRANCH   8  16
ENDBRANCH   6   8
ENDBRANCH   5   6
ENDBRANCH   4   5
ENDBRANCH   3   4
ENDBRANCH   2   3
ENDBRANCH   1   2
BRANCH   1  20
ATOM     20  C   UNL A   1      35.578  21.147  25.668  1.00  0.00     0.188 C 
BRANCH  20  21
ATOM     21  O   UNL A   1      36.473  20.540  24.775  1.00  0.00    -0.376 OA
BRANCH  21  22
ATOM     22  C   UNL A   1      37.878  20.696  24.893  1.00  0.00     0.202 C 
BRANCH  22  23
ATOM     23  C   UNL A   1      38.863  19.658  25.499  1.00  0.00     0.261 C 
BRANCH  23  24
ATOM     24  O   UNL A   1      39.630  19.968  26.679  1.00  0.00    -0.460 OA
BRANCH  24  25
ATOM     25  C   UNL A   1      40.918  20.372  26.490  1.00  0.00     0.338 C 
ATOM     26  O   UNL A   1      41.738  19.831  25.769  1.00  0.00    -0.246 OA
BRANCH  25  27
ATOM     27  C   UNL A   1      41.077  21.771  27.018  1.00  0.00     0.060 A 
ATOM     28  C   UNL A   1      40.278  22.793  26.465  1.00  0.00     0.016 A 
ATOM     29  C   UNL A   1      41.936  22.076  28.071  1.00  0.00     0.016 A 
ATOM     30  C   UNL A   1      40.407  24.120  26.890  1.00  0.00     0.010 A 
ATOM     31  C   UNL A   1      42.095  23.414  28.470  1.00  0.00     0.010 A 
ATOM     32  C   UNL A   1      41.378  24.452  27.839  1.00  0.00    -0.014 A 
BRANCH  32  33
ATOM     33  C   UNL A   1      41.807  25.873  27.996  1.00  0.00     0.031 A 
ATOM     34  C   UNL A   1      43.138  26.285  27.416  1.00  0.00     0.074 A 
ATOM     35  C   UNL A   1      41.032  26.800  28.590  1.00  0.00     0.049 A 
ATOM     36  N   UNL A   1      43.750  27.443  27.457  1.00  0.00    -0.248 NA
ATOM     37  C   UNL A   1      43.885  25.242  26.695  1.00  0.00     0.031 C 
ATOM     38  C   UNL A   1      39.704  26.561  29.145  1.00  0.00     0.029 A 
ATOM     39  N   UNL A   1      41.262  28.135  28.830  1.00  0.00    -0.354 N 
ATOM     40  C   UNL A   1      44.954  27.260  26.786  1.00  0.00     0.074 A 
ATOM     41  C   UNL A   1      45.007  25.872  26.386  1.00  0.00     0.031 C 
ATOM     42  C   UNL A   1      39.237  27.708  29.669  1.00  0.00     0.029 A 
ATOM     43  C   UNL A   1      40.248  28.753  29.523  1.00  0.00     0.049 A 
ATOM     44  H   UNL A   1      42.075  28.604  28.533  1.00  0.00     0.167 HD
ATOM     45  C   UNL A   1      45.924  28.168  26.516  1.00  0.00     0.037 A 
ATOM     46  C   UNL A   1      40.159  30.010  30.008  1.00  0.00     0.037 A 
ATOM     47  C   UNL A   1      45.877  29.549  26.922  1.00  0.00     0.049 A 
ATOM     48  C   UNL A   1      41.295  30.978  29.776  1.00  0.00     0.074 A 
ATOM     49  C   UNL A   1      46.805  30.548  26.687  1.00  0.00     0.029 A 
ATOM     50  N   UNL A   1      44.854  30.122  27.662  1.00  0.00    -0.354 N 
ATOM     51  N   UNL A   1      42.421  30.802  29.127  1.00  0.00    -0.248 NA
ATOM     52  C   UNL A   1      41.139  32.327  30.339  1.00  0.00     0.031 C 
ATOM     53  C   UNL A   1      46.389  31.700  27.361  1.00  0.00     0.029 A 
ATOM     54  C   UNL A   1      45.147  31.452  27.924  1.00  0.00     0.049 A 
ATOM     55  H   UNL A   1      44.039  29.654  27.959  1.00  0.00     0.167 HD
ATOM     56  C   UNL A   1      43.082  32.025  29.163  1.00  0.00     0.074 A 
ATOM     57  C   UNL A   1      42.222  32.939  29.884  1.00  0.00     0.031 C 
ATOM     58  C   UNL A   1      44.288  32.362  28.639  1.00  0.00     0.037 A 
BRANCH  45  59
ATOM     59  C   UNL A   1      47.146  27.686  25.781  1.00  0.00     0.064 A 
ATOM     60  C   UNL A   1      48.262  27.162  26.452  1.00  0.00     0.173 A 
ATOM     61  C   UNL A   1      47.188  27.718  24.378  1.00  0.00     0.173 A 
ATOM     62  F   UNL A   1      48.283  27.111  27.793  1.00  0.00    -0.203 F 
ATOM     63  C   UNL A   1      49.386  26.729  25.750  1.00  0.00     0.198 A 
ATOM     64  C   UNL A   1      48.293  27.243  23.678  1.00  0.00     0.198 A 
ATOM     65  F   UNL A   1      46.146  28.199  23.680  1.00  0.00    -0.203 F 
ATOM     66  F   UNL A   1      50.465  26.296  26.417  1.00  0.00    -0.200 F 
ATOM     67  C   UNL A   1      49.396  26.762  24.365  1.00  0.00     0.200 A 
ATOM     68  F   UNL A   1      48.290  27.253  22.338  1.00  0.00    -0.200 F 
ATOM     69  F   UNL A   1      50.473  26.335  23.690  1.00  0.00    -0.200 F 
ENDBRANCH  45  59
BRANCH  46  70
ATOM     70  C   UNL A   1      38.957  30.434  30.781  1.00  0.00     0.064 A 
ATOM     71  C   UNL A   1      37.847  31.010  30.144  1.00  0.00     0.173 A 
ATOM     72  C   UNL A   1      38.912  30.316  32.178  1.00  0.00     0.173 A 
ATOM     73  F   UNL A   1      37.848  31.172  28.813  1.00  0.00    -0.203 F 
ATOM     74  C   UNL A   1      36.757  31.479  30.876  1.00  0.00     0.198 A 
ATOM     75  C   UNL A   1      37.803  30.746  32.905  1.00  0.00     0.198 A 
ATOM     76  F   UNL A   1      39.948  29.781  32.841  1.00  0.00    -0.203 F 
ATOM     77  F   UNL A   1      35.745  32.092  30.247  1.00  0.00    -0.200 F 
ATOM     78  C   UNL A   1      36.732  31.340  32.255  1.00  0.00     0.200 A 
ATOM     79  F   UNL A   1      37.779  30.595  34.235  1.00  0.00    -0.200 F 
ATOM     80  F   UNL A   1      35.686  31.792  32.958  1.00  0.00    -0.200 F 
ENDBRANCH  46  70
BRANCH  58  81
ATOM     81  C   UNL A   1      44.720  33.801  28.756  1.00  0.00     0.064 A 
ATOM     82  C   UNL A   1      45.490  34.272  29.831  1.00  0.00     0.173 A 
ATOM     83  C   UNL A   1      44.356  34.727  27.763  1.00  0.00     0.173 A 
ATOM     84  F   UNL A   1      45.868  33.435  30.809  1.00  0.00    -0.203 F 
ATOM     85  C   UNL A   1      45.820  35.621  29.940  1.00  0.00     0.198 A 
ATOM     86  C   UNL A   1      44.734  36.064  27.850  1.00  0.00     0.198 A 
ATOM     87  F   UNL A   1      43.635  34.336  26.701  1.00  0.00    -0.203 F 
ATOM     88  F   UNL A   1      46.476  36.061  31.023  1.00  0.00    -0.200 F 
ATOM     89  C   UNL A   1      45.447  36.515  28.949  1.00  0.00     0.200 A 
ATOM     90  F   UNL A   1      44.397  36.918  26.872  1.00  0.00    -0.200 F 
ATOM     91  F   UNL A   1      45.766  37.812  29.057  1.00  0.00    -0.200 F 
ENDBRANCH  58  81
ENDBRANCH  32  33
ENDBRANCH  25  27
ENDBRANCH  24  25
ENDBRANCH  23  24
ENDBRANCH  22  23
ENDBRANCH  21  22
ENDBRANCH  20  21
ENDBRANCH   1  20
TORSDOF 22
ENDMDL
MODEL 2
REMARK VINA RESULT:      -9.2      3.120      8.780
REMARK SMILES CCC1C[NH+]([C@H](CCOC)C(=O)OCCOCCOCCOC(=O)c2ccc(-c3c4nc(c(-c5c(F)c(F)c(F)c(F)c5F)c5ccc([nH]5)c(-c5c(F)c(F)c(F)c(F)c5F)c5nc(c(-c6c(F)c(F)c(F)c(F)c6F)c6ccc3[nH]6)C=C5)C=C4)cc2)C1
REMARK SMILES IDX 17 1 16 2 15 3 14 4 13 5 11 6 12 7 6 8 5 9 3 10 4 11 88 12
REMARK SMILES IDX 2 14 1 15 7 16 8 17 9 18 10 19 18 20 19 21 20 22 21 23 22 24
REMARK SMILES IDX 23 25 24 26 25 27 26 28 87 29 27 30 86 31 28 32 29 33 30 34
REMARK SMILES IDX 80 35 31 36 85 37 79 38 81 39 32 40 84 41 78 42 77 43 33 45
REMARK SMILES IDX 65 46 45 47 64 48 46 49 49 50 63 51 82 52 47 53 48 54 62 56
REMARK SMILES IDX 83 57 50 58 34 59 35 60 43 61 36 62 37 63 41 64 44 65 38 66
REMARK SMILES IDX 39 67 42 68 40 69 66 70 67 71 75 72 68 73 69 74 73 75 76 76
REMARK SMILES IDX 70 77 71 78 74 79 72 80 51 81 52 82 60 83 53 84 54 85 58 86
REMARK SMILES IDX 61 87 55 88 56 89 59 90 57 91
REMARK H PARENT 5 13 81 44 49 55
REMARK Flexibility Score: inf
ROOT
ATOM      1  C   UNL A   1      33.662  31.660  28.011  1.00  0.00     0.188 C 
ENDROOT
BRANCH   1   2
ATOM      2  O   UNL A   1      34.845  30.959  27.728  1.00  0.00    -0.376 OA
BRANCH   2   3
ATOM      3  C   UNL A   1      34.735  29.661  27.162  1.00  0.00     0.202 C 
BRANCH   3   4
ATOM      4  C   UNL A   1      33.433  29.164  26.491  1.00  0.00     0.261 C 
BRANCH   4   5
ATOM      5  O   UNL A   1      33.139  29.704  25.181  1.00  0.00    -0.459 OA
BRANCH   5   6
ATOM      6  C   UNL A   1      32.987  28.788  24.195  1.00  0.00     0.365 C 
ATOM      7  O   UNL A   1      33.268  29.034  23.019  1.00  0.00    -0.245 OA
BRANCH   6   8
ATOM      8  C   UNL A   1      32.494  27.372  24.621  1.00  0.00     0.297 C 
BRANCH   8   9
ATOM      9  N   UNL A   1      33.480  26.510  24.026  1.00  0.00    -0.322 N 
ATOM     10  C   UNL A   1      33.543  23.761  23.017  1.00  0.00     0.099 C 
ATOM     11  C   UNL A   1      32.751  25.654  22.409  1.00  0.00     0.272 C 
ATOM     12  C   UNL A   1      34.120  24.810  24.825  1.00  0.00     0.272 C 
ATOM     13  H   UNL A   1      34.222  27.210  24.031  1.00  0.00     0.348 HD
BRANCH  10  14
ATOM     14  C   UNL A   1      32.559  22.558  23.069  1.00  0.00     0.012 C 
ATOM     15  C   UNL A   1      33.182  21.438  23.889  1.00  0.00     0.004 C 
ENDBRANCH  10  14
ENDBRANCH   8   9
BRANCH   8  16
ATOM     16  C   UNL A   1      31.168  26.764  24.359  1.00  0.00     0.106 C 
BRANCH  16  17
ATOM     17  C   UNL A   1      30.686  26.328  25.687  1.00  0.00     0.166 C 
BRANCH  17  18
ATOM     18  O   UNL A   1      30.332  24.910  25.810  1.00  0.00    -0.384 OA
ATOM     19  C   UNL A   1      30.810  22.950  26.446  1.00  0.00     0.194 C 
ENDBRANCH  17  18
ENDBRANCH  16  17
ENDBRANCH   8  16
ENDBRANCH   6   8
ENDBRANCH   5   6
ENDBRANCH   4   5
ENDBRANCH   3   4
ENDBRANCH   2   3
ENDBRANCH   1   2
BRANCH   1  20
ATOM     20  C   UNL A   1      33.701  33.180  27.985  1.00  0.00     0.188 C 
BRANCH  20  21
ATOM     21  O   UNL A   1      34.722  33.931  28.586  1.00  0.00    -0.376 OA
BRANCH  21  22
ATOM     22  C   UNL A   1      34.664  34.333  29.944  1.00  0.00     0.202 C 
BRANCH  22  23
ATOM     23  C   UNL A   1      34.227  33.443  31.141  1.00  0.00     0.261 C 
BRANCH  23  24
ATOM     24  O   UNL A   1      34.951  32.241  31.470  1.00  0.00    -0.460 OA
BRANCH  24  25
ATOM     25  C   UNL A   1      35.900  32.338  32.444  1.00  0.00     0.338 C 
ATOM     26  O   UNL A   1      35.693  32.327  33.645  1.00  0.00    -0.246 OA
BRANCH  25  27
ATOM     27  C   UNL A   1      37.254  32.104  31.837  1.00  0.00     0.060 A 
ATOM     28  C   UNL A   1      37.404  32.263  30.443  1.00  0.00     0.016 A 
ATOM     29  C   UNL A   1      38.373  31.798  32.608  1.00  0.00     0.016 A 
ATOM     30  C   UNL A   1      38.631  32.024  29.816  1.00  0.00     0.010 A 
ATOM     31  C   UNL A   1      39.596  31.519  31.974  1.00  0.00     0.010 A 
ATOM     32  C   UNL A   1      39.717  31.569  30.570  1.00  0.00    -0.014 A 
BRANCH  32  33
ATOM     33  C   UNL A   1      40.878  30.926  29.886  1.00  0.00     0.031 A 
ATOM     34  C   UNL A   1      42.118  31.755  29.655  1.00  0.00     0.074 A 
ATOM     35  C   UNL A   1      40.872  29.632  29.517  1.00  0.00     0.049 A 
ATOM     36  N   UNL A   1      43.236  31.441  29.048  1.00  0.00    -0.248 NA
ATOM     37  C   UNL A   1      42.087  33.132  30.174  1.00  0.00     0.031 C 
ATOM     38  C   UNL A   1      39.770  28.698  29.726  1.00  0.00     0.029 A 
ATOM     39  N   UNL A   1      41.832  28.881  28.877  1.00  0.00    -0.354 N 
ATOM     40  C   UNL A   1      44.029  32.583  29.099  1.00  0.00     0.074 A 
ATOM     41  C   UNL A   1      43.249  33.608  29.756  1.00  0.00     0.031 C 
ATOM     42  C   UNL A   1      40.111  27.501  29.218  1.00  0.00     0.029 A 
ATOM     43  C   UNL A   1      41.437  27.592  28.610  1.00  0.00     0.049 A 
ATOM     44  H   UNL A   1      42.717  29.235  28.633  1.00  0.00     0.167 HD
ATOM     45  C   UNL A   1      45.295  32.760  28.651  1.00  0.00     0.037 A 
ATOM     46  C   UNL A   1      42.063  26.608  27.931  1.00  0.00     0.037 A 
ATOM     47  C   UNL A   1      46.070  31.743  27.988  1.00  0.00     0.049 A 
ATOM     48  C   UNL A   1      43.438  26.859  27.358  1.00  0.00     0.074 A 
ATOM     49  C   UNL A   1      47.365  31.822  27.507  1.00  0.00     0.029 A 
ATOM     50  N   UNL A   1      45.616  30.465  27.697  1.00  0.00    -0.354 N 
ATOM     51  N   UNL A   1      44.186  27.933  27.425  1.00  0.00    -0.248 NA
ATOM     52  C   UNL A   1      44.059  25.748  26.621  1.00  0.00     0.031 C 
ATOM     53  C   UNL A   1      47.662  30.626  26.846  1.00  0.00     0.029 A 
ATOM     54  C   UNL A   1      46.593  29.760  27.010  1.00  0.00     0.049 A 
ATOM     55  H   UNL A   1      44.730  30.110  27.942  1.00  0.00     0.167 HD
ATOM     56  C   UNL A   1      45.377  27.615  26.784  1.00  0.00     0.074 A 
ATOM     57  C   UNL A   1      45.258  26.239  26.349  1.00  0.00     0.031 C 
ATOM     58  C   UNL A   1      46.474  28.389  26.582  1.00  0.00     0.037 A 
BRANCH  45  59
ATOM     59  C   UNL A   1      45.913  34.123  28.821  1.00  0.00     0.064 A 
ATOM     60  C   UNL A   1      45.780  35.129  27.852  1.00  0.00     0.173 A 
ATOM     61  C   UNL A   1      46.622  34.438  29.991  1.00  0.00     0.173 A 
ATOM     62  F   UNL A   1      45.118  34.885  26.709  1.00  0.00    -0.203 F 
ATOM     63  C   UNL A   1      46.367  36.380  28.028  1.00  0.00     0.198 A 
ATOM     64  C   UNL A   1      47.168  35.704  30.185  1.00  0.00     0.198 A 
ATOM     65  F   UNL A   1      46.774  33.520  30.959  1.00  0.00    -0.203 F 
ATOM     66  F   UNL A   1      46.282  37.301  27.058  1.00  0.00    -0.200 F 
ATOM     67  C   UNL A   1      47.052  36.669  29.198  1.00  0.00     0.200 A 
ATOM     68  F   UNL A   1      47.808  35.987  31.327  1.00  0.00    -0.200 F 
ATOM     69  F   UNL A   1      47.607  37.876  29.372  1.00  0.00    -0.200 F 
ENDBRANCH  45  59
BRANCH  46  70
ATOM     70  C   UNL A   1      41.396  25.289  27.734  1.00  0.00     0.064 A 
ATOM     71  C   UNL A   1      41.862  24.132  28.377  1.00  0.00     0.173 A 
ATOM     72  C   UNL A   1      40.307  25.149  26.861  1.00  0.00     0.173 A 
ATOM     73  F   UNL A   1      42.918  24.204  29.201  1.00  0.00    -0.203 F 
ATOM     74  C   UNL A   1      41.288  22.886  28.129  1.00  0.00     0.198 A 
ATOM     75  C   UNL A   1      39.706  23.910  26.646  1.00  0.00     0.198 A 
ATOM     76  F   UNL A   1      39.823  26.219  26.212  1.00  0.00    -0.203 F 
ATOM     77  F   UNL A   1      41.803  21.789  28.700  1.00  0.00    -0.200 F 
ATOM     78  C   UNL A   1      40.206  22.777  27.270  1.00  0.00     0.200 A 
ATOM     79  F   UNL A   1      38.650  23.813  25.828  1.00  0.00    -0.200 F 
ATOM     80  F   UNL A   1      39.654  21.580  27.031  1.00  0.00    -0.200 F 
ENDBRANCH  46  70
BRANCH  58  81
ATOM     81  C   UNL A   1      47.668  27.746  25.926  1.00  0.00     0.064 A 
ATOM     82  C   UNL A   1      48.734  27.207  26.663  1.00  0.00     0.173 A 
ATOM     83  C   UNL A   1      47.742  27.665  24.524  1.00  0.00     0.173 A 
ATOM     84  F   UNL A   1      48.722  27.254  28.004  1.00  0.00    -0.203 F 
ATOM     85  C   UNL A   1      49.853  26.675  26.023  1.00  0.00     0.198 A 
ATOM     86  C   UNL A   1      48.837  27.084  23.891  1.00  0.00     0.198 A 
ATOM     87  F   UNL A   1      46.747  28.146  23.764  1.00  0.00    -0.203 F 
ATOM     88  F   UNL A   1      50.897  26.252  26.749  1.00  0.00    -0.200 F 
ATOM     89  C   UNL A   1      49.901  26.609  24.640  1.00  0.00     0.200 A 
ATOM     90  F   UNL A   1      48.865  26.994  22.553  1.00  0.00    -0.200 F 
ATOM     91  F   UNL A   1      50.978  26.097  24.028  1.00  0.00    -0.200 F 
ENDBRANCH  58  81
ENDBRANCH  32  33
ENDBRANCH  25  27
ENDBRANCH  24  25
ENDBRANCH  23  24
ENDBRANCH  22  23
ENDBRANCH  21  22
ENDBRANCH  20  21
ENDBRANCH   1  20
TORSDOF 22
ENDMDL
MODEL 3
REMARK VINA RESULT:      -9.2      1.097      7.676
REMARK SMILES CCC1C[NH+]([C@H](CCOC)C(=O)OCCOCCOCCOC(=O)c2ccc(-c3c4nc(c(-c5c(F)c(F)c(F)c(F)c5F)c5ccc([nH]5)c(-c5c(F)c(F)c(F)c(F)c5F)c5nc(c(-c6c(F)c(F)c(F)c(F)c6F)c6ccc3[nH]6)C=C5)C=C4)cc2)C1
REMARK SMILES IDX 17 1 16 2 15 3 14 4 13 5 11 6 12 7 6 8 5 9 3 10 4 11 88 12
REMARK SMILES IDX 2 14 1 15 7 16 8 17 9 18 10 19 18 20 19 21 20 22 21 23 22 24
REMARK SMILES IDX 23 25 24 26 25 27 26 28 87 29 27 30 86 31 28 32 29 33 30 34
REMARK SMILES IDX 80 35 31 36 85 37 79 38 81 39 32 40 84 41 78 42 77 43 33 45
REMARK SMILES IDX 65 46 45 47 64 48 46 49 49 50 63 51 82 52 47 53 48 54 62 56
REMARK SMILES IDX 83 57 50 58 34 59 35 60 43 61 36 62 37 63 41 64 44 65 38 66
REMARK SMILES IDX 39 67 42 68 40 69 66 70 67 71 75 72 68 73 69 74 73 75 76 76
REMARK SMILES IDX 70 77 71 78 74 79 72 80 51 81 52 82 60 83 53 84 54 85 58 86
REMARK SMILES IDX 61 87 55 88 56 89 59 90 57 91
REMARK H PARENT 5 13 81 44 49 55
REMARK Flexibility Score: inf
ROOT
ATOM      1  C   UNL A   1      33.651  21.776  25.884  1.00  0.00     0.188 C 
ENDROOT
BRANCH   1   2
ATOM      2  O   UNL A   1      32.423  21.143  25.636  1.00  0.00    -0.376 OA
BRANCH   2   3
ATOM      3  C   UNL A   1      31.238  21.922  25.722  1.00  0.00     0.202 C 
BRANCH   3   4
ATOM      4  C   UNL A   1      31.274  23.448  25.970  1.00  0.00     0.261 C 
BRANCH   4   5
ATOM      5  O   UNL A   1      31.359  24.287  24.793  1.00  0.00    -0.459 OA
BRANCH   5   6
ATOM      6  C   UNL A   1      30.669  25.451  24.859  1.00  0.00     0.365 C 
ATOM      7  O   UNL A   1      29.722  25.612  25.633  1.00  0.00    -0.245 OA
BRANCH   6   8
ATOM      8  C   UNL A   1      31.165  26.615  23.948  1.00  0.00     0.297 C 
BRANCH   8   9
ATOM      9  N   UNL A   1      30.380  27.727  24.413  1.00  0.00    -0.322 N 
ATOM     10  C   UNL A   1      29.131  30.080  23.196  1.00  0.00     0.099 C 
ATOM     11  C   UNL A   1      28.795  27.967  23.269  1.00  0.00     0.272 C 
ATOM     12  C   UNL A   1      30.941  29.627  24.302  1.00  0.00     0.272 C 
ATOM     13  H   UNL A   1      30.356  27.417  25.384  1.00  0.00     0.348 HD
BRANCH  10  14
ATOM     14  C   UNL A   1      29.196  30.746  21.792  1.00  0.00     0.012 C 
ATOM     15  C   UNL A   1      28.574  32.132  21.867  1.00  0.00     0.004 C 
ENDBRANCH  10  14
ENDBRANCH   8   9
BRANCH   8  16
ATOM     16  C   UNL A   1      31.158  26.664  22.467  1.00  0.00     0.106 C 
BRANCH  16  17
ATOM     17  C   UNL A   1      32.472  26.118  22.067  1.00  0.00     0.166 C 
BRANCH  17  18
ATOM     18  O   UNL A   1      33.478  26.014  23.130  1.00  0.00    -0.384 OA
ATOM     19  C   UNL A   1      34.763  24.837  24.328  1.00  0.00     0.194 C 
ENDBRANCH  17  18
ENDBRANCH  16  17
ENDBRANCH   8  16
ENDBRANCH   6   8
ENDBRANCH   5   6
ENDBRANCH   4   5
ENDBRANCH   3   4
ENDBRANCH   2   3
ENDBRANCH   1   2
BRANCH   1  20
ATOM     20  C   UNL A   1      34.922  20.948  25.780  1.00  0.00     0.188 C 
BRANCH  20  21
ATOM     21  O   UNL A   1      35.827  21.063  24.714  1.00  0.00    -0.376 OA
BRANCH  21  22
ATOM     22  C   UNL A   1      37.216  21.266  24.921  1.00  0.00     0.202 C 
BRANCH  22  23
ATOM     23  C   UNL A   1      38.270  20.155  25.182  1.00  0.00     0.261 C 
BRANCH  23  24
ATOM     24  O   UNL A   1      39.010  20.114  26.418  1.00  0.00    -0.460 OA
BRANCH  24  25
ATOM     25  C   UNL A   1      40.360  20.288  26.336  1.00  0.00     0.338 C 
ATOM     26  O   UNL A   1      41.136  19.576  25.723  1.00  0.00    -0.246 OA
BRANCH  25  27
ATOM     27  C   UNL A   1      40.707  21.672  26.812  1.00  0.00     0.060 A 
ATOM     28  C   UNL A   1      40.220  22.776  26.083  1.00  0.00     0.016 A 
ATOM     29  C   UNL A   1      41.436  21.897  27.977  1.00  0.00     0.016 A 
ATOM     30  C   UNL A   1      40.540  24.086  26.456  1.00  0.00     0.010 A 
ATOM     31  C   UNL A   1      41.792  23.210  28.329  1.00  0.00     0.010 A 
ATOM     32  C   UNL A   1      41.399  24.308  27.536  1.00  0.00    -0.014 A 
BRANCH  32  33
ATOM     33  C   UNL A   1      42.069  25.633  27.691  1.00  0.00     0.031 A 
ATOM     34  C   UNL A   1      41.341  26.717  28.450  1.00  0.00     0.074 A 
ATOM     35  C   UNL A   1      43.307  25.874  27.224  1.00  0.00     0.049 A 
ATOM     36  N   UNL A   1      41.690  27.958  28.682  1.00  0.00    -0.248 NA
ATOM     37  C   UNL A   1      40.034  26.348  29.017  1.00  0.00     0.031 C 
ATOM     38  C   UNL A   1      44.149  24.910  26.523  1.00  0.00     0.029 A 
ATOM     39  N   UNL A   1      44.070  27.020  27.264  1.00  0.00    -0.354 N 
ATOM     40  C   UNL A   1      40.641  28.518  29.405  1.00  0.00     0.074 A 
ATOM     41  C   UNL A   1      39.626  27.496  29.535  1.00  0.00     0.031 C 
ATOM     42  C   UNL A   1      45.310  25.503  26.192  1.00  0.00     0.029 A 
ATOM     43  C   UNL A   1      45.278  26.901  26.620  1.00  0.00     0.049 A 
ATOM     44  H   UNL A   1      43.777  27.846  27.712  1.00  0.00     0.167 HD
ATOM     45  C   UNL A   1      40.537  29.765  29.924  1.00  0.00     0.037 A 
ATOM     46  C   UNL A   1      46.236  27.821  26.379  1.00  0.00     0.037 A 
ATOM     47  C   UNL A   1      41.544  30.787  29.788  1.00  0.00     0.049 A 
ATOM     48  C   UNL A   1      46.054  29.232  26.887  1.00  0.00     0.074 A 
ATOM     49  C   UNL A   1      41.535  32.077  30.287  1.00  0.00     0.029 A 
ATOM     50  N   UNL A   1      42.732  30.639  29.088  1.00  0.00    -0.354 N 
ATOM     51  N   UNL A   1      45.070  29.748  27.582  1.00  0.00    -0.248 NA
ATOM     52  C   UNL A   1      47.130  30.187  26.581  1.00  0.00     0.031 C 
ATOM     53  C   UNL A   1      42.672  32.738  29.814  1.00  0.00     0.029 A 
ATOM     54  C   UNL A   1      43.446  31.828  29.112  1.00  0.00     0.049 A 
ATOM     55  H   UNL A   1      43.026  29.812  28.640  1.00  0.00     0.167 HD
ATOM     56  C   UNL A   1      45.427  31.067  27.837  1.00  0.00     0.074 A 
ATOM     57  C   UNL A   1      46.728  31.267  27.234  1.00  0.00     0.031 C 
ATOM     58  C   UNL A   1      44.743  32.024  28.515  1.00  0.00     0.037 A 
BRANCH  45  59
ATOM     59  C   UNL A   1      39.267  30.114  30.653  1.00  0.00     0.064 A 
ATOM     60  C   UNL A   1      38.136  30.612  29.986  1.00  0.00     0.173 A 
ATOM     61  C   UNL A   1      39.168  29.916  32.040  1.00  0.00     0.173 A 
ATOM     62  F   UNL A   1      38.173  30.828  28.662  1.00  0.00    -0.203 F 
ATOM     63  C   UNL A   1      36.974  30.936  30.684  1.00  0.00     0.198 A 
ATOM     64  C   UNL A   1      37.991  30.196  32.726  1.00  0.00     0.198 A 
ATOM     65  F   UNL A   1      40.213  29.433  32.730  1.00  0.00    -0.203 F 
ATOM     66  F   UNL A   1      35.932  31.472  30.034  1.00  0.00    -0.200 F 
ATOM     67  C   UNL A   1      36.900  30.719  32.051  1.00  0.00     0.200 A 
ATOM     68  F   UNL A   1      37.914  29.963  34.043  1.00  0.00    -0.200 F 
ATOM     69  F   UNL A   1      35.778  31.020  32.719  1.00  0.00    -0.200 F 
ENDBRANCH  45  59
BRANCH  46  70
ATOM     70  C   UNL A   1      47.454  27.452  25.604  1.00  0.00     0.064 A 
ATOM     71  C   UNL A   1      48.620  27.006  26.246  1.00  0.00     0.173 A 
ATOM     72  C   UNL A   1      47.496  27.584  24.208  1.00  0.00     0.173 A 
ATOM     73  F   UNL A   1      48.645  26.888  27.582  1.00  0.00    -0.203 F 
ATOM     74  C   UNL A   1      49.784  26.738  25.527  1.00  0.00     0.198 A 
ATOM     75  C   UNL A   1      48.647  27.275  23.486  1.00  0.00     0.198 A 
ATOM     76  F   UNL A   1      46.414  28.014  23.541  1.00  0.00    -0.203 F 
ATOM     77  F   UNL A   1      50.902  26.386  26.175  1.00  0.00    -0.200 F 
ATOM     78  C   UNL A   1      49.795  26.866  24.147  1.00  0.00     0.200 A 
ATOM     79  F   UNL A   1      48.646  27.385  22.151  1.00  0.00    -0.200 F 
ATOM     80  F   UNL A   1      50.913  26.609  23.456  1.00  0.00    -0.200 F 
ENDBRANCH  46  70
BRANCH  58  81
ATOM     81  C   UNL A   1      45.420  33.355  28.713  1.00  0.00     0.064 A 
ATOM     82  C   UNL A   1      45.245  34.429  27.826  1.00  0.00     0.173 A 
ATOM     83  C   UNL A   1      46.261  33.559  29.821  1.00  0.00     0.173 A 
ATOM     84  F   UNL A   1      44.455  34.295  26.750  1.00  0.00    -0.203 F 
ATOM     85  C   UNL A   1      45.935  35.627  28.004  1.00  0.00     0.198 A 
ATOM     86  C   UNL A   1      46.905  34.776  30.024  1.00  0.00     0.198 A 
ATOM     87  F   UNL A   1      46.455  32.578  30.715  1.00  0.00    -0.203 F 
ATOM     88  F   UNL A   1      45.822  36.603  27.092  1.00  0.00    -0.200 F 
ATOM     89  C   UNL A   1      46.759  35.802  29.104  1.00  0.00     0.200 A 
ATOM     90  F   UNL A   1      47.677  34.951  31.106  1.00  0.00    -0.200 F 
ATOM     91  F   UNL A   1      47.421  36.955  29.273  1.00  0.00    -0.200 F 
ENDBRANCH  58  81
ENDBRANCH  32  33
ENDBRANCH  25  27
ENDBRANCH  24  25
ENDBRANCH  23  24
ENDBRANCH  22  23
ENDBRANCH  21  22
ENDBRANCH  20  21
ENDBRANCH   1  20
TORSDOF 22
ENDMDL
