MODEL 1
REMARK VINA RESULT:     -10.8      0.000      0.000
REMARK SMILES C[C@]1(C(=O)NCCn2cc(C(=O)OCCOCCOCCOC(=O)c3ccc(-c4c5nc(c(-c6c(F)c(F)c(F)c(F)c6F)c6ccc([nH]6)c(-c6c(F)c(F)c(F)c(F)c6F)c6nc(c(-c7c(F)c(F)c(F)c(F)c7F)c7ccc4[nH]7)C=C6)C=C5)cc3)nn2)CCCO1
REMARK SMILES IDX 17 1 16 2 15 3 14 4 13 5 11 6 12 7 10 8 8 9 9 10 89 11 88 12
REMARK SMILES IDX 7 13 6 14 5 15 3 16 4 17 2 19 1 20 90 21 93 22 91 23 92 24
REMARK SMILES IDX 18 25 19 26 20 27 21 28 22 29 23 30 24 31 25 32 26 33 87 34
REMARK SMILES IDX 27 35 86 36 28 37 29 38 30 39 80 40 31 41 85 42 79 43 81 44
REMARK SMILES IDX 32 45 84 46 78 47 77 48 33 50 65 51 45 52 64 53 46 54 49 55
REMARK SMILES IDX 63 56 82 57 47 58 48 59 62 61 83 62 50 63 34 64 35 65 43 66
REMARK SMILES IDX 36 67 37 68 41 69 44 70 38 71 39 72 42 73 40 74 66 75 67 76
REMARK SMILES IDX 75 77 68 78 69 79 73 80 76 81 70 82 71 83 74 84 72 85 51 86
REMARK SMILES IDX 52 87 60 88 53 89 54 90 58 91 61 92 55 93 56 94 59 95 57 96
REMARK H PARENT 5 18 81 49 49 60
REMARK Flexibility Score: inf
ROOT
ATOM      1  C   UNL A   1      37.881  22.360  25.336  1.00  0.00     0.188 C 
ENDROOT
BRANCH   1   2
ATOM      2  O   UNL A   1      37.343  21.048  25.264  1.00  0.00    -0.376 OA
BRANCH   2   3
ATOM      3  C   UNL A   1      35.936  20.841  25.228  1.00  0.00     0.202 C 
BRANCH   3   4
ATOM      4  C   UNL A   1      34.943  21.747  25.986  1.00  0.00     0.261 C 
BRANCH   4   5
ATOM      5  O   UNL A   1      33.805  21.091  26.562  1.00  0.00    -0.458 OA
BRANCH   5   6
ATOM      6  C   UNL A   1      32.645  21.147  25.832  1.00  0.00     0.360 C 
ATOM      7  O   UNL A   1      32.194  20.226  25.188  1.00  0.00    -0.244 OA
BRANCH   6   8
ATOM      8  C   UNL A   1      31.931  22.401  26.057  1.00  0.00     0.190 A 
ATOM      9  N   UNL A   1      30.936  24.319  25.910  1.00  0.00    -0.250 N 
ATOM     10  C   UNL A   1      31.352  23.266  25.150  1.00  0.00     0.147 A 
ATOM     11  N   UNL A   1      31.250  24.141  27.204  1.00  0.00    -0.066 NA
ATOM     12  N   UNL A   1      31.839  22.958  27.313  1.00  0.00    -0.123 NA
BRANCH   9  13
ATOM     13  C   UNL A   1      30.125  25.454  25.527  1.00  0.00     0.167 C 
BRANCH  13  14
ATOM     14  C   UNL A   1      30.486  26.077  24.179  1.00  0.00     0.139 C 
BRANCH  14  15
ATOM     15  N   UNL A   1      31.906  26.339  24.002  1.00  0.00    -0.352 N 
ATOM     16  C   UNL A   1      32.692  27.409  24.329  1.00  0.00     0.252 C 
ATOM     17  O   UNL A   1      33.878  27.322  23.999  1.00  0.00    -0.272 OA
ATOM     18  H   UNL A   1      32.395  25.605  23.564  1.00  0.00     0.163 HD
BRANCH  16  19
ATOM     19  C   UNL A   1      32.128  28.650  25.079  1.00  0.00     0.143 C 
ATOM     20  C   UNL A   1      30.953  29.286  24.330  1.00  0.00     0.053 C 
ATOM     21  C   UNL A   1      31.819  28.327  26.542  1.00  0.00     0.048 C 
ATOM     22  O   UNL A   1      33.141  29.687  25.146  1.00  0.00    -0.365 OA
ATOM     23  C   UNL A   1      32.040  29.645  27.239  1.00  0.00     0.032 C 
ATOM     24  C   UNL A   1      33.214  30.210  26.477  1.00  0.00     0.162 C 
ENDBRANCH  16  19
ENDBRANCH  14  15
ENDBRANCH  13  14
ENDBRANCH   9  13
ENDBRANCH   6   8
ENDBRANCH   5   6
ENDBRANCH   4   5
ENDBRANCH   3   4
ENDBRANCH   2   3
ENDBRANCH   1   2
BRANCH   1  25
ATOM     25  C   UNL A   1      38.917  22.726  26.420  1.00  0.00     0.188 C 
BRANCH  25  26
ATOM     26  O   UNL A   1      40.213  22.216  26.196  1.00  0.00    -0.376 OA
BRANCH  26  27
ATOM     27  C   UNL A   1      40.652  21.012  26.808  1.00  0.00     0.202 C 
BRANCH  27  28
ATOM     28  C   UNL A   1      42.032  20.389  26.581  1.00  0.00     0.261 C 
BRANCH  28  29
ATOM     29  O   UNL A   1      42.593  20.546  25.295  1.00  0.00    -0.460 OA
BRANCH  29  30
ATOM     30  C   UNL A   1      43.934  20.675  25.284  1.00  0.00     0.338 C 
ATOM     31  O   UNL A   1      44.763  19.781  25.284  1.00  0.00    -0.246 OA
BRANCH  30  32
ATOM     32  C   UNL A   1      44.259  22.100  25.366  1.00  0.00     0.060 A 
ATOM     33  C   UNL A   1      45.203  22.477  26.324  1.00  0.00     0.016 A 
ATOM     34  C   UNL A   1      43.410  23.026  24.744  1.00  0.00     0.016 A 
ATOM     35  C   UNL A   1      45.134  23.753  26.832  1.00  0.00     0.010 A 
ATOM     36  C   UNL A   1      43.325  24.291  25.267  1.00  0.00     0.010 A 
ATOM     37  C   UNL A   1      44.126  24.601  26.365  1.00  0.00    -0.014 A 
BRANCH  37  38
ATOM     38  C   UNL A   1      43.897  25.830  27.088  1.00  0.00     0.031 A 
ATOM     39  C   UNL A   1      44.893  26.885  26.830  1.00  0.00     0.074 A 
ATOM     40  C   UNL A   1      42.798  25.994  27.847  1.00  0.00     0.049 A 
ATOM     41  N   UNL A   1      45.676  27.463  27.678  1.00  0.00    -0.248 NA
ATOM     42  C   UNL A   1      45.122  27.267  25.429  1.00  0.00     0.031 C 
ATOM     43  C   UNL A   1      41.622  25.119  27.919  1.00  0.00     0.029 A 
ATOM     44  N   UNL A   1      42.451  27.049  28.632  1.00  0.00    -0.354 N 
ATOM     45  C   UNL A   1      46.376  28.412  26.943  1.00  0.00     0.074 A 
ATOM     46  C   UNL A   1      46.119  28.141  25.553  1.00  0.00     0.031 C 
ATOM     47  C   UNL A   1      40.617  25.783  28.531  1.00  0.00     0.029 A 
ATOM     48  C   UNL A   1      41.113  27.071  28.988  1.00  0.00     0.049 A 
ATOM     49  H   UNL A   1      43.094  27.736  28.921  1.00  0.00     0.167 HD
ATOM     50  C   UNL A   1      46.901  29.511  27.543  1.00  0.00     0.037 A 
ATOM     51  C   UNL A   1      40.448  28.114  29.539  1.00  0.00     0.037 A 
ATOM     52  C   UNL A   1      47.068  29.314  28.958  1.00  0.00     0.049 A 
ATOM     53  C   UNL A   1      41.455  29.042  30.107  1.00  0.00     0.074 A 
ATOM     54  C   UNL A   1      47.807  28.449  29.742  1.00  0.00     0.029 A 
ATOM     55  N   UNL A   1      46.141  29.883  29.792  1.00  0.00    -0.354 N 
ATOM     56  N   UNL A   1      42.179  28.792  31.160  1.00  0.00    -0.248 NA
ATOM     57  C   UNL A   1      41.934  30.135  29.271  1.00  0.00     0.031 C 
ATOM     58  C   UNL A   1      47.024  28.234  30.912  1.00  0.00     0.029 A 
ATOM     59  C   UNL A   1      45.858  28.991  30.792  1.00  0.00     0.049 A 
ATOM     60  H   UNL A   1      45.746  30.779  29.690  1.00  0.00     0.167 HD
ATOM     61  C   UNL A   1      43.402  29.389  30.898  1.00  0.00     0.074 A 
ATOM     62  C   UNL A   1      43.147  30.312  29.800  1.00  0.00     0.031 C 
ATOM     63  C   UNL A   1      44.555  28.861  31.401  1.00  0.00     0.037 A 
BRANCH  50  64
ATOM     64  C   UNL A   1      46.878  30.882  26.912  1.00  0.00     0.064 A 
ATOM     65  C   UNL A   1      48.056  31.652  26.914  1.00  0.00     0.173 A 
ATOM     66  C   UNL A   1      45.692  31.580  26.593  1.00  0.00     0.173 A 
ATOM     67  F   UNL A   1      49.234  31.094  27.231  1.00  0.00    -0.203 F 
ATOM     68  C   UNL A   1      48.033  33.030  26.692  1.00  0.00     0.198 A 
ATOM     69  C   UNL A   1      45.682  32.945  26.313  1.00  0.00     0.198 A 
ATOM     70  F   UNL A   1      44.483  31.009  26.654  1.00  0.00    -0.203 F 
ATOM     71  F   UNL A   1      49.156  33.745  26.838  1.00  0.00    -0.200 F 
ATOM     72  C   UNL A   1      46.846  33.676  26.396  1.00  0.00     0.200 A 
ATOM     73  F   UNL A   1      44.517  33.554  26.049  1.00  0.00    -0.200 F 
ATOM     74  F   UNL A   1      46.812  35.006  26.248  1.00  0.00    -0.200 F 
ENDBRANCH  50  64
BRANCH  51  75
ATOM     75  C   UNL A   1      39.026  28.493  29.376  1.00  0.00     0.064 A 
ATOM     76  C   UNL A   1      38.187  28.638  30.492  1.00  0.00     0.173 A 
ATOM     77  C   UNL A   1      38.527  28.977  28.151  1.00  0.00     0.173 A 
ATOM     78  F   UNL A   1      38.602  28.243  31.705  1.00  0.00    -0.203 F 
ATOM     79  C   UNL A   1      36.936  29.256  30.393  1.00  0.00     0.198 A 
ATOM     80  C   UNL A   1      37.273  29.580  28.050  1.00  0.00     0.198 A 
ATOM     81  F   UNL A   1      39.283  28.963  27.043  1.00  0.00    -0.203 F 
ATOM     82  F   UNL A   1      36.192  29.437  31.493  1.00  0.00    -0.200 F 
ATOM     83  C   UNL A   1      36.484  29.733  29.175  1.00  0.00     0.200 A 
ATOM     84  F   UNL A   1      36.863  30.067  26.870  1.00  0.00    -0.200 F 
ATOM     85  F   UNL A   1      35.312  30.377  29.090  1.00  0.00    -0.200 F 
ENDBRANCH  51  75
BRANCH  63  86
ATOM     86  C   UNL A   1      44.421  27.873  32.523  1.00  0.00     0.064 A 
ATOM     87  C   UNL A   1      44.292  28.233  33.875  1.00  0.00     0.173 A 
ATOM     88  C   UNL A   1      44.310  26.513  32.201  1.00  0.00     0.173 A 
ATOM     89  F   UNL A   1      44.284  29.519  34.248  1.00  0.00    -0.203 F 
ATOM     90  C   UNL A   1      44.120  27.267  34.864  1.00  0.00     0.198 A 
ATOM     91  C   UNL A   1      44.098  25.554  33.187  1.00  0.00     0.198 A 
ATOM     92  F   UNL A   1      44.367  26.119  30.920  1.00  0.00    -0.203 F 
ATOM     93  F   UNL A   1      44.024  27.632  36.152  1.00  0.00    -0.200 F 
ATOM     94  C   UNL A   1      44.018  25.930  34.518  1.00  0.00     0.200 A 
ATOM     95  F   UNL A   1      43.949  24.267  32.844  1.00  0.00    -0.200 F 
ATOM     96  F   UNL A   1      43.815  25.003  35.466  1.00  0.00    -0.200 F 
ENDBRANCH  63  86
ENDBRANCH  37  38
ENDBRANCH  30  32
ENDBRANCH  29  30
ENDBRANCH  28  29
ENDBRANCH  27  28
ENDBRANCH  26  27
ENDBRANCH  25  26
ENDBRANCH   1  25
TORSDOF 21
ENDMDL
MODEL 2
REMARK VINA RESULT:     -10.7      1.594      2.801
REMARK SMILES C[C@]1(C(=O)NCCn2cc(C(=O)OCCOCCOCCOC(=O)c3ccc(-c4c5nc(c(-c6c(F)c(F)c(F)c(F)c6F)c6ccc([nH]6)c(-c6c(F)c(F)c(F)c(F)c6F)c6nc(c(-c7c(F)c(F)c(F)c(F)c7F)c7ccc4[nH]7)C=C6)C=C5)cc3)nn2)CCCO1
REMARK SMILES IDX 17 1 16 2 15 3 14 4 13 5 11 6 12 7 10 8 8 9 9 10 89 11 88 12
REMARK SMILES IDX 7 13 6 14 5 15 3 16 4 17 2 19 1 20 90 21 93 22 91 23 92 24
REMARK SMILES IDX 18 25 19 26 20 27 21 28 22 29 23 30 24 31 25 32 26 33 87 34
REMARK SMILES IDX 27 35 86 36 28 37 29 38 30 39 80 40 31 41 85 42 79 43 81 44
REMARK SMILES IDX 32 45 84 46 78 47 77 48 33 50 65 51 45 52 64 53 46 54 49 55
REMARK SMILES IDX 63 56 82 57 47 58 48 59 62 61 83 62 50 63 34 64 35 65 43 66
REMARK SMILES IDX 36 67 37 68 41 69 44 70 38 71 39 72 42 73 40 74 66 75 67 76
REMARK SMILES IDX 75 77 68 78 69 79 73 80 76 81 70 82 71 83 74 84 72 85 51 86
REMARK SMILES IDX 52 87 60 88 53 89 54 90 58 91 61 92 55 93 56 94 59 95 57 96
REMARK H PARENT 5 18 81 49 49 60
REMARK Flexibility Score: inf
ROOT
ATOM      1  C   UNL A   1      42.277  19.283  27.105  1.00  0.00     0.188 C 
ENDROOT
BRANCH   1   2
ATOM      2  O   UNL A   1      41.703  20.259  26.248  1.00  0.00    -0.376 OA
BRANCH   2   3
ATOM      3  C   UNL A   1      40.291  20.421  26.176  1.00  0.00     0.202 C 
BRANCH   3   4
ATOM      4  C   UNL A   1      39.616  21.808  26.112  1.00  0.00     0.261 C 
BRANCH   4   5
ATOM      5  O   UNL A   1      38.182  21.811  26.096  1.00  0.00    -0.458 OA
BRANCH   5   6
ATOM      6  C   UNL A   1      37.584  23.040  25.983  1.00  0.00     0.360 C 
ATOM      7  O   UNL A   1      38.162  24.098  26.098  1.00  0.00    -0.244 OA
BRANCH   6   8
ATOM      8  C   UNL A   1      36.197  22.921  25.538  1.00  0.00     0.190 A 
ATOM      9  N   UNL A   1      34.348  22.636  24.450  1.00  0.00    -0.250 N 
ATOM     10  C   UNL A   1      35.682  22.359  24.388  1.00  0.00     0.147 A 
ATOM     11  N   UNL A   1      34.047  23.343  25.551  1.00  0.00    -0.066 NA
ATOM     12  N   UNL A   1      35.167  23.504  26.242  1.00  0.00    -0.123 NA
BRANCH   9  13
ATOM     13  C   UNL A   1      33.280  22.163  23.597  1.00  0.00     0.167 C 
BRANCH  13  14
ATOM     14  C   UNL A   1      32.305  23.242  23.127  1.00  0.00     0.139 C 
BRANCH  14  15
ATOM     15  N   UNL A   1      32.764  24.001  21.974  1.00  0.00    -0.352 N 
ATOM     16  C   UNL A   1      32.826  25.344  21.723  1.00  0.00     0.252 C 
ATOM     17  O   UNL A   1      33.245  25.660  20.606  1.00  0.00    -0.272 OA
ATOM     18  H   UNL A   1      33.094  23.442  21.234  1.00  0.00     0.163 HD
BRANCH  16  19
ATOM     19  C   UNL A   1      32.408  26.403  22.783  1.00  0.00     0.143 C 
ATOM     20  C   UNL A   1      33.076  27.758  22.531  1.00  0.00     0.053 C 
ATOM     21  C   UNL A   1      30.887  26.486  22.921  1.00  0.00     0.048 C 
ATOM     22  O   UNL A   1      32.867  25.992  24.096  1.00  0.00    -0.365 OA
ATOM     23  C   UNL A   1      30.694  26.890  24.361  1.00  0.00     0.032 C 
ATOM     24  C   UNL A   1      31.808  26.138  25.049  1.00  0.00     0.162 C 
ENDBRANCH  16  19
ENDBRANCH  14  15
ENDBRANCH  13  14
ENDBRANCH   9  13
ENDBRANCH   6   8
ENDBRANCH   5   6
ENDBRANCH   4   5
ENDBRANCH   3   4
ENDBRANCH   2   3
ENDBRANCH   1   2
BRANCH   1  25
ATOM     25  C   UNL A   1      43.045  18.078  26.520  1.00  0.00     0.188 C 
BRANCH  25  26
ATOM     26  O   UNL A   1      43.778  18.356  25.347  1.00  0.00    -0.376 OA
BRANCH  26  27
ATOM     27  C   UNL A   1      45.159  18.683  25.396  1.00  0.00     0.202 C 
BRANCH  27  28
ATOM     28  C   UNL A   1      45.856  19.608  24.395  1.00  0.00     0.261 C 
BRANCH  28  29
ATOM     29  O   UNL A   1      45.872  20.985  24.710  1.00  0.00    -0.460 OA
BRANCH  29  30
ATOM     30  C   UNL A   1      44.841  21.685  24.199  1.00  0.00     0.338 C 
ATOM     31  O   UNL A   1      44.530  21.792  23.025  1.00  0.00    -0.246 OA
BRANCH  30  32
ATOM     32  C   UNL A   1      44.180  22.396  25.294  1.00  0.00     0.060 A 
ATOM     33  C   UNL A   1      43.052  23.151  24.966  1.00  0.00     0.016 A 
ATOM     34  C   UNL A   1      44.864  22.557  26.508  1.00  0.00     0.016 A 
ATOM     35  C   UNL A   1      42.746  24.234  25.757  1.00  0.00     0.010 A 
ATOM     36  C   UNL A   1      44.575  23.652  27.282  1.00  0.00     0.010 A 
ATOM     37  C   UNL A   1      43.581  24.522  26.840  1.00  0.00    -0.014 A 
BRANCH  37  38
ATOM     38  C   UNL A   1      43.411  25.799  27.494  1.00  0.00     0.031 A 
ATOM     39  C   UNL A   1      44.463  26.785  27.192  1.00  0.00     0.074 A 
ATOM     40  C   UNL A   1      42.315  26.061  28.231  1.00  0.00     0.049 A 
ATOM     41  N   UNL A   1      45.268  27.365  28.018  1.00  0.00    -0.248 NA
ATOM     42  C   UNL A   1      44.724  27.080  25.776  1.00  0.00     0.031 C 
ATOM     43  C   UNL A   1      41.095  25.253  28.336  1.00  0.00     0.029 A 
ATOM     44  N   UNL A   1      42.018  27.173  28.955  1.00  0.00    -0.354 N 
ATOM     45  C   UNL A   1      46.024  28.236  27.241  1.00  0.00     0.074 A 
ATOM     46  C   UNL A   1      45.764  27.905  25.865  1.00  0.00     0.031 C 
ATOM     47  C   UNL A   1      40.120  26.000  28.900  1.00  0.00     0.029 A 
ATOM     48  C   UNL A   1      40.679  27.283  29.294  1.00  0.00     0.049 A 
ATOM     49  H   UNL A   1      42.694  27.840  29.215  1.00  0.00     0.167 HD
ATOM     50  C   UNL A   1      46.601  29.337  27.789  1.00  0.00     0.037 A 
ATOM     51  C   UNL A   1      40.065  28.388  29.782  1.00  0.00     0.037 A 
ATOM     52  C   UNL A   1      46.745  29.208  29.214  1.00  0.00     0.049 A 
ATOM     53  C   UNL A   1      41.116  29.291  30.311  1.00  0.00     0.074 A 
ATOM     54  C   UNL A   1      47.430  28.348  30.050  1.00  0.00     0.029 A 
ATOM     55  N   UNL A   1      45.842  29.868  30.006  1.00  0.00    -0.354 N 
ATOM     56  N   UNL A   1      41.817  29.060  31.384  1.00  0.00    -0.248 NA
ATOM     57  C   UNL A   1      41.658  30.311  29.424  1.00  0.00     0.031 C 
ATOM     58  C   UNL A   1      46.627  28.237  31.222  1.00  0.00     0.029 A 
ATOM     59  C   UNL A   1      45.503  29.046  31.049  1.00  0.00     0.049 A 
ATOM     60  H   UNL A   1      45.496  30.777  29.852  1.00  0.00     0.167 HD
ATOM     61  C   UNL A   1      43.071  29.577  31.105  1.00  0.00     0.074 A 
ATOM     62  C   UNL A   1      42.874  30.453  29.957  1.00  0.00     0.031 C 
ATOM     63  C   UNL A   1      44.190  29.018  31.649  1.00  0.00     0.037 A 
BRANCH  50  64
ATOM     64  C   UNL A   1      46.655  30.671  27.086  1.00  0.00     0.064 A 
ATOM     65  C   UNL A   1      47.880  31.361  27.030  1.00  0.00     0.173 A 
ATOM     66  C   UNL A   1      45.511  31.428  26.747  1.00  0.00     0.173 A 
ATOM     67  F   UNL A   1      49.025  30.745  27.359  1.00  0.00    -0.203 F 
ATOM     68  C   UNL A   1      47.943  32.725  26.735  1.00  0.00     0.198 A 
ATOM     69  C   UNL A   1      45.585  32.774  26.394  1.00  0.00     0.198 A 
ATOM     70  F   UNL A   1      44.269  30.941  26.855  1.00  0.00    -0.203 F 
ATOM     71  F   UNL A   1      49.113  33.371  26.827  1.00  0.00    -0.200 F 
ATOM     72  C   UNL A   1      46.796  33.431  26.422  1.00  0.00     0.200 A 
ATOM     73  F   UNL A   1      44.458  33.444  26.114  1.00  0.00    -0.200 F 
ATOM     74  F   UNL A   1      46.845  34.750  26.203  1.00  0.00    -0.200 F 
ENDBRANCH  50  64
BRANCH  51  75
ATOM     75  C   UNL A   1      38.667  28.831  29.583  1.00  0.00     0.064 A 
ATOM     76  C   UNL A   1      37.853  29.157  30.678  1.00  0.00     0.173 A 
ATOM     77  C   UNL A   1      38.183  29.198  28.311  1.00  0.00     0.173 A 
ATOM     78  F   UNL A   1      38.258  28.884  31.927  1.00  0.00    -0.203 F 
ATOM     79  C   UNL A   1      36.640  29.835  30.514  1.00  0.00     0.198 A 
ATOM     80  C   UNL A   1      36.966  29.860  28.147  1.00  0.00     0.198 A 
ATOM     81  F   UNL A   1      38.923  29.007  27.209  1.00  0.00    -0.203 F 
ATOM     82  F   UNL A   1      35.922  30.189  31.588  1.00  0.00    -0.200 F 
ATOM     83  C   UNL A   1      36.202  30.192  29.250  1.00  0.00     0.200 A 
ATOM     84  F   UNL A   1      36.572  30.228  26.920  1.00  0.00    -0.200 F 
ATOM     85  F   UNL A   1      35.070  30.892  29.096  1.00  0.00    -0.200 F 
ENDBRANCH  51  75
BRANCH  63  86
ATOM     86  C   UNL A   1      43.994  28.099  32.820  1.00  0.00     0.064 A 
ATOM     87  C   UNL A   1      43.832  26.708  32.706  1.00  0.00     0.173 A 
ATOM     88  C   UNL A   1      44.082  28.639  34.110  1.00  0.00     0.173 A 
ATOM     89  F   UNL A   1      43.842  26.108  31.509  1.00  0.00    -0.203 F 
ATOM     90  C   UNL A   1      43.704  25.904  33.837  1.00  0.00     0.198 A 
ATOM     91  C   UNL A   1      43.995  27.828  35.238  1.00  0.00     0.198 A 
ATOM     92  F   UNL A   1      44.296  29.953  34.276  1.00  0.00    -0.203 F 
ATOM     93  F   UNL A   1      43.526  24.581  33.705  1.00  0.00    -0.200 F 
ATOM     94  C   UNL A   1      43.792  26.464  35.101  1.00  0.00     0.200 A 
ATOM     95  F   UNL A   1      44.130  28.366  36.458  1.00  0.00    -0.200 F 
ATOM     96  F   UNL A   1      43.706  25.686  36.190  1.00  0.00    -0.200 F 
ENDBRANCH  63  86
ENDBRANCH  37  38
ENDBRANCH  30  32
ENDBRANCH  29  30
ENDBRANCH  28  29
ENDBRANCH  27  28
ENDBRANCH  26  27
ENDBRANCH  25  26
ENDBRANCH   1  25
TORSDOF 21
ENDMDL
MODEL 3
REMARK VINA RESULT:     -10.5      2.490      4.272
REMARK SMILES C[C@]1(C(=O)NCCn2cc(C(=O)OCCOCCOCCOC(=O)c3ccc(-c4c5nc(c(-c6c(F)c(F)c(F)c(F)c6F)c6ccc([nH]6)c(-c6c(F)c(F)c(F)c(F)c6F)c6nc(c(-c7c(F)c(F)c(F)c(F)c7F)c7ccc4[nH]7)C=C6)C=C5)cc3)nn2)CCCO1
REMARK SMILES IDX 17 1 16 2 15 3 14 4 13 5 11 6 12 7 10 8 8 9 9 10 89 11 88 12
REMARK SMILES IDX 7 13 6 14 5 15 3 16 4 17 2 19 1 20 90 21 93 22 91 23 92 24
REMARK SMILES IDX 18 25 19 26 20 27 21 28 22 29 23 30 24 31 25 32 26 33 87 34
REMARK SMILES IDX 27 35 86 36 28 37 29 38 30 39 80 40 31 41 85 42 79 43 81 44
REMARK SMILES IDX 32 45 84 46 78 47 77 48 33 50 65 51 45 52 64 53 46 54 49 55
REMARK SMILES IDX 63 56 82 57 47 58 48 59 62 61 83 62 50 63 34 64 35 65 43 66
REMARK SMILES IDX 36 67 37 68 41 69 44 70 38 71 39 72 42 73 40 74 66 75 67 76
REMARK SMILES IDX 75 77 68 78 69 79 73 80 76 81 70 82 71 83 74 84 72 85 51 86
REMARK SMILES IDX 52 87 60 88 53 89 54 90 58 91 61 92 55 93 56 94 59 95 57 96
REMARK H PARENT 5 18 81 49 49 60
REMARK Flexibility Score: inf
ROOT
ATOM      1  C   UNL A   1      42.011  20.709  26.394  1.00  0.00     0.188 C 
ENDROOT
BRANCH   1   2
ATOM      2  O   UNL A   1      41.337  21.054  27.595  1.00  0.00    -0.376 OA
BRANCH   2   3
ATOM      3  C   UNL A   1      40.339  22.069  27.601  1.00  0.00     0.202 C 
BRANCH   3   4
ATOM      4  C   UNL A   1      39.714  22.628  26.306  1.00  0.00     0.261 C 
BRANCH   4   5
ATOM      5  O   UNL A   1      38.280  22.657  26.260  1.00  0.00    -0.458 OA
BRANCH   5   6
ATOM      6  C   UNL A   1      37.683  21.681  25.503  1.00  0.00     0.360 C 
ATOM      7  O   UNL A   1      38.231  20.666  25.136  1.00  0.00    -0.244 OA
BRANCH   6   8
ATOM      8  C   UNL A   1      36.255  21.936  25.331  1.00  0.00     0.190 A 
ATOM      9  N   UNL A   1      34.202  22.069  24.658  1.00  0.00    -0.250 N 
ATOM     10  C   UNL A   1      35.355  21.374  24.448  1.00  0.00     0.147 A 
ATOM     11  N   UNL A   1      34.368  23.020  25.593  1.00  0.00    -0.066 NA
ATOM     12  N   UNL A   1      35.616  22.934  26.033  1.00  0.00    -0.123 NA
BRANCH   9  13
ATOM     13  C   UNL A   1      32.879  21.819  24.129  1.00  0.00     0.167 C 
BRANCH  13  14
ATOM     14  C   UNL A   1      32.312  20.434  24.440  1.00  0.00     0.139 C 
BRANCH  14  15
ATOM     15  N   UNL A   1      32.236  19.547  23.290  1.00  0.00    -0.352 N 
ATOM     16  C   UNL A   1      32.681  18.272  23.080  1.00  0.00     0.252 C 
ATOM     17  O   UNL A   1      32.479  17.813  21.952  1.00  0.00    -0.272 OA
ATOM     18  H   UNL A   1      31.775  19.940  22.513  1.00  0.00     0.163 HD
BRANCH  16  19
ATOM     19  C   UNL A   1      33.385  17.449  24.197  1.00  0.00     0.143 C 
ATOM     20  C   UNL A   1      34.855  17.845  24.359  1.00  0.00     0.053 C 
ATOM     21  C   UNL A   1      32.592  17.487  25.504  1.00  0.00     0.048 C 
ATOM     22  O   UNL A   1      33.409  16.045  23.832  1.00  0.00    -0.365 OA
ATOM     23  C   UNL A   1      32.918  16.161  26.143  1.00  0.00     0.032 C 
ATOM     24  C   UNL A   1      32.991  15.246  24.945  1.00  0.00     0.162 C 
ENDBRANCH  16  19
ENDBRANCH  14  15
ENDBRANCH  13  14
ENDBRANCH   9  13
ENDBRANCH   6   8
ENDBRANCH   5   6
ENDBRANCH   4   5
ENDBRANCH   3   4
ENDBRANCH   2   3
ENDBRANCH   1   2
BRANCH   1  25
ATOM     25  C   UNL A   1      42.220  19.229  26.007  1.00  0.00     0.188 C 
BRANCH  25  26
ATOM     26  O   UNL A   1      43.376  18.633  26.553  1.00  0.00    -0.376 OA
BRANCH  26  27
ATOM     27  C   UNL A   1      44.425  18.152  25.725  1.00  0.00     0.202 C 
BRANCH  27  28
ATOM     28  C   UNL A   1      45.672  18.963  25.363  1.00  0.00     0.261 C 
BRANCH  28  29
ATOM     29  O   UNL A   1      45.548  20.369  25.412  1.00  0.00    -0.460 OA
BRANCH  29  30
ATOM     30  C   UNL A   1      44.997  20.918  24.313  1.00  0.00     0.338 C 
ATOM     31  O   UNL A   1      44.574  20.336  23.328  1.00  0.00    -0.246 OA
BRANCH  30  32
ATOM     32  C   UNL A   1      45.066  22.375  24.442  1.00  0.00     0.060 A 
ATOM     33  C   UNL A   1      46.168  22.896  25.122  1.00  0.00     0.016 A 
ATOM     34  C   UNL A   1      43.914  23.133  24.185  1.00  0.00     0.016 A 
ATOM     35  C   UNL A   1      46.024  24.109  25.754  1.00  0.00     0.010 A 
ATOM     36  C   UNL A   1      43.762  24.331  24.835  1.00  0.00     0.010 A 
ATOM     37  C   UNL A   1      44.785  24.751  25.683  1.00  0.00    -0.014 A 
BRANCH  37  38
ATOM     38  C   UNL A   1      44.563  25.877  26.561  1.00  0.00     0.031 A 
ATOM     39  C   UNL A   1      45.533  26.974  26.403  1.00  0.00     0.074 A 
ATOM     40  C   UNL A   1      43.489  25.924  27.370  1.00  0.00     0.049 A 
ATOM     41  N   UNL A   1      46.337  27.458  27.290  1.00  0.00    -0.248 NA
ATOM     42  C   UNL A   1      45.706  27.533  25.054  1.00  0.00     0.031 C 
ATOM     43  C   UNL A   1      42.330  25.024  27.373  1.00  0.00     0.029 A 
ATOM     44  N   UNL A   1      43.155  26.866  28.292  1.00  0.00    -0.354 N 
ATOM     45  C   UNL A   1      46.996  28.504  26.656  1.00  0.00     0.074 A 
ATOM     46  C   UNL A   1      46.693  28.403  25.253  1.00  0.00     0.031 C 
ATOM     47  C   UNL A   1      41.337  25.587  28.096  1.00  0.00     0.029 A 
ATOM     48  C   UNL A   1      41.830  26.817  28.693  1.00  0.00     0.049 A 
ATOM     49  H   UNL A   1      43.798  27.525  28.643  1.00  0.00     0.167 HD
ATOM     50  C   UNL A   1      47.525  29.531  27.371  1.00  0.00     0.037 A 
ATOM     51  C   UNL A   1      41.169  27.771  29.392  1.00  0.00     0.037 A 
ATOM     52  C   UNL A   1      47.746  29.163  28.744  1.00  0.00     0.049 A 
ATOM     53  C   UNL A   1      42.182  28.641  30.037  1.00  0.00     0.074 A 
ATOM     54  C   UNL A   1      48.525  28.222  29.388  1.00  0.00     0.029 A 
ATOM     55  N   UNL A   1      46.840  29.606  29.673  1.00  0.00    -0.354 N 
ATOM     56  N   UNL A   1      42.947  28.276  31.026  1.00  0.00    -0.248 NA
ATOM     57  C   UNL A   1      42.614  29.839  29.328  1.00  0.00     0.031 C 
ATOM     58  C   UNL A   1      47.787  27.847  30.548  1.00  0.00     0.029 A 
ATOM     59  C   UNL A   1      46.607  28.590  30.563  1.00  0.00     0.049 A 
ATOM     60  H   UNL A   1      46.429  30.499  29.696  1.00  0.00     0.167 HD
ATOM     61  C   UNL A   1      44.150  28.924  30.799  1.00  0.00     0.074 A 
ATOM     62  C   UNL A   1      43.842  29.972  29.834  1.00  0.00     0.031 C 
ATOM     63  C   UNL A   1      45.328  28.361  31.194  1.00  0.00     0.037 A 
BRANCH  50  64
ATOM     64  C   UNL A   1      47.459  30.968  26.917  1.00  0.00     0.064 A 
ATOM     65  C   UNL A   1      48.623  31.756  26.980  1.00  0.00     0.173 A 
ATOM     66  C   UNL A   1      46.251  31.676  26.724  1.00  0.00     0.173 A 
ATOM     67  F   UNL A   1      49.820  31.188  27.188  1.00  0.00    -0.203 F 
ATOM     68  C   UNL A   1      48.571  33.150  26.932  1.00  0.00     0.198 A 
ATOM     69  C   UNL A   1      46.210  33.064  26.617  1.00  0.00     0.198 A 
ATOM     70  F   UNL A   1      45.055  31.077  26.750  1.00  0.00    -0.203 F 
ATOM     71  F   UNL A   1      49.686  33.864  27.132  1.00  0.00    -0.200 F 
ATOM     72  C   UNL A   1      47.364  33.804  26.755  1.00  0.00     0.200 A 
ATOM     73  F   UNL A   1      45.028  33.678  26.466  1.00  0.00    -0.200 F 
ATOM     74  F   UNL A   1      47.303  35.141  26.775  1.00  0.00    -0.200 F 
ENDBRANCH  50  64
BRANCH  51  75
ATOM     75  C   UNL A   1      39.737  28.140  29.325  1.00  0.00     0.064 A 
ATOM     76  C   UNL A   1      38.944  28.161  30.484  1.00  0.00     0.173 A 
ATOM     77  C   UNL A   1      39.180  28.732  28.175  1.00  0.00     0.173 A 
ATOM     78  F   UNL A   1      39.415  27.657  31.634  1.00  0.00    -0.203 F 
ATOM     79  C   UNL A   1      37.683  28.764  30.497  1.00  0.00     0.198 A 
ATOM     80  C   UNL A   1      37.915  29.320  28.185  1.00  0.00     0.198 A 
ATOM     81  F   UNL A   1      39.888  28.839  27.041  1.00  0.00    -0.203 F 
ATOM     82  F   UNL A   1      36.983  28.824  31.639  1.00  0.00    -0.200 F 
ATOM     83  C   UNL A   1      37.172  29.350  29.351  1.00  0.00     0.200 A 
ATOM     84  F   UNL A   1      37.449  29.912  27.076  1.00  0.00    -0.200 F 
ATOM     85  F   UNL A   1      35.990  29.978  29.378  1.00  0.00    -0.200 F 
ENDBRANCH  51  75
BRANCH  63  86
ATOM     86  C   UNL A   1      45.249  27.239  32.188  1.00  0.00     0.064 A 
ATOM     87  C   UNL A   1      45.248  27.423  33.581  1.00  0.00     0.173 A 
ATOM     88  C   UNL A   1      45.058  25.936  31.706  1.00  0.00     0.173 A 
ATOM     89  F   UNL A   1      45.322  28.648  34.114  1.00  0.00    -0.203 F 
ATOM     90  C   UNL A   1      45.121  26.341  34.449  1.00  0.00     0.198 A 
ATOM     91  C   UNL A   1      44.892  24.863  32.576  1.00  0.00     0.198 A 
ATOM     92  F   UNL A   1      44.992  25.712  30.384  1.00  0.00    -0.203 F 
ATOM     93  F   UNL A   1      45.147  26.537  35.776  1.00  0.00    -0.200 F 
ATOM     94  C   UNL A   1      44.937  25.063  33.946  1.00  0.00     0.200 A 
ATOM     95  F   UNL A   1      44.664  23.637  32.085  1.00  0.00    -0.200 F 
ATOM     96  F   UNL A   1      44.778  24.027  34.781  1.00  0.00    -0.200 F 
ENDBRANCH  63  86
ENDBRANCH  37  38
ENDBRANCH  30  32
ENDBRANCH  29  30
ENDBRANCH  28  29
ENDBRANCH  27  28
ENDBRANCH  26  27
ENDBRANCH  25  26
ENDBRANCH   1  25
TORSDOF 21
ENDMDL
