MODEL 1
REMARK VINA RESULT:     -11.6      0.000      0.000
REMARK SMILES O=C(OCCOCCOCCOC(=O)[C@H]1CC=CC[C@@H]1c1nc2cc(Cl)ccc2o1)c1ccc(-c2c3nc(c(-c4c(F)c(F)c(F)c(F)c4F)c4ccc([nH]4)c(-c4c(F)c(F)c(F)c(F)c4F)c4nc(c(-c5c(F)c(F)c(F)c(F)c5F)c5ccc2[nH]5)C=C4)C=C3)cc1
REMARK SMILES IDX 7 1 6 2 5 3 4 4 3 5 2 6 1 7 31 8 32 9 93 10 33 11 92 12
REMARK SMILES IDX 34 13 35 14 36 15 86 16 37 17 91 18 85 19 87 20 38 21 90 22
REMARK SMILES IDX 84 23 83 24 39 26 71 27 51 28 70 29 52 30 55 31 69 32 88 33
REMARK SMILES IDX 53 34 54 35 68 37 89 38 56 39 40 40 41 41 49 42 42 43 43 44
REMARK SMILES IDX 47 45 50 46 44 47 45 48 48 49 46 50 72 51 73 52 81 53 74 54
REMARK SMILES IDX 75 55 79 56 82 57 76 58 77 59 80 60 78 61 57 62 58 63 66 64
REMARK SMILES IDX 59 65 60 66 64 67 67 68 61 69 62 70 65 71 63 72 8 73 9 74
REMARK SMILES IDX 10 75 11 76 12 77 13 78 14 79 15 80 16 81 20 82 17 83 19 84
REMARK SMILES IDX 18 85 21 86 22 87 30 88 23 89 29 90 24 91 28 92 25 93 27 94
REMARK SMILES IDX 26 95
REMARK H PARENT 87 25 55 36
REMARK Flexibility Score: inf
ROOT
ATOM      1  C   UNL A   1      41.172  19.647  26.583  1.00  0.00     0.188 C 
ENDROOT
BRANCH   1   2
ATOM      2  O   UNL A   1      42.560  19.378  26.746  1.00  0.00    -0.376 OA
BRANCH   2   3
ATOM      3  C   UNL A   1      43.048  18.427  25.809  1.00  0.00     0.202 C 
BRANCH   3   4
ATOM      4  C   UNL A   1      44.577  18.287  25.734  1.00  0.00     0.261 C 
BRANCH   4   5
ATOM      5  O   UNL A   1      45.329  19.210  24.909  1.00  0.00    -0.460 OA
BRANCH   5   6
ATOM      6  C   UNL A   1      44.893  20.189  24.087  1.00  0.00     0.338 C 
ATOM      7  O   UNL A   1      44.707  19.973  22.890  1.00  0.00    -0.246 OA
BRANCH   6   8
ATOM      8  C   UNL A   1      44.834  21.571  24.589  1.00  0.00     0.060 A 
ATOM      9  C   UNL A   1      45.561  21.821  25.744  1.00  0.00     0.016 A 
ATOM     10  C   UNL A   1      44.021  22.574  24.050  1.00  0.00     0.016 A 
ATOM     11  C   UNL A   1      45.274  22.959  26.469  1.00  0.00     0.010 A 
ATOM     12  C   UNL A   1      43.700  23.703  24.811  1.00  0.00     0.010 A 
ATOM     13  C   UNL A   1      44.267  23.856  26.070  1.00  0.00    -0.014 A 
BRANCH  13  14
ATOM     14  C   UNL A   1      44.067  25.020  26.951  1.00  0.00     0.031 A 
ATOM     15  C   UNL A   1      45.269  25.893  26.974  1.00  0.00     0.074 A 
ATOM     16  C   UNL A   1      42.971  25.331  27.677  1.00  0.00     0.049 A 
ATOM     17  N   UNL A   1      45.981  26.241  27.996  1.00  0.00    -0.248 NA
ATOM     18  C   UNL A   1      45.848  26.258  25.666  1.00  0.00     0.031 C 
ATOM     19  C   UNL A   1      41.668  24.670  27.611  1.00  0.00     0.029 A 
ATOM     20  N   UNL A   1      42.763  26.338  28.599  1.00  0.00    -0.354 N 
ATOM     21  C   UNL A   1      46.986  27.037  27.466  1.00  0.00     0.074 A 
ATOM     22  C   UNL A   1      46.971  26.868  26.036  1.00  0.00     0.031 C 
ATOM     23  C   UNL A   1      40.770  25.383  28.321  1.00  0.00     0.029 A 
ATOM     24  C   UNL A   1      41.425  26.536  28.923  1.00  0.00     0.049 A 
ATOM     25  H   UNL A   1      43.495  26.867  28.992  1.00  0.00     0.167 HD
ATOM     26  C   UNL A   1      47.491  28.070  28.181  1.00  0.00     0.037 A 
ATOM     27  C   UNL A   1      40.850  27.589  29.563  1.00  0.00     0.037 A 
ATOM     28  C   UNL A   1      47.376  27.900  29.596  1.00  0.00     0.049 A 
ATOM     29  C   UNL A   1      41.880  28.316  30.347  1.00  0.00     0.074 A 
ATOM     30  C   UNL A   1      48.093  27.269  30.587  1.00  0.00     0.029 A 
ATOM     31  N   UNL A   1      46.148  28.200  30.113  1.00  0.00    -0.354 N 
ATOM     32  N   UNL A   1      42.377  27.900  31.476  1.00  0.00    -0.248 NA
ATOM     33  C   UNL A   1      42.565  29.461  29.749  1.00  0.00     0.031 C 
ATOM     34  C   UNL A   1      47.234  27.178  31.721  1.00  0.00     0.029 A 
ATOM     35  C   UNL A   1      46.010  27.757  31.402  1.00  0.00     0.049 A 
ATOM     36  H   UNL A   1      45.445  28.680  29.618  1.00  0.00     0.167 HD
ATOM     37  C   UNL A   1      43.650  28.430  31.498  1.00  0.00     0.074 A 
ATOM     38  C   UNL A   1      43.645  29.513  30.530  1.00  0.00     0.031 C 
ATOM     39  C   UNL A   1      44.697  27.726  32.009  1.00  0.00     0.037 A 
BRANCH  26  40
ATOM     40  C   UNL A   1      47.580  29.428  27.544  1.00  0.00     0.064 A 
ATOM     41  C   UNL A   1      48.769  30.164  27.587  1.00  0.00     0.173 A 
ATOM     42  C   UNL A   1      46.429  30.127  27.104  1.00  0.00     0.173 A 
ATOM     43  F   UNL A   1      49.889  29.614  28.077  1.00  0.00    -0.203 F 
ATOM     44  C   UNL A   1      48.808  31.501  27.181  1.00  0.00     0.198 A 
ATOM     45  C   UNL A   1      46.484  31.433  26.635  1.00  0.00     0.198 A 
ATOM     46  F   UNL A   1      45.201  29.602  27.215  1.00  0.00    -0.203 F 
ATOM     47  F   UNL A   1      49.941  32.203  27.309  1.00  0.00    -0.200 F 
ATOM     48  C   UNL A   1      47.672  32.127  26.686  1.00  0.00     0.200 A 
ATOM     49  F   UNL A   1      45.364  32.025  26.197  1.00  0.00    -0.200 F 
ATOM     50  F   UNL A   1      47.709  33.410  26.310  1.00  0.00    -0.200 F 
ENDBRANCH  26  40
BRANCH  27  51
ATOM     51  C   UNL A   1      39.455  28.108  29.447  1.00  0.00     0.064 A 
ATOM     52  C   UNL A   1      38.610  28.205  30.570  1.00  0.00     0.173 A 
ATOM     53  C   UNL A   1      38.986  28.737  28.277  1.00  0.00     0.173 A 
ATOM     54  F   UNL A   1      38.981  27.691  31.751  1.00  0.00    -0.203 F 
ATOM     55  C   UNL A   1      37.390  28.895  30.522  1.00  0.00     0.198 A 
ATOM     56  C   UNL A   1      37.757  29.396  28.220  1.00  0.00     0.198 A 
ATOM     57  F   UNL A   1      39.743  28.813  27.174  1.00  0.00    -0.203 F 
ATOM     58  F   UNL A   1      36.650  29.023  31.632  1.00  0.00    -0.200 F 
ATOM     59  C   UNL A   1      36.966  29.489  29.347  1.00  0.00     0.200 A 
ATOM     60  F   UNL A   1      37.376  29.988  27.080  1.00  0.00    -0.200 F 
ATOM     61  F   UNL A   1      35.822  30.186  29.309  1.00  0.00    -0.200 F 
ENDBRANCH  27  51
BRANCH  39  62
ATOM     62  C   UNL A   1      44.431  26.756  33.115  1.00  0.00     0.064 A 
ATOM     63  C   UNL A   1      44.271  27.103  34.465  1.00  0.00     0.173 A 
ATOM     64  C   UNL A   1      44.258  25.406  32.765  1.00  0.00     0.173 A 
ATOM     65  F   UNL A   1      44.413  28.370  34.880  1.00  0.00    -0.203 F 
ATOM     66  C   UNL A   1      43.940  26.139  35.416  1.00  0.00     0.198 A 
ATOM     67  C   UNL A   1      43.907  24.452  33.713  1.00  0.00     0.198 A 
ATOM     68  F   UNL A   1      44.405  25.014  31.489  1.00  0.00    -0.203 F 
ATOM     69  F   UNL A   1      43.791  26.487  36.702  1.00  0.00    -0.200 F 
ATOM     70  C   UNL A   1      43.746  24.819  35.037  1.00  0.00     0.200 A 
ATOM     71  F   UNL A   1      43.705  23.181  33.335  1.00  0.00    -0.200 F 
ATOM     72  F   UNL A   1      43.395  23.899  35.948  1.00  0.00    -0.200 F 
ENDBRANCH  39  62
ENDBRANCH  13  14
ENDBRANCH   6   8
ENDBRANCH   5   6
ENDBRANCH   4   5
ENDBRANCH   3   4
ENDBRANCH   2   3
ENDBRANCH   1   2
BRANCH   1  73
ATOM     73  C   UNL A   1      40.811  21.087  26.949  1.00  0.00     0.188 C 
BRANCH  73  74
ATOM     74  O   UNL A   1      40.074  21.840  25.997  1.00  0.00    -0.376 OA
BRANCH  74  75
ATOM     75  C   UNL A   1      38.782  22.312  26.356  1.00  0.00     0.202 C 
BRANCH  75  76
ATOM     76  C   UNL A   1      37.575  22.193  25.399  1.00  0.00     0.261 C 
BRANCH  76  77
ATOM     77  O   UNL A   1      36.283  21.964  25.977  1.00  0.00    -0.463 OA
BRANCH  77  78
ATOM     78  C   UNL A   1      35.288  21.806  25.059  1.00  0.00     0.310 C 
ATOM     79  O   UNL A   1      34.993  20.738  24.537  1.00  0.00    -0.252 OA
BRANCH  78  80
ATOM     80  C   UNL A   1      34.622  23.106  24.630  1.00  0.00     0.115 C 
ATOM     81  C   UNL A   1      34.088  23.046  23.199  1.00  0.00     0.043 C 
ATOM     82  C   UNL A   1      33.593  23.515  25.688  1.00  0.00     0.094 C 
ATOM     83  C   UNL A   1      32.636  22.694  23.075  1.00  0.00    -0.030 C 
ATOM     84  C   UNL A   1      32.245  22.781  25.537  1.00  0.00     0.041 C 
ATOM     85  C   UNL A   1      31.808  22.577  24.120  1.00  0.00    -0.030 C 
BRANCH  82  86
ATOM     86  C   UNL A   1      33.320  24.984  25.812  1.00  0.00     0.199 A 
ATOM     87  N   UNL A   1      34.193  25.953  25.595  1.00  0.00    -0.213 NA
ATOM     88  O   UNL A   1      32.118  25.395  26.321  1.00  0.00    -0.440 OA
ATOM     89  C   UNL A   1      33.569  27.068  26.084  1.00  0.00     0.111 A 
ATOM     90  C   UNL A   1      32.293  26.736  26.511  1.00  0.00     0.154 A 
ATOM     91  C   UNL A   1      34.029  28.381  26.238  1.00  0.00     0.053 A 
ATOM     92  C   UNL A   1      31.395  27.632  27.075  1.00  0.00     0.051 A 
ATOM     93  C   UNL A   1      33.165  29.300  26.844  1.00  0.00     0.043 A 
ATOM     94  C   UNL A   1      31.872  28.938  27.248  1.00  0.00     0.024 A 
ATOM     95  Cl  UNL A   1      33.717  30.907  27.130  1.00  0.00    -0.084 Cl
ENDBRANCH  82  86
ENDBRANCH  78  80
ENDBRANCH  77  78
ENDBRANCH  76  77
ENDBRANCH  75  76
ENDBRANCH  74  75
ENDBRANCH  73  74
ENDBRANCH   1  73
TORSDOF 18
ENDMDL
MODEL 2
REMARK VINA RESULT:     -11.6      3.715      9.201
REMARK SMILES O=C(OCCOCCOCCOC(=O)[C@H]1CC=CC[C@@H]1c1nc2cc(Cl)ccc2o1)c1ccc(-c2c3nc(c(-c4c(F)c(F)c(F)c(F)c4F)c4ccc([nH]4)c(-c4c(F)c(F)c(F)c(F)c4F)c4nc(c(-c5c(F)c(F)c(F)c(F)c5F)c5ccc2[nH]5)C=C4)C=C3)cc1
REMARK SMILES IDX 7 1 6 2 5 3 4 4 3 5 2 6 1 7 31 8 32 9 93 10 33 11 92 12
REMARK SMILES IDX 34 13 35 14 36 15 86 16 37 17 91 18 85 19 87 20 38 21 90 22
REMARK SMILES IDX 84 23 83 24 39 26 71 27 51 28 70 29 52 30 55 31 69 32 88 33
REMARK SMILES IDX 53 34 54 35 68 37 89 38 56 39 40 40 41 41 49 42 42 43 43 44
REMARK SMILES IDX 47 45 50 46 44 47 45 48 48 49 46 50 72 51 73 52 81 53 74 54
REMARK SMILES IDX 75 55 79 56 82 57 76 58 77 59 80 60 78 61 57 62 58 63 66 64
REMARK SMILES IDX 59 65 60 66 64 67 67 68 61 69 62 70 65 71 63 72 8 73 9 74
REMARK SMILES IDX 10 75 11 76 12 77 13 78 14 79 15 80 16 81 20 82 17 83 19 84
REMARK SMILES IDX 18 85 21 86 22 87 30 88 23 89 29 90 24 91 28 92 25 93 27 94
REMARK SMILES IDX 26 95
REMARK H PARENT 87 25 55 36
REMARK Flexibility Score: inf
ROOT
ATOM      1  C   UNL A   1      31.564  29.896  25.720  1.00  0.00     0.188 C 
ENDROOT
BRANCH   1   2
ATOM      2  O   UNL A   1      32.125  30.207  26.989  1.00  0.00    -0.376 OA
BRANCH   2   3
ATOM      3  C   UNL A   1      33.069  31.269  26.926  1.00  0.00     0.202 C 
BRANCH   3   4
ATOM      4  C   UNL A   1      34.177  31.243  27.991  1.00  0.00     0.261 C 
BRANCH   4   5
ATOM      5  O   UNL A   1      35.521  30.875  27.600  1.00  0.00    -0.460 OA
BRANCH   5   6
ATOM      6  C   UNL A   1      36.669  30.906  28.312  1.00  0.00     0.338 C 
ATOM      7  O   UNL A   1      36.952  31.879  29.012  1.00  0.00    -0.246 OA
BRANCH   6   8
ATOM      8  C   UNL A   1      37.678  29.857  28.091  1.00  0.00     0.060 A 
ATOM      9  C   UNL A   1      37.769  28.894  29.085  1.00  0.00     0.016 A 
ATOM     10  C   UNL A   1      38.590  29.851  27.031  1.00  0.00     0.016 A 
ATOM     11  C   UNL A   1      38.902  28.110  29.138  1.00  0.00     0.010 A 
ATOM     12  C   UNL A   1      39.759  29.086  27.115  1.00  0.00     0.010 A 
ATOM     13  C   UNL A   1      39.957  28.270  28.222  1.00  0.00    -0.014 A 
BRANCH  13  14
ATOM     14  C   UNL A   1      41.107  27.368  28.412  1.00  0.00     0.031 A 
ATOM     15  C   UNL A   1      41.897  27.746  29.611  1.00  0.00     0.074 A 
ATOM     16  C   UNL A   1      41.467  26.313  27.649  1.00  0.00     0.049 A 
ATOM     17  N   UNL A   1      43.150  28.064  29.672  1.00  0.00    -0.248 NA
ATOM     18  C   UNL A   1      41.141  27.980  30.858  1.00  0.00     0.031 C 
ATOM     19  C   UNL A   1      40.691  25.723  26.559  1.00  0.00     0.029 A 
ATOM     20  N   UNL A   1      42.584  25.503  27.709  1.00  0.00    -0.354 N 
ATOM     21  C   UNL A   1      43.373  28.345  31.012  1.00  0.00     0.074 A 
ATOM     22  C   UNL A   1      42.091  28.459  31.656  1.00  0.00     0.031 C 
ATOM     23  C   UNL A   1      41.270  24.568  26.173  1.00  0.00     0.029 A 
ATOM     24  C   UNL A   1      42.474  24.337  26.959  1.00  0.00     0.049 A 
ATOM     25  H   UNL A   1      43.385  25.730  28.236  1.00  0.00     0.167 HD
ATOM     26  C   UNL A   1      44.573  28.073  31.578  1.00  0.00     0.037 A 
ATOM     27  C   UNL A   1      43.245  23.218  27.006  1.00  0.00     0.037 A 
ATOM     28  C   UNL A   1      45.660  28.074  30.649  1.00  0.00     0.049 A 
ATOM     29  C   UNL A   1      44.560  23.545  27.612  1.00  0.00     0.074 A 
ATOM     30  C   UNL A   1      46.489  29.015  30.084  1.00  0.00     0.029 A 
ATOM     31  N   UNL A   1      45.794  26.927  29.920  1.00  0.00    -0.354 N 
ATOM     32  N   UNL A   1      45.517  24.179  26.998  1.00  0.00    -0.248 NA
ATOM     33  C   UNL A   1      44.757  23.359  29.049  1.00  0.00     0.031 C 
ATOM     34  C   UNL A   1      47.114  28.393  28.963  1.00  0.00     0.029 A 
ATOM     35  C   UNL A   1      46.656  27.083  28.867  1.00  0.00     0.049 A 
ATOM     36  H   UNL A   1      45.327  26.085  30.129  1.00  0.00     0.167 HD
ATOM     37  C   UNL A   1      46.192  24.829  28.009  1.00  0.00     0.074 A 
ATOM     38  C   UNL A   1      45.813  24.152  29.238  1.00  0.00     0.031 C 
ATOM     39  C   UNL A   1      46.701  26.078  27.827  1.00  0.00     0.037 A 
BRANCH  26  40
ATOM     40  C   UNL A   1      44.618  27.291  32.861  1.00  0.00     0.064 A 
ATOM     41  C   UNL A   1      44.233  25.946  32.893  1.00  0.00     0.173 A 
ATOM     42  C   UNL A   1      44.798  27.920  34.117  1.00  0.00     0.173 A 
ATOM     43  F   UNL A   1      43.950  25.294  31.757  1.00  0.00    -0.203 F 
ATOM     44  C   UNL A   1      44.076  25.269  34.106  1.00  0.00     0.198 A 
ATOM     45  C   UNL A   1      44.711  27.226  35.317  1.00  0.00     0.198 A 
ATOM     46  F   UNL A   1      44.960  29.246  34.224  1.00  0.00    -0.203 F 
ATOM     47  F   UNL A   1      43.629  24.006  34.110  1.00  0.00    -0.200 F 
ATOM     48  C   UNL A   1      44.335  25.902  35.313  1.00  0.00     0.200 A 
ATOM     49  F   UNL A   1      44.930  27.873  36.471  1.00  0.00    -0.200 F 
ATOM     50  F   UNL A   1      44.172  25.255  36.473  1.00  0.00    -0.200 F 
ENDBRANCH  26  40
BRANCH  27  51
ATOM     51  C   UNL A   1      42.874  21.811  26.671  1.00  0.00     0.064 A 
ATOM     52  C   UNL A   1      43.567  21.082  25.685  1.00  0.00     0.173 A 
ATOM     53  C   UNL A   1      41.982  21.063  27.465  1.00  0.00     0.173 A 
ATOM     54  F   UNL A   1      44.482  21.681  24.909  1.00  0.00    -0.203 F 
ATOM     55  C   UNL A   1      43.385  19.702  25.519  1.00  0.00     0.198 A 
ATOM     56  C   UNL A   1      41.777  19.696  27.279  1.00  0.00     0.198 A 
ATOM     57  F   UNL A   1      41.346  21.614  28.507  1.00  0.00    -0.203 F 
ATOM     58  F   UNL A   1      44.117  19.035  24.615  1.00  0.00    -0.200 F 
ATOM     59  C   UNL A   1      42.490  19.011  26.315  1.00  0.00     0.200 A 
ATOM     60  F   UNL A   1      40.925  19.039  28.078  1.00  0.00    -0.200 F 
ATOM     61  F   UNL A   1      42.346  17.685  26.189  1.00  0.00    -0.200 F 
ENDBRANCH  27  51
BRANCH  39  62
ATOM     62  C   UNL A   1      47.149  26.472  26.456  1.00  0.00     0.064 A 
ATOM     63  C   UNL A   1      46.403  27.257  25.564  1.00  0.00     0.173 A 
ATOM     64  C   UNL A   1      48.440  26.085  26.061  1.00  0.00     0.173 A 
ATOM     65  F   UNL A   1      45.166  27.672  25.867  1.00  0.00    -0.203 F 
ATOM     66  C   UNL A   1      46.939  27.647  24.336  1.00  0.00     0.198 A 
ATOM     67  C   UNL A   1      48.979  26.494  24.846  1.00  0.00     0.198 A 
ATOM     68  F   UNL A   1      49.197  25.328  26.872  1.00  0.00    -0.203 F 
ATOM     69  F   UNL A   1      46.214  28.397  23.494  1.00  0.00    -0.200 F 
ATOM     70  C   UNL A   1      48.228  27.276  23.985  1.00  0.00     0.200 A 
ATOM     71  F   UNL A   1      50.232  26.145  24.521  1.00  0.00    -0.200 F 
ATOM     72  F   UNL A   1      48.754  27.679  22.819  1.00  0.00    -0.200 F 
ENDBRANCH  39  62
ENDBRANCH  13  14
ENDBRANCH   6   8
ENDBRANCH   5   6
ENDBRANCH   4   5
ENDBRANCH   3   4
ENDBRANCH   2   3
ENDBRANCH   1   2
BRANCH   1  73
ATOM     73  C   UNL A   1      32.512  29.066  24.851  1.00  0.00     0.188 C 
BRANCH  73  74
ATOM     74  O   UNL A   1      32.060  27.790  24.422  1.00  0.00    -0.376 OA
BRANCH  74  75
ATOM     75  C   UNL A   1      31.254  27.021  25.306  1.00  0.00     0.202 C 
BRANCH  75  76
ATOM     76  C   UNL A   1      31.829  26.396  26.596  1.00  0.00     0.261 C 
BRANCH  76  77
ATOM     77  O   UNL A   1      31.627  24.991  26.806  1.00  0.00    -0.463 OA
BRANCH  77  78
ATOM     78  C   UNL A   1      32.642  24.211  26.336  1.00  0.00     0.310 C 
ATOM     79  O   UNL A   1      33.824  24.531  26.354  1.00  0.00    -0.252 OA
BRANCH  78  80
ATOM     80  C   UNL A   1      32.180  22.927  25.663  1.00  0.00     0.115 C 
ATOM     81  C   UNL A   1      30.894  23.114  24.860  1.00  0.00     0.043 C 
ATOM     82  C   UNL A   1      33.350  22.324  24.878  1.00  0.00     0.094 C 
ATOM     83  C   UNL A   1      31.088  23.374  23.396  1.00  0.00    -0.030 C 
ATOM     84  C   UNL A   1      33.547  22.973  23.493  1.00  0.00     0.041 C 
ATOM     85  C   UNL A   1      32.274  23.309  22.781  1.00  0.00    -0.030 C 
BRANCH  82  86
ATOM     86  C   UNL A   1      33.333  20.835  24.704  1.00  0.00     0.199 A 
ATOM     87  N   UNL A   1      32.300  20.042  24.936  1.00  0.00    -0.213 NA
ATOM     88  O   UNL A   1      34.503  20.187  24.416  1.00  0.00    -0.440 OA
ATOM     89  C   UNL A   1      32.839  18.786  24.895  1.00  0.00     0.111 A 
ATOM     90  C   UNL A   1      34.181  18.867  24.558  1.00  0.00     0.154 A 
ATOM     91  C   UNL A   1      32.271  17.536  25.171  1.00  0.00     0.053 A 
ATOM     92  C   UNL A   1      35.031  17.775  24.445  1.00  0.00     0.051 A 
ATOM     93  C   UNL A   1      33.110  16.419  25.109  1.00  0.00     0.043 A 
ATOM     94  C   UNL A   1      34.460  16.531  24.747  1.00  0.00     0.024 A 
ATOM     95  Cl  UNL A   1      32.476  14.870  25.521  1.00  0.00    -0.084 Cl
ENDBRANCH  82  86
ENDBRANCH  78  80
ENDBRANCH  77  78
ENDBRANCH  76  77
ENDBRANCH  75  76
ENDBRANCH  74  75
ENDBRANCH  73  74
ENDBRANCH   1  73
TORSDOF 18
ENDMDL
MODEL 3
REMARK VINA RESULT:     -11.4      2.357      3.795
REMARK SMILES O=C(OCCOCCOCCOC(=O)[C@H]1CC=CC[C@@H]1c1nc2cc(Cl)ccc2o1)c1ccc(-c2c3nc(c(-c4c(F)c(F)c(F)c(F)c4F)c4ccc([nH]4)c(-c4c(F)c(F)c(F)c(F)c4F)c4nc(c(-c5c(F)c(F)c(F)c(F)c5F)c5ccc2[nH]5)C=C4)C=C3)cc1
REMARK SMILES IDX 7 1 6 2 5 3 4 4 3 5 2 6 1 7 31 8 32 9 93 10 33 11 92 12
REMARK SMILES IDX 34 13 35 14 36 15 86 16 37 17 91 18 85 19 87 20 38 21 90 22
REMARK SMILES IDX 84 23 83 24 39 26 71 27 51 28 70 29 52 30 55 31 69 32 88 33
REMARK SMILES IDX 53 34 54 35 68 37 89 38 56 39 40 40 41 41 49 42 42 43 43 44
REMARK SMILES IDX 47 45 50 46 44 47 45 48 48 49 46 50 72 51 73 52 81 53 74 54
REMARK SMILES IDX 75 55 79 56 82 57 76 58 77 59 80 60 78 61 57 62 58 63 66 64
REMARK SMILES IDX 59 65 60 66 64 67 67 68 61 69 62 70 65 71 63 72 8 73 9 74
REMARK SMILES IDX 10 75 11 76 12 77 13 78 14 79 15 80 16 81 20 82 17 83 19 84
REMARK SMILES IDX 18 85 21 86 22 87 30 88 23 89 29 90 24 91 28 92 25 93 27 94
REMARK SMILES IDX 26 95
REMARK H PARENT 87 25 55 36
REMARK Flexibility Score: inf
ROOT
ATOM      1  C   UNL A   1      41.771  21.129  27.048  1.00  0.00     0.188 C 
ENDROOT
BRANCH   1   2
ATOM      2  O   UNL A   1      41.759  20.057  26.112  1.00  0.00    -0.376 OA
BRANCH   2   3
ATOM      3  C   UNL A   1      42.588  18.973  26.510  1.00  0.00     0.202 C 
BRANCH   3   4
ATOM      4  C   UNL A   1      43.690  18.574  25.515  1.00  0.00     0.261 C 
BRANCH   4   5
ATOM      5  O   UNL A   1      44.736  19.526  25.204  1.00  0.00    -0.460 OA
BRANCH   5   6
ATOM      6  C   UNL A   1      44.730  20.570  24.347  1.00  0.00     0.338 C 
ATOM      7  O   UNL A   1      44.945  20.403  23.147  1.00  0.00    -0.246 OA
BRANCH   6   8
ATOM      8  C   UNL A   1      44.665  21.938  24.886  1.00  0.00     0.060 A 
ATOM      9  C   UNL A   1      45.296  22.131  26.107  1.00  0.00     0.016 A 
ATOM     10  C   UNL A   1      43.931  22.980  24.311  1.00  0.00     0.016 A 
ATOM     11  C   UNL A   1      44.978  23.256  26.840  1.00  0.00     0.010 A 
ATOM     12  C   UNL A   1      43.576  24.096  25.077  1.00  0.00     0.010 A 
ATOM     13  C   UNL A   1      44.035  24.194  26.384  1.00  0.00    -0.014 A 
BRANCH  13  14
ATOM     14  C   UNL A   1      43.791  25.337  27.283  1.00  0.00     0.031 A 
ATOM     15  C   UNL A   1      44.996  26.197  27.401  1.00  0.00     0.074 A 
ATOM     16  C   UNL A   1      42.656  25.640  27.948  1.00  0.00     0.049 A 
ATOM     17  N   UNL A   1      45.648  26.512  28.473  1.00  0.00    -0.248 NA
ATOM     18  C   UNL A   1      45.657  26.590  26.141  1.00  0.00     0.031 C 
ATOM     19  C   UNL A   1      41.354  24.994  27.786  1.00  0.00     0.029 A 
ATOM     20  N   UNL A   1      42.400  26.625  28.882  1.00  0.00    -0.354 N 
ATOM     21  C   UNL A   1      46.690  27.311  28.026  1.00  0.00     0.074 A 
ATOM     22  C   UNL A   1      46.760  27.179  26.594  1.00  0.00     0.031 C 
ATOM     23  C   UNL A   1      40.420  25.696  28.459  1.00  0.00     0.029 A 
ATOM     24  C   UNL A   1      41.046  26.828  29.128  1.00  0.00     0.049 A 
ATOM     25  H   UNL A   1      43.110  27.136  29.332  1.00  0.00     0.167 HD
ATOM     26  C   UNL A   1      47.159  28.321  28.797  1.00  0.00     0.037 A 
ATOM     27  C   UNL A   1      40.442  27.869  29.760  1.00  0.00     0.037 A 
ATOM     28  C   UNL A   1      46.956  28.116  30.198  1.00  0.00     0.049 A 
ATOM     29  C   UNL A   1      41.428  28.566  30.623  1.00  0.00     0.074 A 
ATOM     30  C   UNL A   1      47.606  27.453  31.213  1.00  0.00     0.029 A 
ATOM     31  N   UNL A   1      45.701  28.415  30.647  1.00  0.00    -0.354 N 
ATOM     32  N   UNL A   1      41.852  28.116  31.769  1.00  0.00    -0.248 NA
ATOM     33  C   UNL A   1      42.158  29.719  30.098  1.00  0.00     0.031 C 
ATOM     34  C   UNL A   1      46.679  27.342  32.291  1.00  0.00     0.029 A 
ATOM     35  C   UNL A   1      45.481  27.941  31.913  1.00  0.00     0.049 A 
ATOM     36  H   UNL A   1      45.034  28.914  30.123  1.00  0.00     0.167 HD
ATOM     37  C   UNL A   1      43.125  28.633  31.883  1.00  0.00     0.074 A 
ATOM     38  C   UNL A   1      43.188  29.741  30.945  1.00  0.00     0.031 C 
ATOM     39  C   UNL A   1      44.133  27.907  32.438  1.00  0.00     0.037 A 
BRANCH  26  40
ATOM     40  C   UNL A   1      47.297  29.695  28.202  1.00  0.00     0.064 A 
ATOM     41  C   UNL A   1      46.176  30.390  27.736  1.00  0.00     0.173 A 
ATOM     42  C   UNL A   1      48.558  30.238  27.853  1.00  0.00     0.173 A 
ATOM     43  F   UNL A   1      44.944  29.903  27.937  1.00  0.00    -0.203 F 
ATOM     44  C   UNL A   1      46.312  31.571  27.000  1.00  0.00     0.198 A 
ATOM     45  C   UNL A   1      48.689  31.447  27.184  1.00  0.00     0.198 A 
ATOM     46  F   UNL A   1      49.697  29.560  28.057  1.00  0.00    -0.203 F 
ATOM     47  F   UNL A   1      45.225  32.172  26.498  1.00  0.00    -0.200 F 
ATOM     48  C   UNL A   1      47.565  32.108  26.744  1.00  0.00     0.200 A 
ATOM     49  F   UNL A   1      49.914  31.924  26.918  1.00  0.00    -0.200 F 
ATOM     50  F   UNL A   1      47.693  33.233  26.029  1.00  0.00    -0.200 F 
ENDBRANCH  26  40
BRANCH  27  51
ATOM     51  C   UNL A   1      39.061  28.404  29.573  1.00  0.00     0.064 A 
ATOM     52  C   UNL A   1      38.204  28.632  30.668  1.00  0.00     0.173 A 
ATOM     53  C   UNL A   1      38.620  28.924  28.339  1.00  0.00     0.173 A 
ATOM     54  F   UNL A   1      38.549  28.230  31.900  1.00  0.00    -0.203 F 
ATOM     55  C   UNL A   1      37.002  29.340  30.534  1.00  0.00     0.198 A 
ATOM     56  C   UNL A   1      37.409  29.601  28.200  1.00  0.00     0.198 A 
ATOM     57  F   UNL A   1      39.392  28.873  27.246  1.00  0.00    -0.203 F 
ATOM     58  F   UNL A   1      36.252  29.594  31.616  1.00  0.00    -0.200 F 
ATOM     59  C   UNL A   1      36.605  29.823  29.300  1.00  0.00     0.200 A 
ATOM     60  F   UNL A   1      37.055  30.085  27.001  1.00  0.00    -0.200 F 
ATOM     61  F   UNL A   1      35.479  30.538  29.177  1.00  0.00    -0.200 F 
ENDBRANCH  27  51
BRANCH  39  62
ATOM     62  C   UNL A   1      43.792  26.911  33.500  1.00  0.00     0.064 A 
ATOM     63  C   UNL A   1      43.377  27.237  34.800  1.00  0.00     0.173 A 
ATOM     64  C   UNL A   1      43.823  25.552  33.147  1.00  0.00     0.173 A 
ATOM     65  F   UNL A   1      43.314  28.510  35.214  1.00  0.00    -0.203 F 
ATOM     66  C   UNL A   1      42.997  26.240  35.699  1.00  0.00     0.198 A 
ATOM     67  C   UNL A   1      43.422  24.563  34.039  1.00  0.00     0.198 A 
ATOM     68  F   UNL A   1      44.217  25.181  31.918  1.00  0.00    -0.203 F 
ATOM     69  F   UNL A   1      42.603  26.568  36.938  1.00  0.00    -0.200 F 
ATOM     70  C   UNL A   1      43.008  24.908  35.314  1.00  0.00     0.200 A 
ATOM     71  F   UNL A   1      43.421  23.279  33.653  1.00  0.00    -0.200 F 
ATOM     72  F   UNL A   1      42.611  23.954  36.168  1.00  0.00    -0.200 F 
ENDBRANCH  39  62
ENDBRANCH  13  14
ENDBRANCH   6   8
ENDBRANCH   5   6
ENDBRANCH   4   5
ENDBRANCH   3   4
ENDBRANCH   2   3
ENDBRANCH   1   2
BRANCH   1  73
ATOM     73  C   UNL A   1      40.372  21.684  27.317  1.00  0.00     0.188 C 
BRANCH  73  74
ATOM     74  O   UNL A   1      39.696  22.311  26.236  1.00  0.00    -0.376 OA
BRANCH  74  75
ATOM     75  C   UNL A   1      38.532  21.688  25.709  1.00  0.00     0.202 C 
BRANCH  75  76
ATOM     76  C   UNL A   1      37.425  22.498  24.999  1.00  0.00     0.261 C 
BRANCH  76  77
ATOM     77  O   UNL A   1      36.952  23.690  25.642  1.00  0.00    -0.463 OA
BRANCH  77  78
ATOM     78  C   UNL A   1      35.594  23.760  25.743  1.00  0.00     0.310 C 
ATOM     79  O   UNL A   1      34.947  24.797  25.658  1.00  0.00    -0.252 OA
BRANCH  78  80
ATOM     80  C   UNL A   1      34.925  22.438  26.091  1.00  0.00     0.115 C 
ATOM     81  C   UNL A   1      34.262  22.460  27.468  1.00  0.00     0.043 C 
ATOM     82  C   UNL A   1      34.006  22.022  24.938  1.00  0.00     0.094 C 
ATOM     83  C   UNL A   1      32.797  22.776  27.465  1.00  0.00    -0.030 C 
ATOM     84  C   UNL A   1      32.632  22.722  24.977  1.00  0.00     0.041 C 
ATOM     85  C   UNL A   1      32.064  22.891  26.352  1.00  0.00    -0.030 C 
BRANCH  82  86
ATOM     86  C   UNL A   1      33.782  20.550  24.769  1.00  0.00     0.199 A 
ATOM     87  N   UNL A   1      32.648  19.909  25.001  1.00  0.00    -0.213 NA
ATOM     88  O   UNL A   1      34.851  19.744  24.484  1.00  0.00    -0.440 OA
ATOM     89  C   UNL A   1      33.008  18.590  24.964  1.00  0.00     0.111 A 
ATOM     90  C   UNL A   1      34.349  18.482  24.630  1.00  0.00     0.154 A 
ATOM     91  C   UNL A   1      32.271  17.432  25.243  1.00  0.00     0.053 A 
ATOM     92  C   UNL A   1      35.038  17.282  24.521  1.00  0.00     0.051 A 
ATOM     93  C   UNL A   1      32.946  16.208  25.186  1.00  0.00     0.043 A 
ATOM     94  C   UNL A   1      34.299  16.131  24.826  1.00  0.00     0.024 A 
ATOM     95  Cl  UNL A   1      32.102  14.764  25.601  1.00  0.00    -0.084 Cl
ENDBRANCH  82  86
ENDBRANCH  78  80
ENDBRANCH  77  78
ENDBRANCH  76  77
ENDBRANCH  75  76
ENDBRANCH  74  75
ENDBRANCH  73  74
ENDBRANCH   1  73
TORSDOF 18
ENDMDL
