MODEL 1
REMARK VINA RESULT:     -10.1      0.000      0.000
REMARK SMILES CC(C)(O)CC[C@@H](C(=O)OCCOCCOCCOC(=O)c1ccc(-c2c3nc(c(-c4c(F)c(F)c(F)c(F)c4F)c4ccc([nH]4)c(-c4c(F)c(F)c(F)c(F)c4F)c4nc(c(-c5c(F)c(F)c(F)c(F)c5F)c5ccc2[nH]5)C=C4)C=C3)cc1)[C@@H]1CCS(=O)(=O)C1
REMARK SMILES IDX 14 1 13 2 12 3 11 4 10 5 8 6 9 7 7 8 6 9 5 10 2 11 1 12 3 13
REMARK SMILES IDX 4 14 85 16 86 17 91 18 87 19 88 20 89 21 90 22 15 23 16 24
REMARK SMILES IDX 17 25 18 26 19 27 20 28 21 29 22 30 23 31 84 32 24 33 83 34
REMARK SMILES IDX 25 35 26 36 27 37 77 38 28 39 82 40 76 41 78 42 29 43 81 44
REMARK SMILES IDX 75 45 74 46 30 48 62 49 42 50 61 51 43 52 46 53 60 54 79 55
REMARK SMILES IDX 44 56 45 57 59 59 80 60 47 61 31 62 32 63 40 64 33 65 34 66
REMARK SMILES IDX 38 67 41 68 35 69 36 70 39 71 37 72 63 73 64 74 72 75 65 76
REMARK SMILES IDX 66 77 70 78 73 79 67 80 68 81 71 82 69 83 48 84 49 85 57 86
REMARK SMILES IDX 50 87 51 88 55 89 58 90 52 91 53 92 56 93 54 94
REMARK H PARENT 4 15 78 47 46 58
REMARK Flexibility Score: inf
ROOT
ATOM      1  C   UNL A   1      39.819  22.950  26.719  1.00  0.00     0.188 C 
ENDROOT
BRANCH   1   2
ATOM      2  O   UNL A   1      38.584  23.610  26.473  1.00  0.00    -0.376 OA
BRANCH   2   3
ATOM      3  C   UNL A   1      37.543  22.940  25.774  1.00  0.00     0.202 C 
BRANCH   3   4
ATOM      4  C   UNL A   1      36.097  23.436  25.933  1.00  0.00     0.261 C 
BRANCH   4   5
ATOM      5  O   UNL A   1      35.534  24.124  24.794  1.00  0.00    -0.463 OA
BRANCH   5   6
ATOM      6  C   UNL A   1      34.801  23.368  23.945  1.00  0.00     0.309 C 
ATOM      7  O   UNL A   1      35.070  23.271  22.754  1.00  0.00    -0.252 OA
BRANCH   6   8
ATOM      8  C   UNL A   1      33.567  22.676  24.551  1.00  0.00     0.103 C 
BRANCH   8   9
ATOM      9  C   UNL A   1      33.262  21.170  24.295  1.00  0.00     0.018 C 
BRANCH   9  10
ATOM     10  C   UNL A   1      33.699  20.097  25.299  1.00  0.00     0.035 C 
BRANCH  10  11
ATOM     11  C   UNL A   1      33.245  18.652  25.022  1.00  0.00     0.059 C 
ATOM     12  C   UNL A   1      34.389  17.703  24.669  1.00  0.00     0.042 C 
ATOM     13  C   UNL A   1      32.218  18.663  23.883  1.00  0.00     0.042 C 
BRANCH  11  14
ATOM     14  O   UNL A   1      32.599  18.162  26.199  1.00  0.00    -0.390 OA
ATOM     15  H   UNL A   1      33.125  17.441  26.580  1.00  0.00     0.211 HD
ENDBRANCH  11  14
ENDBRANCH  10  11
ENDBRANCH   9  10
ENDBRANCH   8   9
BRANCH   8  16
ATOM     16  C   UNL A   1      32.209  23.452  24.323  1.00  0.00     0.019 C 
ATOM     17  C   UNL A   1      32.084  24.943  24.703  1.00  0.00     0.021 C 
ATOM     18  C   UNL A   1      31.085  22.783  25.134  1.00  0.00     0.141 C 
ATOM     19  C   UNL A   1      31.854  25.084  26.211  1.00  0.00     0.137 C 
ATOM     20  S   UNL A   1      31.185  23.524  26.757  1.00  0.00     0.150 S 
ATOM     21  O   UNL A   1      32.196  22.815  27.518  1.00  0.00    -0.229 OA
ATOM     22  O   UNL A   1      29.845  23.728  27.261  1.00  0.00    -0.229 OA
ENDBRANCH   8  16
ENDBRANCH   6   8
ENDBRANCH   5   6
ENDBRANCH   4   5
ENDBRANCH   3   4
ENDBRANCH   2   3
ENDBRANCH   1   2
BRANCH   1  23
ATOM     23  C   UNL A   1      39.997  21.482  26.303  1.00  0.00     0.188 C 
BRANCH  23  24
ATOM     24  O   UNL A   1      41.335  21.068  26.188  1.00  0.00    -0.376 OA
BRANCH  24  25
ATOM     25  C   UNL A   1      41.707  19.824  26.745  1.00  0.00     0.202 C 
BRANCH  25  26
ATOM     26  C   UNL A   1      42.644  18.892  25.958  1.00  0.00     0.261 C 
BRANCH  26  27
ATOM     27  O   UNL A   1      43.073  19.338  24.660  1.00  0.00    -0.460 OA
BRANCH  27  28
ATOM     28  C   UNL A   1      44.402  19.517  24.462  1.00  0.00     0.338 C 
ATOM     29  O   UNL A   1      45.173  18.750  23.923  1.00  0.00    -0.246 OA
BRANCH  28  30
ATOM     30  C   UNL A   1      44.709  20.932  24.798  1.00  0.00     0.060 A 
ATOM     31  C   UNL A   1      45.232  21.233  26.065  1.00  0.00     0.016 A 
ATOM     32  C   UNL A   1      44.518  21.949  23.861  1.00  0.00     0.016 A 
ATOM     33  C   UNL A   1      45.546  22.554  26.403  1.00  0.00     0.010 A 
ATOM     34  C   UNL A   1      44.809  23.273  24.209  1.00  0.00     0.010 A 
ATOM     35  C   UNL A   1      45.301  23.587  25.489  1.00  0.00    -0.014 A 
BRANCH  35  36
ATOM     36  C   UNL A   1      45.373  25.007  25.922  1.00  0.00     0.031 A 
ATOM     37  C   UNL A   1      46.710  25.697  25.881  1.00  0.00     0.074 A 
ATOM     38  C   UNL A   1      44.287  25.675  26.351  1.00  0.00     0.049 A 
ATOM     39  N   UNL A   1      47.048  26.889  26.303  1.00  0.00    -0.248 NA
ATOM     40  C   UNL A   1      47.817  24.935  25.281  1.00  0.00     0.031 C 
ATOM     41  C   UNL A   1      42.928  25.142  26.399  1.00  0.00     0.029 A 
ATOM     42  N   UNL A   1      44.168  26.951  26.850  1.00  0.00    -0.354 N 
ATOM     43  C   UNL A   1      48.404  27.013  26.034  1.00  0.00     0.074 A 
ATOM     44  C   UNL A   1      48.834  25.769  25.433  1.00  0.00     0.031 C 
ATOM     45  C   UNL A   1      42.113  26.078  26.920  1.00  0.00     0.029 A 
ATOM     46  C   UNL A   1      42.900  27.257  27.281  1.00  0.00     0.049 A 
ATOM     47  H   UNL A   1      44.920  27.584  26.893  1.00  0.00     0.167 HD
ATOM     48  C   UNL A   1      49.220  28.069  26.264  1.00  0.00     0.037 A 
ATOM     49  C   UNL A   1      42.438  28.350  27.925  1.00  0.00     0.037 A 
ATOM     50  C   UNL A   1      48.796  29.307  26.862  1.00  0.00     0.049 A 
ATOM     51  C   UNL A   1      43.388  29.480  28.248  1.00  0.00     0.074 A 
ATOM     52  C   UNL A   1      49.546  30.442  27.116  1.00  0.00     0.029 A 
ATOM     53  N   UNL A   1      47.510  29.570  27.308  1.00  0.00    -0.354 N 
ATOM     54  N   UNL A   1      44.664  29.601  27.969  1.00  0.00    -0.248 NA
ATOM     55  C   UNL A   1      42.829  30.629  28.976  1.00  0.00     0.031 C 
ATOM     56  C   UNL A   1      48.728  31.368  27.773  1.00  0.00     0.029 A 
ATOM     57  C   UNL A   1      47.452  30.838  27.864  1.00  0.00     0.049 A 
ATOM     58  H   UNL A   1      46.750  28.948  27.239  1.00  0.00     0.167 HD
ATOM     59  C   UNL A   1      45.048  30.847  28.453  1.00  0.00     0.074 A 
ATOM     60  C   UNL A   1      43.867  31.452  29.031  1.00  0.00     0.031 C 
ATOM     61  C   UNL A   1      46.267  31.438  28.422  1.00  0.00     0.037 A 
BRANCH  48  62
ATOM     62  C   UNL A   1      50.667  27.925  25.895  1.00  0.00     0.064 A 
ATOM     63  C   UNL A   1      51.633  27.522  26.829  1.00  0.00     0.173 A 
ATOM     64  C   UNL A   1      51.085  28.142  24.573  1.00  0.00     0.173 A 
ATOM     65  F   UNL A   1      51.288  27.317  28.111  1.00  0.00    -0.203 F 
ATOM     66  C   UNL A   1      52.965  27.361  26.459  1.00  0.00     0.198 A 
ATOM     67  C   UNL A   1      52.411  27.950  24.199  1.00  0.00     0.198 A 
ATOM     68  F   UNL A   1      50.201  28.526  23.639  1.00  0.00    -0.203 F 
ATOM     69  F   UNL A   1      53.878  27.017  27.378  1.00  0.00    -0.200 F 
ATOM     70  C   UNL A   1      53.351  27.565  25.142  1.00  0.00     0.200 A 
ATOM     71  F   UNL A   1      52.779  28.134  22.924  1.00  0.00    -0.200 F 
ATOM     72  F   UNL A   1      54.631  27.396  24.783  1.00  0.00    -0.200 F 
ENDBRANCH  48  62
BRANCH  49  73
ATOM     73  C   UNL A   1      41.012  28.430  28.345  1.00  0.00     0.064 A 
ATOM     74  C   UNL A   1      40.035  28.966  27.494  1.00  0.00     0.173 A 
ATOM     75  C   UNL A   1      40.607  28.027  29.626  1.00  0.00     0.173 A 
ATOM     76  F   UNL A   1      40.376  29.397  26.271  1.00  0.00    -0.203 F 
ATOM     77  C   UNL A   1      38.716  29.123  27.918  1.00  0.00     0.198 A 
ATOM     78  C   UNL A   1      39.281  28.151  30.037  1.00  0.00     0.198 A 
ATOM     79  F   UNL A   1      41.502  27.514  30.484  1.00  0.00    -0.203 F 
ATOM     80  F   UNL A   1      37.819  29.700  27.108  1.00  0.00    -0.200 F 
ATOM     81  C   UNL A   1      38.339  28.710  29.187  1.00  0.00     0.200 A 
ATOM     82  F   UNL A   1      38.920  27.742  31.260  1.00  0.00    -0.200 F 
ATOM     83  F   UNL A   1      37.073  28.866  29.596  1.00  0.00    -0.200 F 
ENDBRANCH  49  73
BRANCH  61  84
ATOM     84  C   UNL A   1      46.385  32.830  28.977  1.00  0.00     0.064 A 
ATOM     85  C   UNL A   1      46.695  33.069  30.324  1.00  0.00     0.173 A 
ATOM     86  C   UNL A   1      46.230  33.943  28.135  1.00  0.00     0.173 A 
ATOM     87  F   UNL A   1      46.843  32.042  31.175  1.00  0.00    -0.203 F 
ATOM     88  C   UNL A   1      46.816  34.368  30.812  1.00  0.00     0.198 A 
ATOM     89  C   UNL A   1      46.387  35.239  28.619  1.00  0.00     0.198 A 
ATOM     90  F   UNL A   1      45.944  33.774  26.835  1.00  0.00    -0.203 F 
ATOM     91  F   UNL A   1      47.063  34.572  32.114  1.00  0.00    -0.200 F 
ATOM     92  C   UNL A   1      46.671  35.451  29.959  1.00  0.00     0.200 A 
ATOM     93  F   UNL A   1      46.264  36.283  27.787  1.00  0.00    -0.200 F 
ATOM     94  F   UNL A   1      46.798  36.700  30.429  1.00  0.00    -0.200 F 
ENDBRANCH  61  84
ENDBRANCH  35  36
ENDBRANCH  28  30
ENDBRANCH  27  28
ENDBRANCH  26  27
ENDBRANCH  25  26
ENDBRANCH  24  25
ENDBRANCH  23  24
ENDBRANCH   1  23
TORSDOF 22
ENDMDL
MODEL 2
REMARK VINA RESULT:     -10.0      7.104     12.750
REMARK SMILES CC(C)(O)CC[C@@H](C(=O)OCCOCCOCCOC(=O)c1ccc(-c2c3nc(c(-c4c(F)c(F)c(F)c(F)c4F)c4ccc([nH]4)c(-c4c(F)c(F)c(F)c(F)c4F)c4nc(c(-c5c(F)c(F)c(F)c(F)c5F)c5ccc2[nH]5)C=C4)C=C3)cc1)[C@@H]1CCS(=O)(=O)C1
REMARK SMILES IDX 14 1 13 2 12 3 11 4 10 5 8 6 9 7 7 8 6 9 5 10 2 11 1 12 3 13
REMARK SMILES IDX 4 14 85 16 86 17 91 18 87 19 88 20 89 21 90 22 15 23 16 24
REMARK SMILES IDX 17 25 18 26 19 27 20 28 21 29 22 30 23 31 84 32 24 33 83 34
REMARK SMILES IDX 25 35 26 36 27 37 77 38 28 39 82 40 76 41 78 42 29 43 81 44
REMARK SMILES IDX 75 45 74 46 30 48 62 49 42 50 61 51 43 52 46 53 60 54 79 55
REMARK SMILES IDX 44 56 45 57 59 59 80 60 47 61 31 62 32 63 40 64 33 65 34 66
REMARK SMILES IDX 38 67 41 68 35 69 36 70 39 71 37 72 63 73 64 74 72 75 65 76
REMARK SMILES IDX 66 77 70 78 73 79 67 80 68 81 71 82 69 83 48 84 49 85 57 86
REMARK SMILES IDX 50 87 51 88 55 89 58 90 52 91 53 92 56 93 54 94
REMARK H PARENT 4 15 78 47 46 58
REMARK Flexibility Score: inf
ROOT
ATOM      1  C   UNL A   1      34.483  32.645  27.993  1.00  0.00     0.188 C 
ENDROOT
BRANCH   1   2
ATOM      2  O   UNL A   1      33.625  31.514  27.921  1.00  0.00    -0.376 OA
BRANCH   2   3
ATOM      3  C   UNL A   1      33.791  30.556  26.883  1.00  0.00     0.202 C 
BRANCH   3   4
ATOM      4  C   UNL A   1      32.574  30.163  26.028  1.00  0.00     0.261 C 
BRANCH   4   5
ATOM      5  O   UNL A   1      32.727  28.977  25.218  1.00  0.00    -0.463 OA
BRANCH   5   6
ATOM      6  C   UNL A   1      31.617  28.220  25.055  1.00  0.00     0.309 C 
ATOM      7  O   UNL A   1      30.968  27.797  26.003  1.00  0.00    -0.252 OA
BRANCH   6   8
ATOM      8  C   UNL A   1      31.245  27.872  23.603  1.00  0.00     0.103 C 
BRANCH   8   9
ATOM      9  C   UNL A   1      30.101  28.613  22.849  1.00  0.00     0.018 C 
BRANCH   9  10
ATOM     10  C   UNL A   1      29.390  29.814  23.484  1.00  0.00     0.035 C 
BRANCH  10  11
ATOM     11  C   UNL A   1      28.104  30.311  22.796  1.00  0.00     0.059 C 
ATOM     12  C   UNL A   1      28.297  30.685  21.328  1.00  0.00     0.042 C 
ATOM     13  C   UNL A   1      27.563  31.521  23.567  1.00  0.00     0.042 C 
BRANCH  11  14
ATOM     14  O   UNL A   1      27.134  29.265  22.871  1.00  0.00    -0.390 OA
ATOM     15  H   UNL A   1      26.982  29.030  23.801  1.00  0.00     0.211 HD
ENDBRANCH  11  14
ENDBRANCH  10  11
ENDBRANCH   9  10
ENDBRANCH   8   9
BRANCH   8  16
ATOM     16  C   UNL A   1      31.027  26.329  23.341  1.00  0.00     0.019 C 
ATOM     17  C   UNL A   1      31.885  25.278  24.078  1.00  0.00     0.021 C 
ATOM     18  C   UNL A   1      31.279  26.013  21.855  1.00  0.00     0.141 C 
ATOM     19  C   UNL A   1      33.254  25.150  23.404  1.00  0.00     0.137 C 
ATOM     20  S   UNL A   1      33.040  25.740  21.735  1.00  0.00     0.150 S 
ATOM     21  O   UNL A   1      33.691  27.029  21.601  1.00  0.00    -0.229 OA
ATOM     22  O   UNL A   1      33.284  24.656  20.810  1.00  0.00    -0.229 OA
ENDBRANCH   8  16
ENDBRANCH   6   8
ENDBRANCH   5   6
ENDBRANCH   4   5
ENDBRANCH   3   4
ENDBRANCH   2   3
ENDBRANCH   1   2
BRANCH   1  23
ATOM     23  C   UNL A   1      34.176  33.776  28.984  1.00  0.00     0.188 C 
BRANCH  23  24
ATOM     24  O   UNL A   1      34.497  35.062  28.518  1.00  0.00    -0.376 OA
BRANCH  24  25
ATOM     25  C   UNL A   1      33.632  36.133  28.840  1.00  0.00     0.202 C 
BRANCH  25  26
ATOM     26  C   UNL A   1      32.540  35.930  29.903  1.00  0.00     0.261 C 
BRANCH  26  27
ATOM     27  O   UNL A   1      32.566  36.804  31.045  1.00  0.00    -0.460 OA
BRANCH  27  28
ATOM     28  C   UNL A   1      32.487  36.237  32.274  1.00  0.00     0.338 C 
ATOM     29  O   UNL A   1      31.548  36.281  33.042  1.00  0.00    -0.246 OA
BRANCH  28  30
ATOM     30  C   UNL A   1      33.661  35.336  32.419  1.00  0.00     0.060 A 
ATOM     31  C   UNL A   1      33.456  34.014  32.846  1.00  0.00     0.016 A 
ATOM     32  C   UNL A   1      34.946  35.777  32.102  1.00  0.00     0.016 A 
ATOM     33  C   UNL A   1      34.539  33.139  32.975  1.00  0.00     0.010 A 
ATOM     34  C   UNL A   1      36.032  34.908  32.256  1.00  0.00     0.010 A 
ATOM     35  C   UNL A   1      35.839  33.592  32.717  1.00  0.00    -0.014 A 
BRANCH  35  36
ATOM     36  C   UNL A   1      37.014  32.768  33.103  1.00  0.00     0.031 A 
ATOM     37  C   UNL A   1      37.696  33.068  34.411  1.00  0.00     0.074 A 
ATOM     38  C   UNL A   1      37.478  31.780  32.316  1.00  0.00     0.049 A 
ATOM     39  N   UNL A   1      38.793  32.564  34.915  1.00  0.00    -0.248 NA
ATOM     40  C   UNL A   1      37.049  34.077  35.264  1.00  0.00     0.031 C 
ATOM     41  C   UNL A   1      36.887  31.356  31.050  1.00  0.00     0.029 A 
ATOM     42  N   UNL A   1      38.576  30.966  32.467  1.00  0.00    -0.354 N 
ATOM     43  C   UNL A   1      38.975  33.204  36.134  1.00  0.00     0.074 A 
ATOM     44  C   UNL A   1      37.889  34.147  36.285  1.00  0.00     0.031 C 
ATOM     45  C   UNL A   1      37.641  30.372  30.526  1.00  0.00     0.029 A 
ATOM     46  C   UNL A   1      38.790  30.128  31.399  1.00  0.00     0.049 A 
ATOM     47  H   UNL A   1      39.153  30.982  33.264  1.00  0.00     0.167 HD
ATOM     48  C   UNL A   1      39.957  33.020  37.049  1.00  0.00     0.037 A 
ATOM     49  C   UNL A   1      39.815  29.288  31.142  1.00  0.00     0.037 A 
ATOM     50  C   UNL A   1      41.039  32.082  36.900  1.00  0.00     0.049 A 
ATOM     51  C   UNL A   1      40.943  29.164  32.139  1.00  0.00     0.074 A 
ATOM     52  C   UNL A   1      42.070  31.811  37.782  1.00  0.00     0.029 A 
ATOM     53  N   UNL A   1      41.235  31.269  35.794  1.00  0.00    -0.354 N 
ATOM     54  N   UNL A   1      41.097  29.753  33.300  1.00  0.00    -0.248 NA
ATOM     55  C   UNL A   1      42.044  28.254  31.786  1.00  0.00     0.031 C 
ATOM     56  C   UNL A   1      42.924  30.879  37.183  1.00  0.00     0.029 A 
ATOM     57  C   UNL A   1      42.387  30.518  35.958  1.00  0.00     0.049 A 
ATOM     58  H   UNL A   1      40.643  31.232  35.009  1.00  0.00     0.167 HD
ATOM     59  C   UNL A   1      42.285  29.260  33.829  1.00  0.00     0.074 A 
ATOM     60  C   UNL A   1      42.807  28.312  32.868  1.00  0.00     0.031 C 
ATOM     61  C   UNL A   1      42.890  29.564  35.003  1.00  0.00     0.037 A 
BRANCH  48  62
ATOM     62  C   UNL A   1      39.929  33.871  38.283  1.00  0.00     0.064 A 
ATOM     63  C   UNL A   1      40.611  35.095  38.355  1.00  0.00     0.173 A 
ATOM     64  C   UNL A   1      39.161  33.482  39.392  1.00  0.00     0.173 A 
ATOM     65  F   UNL A   1      41.371  35.505  37.328  1.00  0.00    -0.203 F 
ATOM     66  C   UNL A   1      40.543  35.887  39.498  1.00  0.00     0.198 A 
ATOM     67  C   UNL A   1      39.070  34.291  40.521  1.00  0.00     0.198 A 
ATOM     68  F   UNL A   1      38.487  32.322  39.374  1.00  0.00    -0.203 F 
ATOM     69  F   UNL A   1      41.237  37.031  39.561  1.00  0.00    -0.200 F 
ATOM     70  C   UNL A   1      39.765  35.490  40.575  1.00  0.00     0.200 A 
ATOM     71  F   UNL A   1      38.307  33.912  41.555  1.00  0.00    -0.200 F 
ATOM     72  F   UNL A   1      39.688  36.259  41.669  1.00  0.00    -0.200 F 
ENDBRANCH  48  62
BRANCH  49  73
ATOM     73  C   UNL A   1      39.852  28.513  29.872  1.00  0.00     0.064 A 
ATOM     74  C   UNL A   1      39.307  27.223  29.793  1.00  0.00     0.173 A 
ATOM     75  C   UNL A   1      40.485  29.020  28.728  1.00  0.00     0.173 A 
ATOM     76  F   UNL A   1      38.719  26.678  30.869  1.00  0.00    -0.203 F 
ATOM     77  C   UNL A   1      39.418  26.461  28.631  1.00  0.00     0.198 A 
ATOM     78  C   UNL A   1      40.565  28.272  27.554  1.00  0.00     0.198 A 
ATOM     79  F   UNL A   1      41.031  30.245  28.749  1.00  0.00    -0.203 F 
ATOM     80  F   UNL A   1      38.947  25.208  28.606  1.00  0.00    -0.200 F 
ATOM     81  C   UNL A   1      40.043  26.989  27.510  1.00  0.00     0.200 A 
ATOM     82  F   UNL A   1      41.161  28.790  26.472  1.00  0.00    -0.200 F 
ATOM     83  F   UNL A   1      40.155  26.255  26.395  1.00  0.00    -0.200 F 
ENDBRANCH  49  73
BRANCH  61  84
ATOM     84  C   UNL A   1      44.155  28.829  35.350  1.00  0.00     0.064 A 
ATOM     85  C   UNL A   1      44.141  27.615  36.053  1.00  0.00     0.173 A 
ATOM     86  C   UNL A   1      45.399  29.328  34.933  1.00  0.00     0.173 A 
ATOM     87  F   UNL A   1      42.980  27.099  36.485  1.00  0.00    -0.203 F 
ATOM     88  C   UNL A   1      45.325  26.943  36.348  1.00  0.00     0.198 A 
ATOM     89  C   UNL A   1      46.578  28.636  35.199  1.00  0.00     0.198 A 
ATOM     90  F   UNL A   1      45.472  30.480  34.249  1.00  0.00    -0.203 F 
ATOM     91  F   UNL A   1      45.290  25.810  37.064  1.00  0.00    -0.200 F 
ATOM     92  C   UNL A   1      46.541  27.449  35.914  1.00  0.00     0.200 A 
ATOM     93  F   UNL A   1      47.750  29.118  34.762  1.00  0.00    -0.200 F 
ATOM     94  F   UNL A   1      47.678  26.796  36.191  1.00  0.00    -0.200 F 
ENDBRANCH  61  84
ENDBRANCH  35  36
ENDBRANCH  28  30
ENDBRANCH  27  28
ENDBRANCH  26  27
ENDBRANCH  25  26
ENDBRANCH  24  25
ENDBRANCH  23  24
ENDBRANCH   1  23
TORSDOF 22
ENDMDL
MODEL 3
REMARK VINA RESULT:      -9.9      5.236      7.646
REMARK SMILES CC(C)(O)CC[C@@H](C(=O)OCCOCCOCCOC(=O)c1ccc(-c2c3nc(c(-c4c(F)c(F)c(F)c(F)c4F)c4ccc([nH]4)c(-c4c(F)c(F)c(F)c(F)c4F)c4nc(c(-c5c(F)c(F)c(F)c(F)c5F)c5ccc2[nH]5)C=C4)C=C3)cc1)[C@@H]1CCS(=O)(=O)C1
REMARK SMILES IDX 14 1 13 2 12 3 11 4 10 5 8 6 9 7 7 8 6 9 5 10 2 11 1 12 3 13
REMARK SMILES IDX 4 14 85 16 86 17 91 18 87 19 88 20 89 21 90 22 15 23 16 24
REMARK SMILES IDX 17 25 18 26 19 27 20 28 21 29 22 30 23 31 84 32 24 33 83 34
REMARK SMILES IDX 25 35 26 36 27 37 77 38 28 39 82 40 76 41 78 42 29 43 81 44
REMARK SMILES IDX 75 45 74 46 30 48 62 49 42 50 61 51 43 52 46 53 60 54 79 55
REMARK SMILES IDX 44 56 45 57 59 59 80 60 47 61 31 62 32 63 40 64 33 65 34 66
REMARK SMILES IDX 38 67 41 68 35 69 36 70 39 71 37 72 63 73 64 74 72 75 65 76
REMARK SMILES IDX 66 77 70 78 73 79 67 80 68 81 71 82 69 83 48 84 49 85 57 86
REMARK SMILES IDX 50 87 51 88 55 89 58 90 52 91 53 92 56 93 54 94
REMARK H PARENT 4 15 78 47 46 58
REMARK Flexibility Score: inf
ROOT
ATOM      1  C   UNL A   1      39.174  21.392  25.954  1.00  0.00     0.188 C 
ENDROOT
BRANCH   1   2
ATOM      2  O   UNL A   1      37.965  21.059  25.283  1.00  0.00    -0.376 OA
BRANCH   2   3
ATOM      3  C   UNL A   1      36.867  21.963  25.303  1.00  0.00     0.202 C 
BRANCH   3   4
ATOM      4  C   UNL A   1      36.979  23.290  24.535  1.00  0.00     0.261 C 
BRANCH   4   5
ATOM      5  O   UNL A   1      35.954  24.270  24.812  1.00  0.00    -0.463 OA
BRANCH   5   6
ATOM      6  C   UNL A   1      34.879  24.256  23.991  1.00  0.00     0.309 C 
ATOM      7  O   UNL A   1      34.984  24.148  22.775  1.00  0.00    -0.252 OA
BRANCH   6   8
ATOM      8  C   UNL A   1      33.509  24.441  24.668  1.00  0.00     0.103 C 
BRANCH   8   9
ATOM      9  C   UNL A   1      32.784  25.819  24.691  1.00  0.00     0.018 C 
BRANCH   9  10
ATOM     10  C   UNL A   1      33.473  27.079  24.152  1.00  0.00     0.035 C 
BRANCH  10  11
ATOM     11  C   UNL A   1      32.694  28.404  24.261  1.00  0.00     0.059 C 
ATOM     12  C   UNL A   1      31.587  28.382  25.314  1.00  0.00     0.042 C 
ATOM     13  C   UNL A   1      32.094  28.743  22.892  1.00  0.00     0.042 C 
BRANCH  11  14
ATOM     14  O   UNL A   1      33.625  29.432  24.607  1.00  0.00    -0.390 OA
ATOM     15  H   UNL A   1      33.235  30.299  24.417  1.00  0.00     0.211 HD
ENDBRANCH  11  14
ENDBRANCH  10  11
ENDBRANCH   9  10
ENDBRANCH   8   9
BRANCH   8  16
ATOM     16  C   UNL A   1      33.431  23.870  26.140  1.00  0.00     0.019 C 
ATOM     17  C   UNL A   1      33.312  22.350  26.387  1.00  0.00     0.021 C 
ATOM     18  C   UNL A   1      32.193  24.443  26.854  1.00  0.00     0.141 C 
ATOM     19  C   UNL A   1      31.864  21.896  26.186  1.00  0.00     0.137 C 
ATOM     20  S   UNL A   1      30.854  23.349  26.406  1.00  0.00     0.150 S 
ATOM     21  O   UNL A   1      30.339  23.767  25.116  1.00  0.00    -0.229 OA
ATOM     22  O   UNL A   1      29.995  23.165  27.554  1.00  0.00    -0.229 OA
ENDBRANCH   8  16
ENDBRANCH   6   8
ENDBRANCH   5   6
ENDBRANCH   4   5
ENDBRANCH   3   4
ENDBRANCH   2   3
ENDBRANCH   1   2
BRANCH   1  23
ATOM     23  C   UNL A   1      40.195  20.292  26.280  1.00  0.00     0.188 C 
BRANCH  23  24
ATOM     24  O   UNL A   1      41.465  20.767  26.649  1.00  0.00    -0.376 OA
BRANCH  24  25
ATOM     25  C   UNL A   1      42.607  20.092  26.161  1.00  0.00     0.202 C 
BRANCH  25  26
ATOM     26  C   UNL A   1      43.804  20.905  25.642  1.00  0.00     0.261 C 
BRANCH  26  27
ATOM     27  O   UNL A   1      43.937  22.255  26.121  1.00  0.00    -0.460 OA
BRANCH  27  28
ATOM     28  C   UNL A   1      43.466  23.253  25.333  1.00  0.00     0.338 C 
ATOM     29  O   UNL A   1      43.311  23.224  24.129  1.00  0.00    -0.246 OA
BRANCH  28  30
ATOM     30  C   UNL A   1      42.934  24.310  26.233  1.00  0.00     0.060 A 
ATOM     31  C   UNL A   1      43.525  25.583  26.211  1.00  0.00     0.016 A 
ATOM     32  C   UNL A   1      41.841  24.060  27.063  1.00  0.00     0.016 A 
ATOM     33  C   UNL A   1      43.034  26.602  27.034  1.00  0.00     0.010 A 
ATOM     34  C   UNL A   1      41.367  25.073  27.905  1.00  0.00     0.010 A 
ATOM     35  C   UNL A   1      41.976  26.341  27.915  1.00  0.00    -0.014 A 
BRANCH  35  36
ATOM     36  C   UNL A   1      41.623  27.319  28.976  1.00  0.00     0.031 A 
ATOM     37  C   UNL A   1      42.411  27.296  30.258  1.00  0.00     0.074 A 
ATOM     38  C   UNL A   1      40.622  28.206  28.821  1.00  0.00     0.049 A 
ATOM     39  N   UNL A   1      42.227  27.971  31.363  1.00  0.00    -0.248 NA
ATOM     40  C   UNL A   1      43.564  26.383  30.295  1.00  0.00     0.031 C 
ATOM     41  C   UNL A   1      39.811  28.367  27.617  1.00  0.00     0.029 A 
ATOM     42  N   UNL A   1      40.109  29.129  29.700  1.00  0.00    -0.354 N 
ATOM     43  C   UNL A   1      43.229  27.554  32.230  1.00  0.00     0.074 A 
ATOM     44  C   UNL A   1      44.005  26.553  31.532  1.00  0.00     0.031 C 
ATOM     45  C   UNL A   1      38.885  29.318  27.841  1.00  0.00     0.029 A 
ATOM     46  C   UNL A   1      39.012  29.801  29.215  1.00  0.00     0.049 A 
ATOM     47  H   UNL A   1      40.490  29.294  30.592  1.00  0.00     0.167 HD
ATOM     48  C   UNL A   1      43.483  27.970  33.494  1.00  0.00     0.037 A 
ATOM     49  C   UNL A   1      38.187  30.678  29.825  1.00  0.00     0.037 A 
ATOM     50  C   UNL A   1      42.712  28.966  34.191  1.00  0.00     0.049 A 
ATOM     51  C   UNL A   1      38.441  31.061  31.265  1.00  0.00     0.074 A 
ATOM     52  C   UNL A   1      42.906  29.467  35.466  1.00  0.00     0.029 A 
ATOM     53  N   UNL A   1      41.595  29.604  33.675  1.00  0.00    -0.354 N 
ATOM     54  N   UNL A   1      39.405  30.682  32.070  1.00  0.00    -0.248 NA
ATOM     55  C   UNL A   1      37.489  31.999  31.880  1.00  0.00     0.031 C 
ATOM     56  C   UNL A   1      41.869  30.364  35.745  1.00  0.00     0.029 A 
ATOM     57  C   UNL A   1      41.071  30.473  34.619  1.00  0.00     0.049 A 
ATOM     58  H   UNL A   1      41.229  29.462  32.773  1.00  0.00     0.167 HD
ATOM     59  C   UNL A   1      39.195  31.359  33.267  1.00  0.00     0.074 A 
ATOM     60  C   UNL A   1      38.021  32.184  33.080  1.00  0.00     0.031 C 
ATOM     61  C   UNL A   1      39.911  31.304  34.417  1.00  0.00     0.037 A 
BRANCH  48  62
ATOM     62  C   UNL A   1      44.627  27.329  34.222  1.00  0.00     0.064 A 
ATOM     63  C   UNL A   1      45.919  27.876  34.200  1.00  0.00     0.173 A 
ATOM     64  C   UNL A   1      44.415  26.179  34.998  1.00  0.00     0.173 A 
ATOM     65  F   UNL A   1      46.178  28.966  33.461  1.00  0.00    -0.203 F 
ATOM     66  C   UNL A   1      46.959  27.284  34.911  1.00  0.00     0.198 A 
ATOM     67  C   UNL A   1      45.450  25.608  35.733  1.00  0.00     0.198 A 
ATOM     68  F   UNL A   1      43.198  25.617  35.055  1.00  0.00    -0.203 F 
ATOM     69  F   UNL A   1      48.195  27.799  34.841  1.00  0.00    -0.200 F 
ATOM     70  C   UNL A   1      46.722  26.158  35.685  1.00  0.00     0.200 A 
ATOM     71  F   UNL A   1      45.216  24.528  36.490  1.00  0.00    -0.200 F 
ATOM     72  F   UNL A   1      47.721  25.597  36.380  1.00  0.00    -0.200 F 
ENDBRANCH  48  62
BRANCH  49  73
ATOM     73  C   UNL A   1      37.016  31.240  29.099  1.00  0.00     0.064 A 
ATOM     74  C   UNL A   1      36.975  32.590  28.722  1.00  0.00     0.173 A 
ATOM     75  C   UNL A   1      35.888  30.453  28.818  1.00  0.00     0.173 A 
ATOM     76  F   UNL A   1      38.014  33.393  28.997  1.00  0.00    -0.203 F 
ATOM     77  C   UNL A   1      35.843  33.138  28.121  1.00  0.00     0.198 A 
ATOM     78  C   UNL A   1      34.770  30.994  28.184  1.00  0.00     0.198 A 
ATOM     79  F   UNL A   1      35.869  29.157  29.163  1.00  0.00    -0.203 F 
ATOM     80  F   UNL A   1      35.807  34.446  27.833  1.00  0.00    -0.200 F 
ATOM     81  C   UNL A   1      34.744  32.338  27.847  1.00  0.00     0.200 A 
ATOM     82  F   UNL A   1      33.714  30.214  27.914  1.00  0.00    -0.200 F 
ATOM     83  F   UNL A   1      33.654  32.866  27.274  1.00  0.00    -0.200 F 
ENDBRANCH  49  73
BRANCH  61  84
ATOM     84  C   UNL A   1      39.485  32.195  35.550  1.00  0.00     0.064 A 
ATOM     85  C   UNL A   1      39.955  33.511  35.677  1.00  0.00     0.173 A 
ATOM     86  C   UNL A   1      38.557  31.738  36.499  1.00  0.00     0.173 A 
ATOM     87  F   UNL A   1      40.852  33.995  34.805  1.00  0.00    -0.203 F 
ATOM     88  C   UNL A   1      39.533  34.324  36.726  1.00  0.00     0.198 A 
ATOM     89  C   UNL A   1      38.111  32.566  37.526  1.00  0.00     0.198 A 
ATOM     90  F   UNL A   1      38.066  30.492  36.421  1.00  0.00    -0.203 F 
ATOM     91  F   UNL A   1      40.034  35.561  36.856  1.00  0.00    -0.200 F 
ATOM     92  C   UNL A   1      38.606  33.855  37.644  1.00  0.00     0.200 A 
ATOM     93  F   UNL A   1      37.200  32.116  38.401  1.00  0.00    -0.200 F 
ATOM     94  F   UNL A   1      38.194  34.643  38.647  1.00  0.00    -0.200 F 
ENDBRANCH  61  84
ENDBRANCH  35  36
ENDBRANCH  28  30
ENDBRANCH  27  28
ENDBRANCH  26  27
ENDBRANCH  25  26
ENDBRANCH  24  25
ENDBRANCH  23  24
ENDBRANCH   1  23
TORSDOF 22
ENDMDL
