MODEL 1
REMARK VINA RESULT:     -10.7      0.000      0.000
REMARK SMILES [NH3+][C@H](CS[C@@H]1CC(=O)N(c2ccc3ccccc3c2)C1=O)C(=O)OCCOCCOCCOC(=O)c1ccc(-c2c3nc(c(-c4c(F)c(F)c(F)c(F)c4F)c4ccc([nH]4)c(-c4c(F)c(F)c(F)c(F)c4F)c4nc(c(-c5c(F)c(F)c(F)c(F)c5F)c5ccc2[nH]5)C=C4)C=C3)cc1
REMARK SMILES IDX 28 1 27 2 26 3 25 4 24 5 22 6 23 7 2 8 1 9 3 13 4 14 5 15
REMARK SMILES IDX 6 16 20 17 7 18 9 19 21 20 8 21 10 22 11 23 19 24 12 25
REMARK SMILES IDX 18 26 13 27 17 28 14 29 16 30 15 31 29 32 30 33 31 34 32 35
REMARK SMILES IDX 33 36 34 37 35 38 36 39 37 40 98 41 38 42 97 43 39 44 40 45
REMARK SMILES IDX 41 46 91 47 42 48 96 49 90 50 92 51 43 52 95 53 89 54 88 55
REMARK SMILES IDX 44 57 76 58 56 59 75 60 57 61 60 62 74 63 93 64 58 65 59 66
REMARK SMILES IDX 73 68 94 69 61 70 45 71 46 72 54 73 47 74 48 75 52 76 55 77
REMARK SMILES IDX 49 78 50 79 53 80 51 81 77 82 78 83 86 84 79 85 80 86 84 87
REMARK SMILES IDX 87 88 81 89 82 90 85 91 83 92 62 93 63 94 71 95 64 96 65 97
REMARK SMILES IDX 69 98 72 99 66 100 67 101 70 102 68 103
REMARK H PARENT 1 10 1 11 1 12 92 56 60 67
REMARK Flexibility Score: inf
ROOT
ATOM      1  C   UNL A   1      34.690  31.964  29.056  1.00  0.00     0.188 C 
ENDROOT
BRANCH   1   2
ATOM      2  O   UNL A   1      34.587  31.650  27.677  1.00  0.00    -0.376 OA
BRANCH   2   3
ATOM      3  C   UNL A   1      33.320  31.119  27.284  1.00  0.00     0.202 C 
BRANCH   3   4
ATOM      4  C   UNL A   1      33.339  29.639  26.802  1.00  0.00     0.261 C 
BRANCH   4   5
ATOM      5  O   UNL A   1      32.072  29.094  26.314  1.00  0.00    -0.459 OA
BRANCH   5   6
ATOM      6  C   UNL A   1      32.073  28.167  25.322  1.00  0.00     0.365 C 
ATOM      7  O   UNL A   1      32.323  26.978  25.521  1.00  0.00    -0.245 OA
BRANCH   6   8
ATOM      8  C   UNL A   1      31.637  28.693  23.904  1.00  0.00     0.301 C 
BRANCH   8   9
ATOM      9  N   UNL A   1      30.658  29.799  23.996  1.00  0.00    -0.345 N 
ATOM     10  H   UNL A   1      29.962  29.700  23.257  1.00  0.00     0.345 HD
ATOM     11  H   UNL A   1      31.141  30.691  23.890  1.00  0.00     0.345 HD
ATOM     12  H   UNL A   1      30.195  29.769  24.904  1.00  0.00     0.345 HD
ENDBRANCH   8   9
BRANCH   8  13
ATOM     13  C   UNL A   1      31.357  27.702  22.712  1.00  0.00     0.147 C 
BRANCH  13  14
ATOM     14  S   UNL A   1      32.703  26.474  22.114  1.00  0.00    -0.141 SA
BRANCH  14  15
ATOM     15  C   UNL A   1      31.800  24.854  22.322  1.00  0.00     0.146 C 
ATOM     16  C   UNL A   1      30.864  24.568  23.495  1.00  0.00     0.125 C 
ATOM     17  C   UNL A   1      32.886  23.909  22.630  1.00  0.00     0.247 C 
ATOM     18  C   UNL A   1      31.609  23.559  24.359  1.00  0.00     0.235 C 
ATOM     19  N   UNL A   1      32.892  23.523  23.921  1.00  0.00    -0.250 N 
ATOM     20  O   UNL A   1      33.648  23.550  21.751  1.00  0.00    -0.273 OA
ATOM     21  O   UNL A   1      31.091  22.895  25.243  1.00  0.00    -0.274 OA
BRANCH  19  22
ATOM     22  C   UNL A   1      34.026  22.891  24.470  1.00  0.00     0.052 A 
ATOM     23  C   UNL A   1      34.255  21.523  24.397  1.00  0.00     0.027 A 
ATOM     24  C   UNL A   1      35.021  23.724  25.017  1.00  0.00     0.035 A 
ATOM     25  C   UNL A   1      35.507  21.013  24.784  1.00  0.00     0.011 A 
ATOM     26  C   UNL A   1      36.265  23.227  25.432  1.00  0.00    -0.016 A 
ATOM     27  C   UNL A   1      36.526  21.850  25.289  1.00  0.00    -0.018 A 
ATOM     28  C   UNL A   1      37.263  24.084  25.929  1.00  0.00     0.009 A 
ATOM     29  C   UNL A   1      37.806  21.371  25.630  1.00  0.00     0.009 A 
ATOM     30  C   UNL A   1      38.522  23.590  26.267  1.00  0.00     0.001 A 
ATOM     31  C   UNL A   1      38.796  22.236  26.111  1.00  0.00     0.001 A 
ENDBRANCH  19  22
ENDBRANCH  14  15
ENDBRANCH  13  14
ENDBRANCH   8  13
ENDBRANCH   6   8
ENDBRANCH   5   6
ENDBRANCH   4   5
ENDBRANCH   3   4
ENDBRANCH   2   3
ENDBRANCH   1   2
BRANCH   1  32
ATOM     32  C   UNL A   1      34.747  33.446  29.345  1.00  0.00     0.188 C 
BRANCH  32  33
ATOM     33  O   UNL A   1      34.630  34.384  28.284  1.00  0.00    -0.376 OA
BRANCH  33  34
ATOM     34  C   UNL A   1      34.111  35.657  28.681  1.00  0.00     0.202 C 
BRANCH  34  35
ATOM     35  C   UNL A   1      32.890  35.685  29.644  1.00  0.00     0.261 C 
BRANCH  35  36
ATOM     36  O   UNL A   1      33.118  36.364  30.902  1.00  0.00    -0.460 OA
BRANCH  36  37
ATOM     37  C   UNL A   1      32.767  35.676  32.025  1.00  0.00     0.338 C 
ATOM     38  O   UNL A   1      31.630  35.468  32.418  1.00  0.00    -0.246 OA
BRANCH  37  39
ATOM     39  C   UNL A   1      33.950  34.924  32.552  1.00  0.00     0.060 A 
ATOM     40  C   UNL A   1      35.209  35.546  32.466  1.00  0.00     0.016 A 
ATOM     41  C   UNL A   1      33.834  33.699  33.213  1.00  0.00     0.016 A 
ATOM     42  C   UNL A   1      36.348  34.939  33.002  1.00  0.00     0.010 A 
ATOM     43  C   UNL A   1      34.983  33.069  33.715  1.00  0.00     0.010 A 
ATOM     44  C   UNL A   1      36.250  33.669  33.579  1.00  0.00    -0.014 A 
BRANCH  44  45
ATOM     45  C   UNL A   1      37.487  32.869  33.781  1.00  0.00     0.031 A 
ATOM     46  C   UNL A   1      38.281  33.129  35.035  1.00  0.00     0.074 A 
ATOM     47  C   UNL A   1      37.879  31.914  32.920  1.00  0.00     0.049 A 
ATOM     48  N   UNL A   1      39.409  32.602  35.439  1.00  0.00    -0.248 NA
ATOM     49  C   UNL A   1      37.721  34.128  35.962  1.00  0.00     0.031 C 
ATOM     50  C   UNL A   1      37.177  31.531  31.698  1.00  0.00     0.029 A 
ATOM     51  N   UNL A   1      38.982  31.093  32.946  1.00  0.00    -0.354 N 
ATOM     52  C   UNL A   1      39.685  33.201  36.663  1.00  0.00     0.074 A 
ATOM     53  C   UNL A   1      38.636  34.161  36.917  1.00  0.00     0.031 C 
ATOM     54  C   UNL A   1      37.878  30.564  31.077  1.00  0.00     0.029 A 
ATOM     55  C   UNL A   1      39.091  30.279  31.844  1.00  0.00     0.049 A 
ATOM     56  H   UNL A   1      39.633  31.089  33.684  1.00  0.00     0.167 HD
ATOM     57  C   UNL A   1      40.715  32.962  37.508  1.00  0.00     0.037 A 
ATOM     58  C   UNL A   1      40.072  29.423  31.489  1.00  0.00     0.037 A 
ATOM     59  C   UNL A   1      41.769  32.019  37.248  1.00  0.00     0.049 A 
ATOM     60  C   UNL A   1      41.255  29.237  32.412  1.00  0.00     0.074 A 
ATOM     61  C   UNL A   1      42.865  31.711  38.034  1.00  0.00     0.029 A 
ATOM     62  N   UNL A   1      41.860  31.235  36.107  1.00  0.00    -0.354 N 
ATOM     63  N   UNL A   1      41.502  29.793  33.575  1.00  0.00    -0.248 NA
ATOM     64  C   UNL A   1      42.293  28.292  31.975  1.00  0.00     0.031 C 
ATOM     65  C   UNL A   1      43.648  30.780  37.344  1.00  0.00     0.029 A 
ATOM     66  C   UNL A   1      43.005  30.458  36.159  1.00  0.00     0.049 A 
ATOM     67  H   UNL A   1      41.206  31.231  35.371  1.00  0.00     0.167 HD
ATOM     68  C   UNL A   1      42.702  29.246  34.017  1.00  0.00     0.074 A 
ATOM     69  C   UNL A   1      43.117  28.291  33.012  1.00  0.00     0.031 C 
ATOM     70  C   UNL A   1      43.402  29.510  35.149  1.00  0.00     0.037 A 
BRANCH  57  71
ATOM     71  C   UNL A   1      40.760  33.750  38.786  1.00  0.00     0.064 A 
ATOM     72  C   UNL A   1      40.019  33.365  39.913  1.00  0.00     0.173 A 
ATOM     73  C   UNL A   1      41.583  34.881  38.898  1.00  0.00     0.173 A 
ATOM     74  F   UNL A   1      39.199  32.303  39.855  1.00  0.00    -0.203 F 
ATOM     75  C   UNL A   1      40.086  34.093  41.099  1.00  0.00     0.198 A 
ATOM     76  C   UNL A   1      41.672  35.588  40.093  1.00  0.00     0.198 A 
ATOM     77  F   UNL A   1      42.311  35.294  37.849  1.00  0.00    -0.203 F 
ATOM     78  F   UNL A   1      39.335  33.734  42.149  1.00  0.00    -0.200 F 
ATOM     79  C   UNL A   1      40.920  35.198  41.191  1.00  0.00     0.200 A 
ATOM     80  F   UNL A   1      42.489  36.647  40.184  1.00  0.00    -0.200 F 
ATOM     81  F   UNL A   1      40.995  35.888  42.336  1.00  0.00    -0.200 F 
ENDBRANCH  57  71
BRANCH  58  82
ATOM     82  C   UNL A   1      40.008  28.694  30.192  1.00  0.00     0.064 A 
ATOM     83  C   UNL A   1      39.403  27.431  30.090  1.00  0.00     0.173 A 
ATOM     84  C   UNL A   1      40.609  29.217  29.037  1.00  0.00     0.173 A 
ATOM     85  F   UNL A   1      38.844  26.868  31.172  1.00  0.00    -0.203 F 
ATOM     86  C   UNL A   1      39.433  26.709  28.898  1.00  0.00     0.198 A 
ATOM     87  C   UNL A   1      40.605  28.511  27.835  1.00  0.00     0.198 A 
ATOM     88  F   UNL A   1      41.213  30.414  29.076  1.00  0.00    -0.203 F 
ATOM     89  F   UNL A   1      38.914  25.474  28.852  1.00  0.00    -0.200 F 
ATOM     90  C   UNL A   1      40.029  27.252  27.769  1.00  0.00     0.200 A 
ATOM     91  F   UNL A   1      41.177  29.042  26.746  1.00  0.00    -0.200 F 
ATOM     92  F   UNL A   1      40.064  26.554  26.626  1.00  0.00    -0.200 F 
ENDBRANCH  58  82
BRANCH  70  93
ATOM     93  C   UNL A   1      44.668  28.729  35.374  1.00  0.00     0.064 A 
ATOM     94  C   UNL A   1      45.915  29.196  34.930  1.00  0.00     0.173 A 
ATOM     95  C   UNL A   1      44.634  27.501  36.053  1.00  0.00     0.173 A 
ATOM     96  F   UNL A   1      46.005  30.360  34.269  1.00  0.00    -0.203 F 
ATOM     97  C   UNL A   1      47.069  28.439  35.111  1.00  0.00     0.198 A 
ATOM     98  C   UNL A   1      45.796  26.766  36.268  1.00  0.00     0.198 A 
ATOM     99  F   UNL A   1      43.472  27.014  36.514  1.00  0.00    -0.203 F 
ATOM    100  F   UNL A   1      48.237  28.871  34.612  1.00  0.00    -0.200 F 
ATOM    101  C   UNL A   1      47.010  27.227  35.784  1.00  0.00     0.200 A 
ATOM    102  F   UNL A   1      45.740  25.606  36.937  1.00  0.00    -0.200 F 
ATOM    103  F   UNL A   1      48.122  26.500  35.956  1.00  0.00    -0.200 F 
ENDBRANCH  70  93
ENDBRANCH  44  45
ENDBRANCH  37  39
ENDBRANCH  36  37
ENDBRANCH  35  36
ENDBRANCH  34  35
ENDBRANCH  33  34
ENDBRANCH  32  33
ENDBRANCH   1  32
TORSDOF 22
ENDMDL
MODEL 2
REMARK VINA RESULT:     -10.7      6.417     11.699
REMARK SMILES [NH3+][C@H](CS[C@@H]1CC(=O)N(c2ccc3ccccc3c2)C1=O)C(=O)OCCOCCOCCOC(=O)c1ccc(-c2c3nc(c(-c4c(F)c(F)c(F)c(F)c4F)c4ccc([nH]4)c(-c4c(F)c(F)c(F)c(F)c4F)c4nc(c(-c5c(F)c(F)c(F)c(F)c5F)c5ccc2[nH]5)C=C4)C=C3)cc1
REMARK SMILES IDX 28 1 27 2 26 3 25 4 24 5 22 6 23 7 2 8 1 9 3 13 4 14 5 15
REMARK SMILES IDX 6 16 20 17 7 18 9 19 21 20 8 21 10 22 11 23 19 24 12 25
REMARK SMILES IDX 18 26 13 27 17 28 14 29 16 30 15 31 29 32 30 33 31 34 32 35
REMARK SMILES IDX 33 36 34 37 35 38 36 39 37 40 98 41 38 42 97 43 39 44 40 45
REMARK SMILES IDX 41 46 91 47 42 48 96 49 90 50 92 51 43 52 95 53 89 54 88 55
REMARK SMILES IDX 44 57 76 58 56 59 75 60 57 61 60 62 74 63 93 64 58 65 59 66
REMARK SMILES IDX 73 68 94 69 61 70 45 71 46 72 54 73 47 74 48 75 52 76 55 77
REMARK SMILES IDX 49 78 50 79 53 80 51 81 77 82 78 83 86 84 79 85 80 86 84 87
REMARK SMILES IDX 87 88 81 89 82 90 85 91 83 92 62 93 63 94 71 95 64 96 65 97
REMARK SMILES IDX 69 98 72 99 66 100 67 101 70 102 68 103
REMARK H PARENT 1 10 1 11 1 12 92 56 60 67
REMARK Flexibility Score: inf
ROOT
ATOM      1  C   UNL A   1      41.111  21.794  26.162  1.00  0.00     0.188 C 
ENDROOT
BRANCH   1   2
ATOM      2  O   UNL A   1      40.046  22.514  26.762  1.00  0.00    -0.376 OA
BRANCH   2   3
ATOM      3  C   UNL A   1      38.777  22.329  26.132  1.00  0.00     0.202 C 
BRANCH   3   4
ATOM      4  C   UNL A   1      37.917  23.617  25.977  1.00  0.00     0.261 C 
BRANCH   4   5
ATOM      5  O   UNL A   1      36.552  23.435  25.482  1.00  0.00    -0.459 OA
BRANCH   5   6
ATOM      6  C   UNL A   1      36.290  22.467  24.566  1.00  0.00     0.365 C 
ATOM      7  O   UNL A   1      36.750  22.485  23.425  1.00  0.00    -0.245 OA
BRANCH   6   8
ATOM      8  C   UNL A   1      35.430  21.256  25.090  1.00  0.00     0.301 C 
BRANCH   8   9
ATOM      9  N   UNL A   1      36.174  19.978  25.034  1.00  0.00    -0.345 N 
ATOM     10  H   UNL A   1      36.782  19.974  24.216  1.00  0.00     0.345 HD
ATOM     11  H   UNL A   1      35.514  19.203  24.970  1.00  0.00     0.345 HD
ATOM     12  H   UNL A   1      36.738  19.876  25.877  1.00  0.00     0.345 HD
ENDBRANCH   8   9
BRANCH   8  13
ATOM     13  C   UNL A   1      33.905  21.115  24.724  1.00  0.00     0.147 C 
BRANCH  13  14
ATOM     14  S   UNL A   1      32.629  22.432  25.284  1.00  0.00    -0.141 SA
BRANCH  14  15
ATOM     15  C   UNL A   1      32.132  23.146  23.632  1.00  0.00     0.146 C 
ATOM     16  C   UNL A   1      33.136  23.459  22.525  1.00  0.00     0.125 C 
ATOM     17  C   UNL A   1      31.705  24.511  23.978  1.00  0.00     0.247 C 
ATOM     18  C   UNL A   1      33.204  24.980  22.470  1.00  0.00     0.235 C 
ATOM     19  N   UNL A   1      32.584  25.450  23.580  1.00  0.00    -0.250 N 
ATOM     20  O   UNL A   1      30.645  24.690  24.550  1.00  0.00    -0.273 OA
ATOM     21  O   UNL A   1      33.695  25.614  21.550  1.00  0.00    -0.274 OA
BRANCH  19  22
ATOM     22  C   UNL A   1      32.511  26.759  24.099  1.00  0.00     0.052 A 
ATOM     23  C   UNL A   1      31.470  27.637  23.827  1.00  0.00     0.027 A 
ATOM     24  C   UNL A   1      33.498  27.135  25.030  1.00  0.00     0.035 A 
ATOM     25  C   UNL A   1      31.375  28.839  24.551  1.00  0.00     0.011 A 
ATOM     26  C   UNL A   1      33.431  28.341  25.742  1.00  0.00    -0.016 A 
ATOM     27  C   UNL A   1      32.336  29.199  25.521  1.00  0.00    -0.018 A 
ATOM     28  C   UNL A   1      34.401  28.674  26.705  1.00  0.00     0.009 A 
ATOM     29  C   UNL A   1      32.231  30.368  26.299  1.00  0.00     0.009 A 
ATOM     30  C   UNL A   1      34.284  29.839  27.461  1.00  0.00     0.001 A 
ATOM     31  C   UNL A   1      33.196  30.682  27.263  1.00  0.00     0.001 A 
ENDBRANCH  19  22
ENDBRANCH  14  15
ENDBRANCH  13  14
ENDBRANCH   8  13
ENDBRANCH   6   8
ENDBRANCH   5   6
ENDBRANCH   4   5
ENDBRANCH   3   4
ENDBRANCH   2   3
ENDBRANCH   1   2
BRANCH   1  32
ATOM     32  C   UNL A   1      41.932  20.986  27.141  1.00  0.00     0.188 C 
BRANCH  32  33
ATOM     33  O   UNL A   1      41.650  19.608  27.341  1.00  0.00    -0.376 OA
BRANCH  33  34
ATOM     34  C   UNL A   1      42.703  18.729  26.934  1.00  0.00     0.202 C 
BRANCH  34  35
ATOM     35  C   UNL A   1      43.059  18.658  25.421  1.00  0.00     0.261 C 
BRANCH  35  36
ATOM     36  O   UNL A   1      44.460  18.852  25.112  1.00  0.00    -0.460 OA
BRANCH  36  37
ATOM     37  C   UNL A   1      44.739  19.789  24.162  1.00  0.00     0.338 C 
ATOM     38  O   UNL A   1      44.663  19.636  22.953  1.00  0.00    -0.246 OA
BRANCH  37  39
ATOM     39  C   UNL A   1      44.841  21.141  24.796  1.00  0.00     0.060 A 
ATOM     40  C   UNL A   1      44.342  22.241  24.072  1.00  0.00     0.016 A 
ATOM     41  C   UNL A   1      45.304  21.333  26.100  1.00  0.00     0.016 A 
ATOM     42  C   UNL A   1      44.335  23.523  24.628  1.00  0.00     0.010 A 
ATOM     43  C   UNL A   1      45.336  22.626  26.643  1.00  0.00     0.010 A 
ATOM     44  C   UNL A   1      44.886  23.732  25.895  1.00  0.00    -0.014 A 
BRANCH  44  45
ATOM     45  C   UNL A   1      45.238  25.115  26.311  1.00  0.00     0.031 A 
ATOM     46  C   UNL A   1      44.132  25.970  26.876  1.00  0.00     0.074 A 
ATOM     47  C   UNL A   1      46.493  25.594  26.242  1.00  0.00     0.049 A 
ATOM     48  N   UNL A   1      44.157  27.214  27.280  1.00  0.00    -0.248 NA
ATOM     49  C   UNL A   1      42.814  25.325  26.998  1.00  0.00     0.031 C 
ATOM     50  C   UNL A   1      47.659  24.856  25.764  1.00  0.00     0.029 A 
ATOM     51  N   UNL A   1      46.990  26.832  26.574  1.00  0.00    -0.354 N 
ATOM     52  C   UNL A   1      42.863  27.495  27.706  1.00  0.00     0.074 A 
ATOM     53  C   UNL A   1      42.069  26.311  27.472  1.00  0.00     0.031 C 
ATOM     54  C   UNL A   1      48.735  25.663  25.810  1.00  0.00     0.029 A 
ATOM     55  C   UNL A   1      48.328  26.982  26.297  1.00  0.00     0.049 A 
ATOM     56  H   UNL A   1      46.441  27.544  26.972  1.00  0.00     0.167 HD
ATOM     57  C   UNL A   1      42.383  28.634  28.257  1.00  0.00     0.037 A 
ATOM     58  C   UNL A   1      49.121  28.068  26.403  1.00  0.00     0.037 A 
ATOM     59  C   UNL A   1      43.169  29.818  28.474  1.00  0.00     0.049 A 
ATOM     60  C   UNL A   1      48.539  29.355  26.944  1.00  0.00     0.074 A 
ATOM     61  C   UNL A   1      42.775  31.029  29.014  1.00  0.00     0.029 A 
ATOM     62  N   UNL A   1      44.513  29.941  28.153  1.00  0.00    -0.354 N 
ATOM     63  N   UNL A   1      47.321  29.608  27.360  1.00  0.00    -0.248 NA
ATOM     64  C   UNL A   1      49.449  30.506  27.038  1.00  0.00     0.031 C 
ATOM     65  C   UNL A   1      43.867  31.902  28.971  1.00  0.00     0.029 A 
ATOM     66  C   UNL A   1      44.959  31.214  28.465  1.00  0.00     0.049 A 
ATOM     67  H   UNL A   1      45.068  29.227  27.763  1.00  0.00     0.167 HD
ATOM     68  C   UNL A   1      47.328  30.931  27.789  1.00  0.00     0.074 A 
ATOM     69  C   UNL A   1      48.680  31.418  27.612  1.00  0.00     0.031 C 
ATOM     70  C   UNL A   1      46.310  31.680  28.283  1.00  0.00     0.037 A 
BRANCH  57  71
ATOM     71  C   UNL A   1      40.933  28.657  28.646  1.00  0.00     0.064 A 
ATOM     72  C   UNL A   1      40.511  28.305  29.937  1.00  0.00     0.173 A 
ATOM     73  C   UNL A   1      39.956  29.074  27.729  1.00  0.00     0.173 A 
ATOM     74  F   UNL A   1      41.402  27.880  30.846  1.00  0.00    -0.203 F 
ATOM     75  C   UNL A   1      39.164  28.352  30.290  1.00  0.00     0.198 A 
ATOM     76  C   UNL A   1      38.615  29.150  28.094  1.00  0.00     0.198 A 
ATOM     77  F   UNL A   1      40.304  29.419  26.480  1.00  0.00    -0.203 F 
ATOM     78  F   UNL A   1      38.780  27.968  31.514  1.00  0.00    -0.200 F 
ATOM     79  C   UNL A   1      38.219  28.784  29.371  1.00  0.00     0.200 A 
ATOM     80  F   UNL A   1      37.704  29.580  27.209  1.00  0.00    -0.200 F 
ATOM     81  F   UNL A   1      36.926  28.842  29.717  1.00  0.00    -0.200 F 
ENDBRANCH  57  71
BRANCH  58  82
ATOM     82  C   UNL A   1      50.545  28.012  25.967  1.00  0.00     0.064 A 
ATOM     83  C   UNL A   1      50.897  28.052  24.609  1.00  0.00     0.173 A 
ATOM     84  C   UNL A   1      51.582  27.852  26.898  1.00  0.00     0.173 A 
ATOM     85  F   UNL A   1      49.943  28.170  23.673  1.00  0.00    -0.203 F 
ATOM     86  C   UNL A   1      52.222  27.900  24.201  1.00  0.00     0.198 A 
ATOM     87  C   UNL A   1      52.910  27.737  26.492  1.00  0.00     0.198 A 
ATOM     88  F   UNL A   1      51.305  27.793  28.210  1.00  0.00    -0.203 F 
ATOM     89  F   UNL A   1      52.518  27.866  22.894  1.00  0.00    -0.200 F 
ATOM     90  C   UNL A   1      53.228  27.748  25.143  1.00  0.00     0.200 A 
ATOM     91  F   UNL A   1      53.879  27.597  27.406  1.00  0.00    -0.200 F 
ATOM     92  F   UNL A   1      54.500  27.593  24.749  1.00  0.00    -0.200 F 
ENDBRANCH  58  82
BRANCH  70  93
ATOM     93  C   UNL A   1      46.631  33.091  28.697  1.00  0.00     0.064 A 
ATOM     94  C   UNL A   1      46.543  34.165  27.798  1.00  0.00     0.173 A 
ATOM     95  C   UNL A   1      47.022  33.373  30.015  1.00  0.00     0.173 A 
ATOM     96  F   UNL A   1      46.181  33.952  26.524  1.00  0.00    -0.203 F 
ATOM     97  C   UNL A   1      46.884  35.457  28.190  1.00  0.00     0.198 A 
ATOM     98  C   UNL A   1      47.323  34.672  30.414  1.00  0.00     0.198 A 
ATOM     99  F   UNL A   1      47.107  32.387  30.922  1.00  0.00    -0.203 F 
ATOM    100  F   UNL A   1      46.863  36.454  27.293  1.00  0.00    -0.200 F 
ATOM    101  C   UNL A   1      47.269  35.710  29.498  1.00  0.00     0.200 A 
ATOM    102  F   UNL A   1      47.674  34.918  31.684  1.00  0.00    -0.200 F 
ATOM    103  F   UNL A   1      47.598  36.954  29.872  1.00  0.00    -0.200 F 
ENDBRANCH  70  93
ENDBRANCH  44  45
ENDBRANCH  37  39
ENDBRANCH  36  37
ENDBRANCH  35  36
ENDBRANCH  34  35
ENDBRANCH  33  34
ENDBRANCH  32  33
ENDBRANCH   1  32
TORSDOF 22
ENDMDL
MODEL 3
REMARK VINA RESULT:     -10.7      1.172      2.388
REMARK SMILES [NH3+][C@H](CS[C@@H]1CC(=O)N(c2ccc3ccccc3c2)C1=O)C(=O)OCCOCCOCCOC(=O)c1ccc(-c2c3nc(c(-c4c(F)c(F)c(F)c(F)c4F)c4ccc([nH]4)c(-c4c(F)c(F)c(F)c(F)c4F)c4nc(c(-c5c(F)c(F)c(F)c(F)c5F)c5ccc2[nH]5)C=C4)C=C3)cc1
REMARK SMILES IDX 28 1 27 2 26 3 25 4 24 5 22 6 23 7 2 8 1 9 3 13 4 14 5 15
REMARK SMILES IDX 6 16 20 17 7 18 9 19 21 20 8 21 10 22 11 23 19 24 12 25
REMARK SMILES IDX 18 26 13 27 17 28 14 29 16 30 15 31 29 32 30 33 31 34 32 35
REMARK SMILES IDX 33 36 34 37 35 38 36 39 37 40 98 41 38 42 97 43 39 44 40 45
REMARK SMILES IDX 41 46 91 47 42 48 96 49 90 50 92 51 43 52 95 53 89 54 88 55
REMARK SMILES IDX 44 57 76 58 56 59 75 60 57 61 60 62 74 63 93 64 58 65 59 66
REMARK SMILES IDX 73 68 94 69 61 70 45 71 46 72 54 73 47 74 48 75 52 76 55 77
REMARK SMILES IDX 49 78 50 79 53 80 51 81 77 82 78 83 86 84 79 85 80 86 84 87
REMARK SMILES IDX 87 88 81 89 82 90 85 91 83 92 62 93 63 94 71 95 64 96 65 97
REMARK SMILES IDX 69 98 72 99 66 100 67 101 70 102 68 103
REMARK H PARENT 1 10 1 11 1 12 92 56 60 67
REMARK Flexibility Score: inf
ROOT
ATOM      1  C   UNL A   1      34.688  32.842  29.354  1.00  0.00     0.188 C 
ENDROOT
BRANCH   1   2
ATOM      2  O   UNL A   1      34.340  31.906  28.346  1.00  0.00    -0.376 OA
BRANCH   2   3
ATOM      3  C   UNL A   1      35.289  30.854  28.161  1.00  0.00     0.202 C 
BRANCH   3   4
ATOM      4  C   UNL A   1      34.806  29.669  27.275  1.00  0.00     0.261 C 
BRANCH   4   5
ATOM      5  O   UNL A   1      33.867  29.997  26.202  1.00  0.00    -0.459 OA
BRANCH   5   6
ATOM      6  C   UNL A   1      32.627  29.441  26.197  1.00  0.00     0.365 C 
ATOM      7  O   UNL A   1      31.829  29.581  27.123  1.00  0.00    -0.245 OA
BRANCH   6   8
ATOM      8  C   UNL A   1      32.235  28.678  24.876  1.00  0.00     0.301 C 
BRANCH   8   9
ATOM      9  N   UNL A   1      30.884  29.049  24.399  1.00  0.00    -0.345 N 
ATOM     10  H   UNL A   1      30.181  28.613  24.996  1.00  0.00     0.345 HD
ATOM     11  H   UNL A   1      30.761  28.725  23.440  1.00  0.00     0.345 HD
ATOM     12  H   UNL A   1      30.777  30.062  24.433  1.00  0.00     0.345 HD
ENDBRANCH   8   9
BRANCH   8  13
ATOM     13  C   UNL A   1      32.578  27.154  24.678  1.00  0.00     0.147 C 
BRANCH  13  14
ATOM     14  S   UNL A   1      31.650  26.095  23.376  1.00  0.00    -0.141 SA
BRANCH  14  15
ATOM     15  C   UNL A   1      30.673  24.964  24.495  1.00  0.00     0.146 C 
ATOM     16  C   UNL A   1      30.828  24.960  26.014  1.00  0.00     0.125 C 
ATOM     17  C   UNL A   1      31.225  23.636  24.182  1.00  0.00     0.247 C 
ATOM     18  C   UNL A   1      31.541  23.654  26.337  1.00  0.00     0.235 C 
ATOM     19  N   UNL A   1      32.005  23.149  25.167  1.00  0.00    -0.250 N 
ATOM     20  O   UNL A   1      30.944  23.092  23.129  1.00  0.00    -0.273 OA
ATOM     21  O   UNL A   1      31.615  23.167  27.454  1.00  0.00    -0.274 OA
BRANCH  19  22
ATOM     22  C   UNL A   1      32.866  22.061  24.920  1.00  0.00     0.052 A 
ATOM     23  C   UNL A   1      34.190  22.018  25.339  1.00  0.00     0.027 A 
ATOM     24  C   UNL A   1      32.302  20.921  24.316  1.00  0.00     0.035 A 
ATOM     25  C   UNL A   1      34.908  20.813  25.233  1.00  0.00     0.011 A 
ATOM     26  C   UNL A   1      33.013  19.719  24.180  1.00  0.00    -0.016 A 
ATOM     27  C   UNL A   1      34.331  19.652  24.671  1.00  0.00    -0.018 A 
ATOM     28  C   UNL A   1      32.413  18.578  23.619  1.00  0.00     0.009 A 
ATOM     29  C   UNL A   1      35.009  18.420  24.608  1.00  0.00     0.009 A 
ATOM     30  C   UNL A   1      33.102  17.368  23.559  1.00  0.00     0.001 A 
ATOM     31  C   UNL A   1      34.397  17.287  24.059  1.00  0.00     0.001 A 
ENDBRANCH  19  22
ENDBRANCH  14  15
ENDBRANCH  13  14
ENDBRANCH   8  13
ENDBRANCH   6   8
ENDBRANCH   5   6
ENDBRANCH   4   5
ENDBRANCH   3   4
ENDBRANCH   2   3
ENDBRANCH   1   2
BRANCH   1  32
ATOM     32  C   UNL A   1      35.347  34.095  28.825  1.00  0.00     0.188 C 
BRANCH  32  33
ATOM     33  O   UNL A   1      34.654  34.934  27.911  1.00  0.00    -0.376 OA
BRANCH  33  34
ATOM     34  C   UNL A   1      34.082  36.103  28.507  1.00  0.00     0.202 C 
BRANCH  34  35
ATOM     35  C   UNL A   1      32.888  35.920  29.487  1.00  0.00     0.261 C 
BRANCH  35  36
ATOM     36  O   UNL A   1      33.087  36.483  30.805  1.00  0.00    -0.460 OA
BRANCH  36  37
ATOM     37  C   UNL A   1      32.692  35.705  31.854  1.00  0.00     0.338 C 
ATOM     38  O   UNL A   1      31.540  35.433  32.155  1.00  0.00    -0.246 OA
BRANCH  37  39
ATOM     39  C   UNL A   1      33.865  34.956  32.403  1.00  0.00     0.060 A 
ATOM     40  C   UNL A   1      35.133  35.559  32.295  1.00  0.00     0.016 A 
ATOM     41  C   UNL A   1      33.735  33.755  33.104  1.00  0.00     0.016 A 
ATOM     42  C   UNL A   1      36.265  34.955  32.849  1.00  0.00     0.010 A 
ATOM     43  C   UNL A   1      34.878  33.128  33.626  1.00  0.00     0.010 A 
ATOM     44  C   UNL A   1      36.152  33.707  33.468  1.00  0.00    -0.014 A 
BRANCH  44  45
ATOM     45  C   UNL A   1      37.378  32.899  33.694  1.00  0.00     0.031 A 
ATOM     46  C   UNL A   1      38.155  33.160  34.960  1.00  0.00     0.074 A 
ATOM     47  C   UNL A   1      37.777  31.935  32.846  1.00  0.00     0.049 A 
ATOM     48  N   UNL A   1      39.271  32.626  35.386  1.00  0.00    -0.248 NA
ATOM     49  C   UNL A   1      37.587  34.169  35.871  1.00  0.00     0.031 C 
ATOM     50  C   UNL A   1      37.092  31.550  31.615  1.00  0.00     0.029 A 
ATOM     51  N   UNL A   1      38.873  31.106  32.895  1.00  0.00    -0.354 N 
ATOM     52  C   UNL A   1      39.533  33.231  36.610  1.00  0.00     0.074 A 
ATOM     53  C   UNL A   1      38.487  34.200  36.841  1.00  0.00     0.031 C 
ATOM     54  C   UNL A   1      37.795  30.574  31.011  1.00  0.00     0.029 A 
ATOM     55  C   UNL A   1      38.993  30.284  31.799  1.00  0.00     0.049 A 
ATOM     56  H   UNL A   1      39.512  31.101  33.643  1.00  0.00     0.167 HD
ATOM     57  C   UNL A   1      40.547  32.988  37.473  1.00  0.00     0.037 A 
ATOM     58  C   UNL A   1      39.973  29.419  31.466  1.00  0.00     0.037 A 
ATOM     59  C   UNL A   1      41.597  32.036  37.236  1.00  0.00     0.049 A 
ATOM     60  C   UNL A   1      41.139  29.229  32.409  1.00  0.00     0.074 A 
ATOM     61  C   UNL A   1      42.678  31.723  38.041  1.00  0.00     0.029 A 
ATOM     62  N   UNL A   1      41.700  31.244  36.101  1.00  0.00    -0.354 N 
ATOM     63  N   UNL A   1      41.372  29.790  33.572  1.00  0.00    -0.248 NA
ATOM     64  C   UNL A   1      42.177  28.273  31.994  1.00  0.00     0.031 C 
ATOM     65  C   UNL A   1      43.464  30.782  37.369  1.00  0.00     0.029 A 
ATOM     66  C   UNL A   1      42.838  30.458  36.176  1.00  0.00     0.049 A 
ATOM     67  H   UNL A   1      41.059  31.241  35.355  1.00  0.00     0.167 HD
ATOM     68  C   UNL A   1      42.560  29.236  34.036  1.00  0.00     0.074 A 
ATOM     69  C   UNL A   1      42.984  28.272  33.044  1.00  0.00     0.031 C 
ATOM     70  C   UNL A   1      43.244  29.502  35.178  1.00  0.00     0.037 A 
BRANCH  57  71
ATOM     71  C   UNL A   1      40.577  33.783  38.747  1.00  0.00     0.064 A 
ATOM     72  C   UNL A   1      41.349  34.948  38.870  1.00  0.00     0.173 A 
ATOM     73  C   UNL A   1      39.794  33.397  39.846  1.00  0.00     0.173 A 
ATOM     74  F   UNL A   1      42.132  35.351  37.856  1.00  0.00    -0.203 F 
ATOM     75  C   UNL A   1      41.350  35.687  40.051  1.00  0.00     0.198 A 
ATOM     76  C   UNL A   1      39.773  34.155  41.013  1.00  0.00     0.198 A 
ATOM     77  F   UNL A   1      39.039  32.290  39.783  1.00  0.00    -0.203 F 
ATOM     78  F   UNL A   1      42.130  36.771  40.161  1.00  0.00    -0.200 F 
ATOM     79  C   UNL A   1      40.555  35.295  41.117  1.00  0.00     0.200 A 
ATOM     80  F   UNL A   1      38.994  33.782  42.038  1.00  0.00    -0.200 F 
ATOM     81  F   UNL A   1      40.546  36.015  42.247  1.00  0.00    -0.200 F 
ENDBRANCH  57  71
BRANCH  58  82
ATOM     82  C   UNL A   1      39.924  28.682  30.172  1.00  0.00     0.064 A 
ATOM     83  C   UNL A   1      39.349  27.405  30.076  1.00  0.00     0.173 A 
ATOM     84  C   UNL A   1      40.511  29.213  29.013  1.00  0.00     0.173 A 
ATOM     85  F   UNL A   1      38.804  26.834  31.161  1.00  0.00    -0.203 F 
ATOM     86  C   UNL A   1      39.394  26.679  28.887  1.00  0.00     0.198 A 
ATOM     87  C   UNL A   1      40.522  28.502  27.814  1.00  0.00     0.198 A 
ATOM     88  F   UNL A   1      41.088  30.424  29.047  1.00  0.00    -0.203 F 
ATOM     89  F   UNL A   1      38.904  25.432  28.847  1.00  0.00    -0.200 F 
ATOM     90  C   UNL A   1      39.975  27.230  27.755  1.00  0.00     0.200 A 
ATOM     91  F   UNL A   1      41.080  29.042  26.722  1.00  0.00    -0.200 F 
ATOM     92  F   UNL A   1      40.025  26.527  26.615  1.00  0.00    -0.200 F 
ENDBRANCH  58  82
BRANCH  70  93
ATOM     93  C   UNL A   1      44.500  28.712  35.428  1.00  0.00     0.064 A 
ATOM     94  C   UNL A   1      44.480  27.485  36.110  1.00  0.00     0.173 A 
ATOM     95  C   UNL A   1      45.739  29.183  34.969  1.00  0.00     0.173 A 
ATOM     96  F   UNL A   1      43.323  26.990  36.577  1.00  0.00    -0.203 F 
ATOM     97  C   UNL A   1      45.657  26.789  36.367  1.00  0.00     0.198 A 
ATOM     98  C   UNL A   1      46.910  28.465  35.193  1.00  0.00     0.198 A 
ATOM     99  F   UNL A   1      45.816  30.342  34.297  1.00  0.00    -0.203 F 
ATOM    100  F   UNL A   1      45.621  25.657  37.086  1.00  0.00    -0.200 F 
ATOM    101  C   UNL A   1      46.871  27.276  35.905  1.00  0.00     0.200 A 
ATOM    102  F   UNL A   1      48.078  28.927  34.727  1.00  0.00    -0.200 F 
ATOM    103  F   UNL A   1      48.003  26.605  36.155  1.00  0.00    -0.200 F 
ENDBRANCH  70  93
ENDBRANCH  44  45
ENDBRANCH  37  39
ENDBRANCH  36  37
ENDBRANCH  35  36
ENDBRANCH  34  35
ENDBRANCH  33  34
ENDBRANCH  32  33
ENDBRANCH   1  32
TORSDOF 22
ENDMDL
