MODEL 1
REMARK VINA RESULT:      -9.1      0.000      0.000
REMARK SMILES COc1cc([C@@H]2[NH2+][C@H](C(=O)OCCOCCOCCOC(=O)c3ccc(-c4c5nc(c(-c6c(F)c(F)c(F)c(F)c6F)c6ccc([nH]6)c(-c6c(F)c(F)c(F)c(F)c6F)c6nc(c(-c7c(F)c(F)c(F)c(F)c7F)c7ccc4[nH]7)C=C6)C=C5)cc3)CS2)ccc1OCc1ccc(Cl)cc1
REMARK SMILES IDX 15 1 14 2 13 3 12 4 11 5 9 6 10 7 8 8 6 9 7 10 87 11 86 14
REMARK SMILES IDX 5 15 3 16 4 17 90 18 89 19 88 20 2 21 1 22 91 23 92 24 93 25
REMARK SMILES IDX 94 26 99 27 95 28 98 29 96 30 97 31 16 32 17 33 18 34 19 35
REMARK SMILES IDX 20 36 21 37 22 38 23 39 24 40 85 41 25 42 84 43 26 44 27 45
REMARK SMILES IDX 28 46 78 47 29 48 83 49 77 50 79 51 30 52 82 53 76 54 75 55
REMARK SMILES IDX 31 57 63 58 43 59 62 60 44 61 47 62 61 63 80 64 45 65 46 66
REMARK SMILES IDX 60 68 81 69 48 70 32 71 33 72 41 73 34 74 35 75 39 76 42 77
REMARK SMILES IDX 36 78 37 79 40 80 38 81 64 82 65 83 73 84 66 85 67 86 71 87
REMARK SMILES IDX 74 88 68 89 69 90 72 91 70 92 49 93 50 94 58 95 51 96 52 97
REMARK SMILES IDX 56 98 59 99 53 100 54 101 57 102 55 103
REMARK H PARENT 7 12 7 13 79 56 47 67
REMARK Flexibility Score: inf
ROOT
ATOM      1  C   UNL A   1      33.193  30.141  27.077  1.00  0.00     0.188 C 
ENDROOT
BRANCH   1   2
ATOM      2  O   UNL A   1      33.124  29.897  25.675  1.00  0.00    -0.376 OA
BRANCH   2   3
ATOM      3  C   UNL A   1      32.539  28.687  25.216  1.00  0.00     0.202 C 
BRANCH   3   4
ATOM      4  C   UNL A   1      33.189  28.044  23.989  1.00  0.00     0.261 C 
BRANCH   4   5
ATOM      5  O   UNL A   1      32.253  27.423  23.085  1.00  0.00    -0.459 OA
BRANCH   5   6
ATOM      6  C   UNL A   1      32.768  26.667  22.084  1.00  0.00     0.365 C 
ATOM      7  O   UNL A   1      33.666  27.041  21.335  1.00  0.00    -0.245 OA
BRANCH   6   8
ATOM      8  C   UNL A   1      32.106  25.291  21.891  1.00  0.00     0.304 C 
ATOM      9  C   UNL A   1      32.802  23.183  22.924  1.00  0.00     0.274 C 
ATOM     10  N   UNL A   1      33.015  24.120  21.815  1.00  0.00    -0.319 N 
ATOM     11  S   UNL A   1      31.297  23.607  23.818  1.00  0.00    -0.087 SA
ATOM     12  H   UNL A   1      32.850  23.632  20.935  1.00  0.00     0.348 HD
ATOM     13  H   UNL A   1      33.975  24.463  21.873  1.00  0.00     0.348 HD
ATOM     14  C   UNL A   1      30.988  25.129  22.908  1.00  0.00     0.153 C 
BRANCH   9  15
ATOM     15  C   UNL A   1      34.023  23.061  23.818  1.00  0.00     0.024 A 
ATOM     16  C   UNL A   1      35.041  22.707  26.027  1.00  0.00     0.161 A 
ATOM     17  C   UNL A   1      33.902  22.818  25.204  1.00  0.00     0.061 A 
ATOM     18  C   UNL A   1      36.316  22.815  25.464  1.00  0.00     0.161 A 
ATOM     19  C   UNL A   1      36.437  23.003  24.086  1.00  0.00     0.051 A 
ATOM     20  C   UNL A   1      35.313  23.154  23.282  1.00  0.00     0.015 A 
BRANCH  16  21
ATOM     21  O   UNL A   1      34.906  22.373  27.349  1.00  0.00    -0.493 OA
ATOM     22  C   UNL A   1      33.578  21.998  27.714  1.00  0.00     0.278 C 
ENDBRANCH  16  21
BRANCH  18  23
ATOM     23  O   UNL A   1      37.528  22.830  26.096  1.00  0.00    -0.485 OA
BRANCH  23  24
ATOM     24  C   UNL A   1      38.165  24.073  26.393  1.00  0.00     0.265 C 
BRANCH  24  25
ATOM     25  C   UNL A   1      39.474  24.049  27.173  1.00  0.00    -0.011 A 
ATOM     26  C   UNL A   1      40.263  22.901  27.340  1.00  0.00     0.009 A 
ATOM     27  C   UNL A   1      39.934  25.255  27.731  1.00  0.00     0.009 A 
ATOM     28  C   UNL A   1      41.518  22.974  27.950  1.00  0.00     0.021 A 
ATOM     29  C   UNL A   1      41.177  25.325  28.366  1.00  0.00     0.021 A 
ATOM     30  C   UNL A   1      41.975  24.188  28.450  1.00  0.00     0.041 A 
ATOM     31  Cl  UNL A   1      43.535  24.285  29.167  1.00  0.00    -0.084 Cl
ENDBRANCH  24  25
ENDBRANCH  23  24
ENDBRANCH  18  23
ENDBRANCH   9  15
ENDBRANCH   6   8
ENDBRANCH   5   6
ENDBRANCH   4   5
ENDBRANCH   3   4
ENDBRANCH   2   3
ENDBRANCH   1   2
BRANCH   1  32
ATOM     32  C   UNL A   1      34.035  31.311  27.616  1.00  0.00     0.188 C 
BRANCH  32  33
ATOM     33  O   UNL A   1      35.396  30.976  27.824  1.00  0.00    -0.376 OA
BRANCH  33  34
ATOM     34  C   UNL A   1      35.650  29.594  28.015  1.00  0.00     0.202 C 
BRANCH  34  35
ATOM     35  C   UNL A   1      37.156  29.359  28.135  1.00  0.00     0.261 C 
BRANCH  35  36
ATOM     36  O   UNL A   1      37.624  29.202  29.489  1.00  0.00    -0.460 OA
BRANCH  36  37
ATOM     37  C   UNL A   1      38.293  30.242  30.036  1.00  0.00     0.338 C 
ATOM     38  O   UNL A   1      37.836  31.319  30.376  1.00  0.00    -0.246 OA
BRANCH  37  39
ATOM     39  C   UNL A   1      39.666  29.784  30.334  1.00  0.00     0.060 A 
ATOM     40  C   UNL A   1      39.889  28.434  30.642  1.00  0.00     0.016 A 
ATOM     41  C   UNL A   1      40.736  30.678  30.274  1.00  0.00     0.016 A 
ATOM     42  C   UNL A   1      41.190  27.975  30.881  1.00  0.00     0.010 A 
ATOM     43  C   UNL A   1      42.031  30.222  30.535  1.00  0.00     0.010 A 
ATOM     44  C   UNL A   1      42.268  28.871  30.845  1.00  0.00    -0.014 A 
BRANCH  44  45
ATOM     45  C   UNL A   1      43.640  28.445  31.219  1.00  0.00     0.031 A 
ATOM     46  C   UNL A   1      44.554  27.913  30.151  1.00  0.00     0.074 A 
ATOM     47  C   UNL A   1      44.047  28.465  32.502  1.00  0.00     0.049 A 
ATOM     48  N   UNL A   1      45.722  27.335  30.269  1.00  0.00    -0.248 NA
ATOM     49  C   UNL A   1      44.086  28.048  28.763  1.00  0.00     0.031 C 
ATOM     50  C   UNL A   1      43.272  28.982  33.628  1.00  0.00     0.029 A 
ATOM     51  N   UNL A   1      45.208  28.002  33.076  1.00  0.00    -0.354 N 
ATOM     52  C   UNL A   1      46.119  27.018  28.978  1.00  0.00     0.074 A 
ATOM     53  C   UNL A   1      45.067  27.465  28.089  1.00  0.00     0.031 C 
ATOM     54  C   UNL A   1      43.962  28.776  34.763  1.00  0.00     0.029 A 
ATOM     55  C   UNL A   1      45.206  28.073  34.450  1.00  0.00     0.049 A 
ATOM     56  H   UNL A   1      45.966  27.654  32.555  1.00  0.00     0.167 HD
ATOM     57  C   UNL A   1      47.258  26.409  28.572  1.00  0.00     0.037 A 
ATOM     58  C   UNL A   1      46.082  27.580  35.349  1.00  0.00     0.037 A 
ATOM     59  C   UNL A   1      48.309  25.973  29.453  1.00  0.00     0.049 A 
ATOM     60  C   UNL A   1      47.302  26.830  34.871  1.00  0.00     0.074 A 
ATOM     61  C   UNL A   1      49.526  25.402  29.124  1.00  0.00     0.029 A 
ATOM     62  N   UNL A   1      48.262  26.044  30.836  1.00  0.00    -0.354 N 
ATOM     63  N   UNL A   1      47.698  26.584  33.645  1.00  0.00    -0.248 NA
ATOM     64  C   UNL A   1      48.192  26.276  35.904  1.00  0.00     0.031 C 
ATOM     65  C   UNL A   1      50.189  25.070  30.308  1.00  0.00     0.029 A 
ATOM     66  C   UNL A   1      49.409  25.484  31.375  1.00  0.00     0.049 A 
ATOM     67  H   UNL A   1      47.523  26.434  31.358  1.00  0.00     0.167 HD
ATOM     68  C   UNL A   1      48.887  25.872  33.761  1.00  0.00     0.074 A 
ATOM     69  C   UNL A   1      49.161  25.742  35.176  1.00  0.00     0.031 C 
ATOM     70  C   UNL A   1      49.676  25.365  32.785  1.00  0.00     0.037 A 
BRANCH  57  71
ATOM     71  C   UNL A   1      47.431  26.142  27.108  1.00  0.00     0.064 A 
ATOM     72  C   UNL A   1      48.148  27.017  26.280  1.00  0.00     0.173 A 
ATOM     73  C   UNL A   1      46.950  24.948  26.548  1.00  0.00     0.173 A 
ATOM     74  F   UNL A   1      48.618  28.174  26.767  1.00  0.00    -0.203 F 
ATOM     75  C   UNL A   1      48.375  26.706  24.942  1.00  0.00     0.198 A 
ATOM     76  C   UNL A   1      47.200  24.631  25.217  1.00  0.00     0.198 A 
ATOM     77  F   UNL A   1      46.262  24.078  27.303  1.00  0.00    -0.203 F 
ATOM     78  F   UNL A   1      49.046  27.565  24.161  1.00  0.00    -0.200 F 
ATOM     79  C   UNL A   1      47.910  25.510  24.415  1.00  0.00     0.200 A 
ATOM     80  F   UNL A   1      46.762  23.468  24.714  1.00  0.00    -0.200 F 
ATOM     81  F   UNL A   1      48.148  25.204  23.131  1.00  0.00    -0.200 F 
ENDBRANCH  57  71
BRANCH  58  82
ATOM     82  C   UNL A   1      45.823  27.719  36.809  1.00  0.00     0.064 A 
ATOM     83  C   UNL A   1      46.343  28.797  37.539  1.00  0.00     0.173 A 
ATOM     84  C   UNL A   1      45.112  26.738  37.517  1.00  0.00     0.173 A 
ATOM     85  F   UNL A   1      47.061  29.743  36.916  1.00  0.00    -0.203 F 
ATOM     86  C   UNL A   1      46.190  28.871  38.923  1.00  0.00     0.198 A 
ATOM     87  C   UNL A   1      44.930  26.830  38.895  1.00  0.00     0.198 A 
ATOM     88  F   UNL A   1      44.603  25.679  36.870  1.00  0.00    -0.203 F 
ATOM     89  F   UNL A   1      46.760  29.874  39.604  1.00  0.00    -0.200 F 
ATOM     90  C   UNL A   1      45.481  27.889  39.599  1.00  0.00     0.200 A 
ATOM     91  F   UNL A   1      44.240  25.882  39.544  1.00  0.00    -0.200 F 
ATOM     92  F   UNL A   1      45.346  27.955  40.931  1.00  0.00    -0.200 F 
ENDBRANCH  58  82
BRANCH  70  93
ATOM     93  C   UNL A   1      50.925  24.642  33.200  1.00  0.00     0.064 A 
ATOM     94  C   UNL A   1      50.928  23.257  33.429  1.00  0.00     0.173 A 
ATOM     95  C   UNL A   1      52.144  25.329  33.315  1.00  0.00     0.173 A 
ATOM     96  F   UNL A   1      49.788  22.557  33.347  1.00  0.00    -0.203 F 
ATOM     97  C   UNL A   1      52.102  22.592  33.774  1.00  0.00     0.198 A 
ATOM     98  C   UNL A   1      53.321  24.654  33.630  1.00  0.00     0.198 A 
ATOM     99  F   UNL A   1      52.198  26.652  33.098  1.00  0.00    -0.203 F 
ATOM    100  F   UNL A   1      52.074  21.276  34.028  1.00  0.00    -0.200 F 
ATOM    101  C   UNL A   1      53.298  23.288  33.866  1.00  0.00     0.200 A 
ATOM    102  F   UNL A   1      54.478  25.327  33.702  1.00  0.00    -0.200 F 
ATOM    103  F   UNL A   1      54.428  22.643  34.186  1.00  0.00    -0.200 F 
ENDBRANCH  70  93
ENDBRANCH  44  45
ENDBRANCH  37  39
ENDBRANCH  36  37
ENDBRANCH  35  36
ENDBRANCH  34  35
ENDBRANCH  33  34
ENDBRANCH  32  33
ENDBRANCH   1  32
TORSDOF 22
ENDMDL
MODEL 2
REMARK VINA RESULT:      -8.8      7.866     14.307
REMARK SMILES COc1cc([C@@H]2[NH2+][C@H](C(=O)OCCOCCOCCOC(=O)c3ccc(-c4c5nc(c(-c6c(F)c(F)c(F)c(F)c6F)c6ccc([nH]6)c(-c6c(F)c(F)c(F)c(F)c6F)c6nc(c(-c7c(F)c(F)c(F)c(F)c7F)c7ccc4[nH]7)C=C6)C=C5)cc3)CS2)ccc1OCc1ccc(Cl)cc1
REMARK SMILES IDX 15 1 14 2 13 3 12 4 11 5 9 6 10 7 8 8 6 9 7 10 87 11 86 14
REMARK SMILES IDX 5 15 3 16 4 17 90 18 89 19 88 20 2 21 1 22 91 23 92 24 93 25
REMARK SMILES IDX 94 26 99 27 95 28 98 29 96 30 97 31 16 32 17 33 18 34 19 35
REMARK SMILES IDX 20 36 21 37 22 38 23 39 24 40 85 41 25 42 84 43 26 44 27 45
REMARK SMILES IDX 28 46 78 47 29 48 83 49 77 50 79 51 30 52 82 53 76 54 75 55
REMARK SMILES IDX 31 57 63 58 43 59 62 60 44 61 47 62 61 63 80 64 45 65 46 66
REMARK SMILES IDX 60 68 81 69 48 70 32 71 33 72 41 73 34 74 35 75 39 76 42 77
REMARK SMILES IDX 36 78 37 79 40 80 38 81 64 82 65 83 73 84 66 85 67 86 71 87
REMARK SMILES IDX 74 88 68 89 69 90 72 91 70 92 49 93 50 94 58 95 51 96 52 97
REMARK SMILES IDX 56 98 59 99 53 100 54 101 57 102 55 103
REMARK H PARENT 7 12 7 13 79 56 47 67
REMARK Flexibility Score: inf
ROOT
ATOM      1  C   UNL A   1      54.186  25.039  34.990  1.00  0.00     0.188 C 
ENDROOT
BRANCH   1   2
ATOM      2  O   UNL A   1      53.575  24.002  34.229  1.00  0.00    -0.376 OA
BRANCH   2   3
ATOM      3  C   UNL A   1      53.887  22.650  34.533  1.00  0.00     0.202 C 
BRANCH   3   4
ATOM      4  C   UNL A   1      53.422  22.139  35.899  1.00  0.00     0.261 C 
BRANCH   4   5
ATOM      5  O   UNL A   1      52.011  21.853  35.970  1.00  0.00    -0.459 OA
BRANCH   5   6
ATOM      6  C   UNL A   1      51.556  20.800  35.246  1.00  0.00     0.365 C 
ATOM      7  O   UNL A   1      52.011  19.662  35.331  1.00  0.00    -0.245 OA
BRANCH   6   8
ATOM      8  C   UNL A   1      50.443  21.128  34.236  1.00  0.00     0.304 C 
ATOM      9  C   UNL A   1      48.038  20.809  34.565  1.00  0.00     0.274 C 
ATOM     10  N   UNL A   1      49.303  20.179  34.170  1.00  0.00    -0.319 N 
ATOM     11  S   UNL A   1      48.240  22.595  34.684  1.00  0.00    -0.087 SA
ATOM     12  H   UNL A   1      49.216  19.836  33.214  1.00  0.00     0.348 HD
ATOM     13  H   UNL A   1      49.492  19.416  34.822  1.00  0.00     0.348 HD
ATOM     14  C   UNL A   1      50.020  22.577  34.413  1.00  0.00     0.153 C 
BRANCH   9  15
ATOM     15  C   UNL A   1      47.448  20.182  35.816  1.00  0.00     0.024 A 
ATOM     16  C   UNL A   1      47.581  19.624  38.206  1.00  0.00     0.161 A 
ATOM     17  C   UNL A   1      48.135  20.209  37.050  1.00  0.00     0.061 A 
ATOM     18  C   UNL A   1      46.319  19.025  38.143  1.00  0.00     0.161 A 
ATOM     19  C   UNL A   1      45.616  19.045  36.937  1.00  0.00     0.051 A 
ATOM     20  C   UNL A   1      46.182  19.586  35.787  1.00  0.00     0.015 A 
BRANCH  16  21
ATOM     21  O   UNL A   1      48.217  19.746  39.413  1.00  0.00    -0.493 OA
ATOM     22  C   UNL A   1      48.702  18.508  39.935  1.00  0.00     0.278 C 
ENDBRANCH  16  21
BRANCH  18  23
ATOM     23  O   UNL A   1      45.656  18.330  39.116  1.00  0.00    -0.485 OA
BRANCH  23  24
ATOM     24  C   UNL A   1      45.009  17.097  38.799  1.00  0.00     0.265 C 
BRANCH  24  25
ATOM     25  C   UNL A   1      44.049  16.500  39.820  1.00  0.00    -0.011 A 
ATOM     26  C   UNL A   1      42.987  15.644  39.488  1.00  0.00     0.009 A 
ATOM     27  C   UNL A   1      44.259  16.796  41.179  1.00  0.00     0.009 A 
ATOM     28  C   UNL A   1      42.226  15.023  40.482  1.00  0.00     0.021 A 
ATOM     29  C   UNL A   1      43.481  16.197  42.174  1.00  0.00     0.021 A 
ATOM     30  C   UNL A   1      42.484  15.292  41.821  1.00  0.00     0.041 A 
ATOM     31  Cl  UNL A   1      41.573  14.499  43.044  1.00  0.00    -0.084 Cl
ENDBRANCH  24  25
ENDBRANCH  23  24
ENDBRANCH  18  23
ENDBRANCH   9  15
ENDBRANCH   6   8
ENDBRANCH   5   6
ENDBRANCH   4   5
ENDBRANCH   3   4
ENDBRANCH   2   3
ENDBRANCH   1   2
BRANCH   1  32
ATOM     32  C   UNL A   1      53.351  25.854  35.994  1.00  0.00     0.188 C 
BRANCH  32  33
ATOM     33  O   UNL A   1      53.042  27.161  35.541  1.00  0.00    -0.376 OA
BRANCH  33  34
ATOM     34  C   UNL A   1      51.858  27.261  34.768  1.00  0.00     0.202 C 
BRANCH  34  35
ATOM     35  C   UNL A   1      50.638  27.254  35.690  1.00  0.00     0.261 C 
BRANCH  35  36
ATOM     36  O   UNL A   1      49.382  27.070  35.009  1.00  0.00    -0.460 OA
BRANCH  36  37
ATOM     37  C   UNL A   1      48.414  26.393  35.667  1.00  0.00     0.338 C 
ATOM     38  O   UNL A   1      48.548  25.668  36.637  1.00  0.00    -0.246 OA
BRANCH  37  39
ATOM     39  C   UNL A   1      47.112  26.830  35.122  1.00  0.00     0.060 A 
ATOM     40  C   UNL A   1      45.984  26.018  35.303  1.00  0.00     0.016 A 
ATOM     41  C   UNL A   1      46.998  28.056  34.465  1.00  0.00     0.016 A 
ATOM     42  C   UNL A   1      44.733  26.439  34.834  1.00  0.00     0.010 A 
ATOM     43  C   UNL A   1      45.754  28.464  33.977  1.00  0.00     0.010 A 
ATOM     44  C   UNL A   1      44.614  27.659  34.153  1.00  0.00    -0.014 A 
BRANCH  44  45
ATOM     45  C   UNL A   1      43.332  28.076  33.531  1.00  0.00     0.031 A 
ATOM     46  C   UNL A   1      43.081  27.744  32.087  1.00  0.00     0.074 A 
ATOM     47  C   UNL A   1      42.431  28.802  34.219  1.00  0.00     0.049 A 
ATOM     48  N   UNL A   1      42.119  28.145  31.296  1.00  0.00    -0.248 NA
ATOM     49  C   UNL A   1      44.049  26.839  31.447  1.00  0.00     0.031 C 
ATOM     50  C   UNL A   1      42.537  29.167  35.630  1.00  0.00     0.029 A 
ATOM     51  N   UNL A   1      41.260  29.393  33.805  1.00  0.00    -0.354 N 
ATOM     52  C   UNL A   1      42.374  27.562  30.064  1.00  0.00     0.074 A 
ATOM     53  C   UNL A   1      43.584  26.780  30.207  1.00  0.00     0.031 C 
ATOM     54  C   UNL A   1      41.494  29.949  35.957  1.00  0.00     0.029 A 
ATOM     55  C   UNL A   1      40.672  30.177  34.770  1.00  0.00     0.049 A 
ATOM     56  H   UNL A   1      40.880  29.267  32.907  1.00  0.00     0.167 HD
ATOM     57  C   UNL A   1      41.664  27.671  28.917  1.00  0.00     0.037 A 
ATOM     58  C   UNL A   1      39.622  31.020  34.687  1.00  0.00     0.037 A 
ATOM     59  C   UNL A   1      40.455  28.440  28.775  1.00  0.00     0.049 A 
ATOM     60  C   UNL A   1      38.899  31.187  33.371  1.00  0.00     0.074 A 
ATOM     61  C   UNL A   1      39.636  28.556  27.666  1.00  0.00     0.029 A 
ATOM     62  N   UNL A   1      39.903  29.235  29.767  1.00  0.00    -0.354 N 
ATOM     63  N   UNL A   1      39.113  30.588  32.225  1.00  0.00    -0.248 NA
ATOM     64  C   UNL A   1      37.793  32.158  33.337  1.00  0.00     0.031 C 
ATOM     65  C   UNL A   1      38.621  29.471  27.966  1.00  0.00     0.029 A 
ATOM     66  C   UNL A   1      38.779  29.881  29.279  1.00  0.00     0.049 A 
ATOM     67  H   UNL A   1      40.257  29.326  30.681  1.00  0.00     0.167 HD
ATOM     68  C   UNL A   1      38.161  31.091  31.346  1.00  0.00     0.074 A 
ATOM     69  C   UNL A   1      37.353  32.029  32.094  1.00  0.00     0.031 C 
ATOM     70  C   UNL A   1      37.977  30.808  30.034  1.00  0.00     0.037 A 
BRANCH  57  71
ATOM     71  C   UNL A   1      42.179  26.967  27.699  1.00  0.00     0.064 A 
ATOM     72  C   UNL A   1      43.120  27.562  26.847  1.00  0.00     0.173 A 
ATOM     73  C   UNL A   1      41.794  25.644  27.435  1.00  0.00     0.173 A 
ATOM     74  F   UNL A   1      43.511  28.828  27.053  1.00  0.00    -0.203 F 
ATOM     75  C   UNL A   1      43.655  26.857  25.772  1.00  0.00     0.198 A 
ATOM     76  C   UNL A   1      42.349  24.935  26.374  1.00  0.00     0.198 A 
ATOM     77  F   UNL A   1      40.900  25.030  28.226  1.00  0.00    -0.203 F 
ATOM     78  F   UNL A   1      44.538  27.451  24.956  1.00  0.00    -0.200 F 
ATOM     79  C   UNL A   1      43.276  25.542  25.543  1.00  0.00     0.200 A 
ATOM     80  F   UNL A   1      41.992  23.660  26.163  1.00  0.00    -0.200 F 
ATOM     81  F   UNL A   1      43.808  24.859  24.519  1.00  0.00    -0.200 F 
ENDBRANCH  57  71
BRANCH  58  82
ATOM     82  C   UNL A   1      39.211  31.832  35.866  1.00  0.00     0.064 A 
ATOM     83  C   UNL A   1      38.289  31.339  36.800  1.00  0.00     0.173 A 
ATOM     84  C   UNL A   1      39.676  33.144  36.042  1.00  0.00     0.173 A 
ATOM     85  F   UNL A   1      37.786  30.104  36.657  1.00  0.00    -0.203 F 
ATOM     86  C   UNL A   1      37.824  32.137  37.845  1.00  0.00     0.198 A 
ATOM     87  C   UNL A   1      39.237  33.930  37.106  1.00  0.00     0.198 A 
ATOM     88  F   UNL A   1      40.550  33.670  35.172  1.00  0.00    -0.203 F 
ATOM     89  F   UNL A   1      36.888  31.665  38.679  1.00  0.00    -0.200 F 
ATOM     90  C   UNL A   1      38.301  33.430  37.998  1.00  0.00     0.200 A 
ATOM     91  F   UNL A   1      39.704  35.177  37.254  1.00  0.00    -0.200 F 
ATOM     92  F   UNL A   1      37.844  34.201  38.995  1.00  0.00    -0.200 F 
ENDBRANCH  58  82
BRANCH  70  93
ATOM     93  C   UNL A   1      36.848  31.496  29.322  1.00  0.00     0.064 A 
ATOM     94  C   UNL A   1      35.680  30.807  28.960  1.00  0.00     0.173 A 
ATOM     95  C   UNL A   1      36.908  32.872  29.048  1.00  0.00     0.173 A 
ATOM     96  F   UNL A   1      35.578  29.489  29.186  1.00  0.00    -0.203 F 
ATOM     97  C   UNL A   1      34.624  31.466  28.336  1.00  0.00     0.198 A 
ATOM     98  C   UNL A   1      35.838  33.532  28.452  1.00  0.00     0.198 A 
ATOM     99  F   UNL A   1      37.999  33.579  29.381  1.00  0.00    -0.203 F 
ATOM    100  F   UNL A   1      33.535  30.778  27.963  1.00  0.00    -0.200 F 
ATOM    101  C   UNL A   1      34.700  32.828  28.091  1.00  0.00     0.200 A 
ATOM    102  F   UNL A   1      35.907  34.853  28.230  1.00  0.00    -0.200 F 
ATOM    103  F   UNL A   1      33.676  33.463  27.502  1.00  0.00    -0.200 F 
ENDBRANCH  70  93
ENDBRANCH  44  45
ENDBRANCH  37  39
ENDBRANCH  36  37
ENDBRANCH  35  36
ENDBRANCH  34  35
ENDBRANCH  33  34
ENDBRANCH  32  33
ENDBRANCH   1  32
TORSDOF 22
ENDMDL
MODEL 3
REMARK VINA RESULT:      -8.8      5.210      9.710
REMARK SMILES COc1cc([C@@H]2[NH2+][C@H](C(=O)OCCOCCOCCOC(=O)c3ccc(-c4c5nc(c(-c6c(F)c(F)c(F)c(F)c6F)c6ccc([nH]6)c(-c6c(F)c(F)c(F)c(F)c6F)c6nc(c(-c7c(F)c(F)c(F)c(F)c7F)c7ccc4[nH]7)C=C6)C=C5)cc3)CS2)ccc1OCc1ccc(Cl)cc1
REMARK SMILES IDX 15 1 14 2 13 3 12 4 11 5 9 6 10 7 8 8 6 9 7 10 87 11 86 14
REMARK SMILES IDX 5 15 3 16 4 17 90 18 89 19 88 20 2 21 1 22 91 23 92 24 93 25
REMARK SMILES IDX 94 26 99 27 95 28 98 29 96 30 97 31 16 32 17 33 18 34 19 35
REMARK SMILES IDX 20 36 21 37 22 38 23 39 24 40 85 41 25 42 84 43 26 44 27 45
REMARK SMILES IDX 28 46 78 47 29 48 83 49 77 50 79 51 30 52 82 53 76 54 75 55
REMARK SMILES IDX 31 57 63 58 43 59 62 60 44 61 47 62 61 63 80 64 45 65 46 66
REMARK SMILES IDX 60 68 81 69 48 70 32 71 33 72 41 73 34 74 35 75 39 76 42 77
REMARK SMILES IDX 36 78 37 79 40 80 38 81 64 82 65 83 73 84 66 85 67 86 71 87
REMARK SMILES IDX 74 88 68 89 69 90 72 91 70 92 49 93 50 94 58 95 51 96 52 97
REMARK SMILES IDX 56 98 59 99 53 100 54 101 57 102 55 103
REMARK H PARENT 7 12 7 13 79 56 47 67
REMARK Flexibility Score: inf
ROOT
ATOM      1  C   UNL A   1      37.459  23.112  25.712  1.00  0.00     0.188 C 
ENDROOT
BRANCH   1   2
ATOM      2  O   UNL A   1      36.629  22.048  26.171  1.00  0.00    -0.376 OA
BRANCH   2   3
ATOM      3  C   UNL A   1      36.199  21.063  25.243  1.00  0.00     0.202 C 
BRANCH   3   4
ATOM      4  C   UNL A   1      34.978  21.421  24.392  1.00  0.00     0.261 C 
BRANCH   4   5
ATOM      5  O   UNL A   1      35.197  22.517  23.481  1.00  0.00    -0.459 OA
BRANCH   5   6
ATOM      6  C   UNL A   1      34.161  23.367  23.275  1.00  0.00     0.365 C 
ATOM      7  O   UNL A   1      34.201  24.323  22.504  1.00  0.00    -0.245 OA
BRANCH   6   8
ATOM      8  C   UNL A   1      32.911  23.100  24.131  1.00  0.00     0.304 C 
ATOM      9  C   UNL A   1      31.626  24.761  25.390  1.00  0.00     0.274 C 
ATOM     10  N   UNL A   1      32.792  23.869  25.395  1.00  0.00    -0.319 N 
ATOM     11  S   UNL A   1      30.557  24.384  23.990  1.00  0.00    -0.087 SA
ATOM     12  H   UNL A   1      32.702  23.214  26.171  1.00  0.00     0.348 HD
ATOM     13  H   UNL A   1      33.629  24.446  25.491  1.00  0.00     0.348 HD
ATOM     14  C   UNL A   1      31.676  23.184  23.248  1.00  0.00     0.153 C 
BRANCH   9  15
ATOM     15  C   UNL A   1      32.020  26.224  25.474  1.00  0.00     0.024 A 
ATOM     16  C   UNL A   1      33.239  28.173  24.604  1.00  0.00     0.161 A 
ATOM     17  C   UNL A   1      32.877  26.814  24.519  1.00  0.00     0.061 A 
ATOM     18  C   UNL A   1      32.724  28.964  25.637  1.00  0.00     0.161 A 
ATOM     19  C   UNL A   1      31.835  28.395  26.550  1.00  0.00     0.051 A 
ATOM     20  C   UNL A   1      31.512  27.044  26.489  1.00  0.00     0.015 A 
BRANCH  16  21
ATOM     21  O   UNL A   1      33.991  28.750  23.615  1.00  0.00    -0.493 OA
ATOM     22  C   UNL A   1      33.739  28.214  22.316  1.00  0.00     0.278 C 
ENDBRANCH  16  21
BRANCH  18  23
ATOM     23  O   UNL A   1      33.022  30.262  25.945  1.00  0.00    -0.485 OA
BRANCH  23  24
ATOM     24  C   UNL A   1      33.337  30.624  27.290  1.00  0.00     0.265 C 
BRANCH  24  25
ATOM     25  C   UNL A   1      34.804  30.704  27.694  1.00  0.00    -0.011 A 
ATOM     26  C   UNL A   1      35.462  31.900  28.018  1.00  0.00     0.009 A 
ATOM     27  C   UNL A   1      35.533  29.504  27.781  1.00  0.00     0.009 A 
ATOM     28  C   UNL A   1      36.770  31.891  28.510  1.00  0.00     0.021 A 
ATOM     29  C   UNL A   1      36.850  29.495  28.248  1.00  0.00     0.021 A 
ATOM     30  C   UNL A   1      37.454  30.688  28.635  1.00  0.00     0.041 A 
ATOM     31  Cl  UNL A   1      39.049  30.673  29.277  1.00  0.00    -0.084 Cl
ENDBRANCH  24  25
ENDBRANCH  23  24
ENDBRANCH  18  23
ENDBRANCH   9  15
ENDBRANCH   6   8
ENDBRANCH   5   6
ENDBRANCH   4   5
ENDBRANCH   3   4
ENDBRANCH   2   3
ENDBRANCH   1   2
BRANCH   1  32
ATOM     32  C   UNL A   1      38.989  23.004  25.835  1.00  0.00     0.188 C 
BRANCH  32  33
ATOM     33  O   UNL A   1      39.419  22.441  27.062  1.00  0.00    -0.376 OA
BRANCH  33  34
ATOM     34  C   UNL A   1      40.413  21.437  26.943  1.00  0.00     0.202 C 
BRANCH  34  35
ATOM     35  C   UNL A   1      41.763  22.083  26.630  1.00  0.00     0.261 C 
BRANCH  35  36
ATOM     36  O   UNL A   1      41.895  23.437  27.107  1.00  0.00    -0.460 OA
BRANCH  36  37
ATOM     37  C   UNL A   1      42.479  23.614  28.313  1.00  0.00     0.338 C 
ATOM     38  O   UNL A   1      42.329  22.937  29.314  1.00  0.00    -0.246 OA
BRANCH  37  39
ATOM     39  C   UNL A   1      43.496  24.676  28.166  1.00  0.00     0.060 A 
ATOM     40  C   UNL A   1      43.995  24.979  26.890  1.00  0.00     0.016 A 
ATOM     41  C   UNL A   1      43.930  25.397  29.280  1.00  0.00     0.016 A 
ATOM     42  C   UNL A   1      44.924  26.014  26.728  1.00  0.00     0.010 A 
ATOM     43  C   UNL A   1      44.873  26.414  29.118  1.00  0.00     0.010 A 
ATOM     44  C   UNL A   1      45.381  26.728  27.845  1.00  0.00    -0.014 A 
BRANCH  44  45
ATOM     45  C   UNL A   1      46.458  27.742  27.726  1.00  0.00     0.031 A 
ATOM     46  C   UNL A   1      46.083  29.190  27.572  1.00  0.00     0.074 A 
ATOM     47  C   UNL A   1      47.753  27.377  27.684  1.00  0.00     0.049 A 
ATOM     48  N   UNL A   1      46.840  30.219  27.288  1.00  0.00    -0.248 NA
ATOM     49  C   UNL A   1      44.661  29.520  27.760  1.00  0.00     0.031 C 
ATOM     50  C   UNL A   1      48.255  26.014  27.851  1.00  0.00     0.029 A 
ATOM     51  N   UNL A   1      48.884  28.126  27.452  1.00  0.00    -0.354 N 
ATOM     52  C   UNL A   1      45.987  31.313  27.243  1.00  0.00     0.074 A 
ATOM     53  C   UNL A   1      44.654  30.824  27.525  1.00  0.00     0.031 C 
ATOM     54  C   UNL A   1      49.588  26.017  27.680  1.00  0.00     0.029 A 
ATOM     55  C   UNL A   1      50.029  27.371  27.348  1.00  0.00     0.049 A 
ATOM     56  H   UNL A   1      48.874  29.106  27.369  1.00  0.00     0.167 HD
ATOM     57  C   UNL A   1      46.290  32.607  26.988  1.00  0.00     0.037 A 
ATOM     58  C   UNL A   1      51.276  27.726  26.978  1.00  0.00     0.037 A 
ATOM     59  C   UNL A   1      47.616  33.097  26.717  1.00  0.00     0.049 A 
ATOM     60  C   UNL A   1      51.568  29.164  26.616  1.00  0.00     0.074 A 
ATOM     61  C   UNL A   1      48.025  34.402  26.508  1.00  0.00     0.029 A 
ATOM     62  N   UNL A   1      48.744  32.301  26.601  1.00  0.00    -0.354 N 
ATOM     63  N   UNL A   1      50.768  30.202  26.631  1.00  0.00    -0.248 NA
ATOM     64  C   UNL A   1      52.937  29.475  26.173  1.00  0.00     0.031 C 
ATOM     65  C   UNL A   1      49.389  34.391  26.204  1.00  0.00     0.029 A 
ATOM     66  C   UNL A   1      49.840  33.084  26.277  1.00  0.00     0.049 A 
ATOM     67  H   UNL A   1      48.764  31.325  26.729  1.00  0.00     0.167 HD
ATOM     68  C   UNL A   1      51.538  31.285  26.224  1.00  0.00     0.074 A 
ATOM     69  C   UNL A   1      52.875  30.785  25.989  1.00  0.00     0.031 C 
ATOM     70  C   UNL A   1      51.169  32.578  26.052  1.00  0.00     0.037 A 
BRANCH  57  71
ATOM     71  C   UNL A   1      45.169  33.600  26.957  1.00  0.00     0.064 A 
ATOM     72  C   UNL A   1      44.367  33.771  25.819  1.00  0.00     0.173 A 
ATOM     73  C   UNL A   1      44.837  34.323  28.112  1.00  0.00     0.173 A 
ATOM     74  F   UNL A   1      44.652  33.110  24.687  1.00  0.00    -0.203 F 
ATOM     75  C   UNL A   1      43.275  34.634  25.839  1.00  0.00     0.198 A 
ATOM     76  C   UNL A   1      43.729  35.166  28.136  1.00  0.00     0.198 A 
ATOM     77  F   UNL A   1      45.571  34.189  29.227  1.00  0.00    -0.203 F 
ATOM     78  F   UNL A   1      42.533  34.799  24.735  1.00  0.00    -0.200 F 
ATOM     79  C   UNL A   1      42.951  35.321  27.001  1.00  0.00     0.200 A 
ATOM     80  F   UNL A   1      43.410  35.817  29.263  1.00  0.00    -0.200 F 
ATOM     81  F   UNL A   1      41.885  36.135  27.024  1.00  0.00    -0.200 F 
ENDBRANCH  57  71
BRANCH  58  82
ATOM     82  C   UNL A   1      52.351  26.702  26.865  1.00  0.00     0.064 A 
ATOM     83  C   UNL A   1      53.371  26.611  27.822  1.00  0.00     0.173 A 
ATOM     84  C   UNL A   1      52.419  25.840  25.759  1.00  0.00     0.173 A 
ATOM     85  F   UNL A   1      53.371  27.437  28.880  1.00  0.00    -0.203 F 
ATOM     86  C   UNL A   1      54.434  25.724  27.662  1.00  0.00     0.198 A 
ATOM     87  C   UNL A   1      53.465  24.930  25.616  1.00  0.00     0.198 A 
ATOM     88  F   UNL A   1      51.476  25.892  24.807  1.00  0.00    -0.203 F 
ATOM     89  F   UNL A   1      55.433  25.711  28.555  1.00  0.00    -0.200 F 
ATOM     90  C   UNL A   1      54.478  24.882  26.561  1.00  0.00     0.200 A 
ATOM     91  F   UNL A   1      53.501  24.114  24.553  1.00  0.00    -0.200 F 
ATOM     92  F   UNL A   1      55.507  24.038  26.401  1.00  0.00    -0.200 F 
ENDBRANCH  58  82
BRANCH  70  93
ATOM     93  C   UNL A   1      52.223  33.553  25.612  1.00  0.00     0.064 A 
ATOM     94  C   UNL A   1      52.961  34.304  26.540  1.00  0.00     0.173 A 
ATOM     95  C   UNL A   1      52.540  33.698  24.252  1.00  0.00     0.173 A 
ATOM     96  F   UNL A   1      52.688  34.213  27.850  1.00  0.00    -0.203 F 
ATOM     97  C   UNL A   1      53.963  35.175  26.121  1.00  0.00     0.198 A 
ATOM     98  C   UNL A   1      53.564  34.546  23.840  1.00  0.00     0.198 A 
ATOM     99  F   UNL A   1      51.870  32.997  23.324  1.00  0.00    -0.203 F 
ATOM    100  F   UNL A   1      54.627  35.912  27.023  1.00  0.00    -0.200 F 
ATOM    101  C   UNL A   1      54.270  35.289  24.774  1.00  0.00     0.200 A 
ATOM    102  F   UNL A   1      53.869  34.643  22.538  1.00  0.00    -0.200 F 
ATOM    103  F   UNL A   1      55.244  36.118  24.374  1.00  0.00    -0.200 F 
ENDBRANCH  70  93
ENDBRANCH  44  45
ENDBRANCH  37  39
ENDBRANCH  36  37
ENDBRANCH  35  36
ENDBRANCH  34  35
ENDBRANCH  33  34
ENDBRANCH  32  33
ENDBRANCH   1  32
TORSDOF 22
ENDMDL
