MODEL 1
REMARK VINA RESULT:      -9.9      0.000      0.000
REMARK SMILES CC(C)C[C@H](C[NH3+])C(=O)N1CCSC[C@@H]1CC(=O)OCCOCCOCCOC(=O)c1ccc(-c2c3nc(c(-c4c(F)c(F)c(F)c(F)c4F)c4ccc([nH]4)c(-c4c(F)c(F)c(F)c(F)c4F)c4nc(c(-c5c(F)c(F)c(F)c(F)c5F)c5ccc2[nH]5)C=C4)C=C3)cc1
REMARK SMILES IDX 22 1 21 2 20 3 19 4 17 5 18 6 16 7 15 8 10 9 11 10 12 11
REMARK SMILES IDX 14 12 13 13 8 14 9 15 5 16 4 17 2 18 1 19 3 20 6 21 7 22
REMARK SMILES IDX 23 26 24 27 25 28 26 29 27 30 28 31 29 32 30 33 31 34 32 35
REMARK SMILES IDX 93 36 33 37 92 38 34 39 35 40 36 41 86 42 37 43 91 44 85 45
REMARK SMILES IDX 87 46 38 47 90 48 84 49 83 50 39 52 71 53 51 54 70 55 52 56
REMARK SMILES IDX 55 57 69 58 88 59 53 60 54 61 68 63 89 64 56 65 40 66 41 67
REMARK SMILES IDX 49 68 42 69 43 70 47 71 50 72 44 73 45 74 48 75 46 76 72 77
REMARK SMILES IDX 73 78 81 79 74 80 75 81 79 82 82 83 76 84 77 85 80 86 78 87
REMARK SMILES IDX 57 88 58 89 66 90 59 91 60 92 64 93 67 94 61 95 62 96 65 97
REMARK SMILES IDX 63 98
REMARK H PARENT 7 23 7 24 7 25 87 51 55 62
REMARK Flexibility Score: inf
ROOT
ATOM      1  O   UNL A   1      34.889  21.821  27.037  1.00  0.00    -0.376 OA
ENDROOT
BRANCH   1   2
ATOM      2  C   UNL A   1      33.494  21.550  27.150  1.00  0.00     0.202 C 
BRANCH   2   3
ATOM      3  C   UNL A   1      32.545  22.693  27.522  1.00  0.00     0.261 C 
BRANCH   3   4
ATOM      4  O   UNL A   1      31.189  22.394  27.133  1.00  0.00    -0.463 OA
BRANCH   4   5
ATOM      5  C   UNL A   1      30.509  23.420  26.574  1.00  0.00     0.307 C 
ATOM      6  O   UNL A   1      29.646  24.070  27.155  1.00  0.00    -0.252 OA
BRANCH   5   7
ATOM      7  C   UNL A   1      31.050  23.848  25.232  1.00  0.00     0.148 C 
BRANCH   7   8
ATOM      8  C   UNL A   1      31.610  25.262  24.973  1.00  0.00     0.106 C 
ATOM      9  N   UNL A   1      30.999  25.791  23.715  1.00  0.00    -0.337 N 
ATOM     10  C   UNL A   1      31.562  25.306  22.447  1.00  0.00     0.130 C 
ATOM     11  C   UNL A   1      33.074  25.517  22.315  1.00  0.00     0.091 C 
ATOM     12  C   UNL A   1      33.128  25.493  25.016  1.00  0.00     0.095 C 
ATOM     13  S   UNL A   1      33.985  24.676  23.640  1.00  0.00    -0.158 SA
BRANCH   9  14
ATOM     14  C   UNL A   1      30.149  26.882  23.802  1.00  0.00     0.231 C 
ATOM     15  O   UNL A   1      28.932  26.712  23.933  1.00  0.00    -0.274 OA
BRANCH  14  16
ATOM     16  C   UNL A   1      30.673  28.286  23.438  1.00  0.00     0.133 C 
BRANCH  16  17
ATOM     17  C   UNL A   1      31.030  29.096  24.707  1.00  0.00     0.022 C 
BRANCH  17  18
ATOM     18  C   UNL A   1      32.458  29.684  24.752  1.00  0.00    -0.016 C 
ATOM     19  C   UNL A   1      33.055  29.686  26.160  1.00  0.00     0.007 C 
ATOM     20  C   UNL A   1      33.371  28.896  23.808  1.00  0.00     0.007 C 
ENDBRANCH  17  18
ENDBRANCH  16  17
BRANCH  16  21
ATOM     21  C   UNL A   1      29.858  29.098  22.415  1.00  0.00     0.272 C 
BRANCH  21  22
ATOM     22  N   UNL A   1      30.611  30.074  21.628  1.00  0.00    -0.357 N 
ATOM     23  H   UNL A   1      30.791  29.695  20.698  1.00  0.00     0.344 HD
ATOM     24  H   UNL A   1      31.497  30.274  22.092  1.00  0.00     0.344 HD
ATOM     25  H   UNL A   1      30.068  30.935  21.545  1.00  0.00     0.344 HD
ENDBRANCH  21  22
ENDBRANCH  16  21
ENDBRANCH  14  16
ENDBRANCH   9  14
ENDBRANCH   7   8
ENDBRANCH   5   7
ENDBRANCH   4   5
ENDBRANCH   3   4
ENDBRANCH   2   3
ENDBRANCH   1   2
BRANCH   1  26
ATOM     26  C   UNL A   1      35.469  21.758  25.750  1.00  0.00     0.188 C 
BRANCH  26  27
ATOM     27  C   UNL A   1      35.473  20.423  24.994  1.00  0.00     0.188 C 
BRANCH  27  28
ATOM     28  O   UNL A   1      36.616  19.607  24.848  1.00  0.00    -0.376 OA
BRANCH  28  29
ATOM     29  C   UNL A   1      37.924  20.151  24.982  1.00  0.00     0.202 C 
BRANCH  29  30
ATOM     30  C   UNL A   1      39.153  19.315  25.383  1.00  0.00     0.261 C 
BRANCH  30  31
ATOM     31  O   UNL A   1      40.002  19.887  26.375  1.00  0.00    -0.460 OA
BRANCH  31  32
ATOM     32  C   UNL A   1      41.325  19.624  26.210  1.00  0.00     0.338 C 
ATOM     33  O   UNL A   1      41.832  18.615  25.753  1.00  0.00    -0.246 OA
BRANCH  32  34
ATOM     34  C   UNL A   1      42.064  20.880  26.451  1.00  0.00     0.060 A 
ATOM     35  C   UNL A   1      42.393  21.213  27.775  1.00  0.00     0.016 A 
ATOM     36  C   UNL A   1      42.489  21.677  25.388  1.00  0.00     0.016 A 
ATOM     37  C   UNL A   1      43.133  22.363  28.039  1.00  0.00     0.010 A 
ATOM     38  C   UNL A   1      43.205  22.842  25.656  1.00  0.00     0.010 A 
ATOM     39  C   UNL A   1      43.504  23.204  26.983  1.00  0.00    -0.014 A 
BRANCH  39  40
ATOM     40  C   UNL A   1      43.989  24.574  27.264  1.00  0.00     0.031 A 
ATOM     41  C   UNL A   1      42.984  25.579  27.750  1.00  0.00     0.074 A 
ATOM     42  C   UNL A   1      45.271  24.926  27.080  1.00  0.00     0.049 A 
ATOM     43  N   UNL A   1      43.118  26.865  27.948  1.00  0.00    -0.248 NA
ATOM     44  C   UNL A   1      41.638  25.060  28.046  1.00  0.00     0.031 C 
ATOM     45  C   UNL A   1      46.347  24.031  26.665  1.00  0.00     0.029 A 
ATOM     46  N   UNL A   1      45.878  26.152  27.204  1.00  0.00    -0.354 N 
ATOM     47  C   UNL A   1      41.874  27.307  28.376  1.00  0.00     0.074 A 
ATOM     48  C   UNL A   1      40.991  26.163  28.385  1.00  0.00     0.031 C 
ATOM     49  C   UNL A   1      47.482  24.743  26.546  1.00  0.00     0.029 A 
ATOM     50  C   UNL A   1      47.201  26.149  26.838  1.00  0.00     0.049 A 
ATOM     51  H   UNL A   1      45.409  26.956  27.525  1.00  0.00     0.167 HD
ATOM     52  C   UNL A   1      41.503  28.558  28.735  1.00  0.00     0.037 A 
ATOM     53  C   UNL A   1      48.069  27.174  26.723  1.00  0.00     0.037 A 
ATOM     54  C   UNL A   1      42.383  29.695  28.721  1.00  0.00     0.049 A 
ATOM     55  C   UNL A   1      47.607  28.576  27.042  1.00  0.00     0.074 A 
ATOM     56  C   UNL A   1      42.107  31.002  29.076  1.00  0.00     0.029 A 
ATOM     57  N   UNL A   1      43.710  29.658  28.320  1.00  0.00    -0.354 N 
ATOM     58  N   UNL A   1      46.435  28.990  27.462  1.00  0.00    -0.248 NA
ATOM     59  C   UNL A   1      48.592  29.655  26.865  1.00  0.00     0.031 C 
ATOM     60  C   UNL A   1      43.252  31.768  28.837  1.00  0.00     0.029 A 
ATOM     61  C   UNL A   1      44.259  30.926  28.393  1.00  0.00     0.049 A 
ATOM     62  H   UNL A   1      44.190  28.850  28.026  1.00  0.00     0.167 HD
ATOM     63  C   UNL A   1      46.553  30.364  27.635  1.00  0.00     0.074 A 
ATOM     64  C   UNL A   1      47.912  30.714  27.280  1.00  0.00     0.031 C 
ATOM     65  C   UNL A   1      45.620  31.256  28.053  1.00  0.00     0.037 A 
BRANCH  52  66
ATOM     66  C   UNL A   1      40.073  28.762  29.138  1.00  0.00     0.064 A 
ATOM     67  C   UNL A   1      39.648  28.592  30.464  1.00  0.00     0.173 A 
ATOM     68  C   UNL A   1      39.119  29.150  28.186  1.00  0.00     0.173 A 
ATOM     69  F   UNL A   1      40.518  28.203  31.408  1.00  0.00    -0.203 F 
ATOM     70  C   UNL A   1      38.313  28.776  30.816  1.00  0.00     0.198 A 
ATOM     71  C   UNL A   1      37.792  29.364  28.548  1.00  0.00     0.198 A 
ATOM     72  F   UNL A   1      39.475  29.325  26.904  1.00  0.00    -0.203 F 
ATOM     73  F   UNL A   1      37.919  28.557  32.078  1.00  0.00    -0.200 F 
ATOM     74  C   UNL A   1      37.389  29.169  29.860  1.00  0.00     0.200 A 
ATOM     75  F   UNL A   1      36.903  29.755  27.624  1.00  0.00    -0.200 F 
ATOM     76  F   UNL A   1      36.107  29.353  30.202  1.00  0.00    -0.200 F 
ENDBRANCH  52  66
BRANCH  53  77
ATOM     77  C   UNL A   1      49.462  26.926  26.264  1.00  0.00     0.064 A 
ATOM     78  C   UNL A   1      50.485  26.647  27.180  1.00  0.00     0.173 A 
ATOM     79  C   UNL A   1      49.805  27.000  24.906  1.00  0.00     0.173 A 
ATOM     80  F   UNL A   1      50.213  26.596  28.492  1.00  0.00    -0.203 F 
ATOM     81  C   UNL A   1      51.802  26.472  26.758  1.00  0.00     0.198 A 
ATOM     82  C   UNL A   1      51.117  26.795  24.482  1.00  0.00     0.198 A 
ATOM     83  F   UNL A   1      48.865  27.272  23.988  1.00  0.00    -0.203 F 
ATOM     84  F   UNL A   1      52.769  26.261  27.661  1.00  0.00    -0.200 F 
ATOM     85  C   UNL A   1      52.116  26.542  25.410  1.00  0.00     0.200 A 
ATOM     86  F   UNL A   1      51.414  26.855  23.177  1.00  0.00    -0.200 F 
ATOM     87  F   UNL A   1      53.383  26.375  25.005  1.00  0.00    -0.200 F 
ENDBRANCH  53  77
BRANCH  65  88
ATOM     88  C   UNL A   1      46.043  32.689  28.205  1.00  0.00     0.064 A 
ATOM     89  C   UNL A   1      45.864  33.627  27.178  1.00  0.00     0.173 A 
ATOM     90  C   UNL A   1      46.577  33.143  29.422  1.00  0.00     0.173 A 
ATOM     91  F   UNL A   1      45.369  33.243  25.991  1.00  0.00    -0.203 F 
ATOM     92  C   UNL A   1      46.223  34.961  27.356  1.00  0.00     0.198 A 
ATOM     93  C   UNL A   1      46.904  34.483  29.607  1.00  0.00     0.198 A 
ATOM     94  F   UNL A   1      46.760  32.289  30.440  1.00  0.00    -0.203 F 
ATOM     95  F   UNL A   1      46.081  35.832  26.347  1.00  0.00    -0.200 F 
ATOM     96  C   UNL A   1      46.733  35.389  28.573  1.00  0.00     0.200 A 
ATOM     97  F   UNL A   1      47.381  34.898  30.790  1.00  0.00    -0.200 F 
ATOM     98  F   UNL A   1      47.064  36.676  28.747  1.00  0.00    -0.200 F 
ENDBRANCH  65  88
ENDBRANCH  39  40
ENDBRANCH  32  34
ENDBRANCH  31  32
ENDBRANCH  30  31
ENDBRANCH  29  30
ENDBRANCH  28  29
ENDBRANCH  27  28
ENDBRANCH  26  27
ENDBRANCH   1  26
TORSDOF 24
ENDMDL
MODEL 2
REMARK VINA RESULT:      -9.6      0.902      2.007
REMARK SMILES CC(C)C[C@H](C[NH3+])C(=O)N1CCSC[C@@H]1CC(=O)OCCOCCOCCOC(=O)c1ccc(-c2c3nc(c(-c4c(F)c(F)c(F)c(F)c4F)c4ccc([nH]4)c(-c4c(F)c(F)c(F)c(F)c4F)c4nc(c(-c5c(F)c(F)c(F)c(F)c5F)c5ccc2[nH]5)C=C4)C=C3)cc1
REMARK SMILES IDX 22 1 21 2 20 3 19 4 17 5 18 6 16 7 15 8 10 9 11 10 12 11
REMARK SMILES IDX 14 12 13 13 8 14 9 15 5 16 4 17 2 18 1 19 3 20 6 21 7 22
REMARK SMILES IDX 23 26 24 27 25 28 26 29 27 30 28 31 29 32 30 33 31 34 32 35
REMARK SMILES IDX 93 36 33 37 92 38 34 39 35 40 36 41 86 42 37 43 91 44 85 45
REMARK SMILES IDX 87 46 38 47 90 48 84 49 83 50 39 52 71 53 51 54 70 55 52 56
REMARK SMILES IDX 55 57 69 58 88 59 53 60 54 61 68 63 89 64 56 65 40 66 41 67
REMARK SMILES IDX 49 68 42 69 43 70 47 71 50 72 44 73 45 74 48 75 46 76 72 77
REMARK SMILES IDX 73 78 81 79 74 80 75 81 79 82 82 83 76 84 77 85 80 86 78 87
REMARK SMILES IDX 57 88 58 89 66 90 59 91 60 92 64 93 67 94 61 95 62 96 65 97
REMARK SMILES IDX 63 98
REMARK H PARENT 7 23 7 24 7 25 87 51 55 62
REMARK Flexibility Score: inf
ROOT
ATOM      1  O   UNL A   1      34.720  21.877  27.017  1.00  0.00    -0.376 OA
ENDROOT
BRANCH   1   2
ATOM      2  C   UNL A   1      33.302  21.735  26.958  1.00  0.00     0.202 C 
BRANCH   2   3
ATOM      3  C   UNL A   1      32.423  22.969  27.181  1.00  0.00     0.261 C 
BRANCH   3   4
ATOM      4  O   UNL A   1      31.241  22.924  26.356  1.00  0.00    -0.463 OA
BRANCH   4   5
ATOM      5  C   UNL A   1      30.703  24.127  26.052  1.00  0.00     0.307 C 
ATOM      6  O   UNL A   1      30.170  24.869  26.869  1.00  0.00    -0.252 OA
BRANCH   5   7
ATOM      7  C   UNL A   1      31.003  24.587  24.646  1.00  0.00     0.148 C 
BRANCH   7   8
ATOM      8  C   UNL A   1      32.330  25.274  24.261  1.00  0.00     0.106 C 
ATOM      9  N   UNL A   1      32.027  26.392  23.313  1.00  0.00    -0.337 N 
ATOM     10  C   UNL A   1      31.777  26.027  21.912  1.00  0.00     0.130 C 
ATOM     11  C   UNL A   1      32.903  25.210  21.270  1.00  0.00     0.091 C 
ATOM     12  C   UNL A   1      33.512  24.420  23.781  1.00  0.00     0.095 C 
ATOM     13  S   UNL A   1      33.197  23.658  22.164  1.00  0.00    -0.158 SA
BRANCH   9  14
ATOM     14  C   UNL A   1      32.261  27.693  23.732  1.00  0.00     0.231 C 
ATOM     15  O   UNL A   1      33.338  28.242  23.478  1.00  0.00    -0.274 OA
BRANCH  14  16
ATOM     16  C   UNL A   1      31.314  28.342  24.761  1.00  0.00     0.133 C 
BRANCH  16  17
ATOM     17  C   UNL A   1      30.895  29.763  24.316  1.00  0.00     0.022 C 
BRANCH  17  18
ATOM     18  C   UNL A   1      29.589  29.855  23.494  1.00  0.00    -0.016 C 
ATOM     19  C   UNL A   1      28.863  31.186  23.681  1.00  0.00     0.007 C 
ATOM     20  C   UNL A   1      29.899  29.642  22.008  1.00  0.00     0.007 C 
ENDBRANCH  17  18
ENDBRANCH  16  17
BRANCH  16  21
ATOM     21  C   UNL A   1      31.730  28.273  26.241  1.00  0.00     0.272 C 
BRANCH  21  22
ATOM     22  N   UNL A   1      33.101  28.685  26.540  1.00  0.00    -0.357 N 
ATOM     23  H   UNL A   1      33.093  29.373  27.294  1.00  0.00     0.344 HD
ATOM     24  H   UNL A   1      33.521  29.098  25.708  1.00  0.00     0.344 HD
ATOM     25  H   UNL A   1      33.646  27.871  26.828  1.00  0.00     0.344 HD
ENDBRANCH  21  22
ENDBRANCH  16  21
ENDBRANCH  14  16
ENDBRANCH   9  14
ENDBRANCH   7   8
ENDBRANCH   5   7
ENDBRANCH   4   5
ENDBRANCH   3   4
ENDBRANCH   2   3
ENDBRANCH   1   2
BRANCH   1  26
ATOM     26  C   UNL A   1      35.439  21.806  25.803  1.00  0.00     0.188 C 
BRANCH  26  27
ATOM     27  C   UNL A   1      35.462  20.485  25.022  1.00  0.00     0.188 C 
BRANCH  27  28
ATOM     28  O   UNL A   1      36.603  19.662  24.907  1.00  0.00    -0.376 OA
BRANCH  28  29
ATOM     29  C   UNL A   1      37.912  20.210  25.001  1.00  0.00     0.202 C 
BRANCH  29  30
ATOM     30  C   UNL A   1      39.154  19.380  25.376  1.00  0.00     0.261 C 
BRANCH  30  31
ATOM     31  O   UNL A   1      40.002  19.941  26.375  1.00  0.00    -0.460 OA
BRANCH  31  32
ATOM     32  C   UNL A   1      41.325  19.677  26.209  1.00  0.00     0.338 C 
ATOM     33  O   UNL A   1      41.831  18.667  25.751  1.00  0.00    -0.246 OA
BRANCH  32  34
ATOM     34  C   UNL A   1      42.065  20.932  26.452  1.00  0.00     0.060 A 
ATOM     35  C   UNL A   1      42.454  21.229  27.768  1.00  0.00     0.016 A 
ATOM     36  C   UNL A   1      42.435  21.762  25.394  1.00  0.00     0.016 A 
ATOM     37  C   UNL A   1      43.197  22.378  28.031  1.00  0.00     0.010 A 
ATOM     38  C   UNL A   1      43.154  22.925  25.661  1.00  0.00     0.010 A 
ATOM     39  C   UNL A   1      43.512  23.252  26.982  1.00  0.00    -0.014 A 
BRANCH  39  40
ATOM     40  C   UNL A   1      44.000  24.617  27.280  1.00  0.00     0.031 A 
ATOM     41  C   UNL A   1      42.993  25.624  27.758  1.00  0.00     0.074 A 
ATOM     42  C   UNL A   1      45.286  24.964  27.117  1.00  0.00     0.049 A 
ATOM     43  N   UNL A   1      43.131  26.908  27.967  1.00  0.00    -0.248 NA
ATOM     44  C   UNL A   1      41.641  25.110  28.031  1.00  0.00     0.031 C 
ATOM     45  C   UNL A   1      46.364  24.066  26.713  1.00  0.00     0.029 A 
ATOM     46  N   UNL A   1      45.897  26.185  27.260  1.00  0.00    -0.354 N 
ATOM     47  C   UNL A   1      41.883  27.353  28.380  1.00  0.00     0.074 A 
ATOM     48  C   UNL A   1      40.994  26.214  28.368  1.00  0.00     0.031 C 
ATOM     49  C   UNL A   1      47.504  24.773  26.615  1.00  0.00     0.029 A 
ATOM     50  C   UNL A   1      47.226  26.178  26.913  1.00  0.00     0.049 A 
ATOM     51  H   UNL A   1      45.428  26.990  27.579  1.00  0.00     0.167 HD
ATOM     52  C   UNL A   1      41.513  28.604  28.742  1.00  0.00     0.037 A 
ATOM     53  C   UNL A   1      48.100  27.199  26.818  1.00  0.00     0.037 A 
ATOM     54  C   UNL A   1      42.398  29.736  28.749  1.00  0.00     0.049 A 
ATOM     55  C   UNL A   1      47.641  28.601  27.139  1.00  0.00     0.074 A 
ATOM     56  C   UNL A   1      42.124  31.043  29.109  1.00  0.00     0.029 A 
ATOM     57  N   UNL A   1      43.731  29.695  28.367  1.00  0.00    -0.354 N 
ATOM     58  N   UNL A   1      46.465  29.019  27.545  1.00  0.00    -0.248 NA
ATOM     59  C   UNL A   1      48.634  29.676  26.985  1.00  0.00     0.031 C 
ATOM     60  C   UNL A   1      43.276  31.804  28.892  1.00  0.00     0.029 A 
ATOM     61  C   UNL A   1      44.285  30.960  28.457  1.00  0.00     0.049 A 
ATOM     62  H   UNL A   1      44.211  28.886  28.074  1.00  0.00     0.167 HD
ATOM     63  C   UNL A   1      46.588  30.391  27.730  1.00  0.00     0.074 A 
ATOM     64  C   UNL A   1      47.953  30.736  27.397  1.00  0.00     0.031 C 
ATOM     65  C   UNL A   1      45.653  31.285  28.139  1.00  0.00     0.037 A 
BRANCH  52  66
ATOM     66  C   UNL A   1      40.078  28.813  29.125  1.00  0.00     0.064 A 
ATOM     67  C   UNL A   1      39.101  29.149  28.177  1.00  0.00     0.173 A 
ATOM     68  C   UNL A   1      39.674  28.657  30.459  1.00  0.00     0.173 A 
ATOM     69  F   UNL A   1      39.441  29.328  26.891  1.00  0.00    -0.203 F 
ATOM     70  C   UNL A   1      37.776  29.349  28.555  1.00  0.00     0.198 A 
ATOM     71  C   UNL A   1      38.343  28.827  30.828  1.00  0.00     0.198 A 
ATOM     72  F   UNL A   1      40.570  28.337  31.405  1.00  0.00    -0.203 F 
ATOM     73  F   UNL A   1      36.870  29.722  27.641  1.00  0.00    -0.200 F 
ATOM     74  C   UNL A   1      37.397  29.181  29.878  1.00  0.00     0.200 A 
ATOM     75  F   UNL A   1      37.976  28.652  32.106  1.00  0.00    -0.200 F 
ATOM     76  F   UNL A   1      36.120  29.367  30.239  1.00  0.00    -0.200 F 
ENDBRANCH  52  66
BRANCH  53  77
ATOM     77  C   UNL A   1      49.499  26.948  26.377  1.00  0.00     0.064 A 
ATOM     78  C   UNL A   1      50.517  26.707  27.310  1.00  0.00     0.173 A 
ATOM     79  C   UNL A   1      49.852  26.979  25.020  1.00  0.00     0.173 A 
ATOM     80  F   UNL A   1      50.235  26.698  28.620  1.00  0.00    -0.203 F 
ATOM     81  C   UNL A   1      51.839  26.529  26.903  1.00  0.00     0.198 A 
ATOM     82  C   UNL A   1      51.168  26.771  24.614  1.00  0.00     0.198 A 
ATOM     83  F   UNL A   1      48.917  27.212  24.086  1.00  0.00    -0.203 F 
ATOM     84  F   UNL A   1      52.801  26.357  27.821  1.00  0.00    -0.200 F 
ATOM     85  C   UNL A   1      52.162  26.556  25.556  1.00  0.00     0.200 A 
ATOM     86  F   UNL A   1      51.476  26.789  23.309  1.00  0.00    -0.200 F 
ATOM     87  F   UNL A   1      53.433  26.387  25.166  1.00  0.00    -0.200 F 
ENDBRANCH  53  77
BRANCH  65  88
ATOM     88  C   UNL A   1      46.081  32.715  28.307  1.00  0.00     0.064 A 
ATOM     89  C   UNL A   1      46.647  33.183  29.502  1.00  0.00     0.173 A 
ATOM     90  C   UNL A   1      45.983  33.613  27.232  1.00  0.00     0.173 A 
ATOM     91  F   UNL A   1      46.753  32.370  30.564  1.00  0.00    -0.203 F 
ATOM     92  C   UNL A   1      47.077  34.502  29.621  1.00  0.00     0.198 A 
ATOM     93  C   UNL A   1      46.444  34.921  27.345  1.00  0.00     0.198 A 
ATOM     94  F   UNL A   1      45.458  33.213  26.064  1.00  0.00    -0.203 F 
ATOM     95  F   UNL A   1      47.577  34.940  30.786  1.00  0.00    -0.200 F 
ATOM     96  C   UNL A   1      46.985  35.366  28.540  1.00  0.00     0.200 A 
ATOM     97  F   UNL A   1      46.369  35.749  26.293  1.00  0.00    -0.200 F 
ATOM     98  F   UNL A   1      47.414  36.631  28.652  1.00  0.00    -0.200 F 
ENDBRANCH  65  88
ENDBRANCH  39  40
ENDBRANCH  32  34
ENDBRANCH  31  32
ENDBRANCH  30  31
ENDBRANCH  29  30
ENDBRANCH  28  29
ENDBRANCH  27  28
ENDBRANCH  26  27
ENDBRANCH   1  26
TORSDOF 24
ENDMDL
MODEL 3
REMARK VINA RESULT:      -9.6      1.687      7.389
REMARK SMILES CC(C)C[C@H](C[NH3+])C(=O)N1CCSC[C@@H]1CC(=O)OCCOCCOCCOC(=O)c1ccc(-c2c3nc(c(-c4c(F)c(F)c(F)c(F)c4F)c4ccc([nH]4)c(-c4c(F)c(F)c(F)c(F)c4F)c4nc(c(-c5c(F)c(F)c(F)c(F)c5F)c5ccc2[nH]5)C=C4)C=C3)cc1
REMARK SMILES IDX 22 1 21 2 20 3 19 4 17 5 18 6 16 7 15 8 10 9 11 10 12 11
REMARK SMILES IDX 14 12 13 13 8 14 9 15 5 16 4 17 2 18 1 19 3 20 6 21 7 22
REMARK SMILES IDX 23 26 24 27 25 28 26 29 27 30 28 31 29 32 30 33 31 34 32 35
REMARK SMILES IDX 93 36 33 37 92 38 34 39 35 40 36 41 86 42 37 43 91 44 85 45
REMARK SMILES IDX 87 46 38 47 90 48 84 49 83 50 39 52 71 53 51 54 70 55 52 56
REMARK SMILES IDX 55 57 69 58 88 59 53 60 54 61 68 63 89 64 56 65 40 66 41 67
REMARK SMILES IDX 49 68 42 69 43 70 47 71 50 72 44 73 45 74 48 75 46 76 72 77
REMARK SMILES IDX 73 78 81 79 74 80 75 81 79 82 82 83 76 84 77 85 80 86 78 87
REMARK SMILES IDX 57 88 58 89 66 90 59 91 60 92 64 93 67 94 61 95 62 96 65 97
REMARK SMILES IDX 63 98
REMARK H PARENT 7 23 7 24 7 25 87 51 55 62
REMARK Flexibility Score: inf
ROOT
ATOM      1  O   UNL A   1      34.868  21.715  26.909  1.00  0.00    -0.376 OA
ENDROOT
BRANCH   1   2
ATOM      2  C   UNL A   1      33.454  21.608  26.757  1.00  0.00     0.202 C 
BRANCH   2   3
ATOM      3  C   UNL A   1      32.590  22.855  26.965  1.00  0.00     0.261 C 
BRANCH   3   4
ATOM      4  O   UNL A   1      31.354  22.762  26.228  1.00  0.00    -0.463 OA
BRANCH   4   5
ATOM      5  C   UNL A   1      30.693  23.930  26.059  1.00  0.00     0.307 C 
ATOM      6  O   UNL A   1      30.103  24.521  26.956  1.00  0.00    -0.252 OA
BRANCH   5   7
ATOM      7  C   UNL A   1      30.921  24.567  24.710  1.00  0.00     0.148 C 
BRANCH   7   8
ATOM      8  C   UNL A   1      32.235  25.288  24.342  1.00  0.00     0.106 C 
ATOM      9  N   UNL A   1      31.922  26.368  23.355  1.00  0.00    -0.337 N 
ATOM     10  C   UNL A   1      31.724  25.956  21.959  1.00  0.00     0.130 C 
ATOM     11  C   UNL A   1      32.894  25.160  21.371  1.00  0.00     0.091 C 
ATOM     12  C   UNL A   1      33.458  24.461  23.919  1.00  0.00     0.095 C 
ATOM     13  S   UNL A   1      33.214  23.644  22.317  1.00  0.00    -0.158 SA
BRANCH   9  14
ATOM     14  C   UNL A   1      32.101  27.687  23.742  1.00  0.00     0.231 C 
ATOM     15  O   UNL A   1      33.135  28.289  23.435  1.00  0.00    -0.274 OA
BRANCH  14  16
ATOM     16  C   UNL A   1      31.162  28.303  24.799  1.00  0.00     0.133 C 
BRANCH  16  17
ATOM     17  C   UNL A   1      30.778  29.755  24.426  1.00  0.00     0.022 C 
BRANCH  17  18
ATOM     18  C   UNL A   1      29.593  29.909  23.446  1.00  0.00    -0.016 C 
ATOM     19  C   UNL A   1      28.895  31.263  23.567  1.00  0.00     0.007 C 
ATOM     20  C   UNL A   1      30.084  29.711  22.008  1.00  0.00     0.007 C 
ENDBRANCH  17  18
ENDBRANCH  16  17
BRANCH  16  21
ATOM     21  C   UNL A   1      31.566  28.147  26.276  1.00  0.00     0.272 C 
BRANCH  21  22
ATOM     22  N   UNL A   1      32.913  28.600  26.622  1.00  0.00    -0.357 N 
ATOM     23  H   UNL A   1      32.864  29.230  27.423  1.00  0.00     0.344 HD
ATOM     24  H   UNL A   1      33.321  29.091  25.826  1.00  0.00     0.344 HD
ATOM     25  H   UNL A   1      33.492  27.794  26.858  1.00  0.00     0.344 HD
ENDBRANCH  21  22
ENDBRANCH  16  21
ENDBRANCH  14  16
ENDBRANCH   9  14
ENDBRANCH   7   8
ENDBRANCH   5   7
ENDBRANCH   4   5
ENDBRANCH   3   4
ENDBRANCH   2   3
ENDBRANCH   1   2
BRANCH   1  26
ATOM     26  C   UNL A   1      35.660  21.678  25.739  1.00  0.00     0.188 C 
BRANCH  26  27
ATOM     27  C   UNL A   1      35.843  20.346  25.001  1.00  0.00     0.188 C 
BRANCH  27  28
ATOM     28  O   UNL A   1      37.050  19.613  24.990  1.00  0.00    -0.376 OA
BRANCH  28  29
ATOM     29  C   UNL A   1      38.292  20.248  25.271  1.00  0.00     0.202 C 
BRANCH  29  30
ATOM     30  C   UNL A   1      39.527  19.497  25.803  1.00  0.00     0.261 C 
BRANCH  30  31
ATOM     31  O   UNL A   1      40.066  19.973  27.034  1.00  0.00    -0.460 OA
BRANCH  31  32
ATOM     32  C   UNL A   1      41.391  20.273  26.994  1.00  0.00     0.338 C 
ATOM     33  O   UNL A   1      42.303  19.565  26.604  1.00  0.00    -0.246 OA
BRANCH  32  34
ATOM     34  C   UNL A   1      41.532  21.716  27.276  1.00  0.00     0.060 A 
ATOM     35  C   UNL A   1      40.929  22.626  26.393  1.00  0.00     0.016 A 
ATOM     36  C   UNL A   1      42.180  22.162  28.428  1.00  0.00     0.016 A 
ATOM     37  C   UNL A   1      40.995  23.993  26.652  1.00  0.00     0.010 A 
ATOM     38  C   UNL A   1      42.270  23.531  28.670  1.00  0.00     0.010 A 
ATOM     39  C   UNL A   1      41.704  24.452  27.769  1.00  0.00    -0.014 A 
BRANCH  39  40
ATOM     40  C   UNL A   1      42.067  25.883  27.879  1.00  0.00     0.031 A 
ATOM     41  C   UNL A   1      43.391  26.308  27.313  1.00  0.00     0.074 A 
ATOM     42  C   UNL A   1      41.261  26.777  28.474  1.00  0.00     0.049 A 
ATOM     43  N   UNL A   1      43.999  27.464  27.388  1.00  0.00    -0.248 NA
ATOM     44  C   UNL A   1      44.137  25.282  26.565  1.00  0.00     0.031 C 
ATOM     45  C   UNL A   1      39.932  26.498  29.011  1.00  0.00     0.029 A 
ATOM     46  N   UNL A   1      41.462  28.108  28.740  1.00  0.00    -0.354 N 
ATOM     47  C   UNL A   1      45.199  27.297  26.712  1.00  0.00     0.074 A 
ATOM     48  C   UNL A   1      45.250  25.927  26.256  1.00  0.00     0.031 C 
ATOM     49  C   UNL A   1      39.444  27.621  29.566  1.00  0.00     0.029 A 
ATOM     50  C   UNL A   1      40.443  28.685  29.456  1.00  0.00     0.049 A 
ATOM     51  H   UNL A   1      42.262  28.603  28.446  1.00  0.00     0.167 HD
ATOM     52  C   UNL A   1      46.172  28.211  26.487  1.00  0.00     0.037 A 
ATOM     53  C   UNL A   1      40.350  29.920  29.987  1.00  0.00     0.037 A 
ATOM     54  C   UNL A   1      46.121  29.572  26.945  1.00  0.00     0.049 A 
ATOM     55  C   UNL A   1      41.489  30.895  29.801  1.00  0.00     0.074 A 
ATOM     56  C   UNL A   1      47.050  30.579  26.761  1.00  0.00     0.029 A 
ATOM     57  N   UNL A   1      45.084  30.113  27.690  1.00  0.00    -0.354 N 
ATOM     58  N   UNL A   1      42.616  30.742  29.148  1.00  0.00    -0.248 NA
ATOM     59  C   UNL A   1      41.341  32.216  30.432  1.00  0.00     0.031 C 
ATOM     60  C   UNL A   1      46.601  31.715  27.441  1.00  0.00     0.029 A 
ATOM     61  C   UNL A   1      45.363  31.434  27.996  1.00  0.00     0.049 A 
ATOM     62  H   UNL A   1      44.270  29.630  27.961  1.00  0.00     0.167 HD
ATOM     63  C   UNL A   1      43.291  31.952  29.257  1.00  0.00     0.074 A 
ATOM     64  C   UNL A   1      42.445  32.832  30.034  1.00  0.00     0.031 C 
ATOM     65  C   UNL A   1      44.501  32.304  28.756  1.00  0.00     0.037 A 
BRANCH  52  66
ATOM     66  C   UNL A   1      47.389  27.750  25.741  1.00  0.00     0.064 A 
ATOM     67  C   UNL A   1      48.525  27.268  26.406  1.00  0.00     0.173 A 
ATOM     68  C   UNL A   1      47.409  27.777  24.338  1.00  0.00     0.173 A 
ATOM     69  F   UNL A   1      48.562  27.240  27.747  1.00  0.00    -0.203 F 
ATOM     70  C   UNL A   1      49.649  26.855  25.695  1.00  0.00     0.198 A 
ATOM     71  C   UNL A   1      48.523  27.334  23.630  1.00  0.00     0.198 A 
ATOM     72  F   UNL A   1      46.348  28.230  23.655  1.00  0.00    -0.203 F 
ATOM     73  F   UNL A   1      50.743  26.448  26.353  1.00  0.00    -0.200 F 
ATOM     74  C   UNL A   1      49.644  26.881  24.309  1.00  0.00     0.200 A 
ATOM     75  F   UNL A   1      48.511  27.349  22.290  1.00  0.00    -0.200 F 
ATOM     76  F   UNL A   1      50.723  26.477  23.626  1.00  0.00    -0.200 F 
ENDBRANCH  52  66
BRANCH  53  77
ATOM     77  C   UNL A   1      39.146  30.310  30.769  1.00  0.00     0.064 A 
ATOM     78  C   UNL A   1      38.058  30.944  30.151  1.00  0.00     0.173 A 
ATOM     79  C   UNL A   1      39.073  30.091  32.152  1.00  0.00     0.173 A 
ATOM     80  F   UNL A   1      38.094  31.203  28.836  1.00  0.00    -0.203 F 
ATOM     81  C   UNL A   1      36.954  31.362  30.891  1.00  0.00     0.198 A 
ATOM     82  C   UNL A   1      37.955  30.484  32.885  1.00  0.00     0.198 A 
ATOM     83  F   UNL A   1      40.089  29.496  32.794  1.00  0.00    -0.203 F 
ATOM     84  F   UNL A   1      35.954  32.015  30.284  1.00  0.00    -0.200 F 
ATOM     85  C   UNL A   1      36.901  31.128  32.256  1.00  0.00     0.200 A 
ATOM     86  F   UNL A   1      37.903  30.247  34.204  1.00  0.00    -0.200 F 
ATOM     87  F   UNL A   1      35.839  31.532  32.967  1.00  0.00    -0.200 F 
ENDBRANCH  53  77
BRANCH  65  88
ATOM     88  C   UNL A   1      44.967  33.714  28.982  1.00  0.00     0.064 A 
ATOM     89  C   UNL A   1      44.648  34.750  28.093  1.00  0.00     0.173 A 
ATOM     90  C   UNL A   1      45.689  34.043  30.140  1.00  0.00     0.173 A 
ATOM     91  F   UNL A   1      43.970  34.488  26.965  1.00  0.00    -0.203 F 
ATOM     92  C   UNL A   1      45.053  36.059  28.344  1.00  0.00     0.198 A 
ATOM     93  C   UNL A   1      46.064  35.357  30.404  1.00  0.00     0.198 A 
ATOM     94  F   UNL A   1      46.012  33.091  31.029  1.00  0.00    -0.203 F 
ATOM     95  F   UNL A   1      44.773  37.027  27.459  1.00  0.00    -0.200 F 
ATOM     96  C   UNL A   1      45.751  36.362  29.503  1.00  0.00     0.200 A 
ATOM     97  F   UNL A   1      46.723  35.651  31.534  1.00  0.00    -0.200 F 
ATOM     98  F   UNL A   1      46.127  37.625  29.750  1.00  0.00    -0.200 F 
ENDBRANCH  65  88
ENDBRANCH  39  40
ENDBRANCH  32  34
ENDBRANCH  31  32
ENDBRANCH  30  31
ENDBRANCH  29  30
ENDBRANCH  28  29
ENDBRANCH  27  28
ENDBRANCH  26  27
ENDBRANCH   1  26
TORSDOF 24
ENDMDL
