MODEL 1
REMARK VINA RESULT:     -10.2      0.000      0.000
REMARK SMILES CC(C)(C)[NH2+]Cc1cc(C(=O)OCCOCCOCCOC(=O)c2ccc(-c3c4nc(c(-c5c(F)c(F)c(F)c(F)c5F)c5ccc([nH]5)c(-c5c(F)c(F)c(F)c(F)c5F)c5nc(c(-c6c(F)c(F)c(F)c(F)c6F)c6ccc3[nH]6)C=C5)C=C4)cc2)cs1
REMARK SMILES IDX 16 1 15 2 14 3 13 4 12 5 10 6 11 7 9 8 7 9 8 10 88 11 87 12
REMARK SMILES IDX 6 13 5 14 2 17 1 18 3 19 4 20 17 21 18 22 19 23 20 24 21 25
REMARK SMILES IDX 22 26 23 27 24 28 25 29 86 30 26 31 85 32 27 33 28 34 29 35
REMARK SMILES IDX 79 36 30 37 84 38 78 39 80 40 31 41 83 42 77 43 76 44 32 46
REMARK SMILES IDX 64 47 44 48 63 49 45 50 48 51 62 52 81 53 46 54 47 55 61 57
REMARK SMILES IDX 82 58 49 59 33 60 34 61 42 62 35 63 36 64 40 65 43 66 37 67
REMARK SMILES IDX 38 68 41 69 39 70 65 71 66 72 74 73 67 74 68 75 72 76 75 77
REMARK SMILES IDX 69 78 70 79 73 80 71 81 50 82 51 83 59 84 52 85 53 86 57 87
REMARK SMILES IDX 60 88 54 89 55 90 58 91 56 92
REMARK H PARENT 5 15 5 16 80 45 48 56
REMARK Flexibility Score: inf
ROOT
ATOM      1  C   UNL A   1      34.789  32.002  27.926  1.00  0.00     0.188 C 
ENDROOT
BRANCH   1   2
ATOM      2  O   UNL A   1      34.312  30.664  28.049  1.00  0.00    -0.376 OA
BRANCH   2   3
ATOM      3  C   UNL A   1      34.941  29.608  27.341  1.00  0.00     0.202 C 
BRANCH   3   4
ATOM      4  C   UNL A   1      34.006  28.595  26.679  1.00  0.00     0.261 C 
BRANCH   4   5
ATOM      5  O   UNL A   1      32.636  29.027  26.647  1.00  0.00    -0.460 OA
BRANCH   5   6
ATOM      6  C   UNL A   1      31.725  28.070  26.310  1.00  0.00     0.339 C 
ATOM      7  O   UNL A   1      31.246  27.255  27.090  1.00  0.00    -0.246 OA
BRANCH   6   8
ATOM      8  C   UNL A   1      31.286  28.175  24.919  1.00  0.00     0.071 A 
ATOM      9  C   UNL A   1      30.240  28.980  22.969  1.00  0.00     0.060 A 
ATOM     10  C   UNL A   1      30.500  29.213  24.309  1.00  0.00     0.037 A 
ATOM     11  S   UNL A   1      30.937  27.502  22.450  1.00  0.00    -0.142 S 
ATOM     12  C   UNL A   1      31.593  27.196  23.991  1.00  0.00     0.081 A 
BRANCH   9  13
ATOM     13  C   UNL A   1      29.506  29.848  21.988  1.00  0.00     0.308 C 
BRANCH  13  14
ATOM     14  N   UNL A   1      29.759  31.278  22.139  1.00  0.00    -0.338 N 
ATOM     15  H   UNL A   1      30.455  31.380  22.878  1.00  0.00     0.347 HD
ATOM     16  H   UNL A   1      30.034  31.574  21.202  1.00  0.00     0.347 HD
BRANCH  14  17
ATOM     17  C   UNL A   1      28.647  32.178  22.474  1.00  0.00     0.088 C 
ATOM     18  C   UNL A   1      29.105  33.495  23.124  1.00  0.00     0.078 C 
ATOM     19  C   UNL A   1      27.601  31.492  23.366  1.00  0.00     0.078 C 
ATOM     20  C   UNL A   1      27.969  32.519  21.130  1.00  0.00     0.078 C 
ENDBRANCH  14  17
ENDBRANCH  13  14
ENDBRANCH   9  13
ENDBRANCH   6   8
ENDBRANCH   5   6
ENDBRANCH   4   5
ENDBRANCH   3   4
ENDBRANCH   2   3
ENDBRANCH   1   2
BRANCH   1  21
ATOM     21  C   UNL A   1      33.844  33.208  28.074  1.00  0.00     0.188 C 
BRANCH  21  22
ATOM     22  O   UNL A   1      34.291  34.181  29.008  1.00  0.00    -0.376 OA
BRANCH  22  23
ATOM     23  C   UNL A   1      34.008  35.535  28.678  1.00  0.00     0.202 C 
BRANCH  23  24
ATOM     24  C   UNL A   1      32.984  36.144  29.637  1.00  0.00     0.261 C 
BRANCH  24  25
ATOM     25  O   UNL A   1      32.553  35.250  30.677  1.00  0.00    -0.460 OA
BRANCH  25  26
ATOM     26  C   UNL A   1      32.753  35.662  31.947  1.00  0.00     0.338 C 
ATOM     27  O   UNL A   1      32.032  36.380  32.615  1.00  0.00    -0.246 OA
BRANCH  26  28
ATOM     28  C   UNL A   1      33.943  34.966  32.469  1.00  0.00     0.060 A 
ATOM     29  C   UNL A   1      35.193  35.581  32.341  1.00  0.00     0.016 A 
ATOM     30  C   UNL A   1      33.826  33.709  33.070  1.00  0.00     0.016 A 
ATOM     31  C   UNL A   1      36.339  34.924  32.790  1.00  0.00     0.010 A 
ATOM     32  C   UNL A   1      34.974  33.048  33.508  1.00  0.00     0.010 A 
ATOM     33  C   UNL A   1      36.237  33.641  33.347  1.00  0.00    -0.014 A 
BRANCH  33  34
ATOM     34  C   UNL A   1      37.459  32.851  33.631  1.00  0.00     0.031 A 
ATOM     35  C   UNL A   1      38.221  33.129  34.896  1.00  0.00     0.074 A 
ATOM     36  C   UNL A   1      37.892  31.912  32.774  1.00  0.00     0.049 A 
ATOM     37  N   UNL A   1      39.331  32.591  35.332  1.00  0.00    -0.248 NA
ATOM     38  C   UNL A   1      37.657  34.156  35.785  1.00  0.00     0.031 C 
ATOM     39  C   UNL A   1      37.235  31.540  31.524  1.00  0.00     0.029 A 
ATOM     40  N   UNL A   1      39.004  31.107  32.826  1.00  0.00    -0.354 N 
ATOM     41  C   UNL A   1      39.594  33.207  36.548  1.00  0.00     0.074 A 
ATOM     42  C   UNL A   1      38.547  34.182  36.766  1.00  0.00     0.031 C 
ATOM     43  C   UNL A   1      37.964  30.585  30.917  1.00  0.00     0.029 A 
ATOM     44  C   UNL A   1      39.148  30.298  31.726  1.00  0.00     0.049 A 
ATOM     45  H   UNL A   1      39.636  31.110  33.581  1.00  0.00     0.167 HD
ATOM     46  C   UNL A   1      40.611  32.973  37.410  1.00  0.00     0.037 A 
ATOM     47  C   UNL A   1      40.135  29.440  31.405  1.00  0.00     0.037 A 
ATOM     48  C   UNL A   1      41.660  32.015  37.192  1.00  0.00     0.049 A 
ATOM     49  C   UNL A   1      41.296  29.251  32.348  1.00  0.00     0.074 A 
ATOM     50  C   UNL A   1      42.720  31.691  38.021  1.00  0.00     0.029 A 
ATOM     51  N   UNL A   1      41.789  31.234  36.054  1.00  0.00    -0.354 N 
ATOM     52  N   UNL A   1      41.513  29.802  33.518  1.00  0.00    -0.248 NA
ATOM     53  C   UNL A   1      42.350  28.318  31.924  1.00  0.00     0.031 C 
ATOM     54  C   UNL A   1      43.515  30.745  37.365  1.00  0.00     0.029 A 
ATOM     55  C   UNL A   1      42.926  30.448  36.147  1.00  0.00     0.049 A 
ATOM     56  H   UNL A   1      41.164  31.237  35.293  1.00  0.00     0.167 HD
ATOM     57  C   UNL A   1      42.709  29.268  33.978  1.00  0.00     0.074 A 
ATOM     58  C   UNL A   1      43.168  28.339  32.968  1.00  0.00     0.031 C 
ATOM     59  C   UNL A   1      43.368  29.524  35.135  1.00  0.00     0.037 A 
BRANCH  46  60
ATOM     60  C   UNL A   1      40.644  33.788  38.667  1.00  0.00     0.064 A 
ATOM     61  C   UNL A   1      39.886  33.430  39.791  1.00  0.00     0.173 A 
ATOM     62  C   UNL A   1      41.463  34.923  38.758  1.00  0.00     0.173 A 
ATOM     63  F   UNL A   1      39.075  32.361  39.746  1.00  0.00    -0.203 F 
ATOM     64  C   UNL A   1      39.931  34.192  40.955  1.00  0.00     0.198 A 
ATOM     65  C   UNL A   1      41.523  35.669  39.931  1.00  0.00     0.198 A 
ATOM     66  F   UNL A   1      42.208  35.305  37.710  1.00  0.00    -0.203 F 
ATOM     67  F   UNL A   1      39.167  33.855  42.004  1.00  0.00    -0.200 F 
ATOM     68  C   UNL A   1      40.753  35.307  41.027  1.00  0.00     0.200 A 
ATOM     69  F   UNL A   1      42.323  36.742  40.001  1.00  0.00    -0.200 F 
ATOM     70  F   UNL A   1      40.797  36.038  42.149  1.00  0.00    -0.200 F 
ENDBRANCH  46  60
BRANCH  47  71
ATOM     71  C   UNL A   1      40.081  28.693  30.123  1.00  0.00     0.064 A 
ATOM     72  C   UNL A   1      39.457  27.441  30.043  1.00  0.00     0.173 A 
ATOM     73  C   UNL A   1      40.679  29.201  28.961  1.00  0.00     0.173 A 
ATOM     74  F   UNL A   1      38.899  26.901  31.137  1.00  0.00    -0.203 F 
ATOM     75  C   UNL A   1      39.446  26.717  28.853  1.00  0.00     0.198 A 
ATOM     76  C   UNL A   1      40.648  28.487  27.765  1.00  0.00     0.198 A 
ATOM     77  F   UNL A   1      41.297  30.391  28.989  1.00  0.00    -0.203 F 
ATOM     78  F   UNL A   1      38.885  25.501  28.816  1.00  0.00    -0.200 F 
ATOM     79  C   UNL A   1      40.039  27.243  27.714  1.00  0.00     0.200 A 
ATOM     80  F   UNL A   1      41.218  29.000  26.665  1.00  0.00    -0.200 F 
ATOM     81  F   UNL A   1      40.032  26.545  26.570  1.00  0.00    -0.200 F 
ENDBRANCH  47  71
BRANCH  59  82
ATOM     82  C   UNL A   1      44.642  28.771  35.386  1.00  0.00     0.064 A 
ATOM     83  C   UNL A   1      44.650  27.551  36.074  1.00  0.00     0.173 A 
ATOM     84  C   UNL A   1      45.862  29.256  34.889  1.00  0.00     0.173 A 
ATOM     85  F   UNL A   1      43.512  27.054  36.581  1.00  0.00    -0.203 F 
ATOM     86  C   UNL A   1      45.837  26.849  36.272  1.00  0.00     0.198 A 
ATOM     87  C   UNL A   1      47.043  28.539  35.066  1.00  0.00     0.198 A 
ATOM     88  F   UNL A   1      45.906  30.416  34.217  1.00  0.00    -0.203 F 
ATOM     89  F   UNL A   1      45.829  25.702  36.966  1.00  0.00    -0.200 F 
ATOM     90  C   UNL A   1      47.030  27.341  35.762  1.00  0.00     0.200 A 
ATOM     91  F   UNL A   1      48.192  29.009  34.562  1.00  0.00    -0.200 F 
ATOM     92  F   UNL A   1      48.170  26.660  35.947  1.00  0.00    -0.200 F 
ENDBRANCH  59  82
ENDBRANCH  33  34
ENDBRANCH  26  28
ENDBRANCH  25  26
ENDBRANCH  24  25
ENDBRANCH  23  24
ENDBRANCH  22  23
ENDBRANCH  21  22
ENDBRANCH   1  21
TORSDOF 20
ENDMDL
MODEL 2
REMARK VINA RESULT:      -9.7      5.323      9.369
REMARK SMILES CC(C)(C)[NH2+]Cc1cc(C(=O)OCCOCCOCCOC(=O)c2ccc(-c3c4nc(c(-c5c(F)c(F)c(F)c(F)c5F)c5ccc([nH]5)c(-c5c(F)c(F)c(F)c(F)c5F)c5nc(c(-c6c(F)c(F)c(F)c(F)c6F)c6ccc3[nH]6)C=C5)C=C4)cc2)cs1
REMARK SMILES IDX 16 1 15 2 14 3 13 4 12 5 10 6 11 7 9 8 7 9 8 10 88 11 87 12
REMARK SMILES IDX 6 13 5 14 2 17 1 18 3 19 4 20 17 21 18 22 19 23 20 24 21 25
REMARK SMILES IDX 22 26 23 27 24 28 25 29 86 30 26 31 85 32 27 33 28 34 29 35
REMARK SMILES IDX 79 36 30 37 84 38 78 39 80 40 31 41 83 42 77 43 76 44 32 46
REMARK SMILES IDX 64 47 44 48 63 49 45 50 48 51 62 52 81 53 46 54 47 55 61 57
REMARK SMILES IDX 82 58 49 59 33 60 34 61 42 62 35 63 36 64 40 65 43 66 37 67
REMARK SMILES IDX 38 68 41 69 39 70 65 71 66 72 74 73 67 74 68 75 72 76 75 77
REMARK SMILES IDX 69 78 70 79 73 80 71 81 50 82 51 83 59 84 52 85 53 86 57 87
REMARK SMILES IDX 60 88 54 89 55 90 58 91 56 92
REMARK H PARENT 5 15 5 16 80 45 48 56
REMARK Flexibility Score: inf
ROOT
ATOM      1  C   UNL A   1      33.870  22.484  26.680  1.00  0.00     0.188 C 
ENDROOT
BRANCH   1   2
ATOM      2  O   UNL A   1      33.214  23.575  26.040  1.00  0.00    -0.376 OA
BRANCH   2   3
ATOM      3  C   UNL A   1      31.807  23.566  25.862  1.00  0.00     0.202 C 
BRANCH   3   4
ATOM      4  C   UNL A   1      31.096  24.903  26.075  1.00  0.00     0.261 C 
BRANCH   4   5
ATOM      5  O   UNL A   1      31.903  25.867  26.770  1.00  0.00    -0.460 OA
BRANCH   5   6
ATOM      6  C   UNL A   1      31.470  27.159  26.696  1.00  0.00     0.339 C 
ATOM      7  O   UNL A   1      31.026  27.802  27.640  1.00  0.00    -0.246 OA
BRANCH   6   8
ATOM      8  C   UNL A   1      31.688  27.752  25.378  1.00  0.00     0.071 A 
ATOM      9  C   UNL A   1      31.269  28.793  23.307  1.00  0.00     0.060 A 
ATOM     10  C   UNL A   1      30.722  28.358  24.502  1.00  0.00     0.037 A 
ATOM     11  S   UNL A   1      32.950  28.459  23.237  1.00  0.00    -0.142 S 
ATOM     12  C   UNL A   1      32.942  27.766  24.793  1.00  0.00     0.081 A 
BRANCH   9  13
ATOM     13  C   UNL A   1      30.601  29.515  22.172  1.00  0.00     0.308 C 
BRANCH  13  14
ATOM     14  N   UNL A   1      29.873  30.717  22.567  1.00  0.00    -0.338 N 
ATOM     15  H   UNL A   1      30.030  30.845  23.567  1.00  0.00     0.347 HD
ATOM     16  H   UNL A   1      30.243  31.437  21.946  1.00  0.00     0.347 HD
BRANCH  14  17
ATOM     17  C   UNL A   1      28.421  30.788  22.351  1.00  0.00     0.088 C 
ATOM     18  C   UNL A   1      28.039  31.370  20.979  1.00  0.00     0.078 C 
ATOM     19  C   UNL A   1      27.712  31.571  23.467  1.00  0.00     0.078 C 
ATOM     20  C   UNL A   1      27.921  29.329  22.407  1.00  0.00     0.078 C 
ENDBRANCH  14  17
ENDBRANCH  13  14
ENDBRANCH   9  13
ENDBRANCH   6   8
ENDBRANCH   5   6
ENDBRANCH   4   5
ENDBRANCH   3   4
ENDBRANCH   2   3
ENDBRANCH   1   2
BRANCH   1  21
ATOM     21  C   UNL A   1      33.681  21.036  26.193  1.00  0.00     0.188 C 
BRANCH  21  22
ATOM     22  O   UNL A   1      34.841  20.471  25.597  1.00  0.00    -0.376 OA
BRANCH  22  23
ATOM     23  C   UNL A   1      35.495  21.275  24.624  1.00  0.00     0.202 C 
BRANCH  23  24
ATOM     24  C   UNL A   1      37.016  21.135  24.709  1.00  0.00     0.261 C 
BRANCH  24  25
ATOM     25  O   UNL A   1      37.580  21.629  25.934  1.00  0.00    -0.460 OA
BRANCH  25  26
ATOM     26  C   UNL A   1      38.898  21.405  26.125  1.00  0.00     0.338 C 
ATOM     27  O   UNL A   1      39.529  20.405  25.835  1.00  0.00    -0.246 OA
BRANCH  26  28
ATOM     28  C   UNL A   1      39.505  22.655  26.618  1.00  0.00     0.060 A 
ATOM     29  C   UNL A   1      39.030  23.874  26.122  1.00  0.00     0.016 A 
ATOM     30  C   UNL A   1      40.542  22.622  27.554  1.00  0.00     0.016 A 
ATOM     31  C   UNL A   1      39.617  25.069  26.543  1.00  0.00     0.010 A 
ATOM     32  C   UNL A   1      41.135  23.815  27.964  1.00  0.00     0.010 A 
ATOM     33  C   UNL A   1      40.692  25.042  27.442  1.00  0.00    -0.014 A 
BRANCH  33  34
ATOM     34  C   UNL A   1      41.455  26.280  27.731  1.00  0.00     0.031 A 
ATOM     35  C   UNL A   1      40.776  27.387  28.486  1.00  0.00     0.074 A 
ATOM     36  C   UNL A   1      42.725  26.424  27.318  1.00  0.00     0.049 A 
ATOM     37  N   UNL A   1      41.232  28.567  28.819  1.00  0.00    -0.248 NA
ATOM     38  C   UNL A   1      39.395  27.129  28.921  1.00  0.00     0.031 C 
ATOM     39  C   UNL A   1      43.497  25.419  26.591  1.00  0.00     0.029 A 
ATOM     40  N   UNL A   1      43.585  27.487  27.444  1.00  0.00    -0.354 N 
ATOM     41  C   UNL A   1      40.200  29.189  29.506  1.00  0.00     0.074 A 
ATOM     42  C   UNL A   1      39.081  28.271  29.516  1.00  0.00     0.031 C 
ATOM     43  C   UNL A   1      44.717  25.920  26.322  1.00  0.00     0.029 A 
ATOM     44  C   UNL A   1      44.800  27.285  26.839  1.00  0.00     0.049 A 
ATOM     45  H   UNL A   1      43.351  28.315  27.923  1.00  0.00     0.167 HD
ATOM     46  C   UNL A   1      40.187  30.413  30.086  1.00  0.00     0.037 A 
ATOM     47  C   UNL A   1      45.850  28.119  26.703  1.00  0.00     0.037 A 
ATOM     48  C   UNL A   1      41.291  31.333  30.069  1.00  0.00     0.049 A 
ATOM     49  C   UNL A   1      45.785  29.503  27.295  1.00  0.00     0.074 A 
ATOM     50  C   UNL A   1      41.380  32.586  30.651  1.00  0.00     0.029 A 
ATOM     51  N   UNL A   1      42.496  31.106  29.422  1.00  0.00    -0.354 N 
ATOM     52  N   UNL A   1      44.822  30.066  27.984  1.00  0.00    -0.248 NA
ATOM     53  C   UNL A   1      46.956  30.369  27.089  1.00  0.00     0.031 C 
ATOM     54  C   UNL A   1      42.624  33.135  30.319  1.00  0.00     0.029 A 
ATOM     55  C   UNL A   1      43.325  32.206  29.567  1.00  0.00     0.049 A 
ATOM     56  H   UNL A   1      42.728  30.284  28.932  1.00  0.00     0.167 HD
ATOM     57  C   UNL A   1      45.278  31.336  28.313  1.00  0.00     0.074 A 
ATOM     58  C   UNL A   1      46.609  31.460  27.759  1.00  0.00     0.031 C 
ATOM     59  C   UNL A   1      44.650  32.313  29.014  1.00  0.00     0.037 A 
BRANCH  46  60
ATOM     60  C   UNL A   1      38.925  30.830  30.778  1.00  0.00     0.064 A 
ATOM     61  C   UNL A   1      38.745  30.631  32.154  1.00  0.00     0.173 A 
ATOM     62  C   UNL A   1      37.897  31.460  30.061  1.00  0.00     0.173 A 
ATOM     63  F   UNL A   1      39.694  30.018  32.878  1.00  0.00    -0.203 F 
ATOM     64  C   UNL A   1      37.569  31.030  32.785  1.00  0.00     0.198 A 
ATOM     65  C   UNL A   1      36.734  31.879  30.700  1.00  0.00     0.198 A 
ATOM     66  F   UNL A   1      38.024  31.674  28.743  1.00  0.00    -0.203 F 
ATOM     67  F   UNL A   1      37.401  30.794  34.093  1.00  0.00    -0.200 F 
ATOM     68  C   UNL A   1      36.568  31.658  32.059  1.00  0.00     0.200 A 
ATOM     69  F   UNL A   1      35.770  32.492  29.999  1.00  0.00    -0.200 F 
ATOM     70  F   UNL A   1      35.438  32.044  32.669  1.00  0.00    -0.200 F 
ENDBRANCH  46  60
BRANCH  47  71
ATOM     71  C   UNL A   1      47.059  27.675  25.965  1.00  0.00     0.064 A 
ATOM     72  C   UNL A   1      47.116  27.740  24.566  1.00  0.00     0.173 A 
ATOM     73  C   UNL A   1      48.169  27.147  26.640  1.00  0.00     0.173 A 
ATOM     74  F   UNL A   1      46.065  28.208  23.875  1.00  0.00    -0.203 F 
ATOM     75  C   UNL A   1      48.231  27.280  23.869  1.00  0.00     0.198 A 
ATOM     76  C   UNL A   1      49.293  26.709  25.944  1.00  0.00     0.198 A 
ATOM     77  F   UNL A   1      48.158  27.055  27.978  1.00  0.00    -0.203 F 
ATOM     78  F   UNL A   1      48.240  27.309  22.530  1.00  0.00    -0.200 F 
ATOM     79  C   UNL A   1      49.320  26.768  24.560  1.00  0.00     0.200 A 
ATOM     80  F   UNL A   1      50.345  26.218  26.615  1.00  0.00    -0.200 F 
ATOM     81  F   UNL A   1      50.391  26.321  23.888  1.00  0.00    -0.200 F 
ENDBRANCH  47  71
BRANCH  59  82
ATOM     82  C   UNL A   1      45.401  33.592  29.243  1.00  0.00     0.064 A 
ATOM     83  C   UNL A   1      45.230  34.704  28.407  1.00  0.00     0.173 A 
ATOM     84  C   UNL A   1      46.266  33.720  30.341  1.00  0.00     0.173 A 
ATOM     85  F   UNL A   1      44.426  34.626  27.337  1.00  0.00    -0.203 F 
ATOM     86  C   UNL A   1      45.912  35.893  28.652  1.00  0.00     0.198 A 
ATOM     87  C   UNL A   1      46.926  34.919  30.597  1.00  0.00     0.198 A 
ATOM     88  F   UNL A   1      46.459  32.686  31.175  1.00  0.00    -0.203 F 
ATOM     89  F   UNL A   1      45.763  36.933  27.818  1.00  0.00    -0.200 F 
ATOM     90  C   UNL A   1      46.753  36.002  29.750  1.00  0.00     0.200 A 
ATOM     91  F   UNL A   1      47.728  35.026  31.665  1.00  0.00    -0.200 F 
ATOM     92  F   UNL A   1      47.402  37.151  29.987  1.00  0.00    -0.200 F 
ENDBRANCH  59  82
ENDBRANCH  33  34
ENDBRANCH  26  28
ENDBRANCH  25  26
ENDBRANCH  24  25
ENDBRANCH  23  24
ENDBRANCH  22  23
ENDBRANCH  21  22
ENDBRANCH   1  21
TORSDOF 20
ENDMDL
MODEL 3
REMARK VINA RESULT:      -9.4      2.023      3.639
REMARK SMILES CC(C)(C)[NH2+]Cc1cc(C(=O)OCCOCCOCCOC(=O)c2ccc(-c3c4nc(c(-c5c(F)c(F)c(F)c(F)c5F)c5ccc([nH]5)c(-c5c(F)c(F)c(F)c(F)c5F)c5nc(c(-c6c(F)c(F)c(F)c(F)c6F)c6ccc3[nH]6)C=C5)C=C4)cc2)cs1
REMARK SMILES IDX 16 1 15 2 14 3 13 4 12 5 10 6 11 7 9 8 7 9 8 10 88 11 87 12
REMARK SMILES IDX 6 13 5 14 2 17 1 18 3 19 4 20 17 21 18 22 19 23 20 24 21 25
REMARK SMILES IDX 22 26 23 27 24 28 25 29 86 30 26 31 85 32 27 33 28 34 29 35
REMARK SMILES IDX 79 36 30 37 84 38 78 39 80 40 31 41 83 42 77 43 76 44 32 46
REMARK SMILES IDX 64 47 44 48 63 49 45 50 48 51 62 52 81 53 46 54 47 55 61 57
REMARK SMILES IDX 82 58 49 59 33 60 34 61 42 62 35 63 36 64 40 65 43 66 37 67
REMARK SMILES IDX 38 68 41 69 39 70 65 71 66 72 74 73 67 74 68 75 72 76 75 77
REMARK SMILES IDX 69 78 70 79 73 80 71 81 50 82 51 83 59 84 52 85 53 86 57 87
REMARK SMILES IDX 60 88 54 89 55 90 58 91 56 92
REMARK H PARENT 5 15 5 16 80 45 48 56
REMARK Flexibility Score: inf
ROOT
ATOM      1  C   UNL A   1      34.370  32.278  28.534  1.00  0.00     0.188 C 
ENDROOT
BRANCH   1   2
ATOM      2  O   UNL A   1      34.092  30.908  28.259  1.00  0.00    -0.376 OA
BRANCH   2   3
ATOM      3  C   UNL A   1      33.821  30.480  26.934  1.00  0.00     0.202 C 
BRANCH   3   4
ATOM      4  C   UNL A   1      32.393  30.006  26.663  1.00  0.00     0.261 C 
BRANCH   4   5
ATOM      5  O   UNL A   1      32.332  28.678  26.117  1.00  0.00    -0.460 OA
BRANCH   5   6
ATOM      6  C   UNL A   1      31.744  27.741  26.914  1.00  0.00     0.339 C 
ATOM      7  O   UNL A   1      31.175  27.981  27.973  1.00  0.00    -0.246 OA
BRANCH   6   8
ATOM      8  C   UNL A   1      31.766  26.404  26.323  1.00  0.00     0.071 A 
ATOM      9  C   UNL A   1      32.547  24.313  25.571  1.00  0.00     0.060 A 
ATOM     10  C   UNL A   1      32.872  25.490  26.223  1.00  0.00     0.037 A 
ATOM     11  S   UNL A   1      30.908  24.315  25.069  1.00  0.00    -0.142 S 
ATOM     12  C   UNL A   1      30.638  25.858  25.736  1.00  0.00     0.081 A 
BRANCH   9  13
ATOM     13  C   UNL A   1      33.407  23.108  25.321  1.00  0.00     0.308 C 
BRANCH  13  14
ATOM     14  N   UNL A   1      34.385  23.276  24.251  1.00  0.00    -0.338 N 
ATOM     15  H   UNL A   1      34.068  22.707  23.466  1.00  0.00     0.347 HD
ATOM     16  H   UNL A   1      34.414  24.285  24.107  1.00  0.00     0.347 HD
BRANCH  14  17
ATOM     17  C   UNL A   1      35.791  22.922  24.494  1.00  0.00     0.088 C 
ATOM     18  C   UNL A   1      36.451  23.774  25.591  1.00  0.00     0.078 C 
ATOM     19  C   UNL A   1      36.630  22.986  23.208  1.00  0.00     0.078 C 
ATOM     20  C   UNL A   1      35.774  21.456  24.973  1.00  0.00     0.078 C 
ENDBRANCH  14  17
ENDBRANCH  13  14
ENDBRANCH   9  13
ENDBRANCH   6   8
ENDBRANCH   5   6
ENDBRANCH   4   5
ENDBRANCH   3   4
ENDBRANCH   2   3
ENDBRANCH   1   2
BRANCH   1  21
ATOM     21  C   UNL A   1      33.378  33.392  28.154  1.00  0.00     0.188 C 
BRANCH  21  22
ATOM     22  O   UNL A   1      33.014  34.237  29.237  1.00  0.00    -0.376 OA
BRANCH  22  23
ATOM     23  C   UNL A   1      33.256  35.625  29.051  1.00  0.00     0.202 C 
BRANCH  23  24
ATOM     24  C   UNL A   1      32.665  36.456  30.192  1.00  0.00     0.261 C 
BRANCH  24  25
ATOM     25  O   UNL A   1      32.259  35.679  31.330  1.00  0.00    -0.460 OA
BRANCH  25  26
ATOM     26  C   UNL A   1      32.877  35.953  32.499  1.00  0.00     0.338 C 
ATOM     27  O   UNL A   1      32.484  36.682  33.391  1.00  0.00    -0.246 OA
BRANCH  26  28
ATOM     28  C   UNL A   1      34.068  35.091  32.596  1.00  0.00     0.060 A 
ATOM     29  C   UNL A   1      33.917  33.787  33.081  1.00  0.00     0.016 A 
ATOM     30  C   UNL A   1      35.327  35.570  32.223  1.00  0.00     0.016 A 
ATOM     31  C   UNL A   1      35.037  32.965  33.221  1.00  0.00     0.010 A 
ATOM     32  C   UNL A   1      36.446  34.752  32.374  1.00  0.00     0.010 A 
ATOM     33  C   UNL A   1      36.310  33.455  32.897  1.00  0.00    -0.014 A 
BRANCH  33  34
ATOM     34  C   UNL A   1      37.520  32.671  33.239  1.00  0.00     0.031 A 
ATOM     35  C   UNL A   1      38.247  32.984  34.516  1.00  0.00     0.074 A 
ATOM     36  C   UNL A   1      37.975  31.707  32.422  1.00  0.00     0.049 A 
ATOM     37  N   UNL A   1      39.342  32.455  35.000  1.00  0.00    -0.248 NA
ATOM     38  C   UNL A   1      37.661  34.036  35.360  1.00  0.00     0.031 C 
ATOM     39  C   UNL A   1      37.352  31.300  31.164  1.00  0.00     0.029 A 
ATOM     40  N   UNL A   1      39.082  30.901  32.529  1.00  0.00    -0.354 N 
ATOM     41  C   UNL A   1      39.572  33.105  36.204  1.00  0.00     0.074 A 
ATOM     42  C   UNL A   1      38.523  34.089  36.365  1.00  0.00     0.031 C 
ATOM     43  C   UNL A   1      38.096  30.327  30.607  1.00  0.00     0.029 A 
ATOM     44  C   UNL A   1      39.254  30.060  31.458  1.00  0.00     0.049 A 
ATOM     45  H   UNL A   1      39.692  30.924  33.301  1.00  0.00     0.167 HD
ATOM     46  C   UNL A   1      40.564  32.894  37.102  1.00  0.00     0.037 A 
ATOM     47  C   UNL A   1      40.248  29.191  31.189  1.00  0.00     0.037 A 
ATOM     48  C   UNL A   1      41.615  31.927  36.942  1.00  0.00     0.049 A 
ATOM     49  C   UNL A   1      41.380  29.026  32.171  1.00  0.00     0.074 A 
ATOM     50  C   UNL A   1      42.649  31.624  37.810  1.00  0.00     0.029 A 
ATOM     51  N   UNL A   1      41.773  31.113  35.830  1.00  0.00    -0.354 N 
ATOM     52  N   UNL A   1      41.565  29.610  33.329  1.00  0.00    -0.248 NA
ATOM     53  C   UNL A   1      42.443  28.078  31.804  1.00  0.00     0.031 C 
ATOM     54  C   UNL A   1      43.459  30.658  37.204  1.00  0.00     0.029 A 
ATOM     55  C   UNL A   1      42.905  30.328  35.979  1.00  0.00     0.049 A 
ATOM     56  H   UNL A   1      41.171  31.096  35.052  1.00  0.00     0.167 HD
ATOM     57  C   UNL A   1      42.746  29.086  33.839  1.00  0.00     0.074 A 
ATOM     58  C   UNL A   1      43.231  28.127  32.870  1.00  0.00     0.031 C 
ATOM     59  C   UNL A   1      43.372  29.373  35.007  1.00  0.00     0.037 A 
BRANCH  46  60
ATOM     60  C   UNL A   1      40.563  33.744  38.336  1.00  0.00     0.064 A 
ATOM     61  C   UNL A   1      39.814  33.392  39.467  1.00  0.00     0.173 A 
ATOM     62  C   UNL A   1      41.341  34.910  38.396  1.00  0.00     0.173 A 
ATOM     63  F   UNL A   1      39.042  32.294  39.450  1.00  0.00    -0.203 F 
ATOM     64  C   UNL A   1      39.828  34.188  40.609  1.00  0.00     0.198 A 
ATOM     65  C   UNL A   1      41.371  35.690  39.548  1.00  0.00     0.198 A 
ATOM     66  F   UNL A   1      42.076  35.288  37.340  1.00  0.00    -0.203 F 
ATOM     67  F   UNL A   1      39.073  33.853  41.665  1.00  0.00    -0.200 F 
ATOM     68  C   UNL A   1      40.610  35.332  40.652  1.00  0.00     0.200 A 
ATOM     69  F   UNL A   1      42.133  36.792  39.590  1.00  0.00    -0.200 F 
ATOM     70  F   UNL A   1      40.624  36.096  41.753  1.00  0.00    -0.200 F 
ENDBRANCH  46  60
BRANCH  47  71
ATOM     71  C   UNL A   1      40.228  28.407  29.928  1.00  0.00     0.064 A 
ATOM     72  C   UNL A   1      40.869  28.880  28.775  1.00  0.00     0.173 A 
ATOM     73  C   UNL A   1      39.542  27.188  29.842  1.00  0.00     0.173 A 
ATOM     74  F   UNL A   1      41.511  30.058  28.801  1.00  0.00    -0.203 F 
ATOM     75  C   UNL A   1      40.811  28.170  27.578  1.00  0.00     0.198 A 
ATOM     76  C   UNL A   1      39.505  26.466  28.651  1.00  0.00     0.198 A 
ATOM     77  F   UNL A   1      38.905  26.699  30.916  1.00  0.00    -0.203 F 
ATOM     78  F   UNL A   1      41.392  28.667  26.478  1.00  0.00    -0.200 F 
ATOM     79  C   UNL A   1      40.132  26.961  27.518  1.00  0.00     0.200 A 
ATOM     80  F   UNL A   1      38.851  25.297  28.598  1.00  0.00    -0.200 F 
ATOM     81  F   UNL A   1      40.074  26.280  26.365  1.00  0.00    -0.200 F 
ENDBRANCH  47  71
BRANCH  59  82
ATOM     82  C   UNL A   1      44.637  28.625  35.315  1.00  0.00     0.064 A 
ATOM     83  C   UNL A   1      45.893  29.126  34.948  1.00  0.00     0.173 A 
ATOM     84  C   UNL A   1      44.592  27.418  36.029  1.00  0.00     0.173 A 
ATOM     85  F   UNL A   1      45.988  30.268  34.252  1.00  0.00    -0.203 F 
ATOM     86  C   UNL A   1      47.059  28.435  35.269  1.00  0.00     0.198 A 
ATOM     87  C   UNL A   1      45.760  26.743  36.371  1.00  0.00     0.198 A 
ATOM     88  F   UNL A   1      43.413  26.901  36.410  1.00  0.00    -0.203 F 
ATOM     89  F   UNL A   1      48.249  28.912  34.875  1.00  0.00    -0.200 F 
ATOM     90  C   UNL A   1      46.992  27.249  35.986  1.00  0.00     0.200 A 
ATOM     91  F   UNL A   1      45.694  25.604  37.073  1.00  0.00    -0.200 F 
ATOM     92  F   UNL A   1      48.117  26.590  36.300  1.00  0.00    -0.200 F 
ENDBRANCH  59  82
ENDBRANCH  33  34
ENDBRANCH  26  28
ENDBRANCH  25  26
ENDBRANCH  24  25
ENDBRANCH  23  24
ENDBRANCH  22  23
ENDBRANCH  21  22
ENDBRANCH   1  21
TORSDOF 20
ENDMDL
