MODEL 1
REMARK VINA RESULT:     -13.0      0.000      0.000
REMARK SMILES Cc1ccccc1/C=C1\SC(=S)N(CCC(=O)N[C@@H](C)C(=O)OCCOCCOCCOC(=O)c2ccc(-c3c4nc(c(-c5c(F)c(F)c(F)c(F)c5F)c5ccc([nH]5)c(-c5c(F)c(F)c(F)c(F)c5F)c5nc(c(-c6c(F)c(F)c(F)c(F)c6F)c6ccc3[nH]6)C=C5)C=C4)cc2)C1=O
REMARK SMILES IDX 26 1 25 2 24 3 23 4 21 5 22 6 19 7 20 8 18 9 16 10 17 11
REMARK SMILES IDX 15 13 14 14 13 15 8 16 9 17 10 18 98 19 11 20 99 21 12 22
REMARK SMILES IDX 7 23 1 24 2 25 3 26 4 27 6 28 5 29 27 30 28 31 29 32 30 33
REMARK SMILES IDX 31 34 32 35 33 36 34 37 35 38 36 39 97 40 37 41 96 42 38 43
REMARK SMILES IDX 39 44 40 45 90 46 41 47 95 48 89 49 91 50 42 51 94 52 88 53
REMARK SMILES IDX 87 54 43 56 75 57 55 58 74 59 56 60 59 61 73 62 92 63 57 64
REMARK SMILES IDX 58 65 72 67 93 68 60 69 44 70 45 71 53 72 46 73 47 74 51 75
REMARK SMILES IDX 54 76 48 77 49 78 52 79 50 80 76 81 77 82 85 83 78 84 79 85
REMARK SMILES IDX 83 86 86 87 80 88 81 89 84 90 82 91 61 92 62 93 70 94 63 95
REMARK SMILES IDX 64 96 68 97 71 98 65 99 66 100 69 101 67 102
REMARK H PARENT 18 12 91 55 59 66
REMARK Flexibility Score: inf
ROOT
ATOM      1  O   UNL A   1      32.350  33.218  27.575  1.00  0.00    -0.376 OA
ENDROOT
BRANCH   1   2
ATOM      2  C   UNL A   1      32.440  31.830  27.198  1.00  0.00     0.202 C 
BRANCH   2   3
ATOM      3  C   UNL A   1      31.680  30.744  26.038  1.00  0.00     0.261 C 
BRANCH   3   4
ATOM      4  O   UNL A   1      30.375  30.706  24.688  1.00  0.00    -0.462 OA
BRANCH   4   5
ATOM      5  C   UNL A   1      29.957  30.016  23.298  1.00  0.00     0.328 C 
ATOM      6  O   UNL A   1      29.248  30.523  22.398  1.00  0.00    -0.250 OA
BRANCH   5   7
ATOM      7  C   UNL A   1      30.508  28.716  22.779  1.00  0.00     0.189 C 
ATOM      8  C   UNL A   1      29.863  27.599  23.555  1.00  0.00     0.043 C 
BRANCH   7   9
ATOM      9  N   UNL A   1      31.774  28.394  22.181  1.00  0.00    -0.343 N 
ATOM     10  C   UNL A   1      33.030  28.462  22.721  1.00  0.00     0.222 C 
ATOM     11  O   UNL A   1      33.950  28.407  21.893  1.00  0.00    -0.275 OA
ATOM     12  H   UNL A   1      31.732  28.080  21.249  1.00  0.00     0.164 HD
BRANCH  10  13
ATOM     13  C   UNL A   1      33.390  28.470  24.238  1.00  0.00     0.122 C 
BRANCH  13  14
ATOM     14  C   UNL A   1      34.061  27.290  24.989  1.00  0.00     0.137 C 
BRANCH  14  15
ATOM     15  N   UNL A   1      33.216  26.075  25.216  1.00  0.00    -0.292 N 
ATOM     16  C   UNL A   1      33.076  22.555  24.513  1.00  0.00     0.029 C 
ATOM     17  C   UNL A   1      32.661  23.768  24.921  1.00  0.00     0.081 C 
ATOM     18  S   UNL A   1      31.547  24.265  26.104  1.00  0.00    -0.054 SA
ATOM     19  C   UNL A   1      33.279  25.017  24.332  1.00  0.00     0.266 C 
ATOM     20  C   UNL A   1      32.156  25.951  26.092  1.00  0.00     0.148 C 
ATOM     21  O   UNL A   1      33.706  25.096  23.186  1.00  0.00    -0.268 OA
ATOM     22  S   UNL A   1      31.411  27.170  26.963  1.00  0.00    -0.052 S 
BRANCH  16  23
ATOM     23  C   UNL A   1      32.891  21.071  24.692  1.00  0.00    -0.021 A 
ATOM     24  C   UNL A   1      31.956  21.272  22.124  1.00  0.00     0.045 C 
ATOM     25  C   UNL A   1      32.515  20.337  23.177  1.00  0.00    -0.044 A 
ATOM     26  C   UNL A   1      32.287  18.642  22.906  1.00  0.00     0.004 A 
ATOM     27  C   UNL A   1      32.384  17.420  24.077  1.00  0.00     0.000 A 
ATOM     28  C   UNL A   1      33.132  19.932  26.069  1.00  0.00     0.008 A 
ATOM     29  C   UNL A   1      32.762  17.900  25.726  1.00  0.00     0.001 A 
ENDBRANCH  16  23
ENDBRANCH  14  15
ENDBRANCH  13  14
ENDBRANCH  10  13
ENDBRANCH   7   9
ENDBRANCH   5   7
ENDBRANCH   4   5
ENDBRANCH   3   4
ENDBRANCH   2   3
ENDBRANCH   1   2
BRANCH   1  30
ATOM     30  C   UNL A   1      33.460  34.031  27.905  1.00  0.00     0.188 C 
BRANCH  30  31
ATOM     31  C   UNL A   1      33.286  34.972  29.013  1.00  0.00     0.188 C 
BRANCH  31  32
ATOM     32  O   UNL A   1      33.429  34.259  30.212  1.00  0.00    -0.376 OA
BRANCH  32  33
ATOM     33  C   UNL A   1      34.663  34.278  30.857  1.00  0.00     0.202 C 
BRANCH  33  34
ATOM     34  C   UNL A   1      34.988  32.890  31.380  1.00  0.00     0.261 C 
BRANCH  34  35
ATOM     35  O   UNL A   1      35.271  31.940  30.268  1.00  0.00    -0.460 OA
BRANCH  35  36
ATOM     36  C   UNL A   1      36.478  31.774  29.585  1.00  0.00     0.338 C 
ATOM     37  O   UNL A   1      37.276  32.672  29.386  1.00  0.00    -0.246 OA
BRANCH  36  38
ATOM     38  C   UNL A   1      36.744  30.329  29.134  1.00  0.00     0.060 A 
ATOM     39  C   UNL A   1      36.864  29.186  29.991  1.00  0.00     0.016 A 
ATOM     40  C   UNL A   1      37.524  30.289  28.054  1.00  0.00     0.016 A 
ATOM     41  C   UNL A   1      38.088  28.343  30.094  1.00  0.00     0.010 A 
ATOM     42  C   UNL A   1      38.736  29.675  28.334  1.00  0.00     0.010 A 
ATOM     43  C   UNL A   1      39.262  28.718  29.452  1.00  0.00    -0.014 A 
BRANCH  43  44
ATOM     44  C   UNL A   1      40.986  27.934  29.574  1.00  0.00     0.031 A 
ATOM     45  C   UNL A   1      41.467  26.342  28.578  1.00  0.00     0.074 A 
ATOM     46  C   UNL A   1      41.960  28.542  30.329  1.00  0.00     0.049 A 
ATOM     47  N   UNL A   1      41.512  25.128  29.065  1.00  0.00    -0.248 NA
ATOM     48  C   UNL A   1      41.144  25.899  26.951  1.00  0.00     0.031 C 
ATOM     49  C   UNL A   1      43.433  28.468  30.262  1.00  0.00     0.029 A 
ATOM     50  N   UNL A   1      41.839  29.618  31.219  1.00  0.00    -0.354 N 
ATOM     51  C   UNL A   1      41.705  24.125  28.104  1.00  0.00     0.074 A 
ATOM     52  C   UNL A   1      41.071  24.571  26.935  1.00  0.00     0.031 C 
ATOM     53  C   UNL A   1      43.987  29.121  31.314  1.00  0.00     0.029 A 
ATOM     54  C   UNL A   1      42.901  29.614  32.118  1.00  0.00     0.049 A 
ATOM     55  H   UNL A   1      41.109  30.279  31.208  1.00  0.00     0.167 HD
ATOM     56  C   UNL A   1      42.708  23.202  28.201  1.00  0.00     0.037 A 
ATOM     57  C   UNL A   1      42.642  29.518  33.437  1.00  0.00     0.037 A 
ATOM     58  C   UNL A   1      43.576  23.693  29.320  1.00  0.00     0.049 A 
ATOM     59  C   UNL A   1      43.214  28.187  33.902  1.00  0.00     0.074 A 
ATOM     60  C   UNL A   1      44.282  25.354  28.980  1.00  0.00     0.029 A 
ATOM     61  N   UNL A   1      44.024  23.380  31.265  1.00  0.00    -0.354 N 
ATOM     62  N   UNL A   1      43.654  27.222  33.124  1.00  0.00    -0.248 NA
ATOM     63  C   UNL A   1      43.348  27.862  35.308  1.00  0.00     0.031 C 
ATOM     64  C   UNL A   1      45.063  26.036  30.591  1.00  0.00     0.029 A 
ATOM     65  C   UNL A   1      44.851  24.934  31.933  1.00  0.00     0.049 A 
ATOM     66  H   UNL A   1      43.841  22.559  31.776  1.00  0.00     0.167 HD
ATOM     67  C   UNL A   1      44.178  26.195  33.884  1.00  0.00     0.074 A 
ATOM     68  C   UNL A   1      43.856  26.621  35.237  1.00  0.00     0.031 C 
ATOM     69  C   UNL A   1      44.830  25.086  33.378  1.00  0.00     0.037 A 
BRANCH  56  70
ATOM     70  C   UNL A   1      43.252  22.494  26.923  1.00  0.00     0.064 A 
ATOM     71  C   UNL A   1      44.093  23.178  26.011  1.00  0.00     0.173 A 
ATOM     72  C   UNL A   1      42.964  21.161  26.529  1.00  0.00     0.173 A 
ATOM     73  F   UNL A   1      44.293  24.496  26.104  1.00  0.00    -0.203 F 
ATOM     74  C   UNL A   1      44.710  22.561  24.910  1.00  0.00     0.198 A 
ATOM     75  C   UNL A   1      43.517  20.568  25.372  1.00  0.00     0.198 A 
ATOM     76  F   UNL A   1      42.123  20.397  27.239  1.00  0.00    -0.203 F 
ATOM     77  F   UNL A   1      45.567  23.260  24.151  1.00  0.00    -0.200 F 
ATOM     78  C   UNL A   1      44.427  21.252  24.591  1.00  0.00     0.200 A 
ATOM     79  F   UNL A   1      43.160  19.324  25.014  1.00  0.00    -0.200 F 
ATOM     80  F   UNL A   1      45.005  20.670  23.530  1.00  0.00    -0.200 F 
ENDBRANCH  56  70
BRANCH  57  81
ATOM     81  C   UNL A   1      41.314  30.197  33.740  1.00  0.00     0.064 A 
ATOM     82  C   UNL A   1      41.223  31.616  33.607  1.00  0.00     0.173 A 
ATOM     83  C   UNL A   1      40.109  29.504  33.620  1.00  0.00     0.173 A 
ATOM     84  F   UNL A   1      42.334  32.367  33.665  1.00  0.00    -0.203 F 
ATOM     85  C   UNL A   1      40.042  32.252  33.197  1.00  0.00     0.198 A 
ATOM     86  C   UNL A   1      38.911  30.159  33.288  1.00  0.00     0.198 A 
ATOM     87  F   UNL A   1      40.126  28.173  33.644  1.00  0.00    -0.203 F 
ATOM     88  F   UNL A   1      40.060  33.544  32.830  1.00  0.00    -0.200 F 
ATOM     89  C   UNL A   1      38.894  31.516  33.012  1.00  0.00     0.200 A 
ATOM     90  F   UNL A   1      37.802  29.448  33.035  1.00  0.00    -0.200 F 
ATOM     91  F   UNL A   1      37.810  32.082  32.457  1.00  0.00    -0.200 F 
ENDBRANCH  57  81
BRANCH  69  92
ATOM     92  C   UNL A   1      45.312  23.872  34.130  1.00  0.00     0.064 A 
ATOM     93  C   UNL A   1      44.572  22.739  34.391  1.00  0.00     0.173 A 
ATOM     94  C   UNL A   1      46.662  23.766  34.531  1.00  0.00     0.173 A 
ATOM     95  F   UNL A   1      43.250  22.811  34.558  1.00  0.00    -0.203 F 
ATOM     96  C   UNL A   1      45.191  21.518  34.647  1.00  0.00     0.198 A 
ATOM     97  C   UNL A   1      47.318  22.558  34.663  1.00  0.00     0.198 A 
ATOM     98  F   UNL A   1      47.360  24.846  34.898  1.00  0.00    -0.203 F 
ATOM     99  F   UNL A   1      44.431  20.442  34.875  1.00  0.00    -0.200 F 
ATOM    100  C   UNL A   1      46.571  21.411  34.692  1.00  0.00     0.200 A 
ATOM    101  F   UNL A   1      48.652  22.526  34.794  1.00  0.00    -0.200 F 
ATOM    102  F   UNL A   1      47.163  20.230  34.893  1.00  0.00    -0.200 F 
ENDBRANCH  69  92
ENDBRANCH  43  44
ENDBRANCH  36  38
ENDBRANCH  35  36
ENDBRANCH  34  35
ENDBRANCH  33  34
ENDBRANCH  32  33
ENDBRANCH  31  32
ENDBRANCH  30  31
ENDBRANCH   1  30
TORSDOF 22
ENDMDL
MODEL 2
REMARK VINA RESULT:     -13.0      1.877      4.230
REMARK SMILES Cc1ccccc1/C=C1\SC(=S)N(CCC(=O)N[C@@H](C)C(=O)OCCOCCOCCOC(=O)c2ccc(-c3c4nc(c(-c5c(F)c(F)c(F)c(F)c5F)c5ccc([nH]5)c(-c5c(F)c(F)c(F)c(F)c5F)c5nc(c(-c6c(F)c(F)c(F)c(F)c6F)c6ccc3[nH]6)C=C5)C=C4)cc2)C1=O
REMARK SMILES IDX 26 1 25 2 24 3 23 4 21 5 22 6 19 7 20 8 18 9 16 10 17 11
REMARK SMILES IDX 15 13 14 14 13 15 8 16 9 17 10 18 98 19 11 20 99 21 12 22
REMARK SMILES IDX 7 23 1 24 2 25 3 26 4 27 6 28 5 29 27 30 28 31 29 32 30 33
REMARK SMILES IDX 31 34 32 35 33 36 34 37 35 38 36 39 97 40 37 41 96 42 38 43
REMARK SMILES IDX 39 44 40 45 90 46 41 47 95 48 89 49 91 50 42 51 94 52 88 53
REMARK SMILES IDX 87 54 43 56 75 57 55 58 74 59 56 60 59 61 73 62 92 63 57 64
REMARK SMILES IDX 58 65 72 67 93 68 60 69 44 70 45 71 53 72 46 73 47 74 51 75
REMARK SMILES IDX 54 76 48 77 49 78 52 79 50 80 76 81 77 82 85 83 78 84 79 85
REMARK SMILES IDX 83 86 86 87 80 88 81 89 84 90 82 91 61 92 62 93 70 94 63 95
REMARK SMILES IDX 64 96 68 97 71 98 65 99 66 100 69 101 67 102
REMARK H PARENT 18 12 91 55 59 66
REMARK Flexibility Score: inf
ROOT
ATOM      1  O   UNL A   1      31.233  29.260  27.267  1.00  0.00    -0.376 OA
ENDROOT
BRANCH   1   2
ATOM      2  C   UNL A   1      31.290  27.908  26.770  1.00  0.00     0.202 C 
BRANCH   2   3
ATOM      3  C   UNL A   1      32.195  26.435  27.106  1.00  0.00     0.261 C 
BRANCH   3   4
ATOM      4  O   UNL A   1      32.027  24.564  27.087  1.00  0.00    -0.462 OA
BRANCH   4   5
ATOM      5  C   UNL A   1      32.781  23.184  27.422  1.00  0.00     0.328 C 
ATOM      6  O   UNL A   1      32.373  22.279  28.186  1.00  0.00    -0.250 OA
BRANCH   5   7
ATOM      7  C   UNL A   1      34.015  22.683  26.722  1.00  0.00     0.189 C 
ATOM      8  C   UNL A   1      34.117  21.202  26.969  1.00  0.00     0.043 C 
BRANCH   7   9
ATOM      9  N   UNL A   1      35.252  23.337  26.399  1.00  0.00    -0.343 N 
ATOM     10  C   UNL A   1      36.103  23.112  25.350  1.00  0.00     0.222 C 
ATOM     11  O   UNL A   1      37.228  23.615  25.482  1.00  0.00    -0.275 OA
ATOM     12  H   UNL A   1      35.529  24.048  27.021  1.00  0.00     0.164 HD
BRANCH  10  13
ATOM     13  C   UNL A   1      35.750  22.418  23.999  1.00  0.00     0.122 C 
BRANCH  13  14
ATOM     14  C   UNL A   1      34.906  23.067  22.871  1.00  0.00     0.137 C 
BRANCH  14  15
ATOM     15  N   UNL A   1      33.505  23.460  23.225  1.00  0.00    -0.292 N 
ATOM     16  C   UNL A   1      31.342  26.318  23.463  1.00  0.00     0.029 C 
ATOM     17  C   UNL A   1      31.759  25.047  23.610  1.00  0.00     0.081 C 
ATOM     18  S   UNL A   1      30.930  23.565  23.684  1.00  0.00    -0.054 SA
ATOM     19  C   UNL A   1      33.239  24.738  23.670  1.00  0.00     0.266 C 
ATOM     20  C   UNL A   1      32.426  22.617  23.404  1.00  0.00     0.148 C 
ATOM     21  O   UNL A   1      34.080  25.499  24.132  1.00  0.00    -0.268 OA
ATOM     22  S   UNL A   1      32.445  20.946  23.484  1.00  0.00    -0.052 S 
BRANCH  16  23
ATOM     23  C   UNL A   1      30.131  27.204  23.338  1.00  0.00    -0.021 A 
ATOM     24  C   UNL A   1      32.030  29.032  22.588  1.00  0.00     0.045 C 
ATOM     25  C   UNL A   1      30.557  28.676  22.546  1.00  0.00    -0.044 A 
ATOM     26  C   UNL A   1      29.464  29.954  22.134  1.00  0.00     0.004 A 
ATOM     27  C   UNL A   1      27.798  29.983  22.444  1.00  0.00     0.000 A 
ATOM     28  C   UNL A   1      28.374  26.987  23.680  1.00  0.00     0.008 A 
ATOM     29  C   UNL A   1      27.094  28.587  23.250  1.00  0.00     0.001 A 
ENDBRANCH  16  23
ENDBRANCH  14  15
ENDBRANCH  13  14
ENDBRANCH  10  13
ENDBRANCH   7   9
ENDBRANCH   5   7
ENDBRANCH   4   5
ENDBRANCH   3   4
ENDBRANCH   2   3
ENDBRANCH   1   2
BRANCH   1  30
ATOM     30  C   UNL A   1      32.207  30.251  27.005  1.00  0.00     0.188 C 
BRANCH  30  31
ATOM     31  C   UNL A   1      33.596  29.915  27.322  1.00  0.00     0.188 C 
BRANCH  31  32
ATOM     32  O   UNL A   1      34.351  31.096  27.260  1.00  0.00    -0.376 OA
BRANCH  32  33
ATOM     33  C   UNL A   1      33.976  32.171  28.061  1.00  0.00     0.202 C 
BRANCH  33  34
ATOM     34  C   UNL A   1      35.116  32.534  28.997  1.00  0.00     0.261 C 
BRANCH  34  35
ATOM     35  O   UNL A   1      35.227  31.565  30.123  1.00  0.00    -0.460 OA
BRANCH  35  36
ATOM     36  C   UNL A   1      36.210  30.590  30.306  1.00  0.00     0.338 C 
ATOM     37  O   UNL A   1      36.300  29.891  31.300  1.00  0.00    -0.246 OA
BRANCH  36  38
ATOM     38  C   UNL A   1      37.163  30.436  29.110  1.00  0.00     0.060 A 
ATOM     39  C   UNL A   1      37.293  29.276  28.279  1.00  0.00     0.016 A 
ATOM     40  C   UNL A   1      38.300  31.104  29.302  1.00  0.00     0.016 A 
ATOM     41  C   UNL A   1      38.551  28.490  28.130  1.00  0.00     0.010 A 
ATOM     42  C   UNL A   1      39.384  30.240  29.370  1.00  0.00     0.010 A 
ATOM     43  C   UNL A   1      39.656  28.767  28.926  1.00  0.00    -0.014 A 
BRANCH  43  44
ATOM     44  C   UNL A   1      41.290  27.811  29.064  1.00  0.00     0.031 A 
ATOM     45  C   UNL A   1      41.507  26.029  28.334  1.00  0.00     0.074 A 
ATOM     46  C   UNL A   1      42.387  28.414  29.632  1.00  0.00     0.049 A 
ATOM     47  N   UNL A   1      41.465  24.917  29.023  1.00  0.00    -0.248 NA
ATOM     48  C   UNL A   1      40.995  25.363  26.836  1.00  0.00     0.031 C 
ATOM     49  C   UNL A   1      43.831  28.152  29.479  1.00  0.00     0.029 A 
ATOM     50  N   UNL A   1      42.461  29.630  30.325  1.00  0.00    -0.354 N 
ATOM     51  C   UNL A   1      41.463  23.752  28.242  1.00  0.00     0.074 A 
ATOM     52  C   UNL A   1      40.779  24.069  27.059  1.00  0.00     0.031 C 
ATOM     53  C   UNL A   1      44.544  28.899  30.358  1.00  0.00     0.029 A 
ATOM     54  C   UNL A   1      43.592  29.647  31.136  1.00  0.00     0.049 A 
ATOM     55  H   UNL A   1      41.809  30.363  30.248  1.00  0.00     0.167 HD
ATOM     56  C   UNL A   1      42.365  22.743  28.431  1.00  0.00     0.037 A 
ATOM     57  C   UNL A   1      43.441  29.805  32.466  1.00  0.00     0.037 A 
ATOM     58  C   UNL A   1      43.377  23.305  29.383  1.00  0.00     0.049 A 
ATOM     59  C   UNL A   1      43.906  28.511  33.118  1.00  0.00     0.074 A 
ATOM     60  C   UNL A   1      44.223  24.788  28.709  1.00  0.00     0.029 A 
ATOM     61  N   UNL A   1      43.958  23.269  31.318  1.00  0.00    -0.354 N 
ATOM     62  N   UNL A   1      44.170  27.383  32.493  1.00  0.00    -0.248 NA
ATOM     63  C   UNL A   1      44.128  28.411  34.547  1.00  0.00     0.031 C 
ATOM     64  C   UNL A   1      45.213  25.629  30.117  1.00  0.00     0.029 A 
ATOM     65  C   UNL A   1      45.003  24.801  31.644  1.00  0.00     0.049 A 
ATOM     66  H   UNL A   1      43.734  22.572  31.976  1.00  0.00     0.167 HD
ATOM     67  C   UNL A   1      44.645  26.441  33.385  1.00  0.00     0.074 A 
ATOM     68  C   UNL A   1      44.491  27.123  34.660  1.00  0.00     0.031 C 
ATOM     69  C   UNL A   1      45.127  25.193  33.037  1.00  0.00     0.037 A 
BRANCH  56  70
ATOM     70  C   UNL A   1      42.715  21.771  27.262  1.00  0.00     0.064 A 
ATOM     71  C   UNL A   1      43.576  22.171  26.212  1.00  0.00     0.173 A 
ATOM     72  C   UNL A   1      42.218  20.451  27.108  1.00  0.00     0.173 A 
ATOM     73  F   UNL A   1      43.964  23.444  26.077  1.00  0.00    -0.203 F 
ATOM     74  C   UNL A   1      44.023  21.306  25.201  1.00  0.00     0.198 A 
ATOM     75  C   UNL A   1      42.600  19.608  26.040  1.00  0.00     0.198 A 
ATOM     76  F   UNL A   1      41.330  19.940  27.973  1.00  0.00    -0.203 F 
ATOM     77  F   UNL A   1      44.914  21.742  24.297  1.00  0.00    -0.200 F 
ATOM     78  C   UNL A   1      43.540  20.020  25.115  1.00  0.00     0.200 A 
ATOM     79  F   UNL A   1      42.050  18.390  25.909  1.00  0.00    -0.200 F 
ATOM     80  F   UNL A   1      43.956  19.199  24.139  1.00  0.00    -0.200 F 
ENDBRANCH  56  70
BRANCH  57  81
ATOM     81  C   UNL A   1      42.226  30.681  32.736  1.00  0.00     0.064 A 
ATOM     82  C   UNL A   1      41.005  30.057  33.134  1.00  0.00     0.173 A 
ATOM     83  C   UNL A   1      42.374  32.013  33.121  1.00  0.00     0.173 A 
ATOM     84  F   UNL A   1      40.789  28.764  32.847  1.00  0.00    -0.203 F 
ATOM     85  C   UNL A   1      40.103  30.676  34.011  1.00  0.00     0.198 A 
ATOM     86  C   UNL A   1      41.424  32.656  33.934  1.00  0.00     0.198 A 
ATOM     87  F   UNL A   1      43.522  32.636  32.863  1.00  0.00    -0.203 F 
ATOM     88  F   UNL A   1      39.106  29.971  34.569  1.00  0.00    -0.200 F 
ATOM     89  C   UNL A   1      40.330  31.968  34.430  1.00  0.00     0.200 A 
ATOM     90  F   UNL A   1      41.666  33.887  34.409  1.00  0.00    -0.200 F 
ATOM     91  F   UNL A   1      39.571  32.507  35.398  1.00  0.00    -0.200 F 
ENDBRANCH  57  81
BRANCH  69  92
ATOM     92  C   UNL A   1      45.540  24.073  33.956  1.00  0.00     0.064 A 
ATOM     93  C   UNL A   1      44.758  22.997  34.319  1.00  0.00     0.173 A 
ATOM     94  C   UNL A   1      46.866  23.989  34.434  1.00  0.00     0.173 A 
ATOM     95  F   UNL A   1      43.432  23.117  34.410  1.00  0.00    -0.203 F 
ATOM     96  C   UNL A   1      45.331  21.804  34.753  1.00  0.00     0.198 A 
ATOM     97  C   UNL A   1      47.483  22.792  34.746  1.00  0.00     0.198 A 
ATOM     98  F   UNL A   1      47.576  25.090  34.698  1.00  0.00    -0.203 F 
ATOM     99  F   UNL A   1      44.532  20.782  35.075  1.00  0.00    -0.200 F 
ATOM    100  C   UNL A   1      46.704  21.674  34.879  1.00  0.00     0.200 A 
ATOM    101  F   UNL A   1      48.808  22.749  34.945  1.00  0.00    -0.200 F 
ATOM    102  F   UNL A   1      47.254  20.515  35.254  1.00  0.00    -0.200 F 
ENDBRANCH  69  92
ENDBRANCH  43  44
ENDBRANCH  36  38
ENDBRANCH  35  36
ENDBRANCH  34  35
ENDBRANCH  33  34
ENDBRANCH  32  33
ENDBRANCH  31  32
ENDBRANCH  30  31
ENDBRANCH   1  30
TORSDOF 22
ENDMDL
MODEL 3
REMARK VINA RESULT:     -11.1      2.204      4.393
REMARK SMILES Cc1ccccc1/C=C1\SC(=S)N(CCC(=O)N[C@@H](C)C(=O)OCCOCCOCCOC(=O)c2ccc(-c3c4nc(c(-c5c(F)c(F)c(F)c(F)c5F)c5ccc([nH]5)c(-c5c(F)c(F)c(F)c(F)c5F)c5nc(c(-c6c(F)c(F)c(F)c(F)c6F)c6ccc3[nH]6)C=C5)C=C4)cc2)C1=O
REMARK SMILES IDX 26 1 25 2 24 3 23 4 21 5 22 6 19 7 20 8 18 9 16 10 17 11
REMARK SMILES IDX 15 13 14 14 13 15 8 16 9 17 10 18 98 19 11 20 99 21 12 22
REMARK SMILES IDX 7 23 1 24 2 25 3 26 4 27 6 28 5 29 27 30 28 31 29 32 30 33
REMARK SMILES IDX 31 34 32 35 33 36 34 37 35 38 36 39 97 40 37 41 96 42 38 43
REMARK SMILES IDX 39 44 40 45 90 46 41 47 95 48 89 49 91 50 42 51 94 52 88 53
REMARK SMILES IDX 87 54 43 56 75 57 55 58 74 59 56 60 59 61 73 62 92 63 57 64
REMARK SMILES IDX 58 65 72 67 93 68 60 69 44 70 45 71 53 72 46 73 47 74 51 75
REMARK SMILES IDX 54 76 48 77 49 78 52 79 50 80 76 81 77 82 85 83 78 84 79 85
REMARK SMILES IDX 83 86 86 87 80 88 81 89 84 90 82 91 61 92 62 93 70 94 63 95
REMARK SMILES IDX 64 96 68 97 71 98 65 99 66 100 69 101 67 102
REMARK H PARENT 18 12 91 55 59 66
REMARK Flexibility Score: inf
ROOT
ATOM      1  O   UNL A   1      31.553  30.174  26.770  1.00  0.00    -0.376 OA
ENDROOT
BRANCH   1   2
ATOM      2  C   UNL A   1      31.717  28.831  26.274  1.00  0.00     0.202 C 
BRANCH   2   3
ATOM      3  C   UNL A   1      31.896  27.210  26.939  1.00  0.00     0.261 C 
BRANCH   3   4
ATOM      4  O   UNL A   1      31.525  25.409  26.557  1.00  0.00    -0.462 OA
BRANCH   4   5
ATOM      5  C   UNL A   1      31.878  23.892  26.955  1.00  0.00     0.328 C 
ATOM      6  O   UNL A   1      31.078  23.028  27.384  1.00  0.00    -0.250 OA
BRANCH   5   7
ATOM      7  C   UNL A   1      33.199  23.218  26.700  1.00  0.00     0.189 C 
ATOM      8  C   UNL A   1      33.059  21.768  27.082  1.00  0.00     0.043 C 
BRANCH   7   9
ATOM      9  N   UNL A   1      34.541  23.727  26.713  1.00  0.00    -0.343 N 
ATOM     10  C   UNL A   1      35.596  23.412  25.898  1.00  0.00     0.222 C 
ATOM     11  O   UNL A   1      36.701  23.783  26.319  1.00  0.00    -0.275 OA
ATOM     12  H   UNL A   1      34.731  24.400  27.406  1.00  0.00     0.164 HD
BRANCH  10  13
ATOM     13  C   UNL A   1      35.515  22.769  24.481  1.00  0.00     0.122 C 
BRANCH  13  14
ATOM     14  C   UNL A   1      35.036  23.509  23.204  1.00  0.00     0.137 C 
BRANCH  14  15
ATOM     15  N   UNL A   1      33.629  24.020  23.215  1.00  0.00    -0.292 N 
ATOM     16  C   UNL A   1      31.719  27.058  23.060  1.00  0.00     0.029 C 
ATOM     17  C   UNL A   1      31.978  25.749  23.236  1.00  0.00     0.081 C 
ATOM     18  S   UNL A   1      31.040  24.350  23.017  1.00  0.00    -0.054 SA
ATOM     19  C   UNL A   1      33.363  25.302  23.650  1.00  0.00     0.266 C 
ATOM     20  C   UNL A   1      32.474  23.276  23.071  1.00  0.00     0.148 C 
ATOM     21  O   UNL A   1      34.118  25.966  24.350  1.00  0.00    -0.268 OA
ATOM     22  S   UNL A   1      32.335  21.609  23.060  1.00  0.00    -0.052 S 
BRANCH  16  23
ATOM     23  C   UNL A   1      30.657  28.057  22.683  1.00  0.00    -0.021 A 
ATOM     24  C   UNL A   1      29.055  26.267  24.003  1.00  0.00     0.045 C 
ATOM     25  C   UNL A   1      29.186  27.694  23.509  1.00  0.00    -0.044 A 
ATOM     26  C   UNL A   1      27.726  28.620  23.423  1.00  0.00     0.004 A 
ATOM     27  C   UNL A   1      27.487  30.030  22.513  1.00  0.00     0.000 A 
ATOM     28  C   UNL A   1      30.651  29.582  21.721  1.00  0.00     0.008 A 
ATOM     29  C   UNL A   1      28.844  30.629  21.568  1.00  0.00     0.001 A 
ENDBRANCH  16  23
ENDBRANCH  14  15
ENDBRANCH  13  14
ENDBRANCH  10  13
ENDBRANCH   7   9
ENDBRANCH   5   7
ENDBRANCH   4   5
ENDBRANCH   3   4
ENDBRANCH   2   3
ENDBRANCH   1   2
BRANCH   1  30
ATOM     30  C   UNL A   1      32.571  31.155  26.775  1.00  0.00     0.188 C 
BRANCH  30  31
ATOM     31  C   UNL A   1      33.818  30.813  27.461  1.00  0.00     0.188 C 
BRANCH  31  32
ATOM     32  O   UNL A   1      34.497  32.007  27.746  1.00  0.00    -0.376 OA
BRANCH  32  33
ATOM     33  C   UNL A   1      33.796  33.044  28.355  1.00  0.00     0.202 C 
BRANCH  33  34
ATOM     34  C   UNL A   1      34.607  33.599  29.513  1.00  0.00     0.261 C 
BRANCH  34  35
ATOM     35  O   UNL A   1      34.769  32.590  30.598  1.00  0.00    -0.460 OA
BRANCH  35  36
ATOM     36  C   UNL A   1      35.916  31.854  30.904  1.00  0.00     0.338 C 
ATOM     37  O   UNL A   1      35.985  31.051  31.817  1.00  0.00    -0.246 OA
BRANCH  36  38
ATOM     38  C   UNL A   1      37.092  32.111  29.949  1.00  0.00     0.060 A 
ATOM     39  C   UNL A   1      37.525  31.246  28.892  1.00  0.00     0.016 A 
ATOM     40  C   UNL A   1      38.078  32.772  30.555  1.00  0.00     0.016 A 
ATOM     41  C   UNL A   1      38.876  30.622  28.821  1.00  0.00     0.010 A 
ATOM     42  C   UNL A   1      39.228  32.000  30.629  1.00  0.00     0.010 A 
ATOM     43  C   UNL A   1      39.764  30.735  29.884  1.00  0.00    -0.014 A 
BRANCH  43  44
ATOM     44  C   UNL A   1      41.447  29.891  30.121  1.00  0.00     0.031 A 
ATOM     45  C   UNL A   1      42.039  28.434  28.989  1.00  0.00     0.074 A 
ATOM     46  C   UNL A   1      42.319  30.364  31.074  1.00  0.00     0.049 A 
ATOM     47  N   UNL A   1      42.006  27.165  29.307  1.00  0.00    -0.248 NA
ATOM     48  C   UNL A   1      41.932  28.223  27.288  1.00  0.00     0.031 C 
ATOM     49  C   UNL A   1      43.786  30.257  31.190  1.00  0.00     0.029 A 
ATOM     50  N   UNL A   1      42.091  31.314  32.078  1.00  0.00    -0.354 N 
ATOM     51  C   UNL A   1      42.314  26.295  28.251  1.00  0.00     0.074 A 
ATOM     52  C   UNL A   1      41.847  26.911  27.081  1.00  0.00     0.031 C 
ATOM     53  C   UNL A   1      44.203  30.746  32.385  1.00  0.00     0.029 A 
ATOM     54  C   UNL A   1      43.024  31.159  33.100  1.00  0.00     0.049 A 
ATOM     55  H   UNL A   1      41.378  31.991  32.063  1.00  0.00     0.167 HD
ATOM     56  C   UNL A   1      43.285  25.338  28.352  1.00  0.00     0.037 A 
ATOM     57  C   UNL A   1      42.590  30.894  34.348  1.00  0.00     0.037 A 
ATOM     58  C   UNL A   1      44.001  25.649  29.631  1.00  0.00     0.049 A 
ATOM     59  C   UNL A   1      43.080  29.497  34.698  1.00  0.00     0.074 A 
ATOM     60  C   UNL A   1      44.764  27.319  29.616  1.00  0.00     0.029 A 
ATOM     61  N   UNL A   1      44.181  25.065  31.557  1.00  0.00    -0.354 N 
ATOM     62  N   UNL A   1      43.610  28.632  33.859  1.00  0.00    -0.248 NA
ATOM     63  C   UNL A   1      43.021  28.982  36.051  1.00  0.00     0.031 C 
ATOM     64  C   UNL A   1      45.331  27.755  31.394  1.00  0.00     0.029 A 
ATOM     65  C   UNL A   1      44.929  26.490  32.534  1.00  0.00     0.049 A 
ATOM     66  H   UNL A   1      43.923  24.188  31.922  1.00  0.00     0.167 HD
ATOM     67  C   UNL A   1      44.015  27.497  34.534  1.00  0.00     0.074 A 
ATOM     68  C   UNL A   1      43.520  27.748  35.878  1.00  0.00     0.031 C 
ATOM     69  C   UNL A   1      44.717  26.448  33.970  1.00  0.00     0.037 A 
BRANCH  56  70
ATOM     70  C   UNL A   1      43.987  24.792  27.071  1.00  0.00     0.064 A 
ATOM     71  C   UNL A   1      45.346  25.085  26.802  1.00  0.00     0.173 A 
ATOM     72  C   UNL A   1      43.373  24.002  26.064  1.00  0.00     0.173 A 
ATOM     73  F   UNL A   1      46.019  25.988  27.523  1.00  0.00    -0.203 F 
ATOM     74  C   UNL A   1      46.065  24.525  25.733  1.00  0.00     0.198 A 
ATOM     75  C   UNL A   1      44.076  23.511  24.941  1.00  0.00     0.198 A 
ATOM     76  F   UNL A   1      42.069  23.696  26.123  1.00  0.00    -0.203 F 
ATOM     77  F   UNL A   1      47.375  24.782  25.606  1.00  0.00    -0.200 F 
ATOM     78  C   UNL A   1      45.432  23.733  24.802  1.00  0.00     0.200 A 
ATOM     79  F   UNL A   1      43.430  22.821  23.987  1.00  0.00    -0.200 F 
ATOM     80  F   UNL A   1      46.117  23.212  23.772  1.00  0.00    -0.200 F 
ENDBRANCH  56  70
BRANCH  57  81
ATOM     81  C   UNL A   1      41.241  31.565  34.565  1.00  0.00     0.064 A 
ATOM     82  C   UNL A   1      40.064  30.757  34.564  1.00  0.00     0.173 A 
ATOM     83  C   UNL A   1      41.142  32.768  35.264  1.00  0.00     0.173 A 
ATOM     84  F   UNL A   1      40.074  29.560  33.955  1.00  0.00    -0.203 F 
ATOM     85  C   UNL A   1      38.952  31.057  35.364  1.00  0.00     0.198 A 
ATOM     86  C   UNL A   1      39.992  33.103  35.998  1.00  0.00     0.198 A 
ATOM     87  F   UNL A   1      42.225  33.535  35.385  1.00  0.00    -0.203 F 
ATOM     88  F   UNL A   1      37.978  30.150  35.540  1.00  0.00    -0.200 F 
ATOM     89  C   UNL A   1      38.931  32.219  36.101  1.00  0.00     0.200 A 
ATOM     90  F   UNL A   1      39.983  34.195  36.778  1.00  0.00    -0.200 F 
ATOM     91  F   UNL A   1      37.954  32.433  36.997  1.00  0.00    -0.200 F 
ENDBRANCH  57  81
BRANCH  69  92
ATOM     92  C   UNL A   1      45.080  25.131  34.606  1.00  0.00     0.064 A 
ATOM     93  C   UNL A   1      44.374  23.954  34.482  1.00  0.00     0.173 A 
ATOM     94  C   UNL A   1      46.297  24.985  35.308  1.00  0.00     0.173 A 
ATOM     95  F   UNL A   1      43.049  23.966  34.323  1.00  0.00    -0.203 F 
ATOM     96  C   UNL A   1      44.992  22.720  34.676  1.00  0.00     0.198 A 
ATOM     97  C   UNL A   1      46.979  23.786  35.396  1.00  0.00     0.198 A 
ATOM     98  F   UNL A   1      46.814  25.997  36.011  1.00  0.00    -0.203 F 
ATOM     99  F   UNL A   1      44.270  21.605  34.526  1.00  0.00    -0.200 F 
ATOM    100  C   UNL A   1      46.323  22.637  35.046  1.00  0.00     0.200 A 
ATOM    101  F   UNL A   1      48.241  23.761  35.848  1.00  0.00    -0.200 F 
ATOM    102  F   UNL A   1      46.925  21.452  35.189  1.00  0.00    -0.200 F 
ENDBRANCH  69  92
ENDBRANCH  43  44
ENDBRANCH  36  38
ENDBRANCH  35  36
ENDBRANCH  34  35
ENDBRANCH  33  34
ENDBRANCH  32  33
ENDBRANCH  31  32
ENDBRANCH  30  31
ENDBRANCH   1  30
TORSDOF 22
ENDMDL
