MODEL 1
REMARK VINA RESULT:     -10.9      0.000      0.000
REMARK SMILES O=C(OCCOCCOCCOC(=O)[C@H]1C[C@@H]2CCCC[C@H]2N1C(=O)CN1CSCC1=O)c1ccc(-c2c3nc(c(-c4c(F)c(F)c(F)c(F)c4F)c4ccc([nH]4)c(-c4c(F)c(F)c(F)c(F)c4F)c4nc(c(-c5c(F)c(F)c(F)c(F)c5F)c5ccc2[nH]5)C=C4)C=C3)cc1
REMARK SMILES IDX 8 1 7 2 6 3 5 4 4 5 3 6 2 7 1 8 33 9 34 10 95 11 35 12 94 13
REMARK SMILES IDX 36 14 37 15 38 16 88 17 39 18 93 19 87 20 89 21 40 22 92 23
REMARK SMILES IDX 86 24 85 25 41 27 73 28 53 29 72 30 54 31 57 32 71 33 90 34
REMARK SMILES IDX 55 35 56 36 70 38 91 39 58 40 42 41 43 42 51 43 44 44 45 45
REMARK SMILES IDX 49 46 52 47 46 48 47 49 50 50 48 51 74 52 75 53 83 54 76 55
REMARK SMILES IDX 77 56 81 57 84 58 78 59 79 60 82 61 80 62 59 63 60 64 68 65
REMARK SMILES IDX 61 66 62 67 66 68 69 69 63 70 64 71 67 72 65 73 9 74 10 75
REMARK SMILES IDX 11 76 12 77 13 78 14 79 15 80 16 81 23 82 17 83 22 84 18 85
REMARK SMILES IDX 21 86 19 87 20 88 24 89 25 90 26 91 27 92 28 93 31 94 29 95
REMARK SMILES IDX 30 96 32 97
REMARK H PARENT 89 26 57 37
REMARK Flexibility Score: inf
ROOT
ATOM      1  C   UNL A   1      36.367  23.105  24.055  1.00  0.00     0.188 C 
ENDROOT
BRANCH   1   2
ATOM      2  C   UNL A   1      37.024  21.735  24.262  1.00  0.00     0.188 C 
BRANCH   2   3
ATOM      3  O   UNL A   1      37.433  21.523  25.622  1.00  0.00    -0.376 OA
BRANCH   3   4
ATOM      4  C   UNL A   1      38.816  21.181  25.767  1.00  0.00     0.202 C 
BRANCH   4   5
ATOM      5  C   UNL A   1      39.147  19.685  25.675  1.00  0.00     0.261 C 
BRANCH   5   6
ATOM      6  O   UNL A   1      40.544  19.433  25.469  1.00  0.00    -0.460 OA
BRANCH   6   7
ATOM      7  C   UNL A   1      41.564  19.685  26.323  1.00  0.00     0.338 C 
ATOM      8  O   UNL A   1      42.092  18.742  26.908  1.00  0.00    -0.246 OA
BRANCH   7   9
ATOM      9  C   UNL A   1      42.109  21.054  26.582  1.00  0.00     0.060 A 
ATOM     10  C   UNL A   1      42.671  21.482  27.787  1.00  0.00     0.016 A 
ATOM     11  C   UNL A   1      42.141  21.937  25.488  1.00  0.00     0.016 A 
ATOM     12  C   UNL A   1      43.187  22.770  27.925  1.00  0.00     0.010 A 
ATOM     13  C   UNL A   1      42.688  23.218  25.608  1.00  0.00     0.010 A 
ATOM     14  C   UNL A   1      43.196  23.644  26.837  1.00  0.00    -0.014 A 
BRANCH  14  15
ATOM     15  C   UNL A   1      43.690  25.020  27.035  1.00  0.00     0.031 A 
ATOM     16  C   UNL A   1      42.824  25.995  27.767  1.00  0.00     0.074 A 
ATOM     17  C   UNL A   1      44.914  25.355  26.592  1.00  0.00     0.049 A 
ATOM     18  N   UNL A   1      43.058  27.244  28.061  1.00  0.00    -0.248 NA
ATOM     19  C   UNL A   1      41.497  25.512  28.188  1.00  0.00     0.031 C 
ATOM     20  C   UNL A   1      45.787  24.479  25.816  1.00  0.00     0.029 A 
ATOM     21  N   UNL A   1      45.652  26.499  26.759  1.00  0.00    -0.354 N 
ATOM     22  C   UNL A   1      41.872  27.728  28.592  1.00  0.00     0.074 A 
ATOM     23  C   UNL A   1      40.947  26.620  28.662  1.00  0.00     0.031 C 
ATOM     24  C   UNL A   1      46.974  25.084  25.646  1.00  0.00     0.029 A 
ATOM     25  C   UNL A   1      46.946  26.387  26.299  1.00  0.00     0.049 A 
ATOM     26  H   UNL A   1      45.293  27.320  27.166  1.00  0.00     0.167 HD
ATOM     27  C   UNL A   1      41.579  29.008  28.917  1.00  0.00     0.037 A 
ATOM     28  C   UNL A   1      47.981  27.240  26.438  1.00  0.00     0.037 A 
ATOM     29  C   UNL A   1      42.538  30.079  28.858  1.00  0.00     0.049 A 
ATOM     30  C   UNL A   1      47.687  28.592  27.041  1.00  0.00     0.074 A 
ATOM     31  C   UNL A   1      42.361  31.420  29.143  1.00  0.00     0.029 A 
ATOM     32  N   UNL A   1      43.867  29.916  28.490  1.00  0.00    -0.354 N 
ATOM     33  N   UNL A   1      46.563  29.044  27.546  1.00  0.00    -0.248 NA
ATOM     34  C   UNL A   1      48.781  29.575  27.034  1.00  0.00     0.031 C 
ATOM     35  C   UNL A   1      43.574  32.076  28.905  1.00  0.00     0.029 A 
ATOM     36  C   UNL A   1      44.517  31.136  28.517  1.00  0.00     0.049 A 
ATOM     37  H   UNL A   1      44.284  29.059  28.244  1.00  0.00     0.167 HD
ATOM     38  C   UNL A   1      46.790  30.380  27.837  1.00  0.00     0.074 A 
ATOM     39  C   UNL A   1      48.193  30.633  27.573  1.00  0.00     0.031 C 
ATOM     40  C   UNL A   1      45.909  31.338  28.210  1.00  0.00     0.037 A 
BRANCH  27  41
ATOM     41  C   UNL A   1      40.150  29.331  29.229  1.00  0.00     0.064 A 
ATOM     42  C   UNL A   1      39.663  29.437  30.538  1.00  0.00     0.173 A 
ATOM     43  C   UNL A   1      39.245  29.532  28.174  1.00  0.00     0.173 A 
ATOM     44  F   UNL A   1      40.479  29.224  31.581  1.00  0.00    -0.203 F 
ATOM     45  C   UNL A   1      38.319  29.713  30.780  1.00  0.00     0.198 A 
ATOM     46  C   UNL A   1      37.909  29.833  28.418  1.00  0.00     0.198 A 
ATOM     47  F   UNL A   1      39.658  29.431  26.902  1.00  0.00    -0.203 F 
ATOM     48  F   UNL A   1      37.862  29.762  32.039  1.00  0.00    -0.200 F 
ATOM     49  C   UNL A   1      37.445  29.917  29.721  1.00  0.00     0.200 A 
ATOM     50  F   UNL A   1      37.070  30.032  27.393  1.00  0.00    -0.200 F 
ATOM     51  F   UNL A   1      36.153  30.183  29.957  1.00  0.00    -0.200 F 
ENDBRANCH  27  41
BRANCH  28  52
ATOM     52  C   UNL A   1      49.370  26.880  26.026  1.00  0.00     0.064 A 
ATOM     53  C   UNL A   1      49.802  27.116  24.710  1.00  0.00     0.173 A 
ATOM     54  C   UNL A   1      50.282  26.265  26.893  1.00  0.00     0.173 A 
ATOM     55  F   UNL A   1      48.972  27.693  23.827  1.00  0.00    -0.203 F 
ATOM     56  C   UNL A   1      51.073  26.738  24.277  1.00  0.00     0.198 A 
ATOM     57  C   UNL A   1      51.566  25.917  26.470  1.00  0.00     0.198 A 
ATOM     58  F   UNL A   1      49.934  26.001  28.161  1.00  0.00    -0.203 F 
ATOM     59  F   UNL A   1      51.435  26.950  23.004  1.00  0.00    -0.200 F 
ATOM     60  C   UNL A   1      51.958  26.145  25.161  1.00  0.00     0.200 A 
ATOM     61  F   UNL A   1      52.419  25.353  27.336  1.00  0.00    -0.200 F 
ATOM     62  F   UNL A   1      53.186  25.798  24.751  1.00  0.00    -0.200 F 
ENDBRANCH  28  52
BRANCH  40  63
ATOM     63  C   UNL A   1      46.426  32.743  28.237  1.00  0.00     0.064 A 
ATOM     64  C   UNL A   1      47.045  33.249  29.391  1.00  0.00     0.173 A 
ATOM     65  C   UNL A   1      46.351  33.567  27.108  1.00  0.00     0.173 A 
ATOM     66  F   UNL A   1      47.125  32.497  30.500  1.00  0.00    -0.203 F 
ATOM     67  C   UNL A   1      47.556  34.541  29.418  1.00  0.00     0.198 A 
ATOM     68  C   UNL A   1      46.888  34.851  27.131  1.00  0.00     0.198 A 
ATOM     69  F   UNL A   1      45.773  33.123  25.982  1.00  0.00    -0.203 F 
ATOM     70  F   UNL A   1      48.108  35.018  30.542  1.00  0.00    -0.200 F 
ATOM     71  C   UNL A   1      47.483  35.339  28.286  1.00  0.00     0.200 A 
ATOM     72  F   UNL A   1      46.827  35.619  26.035  1.00  0.00    -0.200 F 
ATOM     73  F   UNL A   1      47.984  36.581  28.309  1.00  0.00    -0.200 F 
ENDBRANCH  40  63
ENDBRANCH  14  15
ENDBRANCH   7   9
ENDBRANCH   6   7
ENDBRANCH   5   6
ENDBRANCH   4   5
ENDBRANCH   3   4
ENDBRANCH   2   3
ENDBRANCH   1   2
BRANCH   1  74
ATOM     74  O   UNL A   1      35.607  23.277  22.856  1.00  0.00    -0.376 OA
BRANCH  74  75
ATOM     75  C   UNL A   1      34.201  23.071  22.923  1.00  0.00     0.202 C 
BRANCH  75  76
ATOM     76  C   UNL A   1      33.307  24.314  22.903  1.00  0.00     0.261 C 
BRANCH  76  77
ATOM     77  O   UNL A   1      34.030  25.505  22.574  1.00  0.00    -0.462 OA
BRANCH  77  78
ATOM     78  C   UNL A   1      33.619  26.636  23.214  1.00  0.00     0.328 C 
ATOM     79  O   UNL A   1      33.825  27.779  22.815  1.00  0.00    -0.250 OA
BRANCH  78  80
ATOM     80  C   UNL A   1      32.875  26.274  24.515  1.00  0.00     0.195 C 
ATOM     81  C   UNL A   1      33.738  26.506  25.757  1.00  0.00     0.043 C 
ATOM     82  N   UNL A   1      31.740  27.201  24.680  1.00  0.00    -0.324 N 
ATOM     83  C   UNL A   1      33.568  28.003  25.908  1.00  0.00     0.014 C 
ATOM     84  C   UNL A   1      32.046  28.180  25.717  1.00  0.00     0.089 C 
ATOM     85  C   UNL A   1      34.059  28.678  27.167  1.00  0.00     0.006 C 
ATOM     86  C   UNL A   1      31.812  29.667  25.475  1.00  0.00     0.025 C 
ATOM     87  C   UNL A   1      33.766  30.173  27.055  1.00  0.00     0.000 C 
ATOM     88  C   UNL A   1      32.296  30.450  26.708  1.00  0.00     0.002 C 
BRANCH  82  89
ATOM     89  C   UNL A   1      30.583  26.901  23.996  1.00  0.00     0.243 C 
ATOM     90  O   UNL A   1      29.864  25.968  24.379  1.00  0.00    -0.273 OA
BRANCH  89  91
ATOM     91  C   UNL A   1      30.245  27.565  22.657  1.00  0.00     0.220 C 
BRANCH  91  92
ATOM     92  N   UNL A   1      29.510  28.819  22.652  1.00  0.00    -0.323 N 
ATOM     93  C   UNL A   1      29.999  29.893  21.830  1.00  0.00     0.190 C 
ATOM     94  C   UNL A   1      28.153  28.853  22.931  1.00  0.00     0.233 C 
ATOM     95  S   UNL A   1      28.891  31.275  22.091  1.00  0.00    -0.130 SA
ATOM     96  C   UNL A   1      27.551  30.219  22.685  1.00  0.00     0.171 C 
ATOM     97  O   UNL A   1      27.508  27.911  23.373  1.00  0.00    -0.274 OA
ENDBRANCH  91  92
ENDBRANCH  89  91
ENDBRANCH  82  89
ENDBRANCH  78  80
ENDBRANCH  77  78
ENDBRANCH  76  77
ENDBRANCH  75  76
ENDBRANCH  74  75
ENDBRANCH   1  74
TORSDOF 20
ENDMDL
MODEL 2
REMARK VINA RESULT:     -10.8      2.918      8.258
REMARK SMILES O=C(OCCOCCOCCOC(=O)[C@H]1C[C@@H]2CCCC[C@H]2N1C(=O)CN1CSCC1=O)c1ccc(-c2c3nc(c(-c4c(F)c(F)c(F)c(F)c4F)c4ccc([nH]4)c(-c4c(F)c(F)c(F)c(F)c4F)c4nc(c(-c5c(F)c(F)c(F)c(F)c5F)c5ccc2[nH]5)C=C4)C=C3)cc1
REMARK SMILES IDX 8 1 7 2 6 3 5 4 4 5 3 6 2 7 1 8 33 9 34 10 95 11 35 12 94 13
REMARK SMILES IDX 36 14 37 15 38 16 88 17 39 18 93 19 87 20 89 21 40 22 92 23
REMARK SMILES IDX 86 24 85 25 41 27 73 28 53 29 72 30 54 31 57 32 71 33 90 34
REMARK SMILES IDX 55 35 56 36 70 38 91 39 58 40 42 41 43 42 51 43 44 44 45 45
REMARK SMILES IDX 49 46 52 47 46 48 47 49 50 50 48 51 74 52 75 53 83 54 76 55
REMARK SMILES IDX 77 56 81 57 84 58 78 59 79 60 82 61 80 62 59 63 60 64 68 65
REMARK SMILES IDX 61 66 62 67 66 68 69 69 63 70 64 71 67 72 65 73 9 74 10 75
REMARK SMILES IDX 11 76 12 77 13 78 14 79 15 80 16 81 23 82 17 83 22 84 18 85
REMARK SMILES IDX 21 86 19 87 20 88 24 89 25 90 26 91 27 92 28 93 31 94 29 95
REMARK SMILES IDX 30 96 32 97
REMARK H PARENT 89 26 57 37
REMARK Flexibility Score: inf
ROOT
ATOM      1  C   UNL A   1      40.359  22.051  26.208  1.00  0.00     0.188 C 
ENDROOT
BRANCH   1   2
ATOM      2  C   UNL A   1      40.971  21.304  27.400  1.00  0.00     0.188 C 
BRANCH   2   3
ATOM      3  O   UNL A   1      42.109  20.513  27.026  1.00  0.00    -0.376 OA
BRANCH   3   4
ATOM      4  C   UNL A   1      41.806  19.455  26.109  1.00  0.00     0.202 C 
BRANCH   4   5
ATOM      5  C   UNL A   1      42.967  18.508  25.776  1.00  0.00     0.261 C 
BRANCH   5   6
ATOM      6  O   UNL A   1      43.571  18.790  24.506  1.00  0.00    -0.460 OA
BRANCH   6   7
ATOM      7  C   UNL A   1      44.655  19.563  24.258  1.00  0.00     0.338 C 
ATOM      8  O   UNL A   1      45.585  19.088  23.611  1.00  0.00    -0.246 OA
BRANCH   7   9
ATOM      9  C   UNL A   1      44.779  20.984  24.709  1.00  0.00     0.060 A 
ATOM     10  C   UNL A   1      44.155  22.078  24.105  1.00  0.00     0.016 A 
ATOM     11  C   UNL A   1      45.502  21.208  25.894  1.00  0.00     0.016 A 
ATOM     12  C   UNL A   1      44.301  23.366  24.618  1.00  0.00     0.010 A 
ATOM     13  C   UNL A   1      45.624  22.491  26.436  1.00  0.00     0.010 A 
ATOM     14  C   UNL A   1      45.037  23.578  25.784  1.00  0.00    -0.014 A 
BRANCH  14  15
ATOM     15  C   UNL A   1      45.224  24.960  26.264  1.00  0.00     0.031 A 
ATOM     16  C   UNL A   1      46.502  25.666  25.939  1.00  0.00     0.074 A 
ATOM     17  C   UNL A   1      44.236  25.567  26.945  1.00  0.00     0.049 A 
ATOM     18  N   UNL A   1      46.875  26.877  26.248  1.00  0.00    -0.248 NA
ATOM     19  C   UNL A   1      47.515  24.891  25.202  1.00  0.00     0.031 C 
ATOM     20  C   UNL A   1      42.991  24.922  27.354  1.00  0.00     0.029 A 
ATOM     21  N   UNL A   1      44.100  26.860  27.379  1.00  0.00    -0.354 N 
ATOM     22  C   UNL A   1      48.201  26.970  25.851  1.00  0.00     0.074 A 
ATOM     23  C   UNL A   1      48.544  25.726  25.200  1.00  0.00     0.031 C 
ATOM     24  C   UNL A   1      42.183  25.842  27.905  1.00  0.00     0.029 A 
ATOM     25  C   UNL A   1      42.850  27.139  27.887  1.00  0.00     0.049 A 
ATOM     26  H   UNL A   1      44.824  27.525  27.333  1.00  0.00     0.167 HD
ATOM     27  C   UNL A   1      49.060  27.987  26.087  1.00  0.00     0.037 A 
ATOM     28  C   UNL A   1      42.318  28.322  28.253  1.00  0.00     0.037 A 
ATOM     29  C   UNL A   1      48.671  29.222  26.715  1.00  0.00     0.049 A 
ATOM     30  C   UNL A   1      43.239  29.518  28.272  1.00  0.00     0.074 A 
ATOM     31  C   UNL A   1      49.450  30.320  27.026  1.00  0.00     0.029 A 
ATOM     32  N   UNL A   1      47.378  29.515  27.124  1.00  0.00    -0.354 N 
ATOM     33  N   UNL A   1      44.492  29.601  27.891  1.00  0.00    -0.248 NA
ATOM     34  C   UNL A   1      42.697  30.765  28.831  1.00  0.00     0.031 C 
ATOM     35  C   UNL A   1      48.635  31.262  27.663  1.00  0.00     0.029 A 
ATOM     36  C   UNL A   1      47.340  30.769  27.706  1.00  0.00     0.049 A 
ATOM     37  H   UNL A   1      46.602  28.918  27.016  1.00  0.00     0.167 HD
ATOM     38  C   UNL A   1      44.910  30.875  28.241  1.00  0.00     0.074 A 
ATOM     39  C   UNL A   1      43.744  31.573  28.745  1.00  0.00     0.031 C 
ATOM     40  C   UNL A   1      46.157  31.403  28.226  1.00  0.00     0.037 A 
BRANCH  27  41
ATOM     41  C   UNL A   1      50.508  27.750  25.787  1.00  0.00     0.064 A 
ATOM     42  C   UNL A   1      51.433  27.364  26.765  1.00  0.00     0.173 A 
ATOM     43  C   UNL A   1      50.977  27.926  24.474  1.00  0.00     0.173 A 
ATOM     44  F   UNL A   1      51.044  27.213  28.040  1.00  0.00    -0.203 F 
ATOM     45  C   UNL A   1      52.777  27.181  26.445  1.00  0.00     0.198 A 
ATOM     46  C   UNL A   1      52.313  27.718  24.152  1.00  0.00     0.198 A 
ATOM     47  F   UNL A   1      50.134  28.306  23.502  1.00  0.00    -0.203 F 
ATOM     48  F   UNL A   1      53.656  26.860  27.405  1.00  0.00    -0.200 F 
ATOM     49  C   UNL A   1      53.215  27.352  25.139  1.00  0.00     0.200 A 
ATOM     50  F   UNL A   1      52.730  27.881  22.889  1.00  0.00    -0.200 F 
ATOM     51  F   UNL A   1      54.508  27.175  24.834  1.00  0.00    -0.200 F 
ENDBRANCH  27  41
BRANCH  28  52
ATOM     52  C   UNL A   1      40.879  28.468  28.621  1.00  0.00     0.064 A 
ATOM     53  C   UNL A   1      39.957  28.971  27.686  1.00  0.00     0.173 A 
ATOM     54  C   UNL A   1      40.387  28.162  29.896  1.00  0.00     0.173 A 
ATOM     55  F   UNL A   1      40.367  29.294  26.449  1.00  0.00    -0.203 F 
ATOM     56  C   UNL A   1      38.617  29.176  28.016  1.00  0.00     0.198 A 
ATOM     57  C   UNL A   1      39.040  28.335  30.216  1.00  0.00     0.198 A 
ATOM     58  F   UNL A   1      41.212  27.688  30.840  1.00  0.00    -0.203 F 
ATOM     59  F   UNL A   1      37.777  29.688  27.106  1.00  0.00    -0.200 F 
ATOM     60  C   UNL A   1      38.157  28.850  29.280  1.00  0.00     0.200 A 
ATOM     61  F   UNL A   1      38.602  28.007  31.439  1.00  0.00    -0.200 F 
ATOM     62  F   UNL A   1      36.867  29.029  29.592  1.00  0.00    -0.200 F 
ENDBRANCH  28  52
BRANCH  40  63
ATOM     63  C   UNL A   1      46.319  32.743  28.873  1.00  0.00     0.064 A 
ATOM     64  C   UNL A   1      46.647  32.839  30.235  1.00  0.00     0.173 A 
ATOM     65  C   UNL A   1      46.198  33.927  28.135  1.00  0.00     0.173 A 
ATOM     66  F   UNL A   1      46.758  31.730  30.983  1.00  0.00    -0.203 F 
ATOM     67  C   UNL A   1      46.829  34.077  30.839  1.00  0.00     0.198 A 
ATOM     68  C   UNL A   1      46.407  35.163  28.738  1.00  0.00     0.198 A 
ATOM     69  F   UNL A   1      45.891  33.882  26.830  1.00  0.00    -0.203 F 
ATOM     70  F   UNL A   1      47.103  34.147  32.150  1.00  0.00    -0.200 F 
ATOM     71  C   UNL A   1      46.717  35.238  30.090  1.00  0.00     0.200 A 
ATOM     72  F   UNL A   1      46.309  36.285  28.012  1.00  0.00    -0.200 F 
ATOM     73  F   UNL A   1      46.902  36.431  30.670  1.00  0.00    -0.200 F 
ENDBRANCH  40  63
ENDBRANCH  14  15
ENDBRANCH   7   9
ENDBRANCH   6   7
ENDBRANCH   5   6
ENDBRANCH   4   5
ENDBRANCH   3   4
ENDBRANCH   2   3
ENDBRANCH   1   2
BRANCH   1  74
ATOM     74  O   UNL A   1      38.932  22.059  26.122  1.00  0.00    -0.376 OA
BRANCH  74  75
ATOM     75  C   UNL A   1      38.271  23.320  26.129  1.00  0.00     0.202 C 
BRANCH  75  76
ATOM     76  C   UNL A   1      37.118  23.514  25.140  1.00  0.00     0.261 C 
BRANCH  76  77
ATOM     77  O   UNL A   1      36.238  22.386  25.094  1.00  0.00    -0.462 OA
BRANCH  77  78
ATOM     78  C   UNL A   1      35.079  22.575  24.401  1.00  0.00     0.328 C 
ATOM     79  O   UNL A   1      35.010  23.048  23.271  1.00  0.00    -0.250 OA
BRANCH  78  80
ATOM     80  C   UNL A   1      33.872  22.124  25.248  1.00  0.00     0.195 C 
ATOM     81  C   UNL A   1      33.560  23.108  26.379  1.00  0.00     0.043 C 
ATOM     82  N   UNL A   1      32.667  22.152  24.398  1.00  0.00    -0.324 N 
ATOM     83  C   UNL A   1      32.803  24.161  25.598  1.00  0.00     0.014 C 
ATOM     84  C   UNL A   1      31.843  23.306  24.742  1.00  0.00     0.089 C 
ATOM     85  C   UNL A   1      32.070  25.250  26.346  1.00  0.00     0.006 C 
ATOM     86  C   UNL A   1      31.300  24.225  23.653  1.00  0.00     0.025 C 
ATOM     87  C   UNL A   1      31.401  26.167  25.323  1.00  0.00     0.000 C 
ATOM     88  C   UNL A   1      30.541  25.385  24.321  1.00  0.00     0.002 C 
BRANCH  82  89
ATOM     89  C   UNL A   1      32.444  21.057  23.593  1.00  0.00     0.243 C 
ATOM     90  O   UNL A   1      32.340  21.203  22.367  1.00  0.00    -0.273 OA
BRANCH  89  91
ATOM     91  C   UNL A   1      32.129  19.677  24.181  1.00  0.00     0.220 C 
BRANCH  91  92
ATOM     92  N   UNL A   1      33.097  18.604  24.030  1.00  0.00    -0.323 N 
ATOM     93  C   UNL A   1      33.727  18.082  25.213  1.00  0.00     0.190 C 
ATOM     94  C   UNL A   1      33.037  17.732  22.954  1.00  0.00     0.233 C 
ATOM     95  S   UNL A   1      34.870  16.818  24.663  1.00  0.00    -0.130 SA
ATOM     96  C   UNL A   1      34.012  16.584  23.090  1.00  0.00     0.171 C 
ATOM     97  O   UNL A   1      32.319  17.884  21.973  1.00  0.00    -0.274 OA
ENDBRANCH  91  92
ENDBRANCH  89  91
ENDBRANCH  82  89
ENDBRANCH  78  80
ENDBRANCH  77  78
ENDBRANCH  76  77
ENDBRANCH  75  76
ENDBRANCH  74  75
ENDBRANCH   1  74
TORSDOF 20
ENDMDL
MODEL 3
REMARK VINA RESULT:     -10.7      6.342     11.649
REMARK SMILES O=C(OCCOCCOCCOC(=O)[C@H]1C[C@@H]2CCCC[C@H]2N1C(=O)CN1CSCC1=O)c1ccc(-c2c3nc(c(-c4c(F)c(F)c(F)c(F)c4F)c4ccc([nH]4)c(-c4c(F)c(F)c(F)c(F)c4F)c4nc(c(-c5c(F)c(F)c(F)c(F)c5F)c5ccc2[nH]5)C=C4)C=C3)cc1
REMARK SMILES IDX 8 1 7 2 6 3 5 4 4 5 3 6 2 7 1 8 33 9 34 10 95 11 35 12 94 13
REMARK SMILES IDX 36 14 37 15 38 16 88 17 39 18 93 19 87 20 89 21 40 22 92 23
REMARK SMILES IDX 86 24 85 25 41 27 73 28 53 29 72 30 54 31 57 32 71 33 90 34
REMARK SMILES IDX 55 35 56 36 70 38 91 39 58 40 42 41 43 42 51 43 44 44 45 45
REMARK SMILES IDX 49 46 52 47 46 48 47 49 50 50 48 51 74 52 75 53 83 54 76 55
REMARK SMILES IDX 77 56 81 57 84 58 78 59 79 60 82 61 80 62 59 63 60 64 68 65
REMARK SMILES IDX 61 66 62 67 66 68 69 69 63 70 64 71 67 72 65 73 9 74 10 75
REMARK SMILES IDX 11 76 12 77 13 78 14 79 15 80 16 81 23 82 17 83 22 84 18 85
REMARK SMILES IDX 21 86 19 87 20 88 24 89 25 90 26 91 27 92 28 93 31 94 29 95
REMARK SMILES IDX 30 96 32 97
REMARK H PARENT 89 26 57 37
REMARK Flexibility Score: inf
ROOT
ATOM      1  C   UNL A   1      34.156  32.389  28.052  1.00  0.00     0.188 C 
ENDROOT
BRANCH   1   2
ATOM      2  C   UNL A   1      32.879  32.948  27.415  1.00  0.00     0.188 C 
BRANCH   2   3
ATOM      3  O   UNL A   1      32.472  34.194  28.002  1.00  0.00    -0.376 OA
BRANCH   3   4
ATOM      4  C   UNL A   1      33.284  34.610  29.105  1.00  0.00     0.202 C 
BRANCH   4   5
ATOM      5  C   UNL A   1      32.918  35.963  29.731  1.00  0.00     0.261 C 
BRANCH   5   6
ATOM      6  O   UNL A   1      32.195  35.831  30.963  1.00  0.00    -0.460 OA
BRANCH   6   7
ATOM      7  C   UNL A   1      32.693  35.872  32.222  1.00  0.00     0.338 C 
ATOM      8  O   UNL A   1      32.142  36.592  33.052  1.00  0.00    -0.246 OA
BRANCH   7   9
ATOM      9  C   UNL A   1      33.870  35.068  32.674  1.00  0.00     0.060 A 
ATOM     10  C   UNL A   1      33.811  33.762  33.168  1.00  0.00     0.016 A 
ATOM     11  C   UNL A   1      35.138  35.647  32.489  1.00  0.00     0.016 A 
ATOM     12  C   UNL A   1      34.970  33.076  33.533  1.00  0.00     0.010 A 
ATOM     13  C   UNL A   1      36.306  34.954  32.820  1.00  0.00     0.010 A 
ATOM     14  C   UNL A   1      36.221  33.670  33.362  1.00  0.00    -0.014 A 
BRANCH  14  15
ATOM     15  C   UNL A   1      37.420  32.942  33.818  1.00  0.00     0.031 A 
ATOM     16  C   UNL A   1      38.148  32.076  32.841  1.00  0.00     0.074 A 
ATOM     17  C   UNL A   1      37.854  33.101  35.081  1.00  0.00     0.049 A 
ATOM     18  N   UNL A   1      39.222  31.357  33.019  1.00  0.00    -0.248 NA
ATOM     19  C   UNL A   1      37.566  31.970  31.492  1.00  0.00     0.031 C 
ATOM     20  C   UNL A   1      37.161  33.877  36.106  1.00  0.00     0.029 A 
ATOM     21  N   UNL A   1      38.989  32.658  35.709  1.00  0.00    -0.354 N 
ATOM     22  C   UNL A   1      39.377  30.626  31.850  1.00  0.00     0.074 A 
ATOM     23  C   UNL A   1      38.341  31.049  30.936  1.00  0.00     0.031 C 
ATOM     24  C   UNL A   1      37.926  33.925  37.209  1.00  0.00     0.029 A 
ATOM     25  C   UNL A   1      39.161  33.187  36.969  1.00  0.00     0.049 A 
ATOM     26  H   UNL A   1      39.620  32.023  35.299  1.00  0.00     0.167 HD
ATOM     27  C   UNL A   1      40.269  29.638  31.611  1.00  0.00     0.037 A 
ATOM     28  C   UNL A   1      40.220  33.099  37.798  1.00  0.00     0.037 A 
ATOM     29  C   UNL A   1      41.304  29.265  32.538  1.00  0.00     0.049 A 
ATOM     30  C   UNL A   1      41.340  32.172  37.394  1.00  0.00     0.074 A 
ATOM     31  C   UNL A   1      42.257  28.270  32.422  1.00  0.00     0.029 A 
ATOM     32  N   UNL A   1      41.517  29.887  33.761  1.00  0.00    -0.354 N 
ATOM     33  N   UNL A   1      41.483  31.484  36.285  1.00  0.00    -0.248 NA
ATOM     34  C   UNL A   1      42.410  31.953  38.378  1.00  0.00     0.031 C 
ATOM     35  C   UNL A   1      43.020  28.264  33.594  1.00  0.00     0.029 A 
ATOM     36  C   UNL A   1      42.573  29.284  34.420  1.00  0.00     0.049 A 
ATOM     37  H   UNL A   1      40.994  30.646  34.108  1.00  0.00     0.167 HD
ATOM     38  C   UNL A   1      42.606  30.694  36.472  1.00  0.00     0.074 A 
ATOM     39  C   UNL A   1      43.180  31.079  37.746  1.00  0.00     0.031 C 
ATOM     40  C   UNL A   1      43.082  29.684  35.706  1.00  0.00     0.037 A 
BRANCH  27  41
ATOM     41  C   UNL A   1      40.077  28.820  30.371  1.00  0.00     0.064 A 
ATOM     42  C   UNL A   1      39.400  27.593  30.368  1.00  0.00     0.173 A 
ATOM     43  C   UNL A   1      40.598  29.285  29.153  1.00  0.00     0.173 A 
ATOM     44  F   UNL A   1      38.911  27.089  31.510  1.00  0.00    -0.203 F 
ATOM     45  C   UNL A   1      39.269  26.854  29.194  1.00  0.00     0.198 A 
ATOM     46  C   UNL A   1      40.443  28.558  27.978  1.00  0.00     0.198 A 
ATOM     47  F   UNL A   1      41.264  30.449  29.104  1.00  0.00    -0.203 F 
ATOM     48  F   UNL A   1      38.661  25.659  29.220  1.00  0.00    -0.200 F 
ATOM     49  C   UNL A   1      39.784  27.338  28.000  1.00  0.00     0.200 A 
ATOM     50  F   UNL A   1      40.940  29.031  26.827  1.00  0.00    -0.200 F 
ATOM     51  F   UNL A   1      39.656  26.625  26.873  1.00  0.00    -0.200 F 
ENDBRANCH  27  41
BRANCH  28  52
ATOM     52  C   UNL A   1      40.307  33.885  39.064  1.00  0.00     0.064 A 
ATOM     53  C   UNL A   1      41.012  35.101  39.096  1.00  0.00     0.173 A 
ATOM     54  C   UNL A   1      39.744  33.445  40.269  1.00  0.00     0.173 A 
ATOM     55  F   UNL A   1      41.585  35.571  37.977  1.00  0.00    -0.203 F 
ATOM     56  C   UNL A   1      41.162  35.829  40.276  1.00  0.00     0.198 A 
ATOM     57  C   UNL A   1      39.865  34.191  41.442  1.00  0.00     0.198 A 
ATOM     58  F   UNL A   1      39.067  32.290  40.314  1.00  0.00    -0.203 F 
ATOM     59  F   UNL A   1      41.870  36.968  40.271  1.00  0.00    -0.200 F 
ATOM     60  C   UNL A   1      40.582  35.378  41.448  1.00  0.00     0.200 A 
ATOM     61  F   UNL A   1      39.291  33.751  42.570  1.00  0.00    -0.200 F 
ATOM     62  F   UNL A   1      40.710  36.086  42.578  1.00  0.00    -0.200 F 
ENDBRANCH  28  52
BRANCH  40  63
ATOM     63  C   UNL A   1      44.196  28.874  36.290  1.00  0.00     0.064 A 
ATOM     64  C   UNL A   1      43.925  27.665  36.950  1.00  0.00     0.173 A 
ATOM     65  C   UNL A   1      45.532  29.270  36.153  1.00  0.00     0.173 A 
ATOM     66  F   UNL A   1      42.658  27.255  37.116  1.00  0.00    -0.203 F 
ATOM     67  C   UNL A   1      44.955  26.890  37.471  1.00  0.00     0.198 A 
ATOM     68  C   UNL A   1      46.562  28.478  36.652  1.00  0.00     0.198 A 
ATOM     69  F   UNL A   1      45.838  30.415  35.525  1.00  0.00    -0.203 F 
ATOM     70  F   UNL A   1      44.672  25.759  38.132  1.00  0.00    -0.200 F 
ATOM     71  C   UNL A   1      46.272  27.293  37.315  1.00  0.00     0.200 A 
ATOM     72  F   UNL A   1      47.836  28.861  36.493  1.00  0.00    -0.200 F 
ATOM     73  F   UNL A   1      47.265  26.541  37.808  1.00  0.00    -0.200 F 
ENDBRANCH  40  63
ENDBRANCH  14  15
ENDBRANCH   7   9
ENDBRANCH   6   7
ENDBRANCH   5   6
ENDBRANCH   4   5
ENDBRANCH   3   4
ENDBRANCH   2   3
ENDBRANCH   1   2
BRANCH   1  74
ATOM     74  O   UNL A   1      34.486  31.033  27.743  1.00  0.00    -0.376 OA
BRANCH  74  75
ATOM     75  C   UNL A   1      33.538  30.267  27.007  1.00  0.00     0.202 C 
BRANCH  75  76
ATOM     76  C   UNL A   1      33.280  28.832  27.476  1.00  0.00     0.261 C 
BRANCH  76  77
ATOM     77  O   UNL A   1      33.636  27.859  26.488  1.00  0.00    -0.462 OA
BRANCH  77  78
ATOM     78  C   UNL A   1      32.640  27.002  26.123  1.00  0.00     0.328 C 
ATOM     79  O   UNL A   1      31.798  26.544  26.890  1.00  0.00    -0.250 OA
BRANCH  78  80
ATOM     80  C   UNL A   1      32.736  26.681  24.618  1.00  0.00     0.195 C 
ATOM     81  C   UNL A   1      33.940  25.794  24.293  1.00  0.00     0.043 C 
ATOM     82  N   UNL A   1      31.568  25.866  24.238  1.00  0.00    -0.324 N 
ATOM     83  C   UNL A   1      33.377  24.446  24.691  1.00  0.00     0.014 C 
ATOM     84  C   UNL A   1      31.972  24.476  24.051  1.00  0.00     0.089 C 
ATOM     85  C   UNL A   1      34.136  23.192  24.324  1.00  0.00     0.006 C 
ATOM     86  C   UNL A   1      31.180  23.343  24.694  1.00  0.00     0.025 C 
ATOM     87  C   UNL A   1      33.351  21.988  24.844  1.00  0.00     0.000 C 
ATOM     88  C   UNL A   1      31.886  22.011  24.386  1.00  0.00     0.002 C 
BRANCH  82  89
ATOM     89  C   UNL A   1      30.397  26.538  23.967  1.00  0.00     0.243 C 
ATOM     90  O   UNL A   1      29.376  26.288  24.623  1.00  0.00    -0.273 OA
BRANCH  89  91
ATOM     91  C   UNL A   1      30.260  27.456  22.748  1.00  0.00     0.220 C 
BRANCH  91  92
ATOM     92  N   UNL A   1      29.593  28.738  22.896  1.00  0.00    -0.323 N 
ATOM     93  C   UNL A   1      28.170  28.795  22.693  1.00  0.00     0.190 C 
ATOM     94  C   UNL A   1      30.117  29.726  23.715  1.00  0.00     0.233 C 
ATOM     95  S   UNL A   1      27.695  30.507  22.916  1.00  0.00    -0.130 SA
ATOM     96  C   UNL A   1      29.174  30.899  23.875  1.00  0.00     0.171 C 
ATOM     97  O   UNL A   1      31.232  29.695  24.220  1.00  0.00    -0.274 OA
ENDBRANCH  91  92
ENDBRANCH  89  91
ENDBRANCH  82  89
ENDBRANCH  78  80
ENDBRANCH  77  78
ENDBRANCH  76  77
ENDBRANCH  75  76
ENDBRANCH  74  75
ENDBRANCH   1  74
TORSDOF 20
ENDMDL
