MODEL 1
REMARK VINA RESULT:      -8.4      0.000      0.000
REMARK SMILES CC1=C(C)C[C@H](C(=O)OCCOCCOCCOC(=O)c2ccc(-c3c4nc(c(-c5c(F)c(F)c(F)c(F)c5F)c5ccc([nH]5)c(-c5c(F)c(F)c(F)c(F)c5F)c5nc(c(-c6c(F)c(F)c(F)c(F)c6F)c6ccc3[nH]6)C=C5)C=C4)cc2)[C@@H](C(=O)Nc2sc3c(c2C(=O)NC2CCCC2)CCCC3)C1
REMARK SMILES IDX 13 1 12 2 11 3 10 4 9 5 7 6 8 7 6 8 1 9 2 10 3 11 105 12
REMARK SMILES IDX 4 13 5 14 84 15 85 16 86 17 87 18 88 20 89 21 92 22 90 23
REMARK SMILES IDX 91 24 104 25 101 26 103 27 102 28 93 29 94 30 95 31 96 33
REMARK SMILES IDX 97 34 100 35 98 36 99 37 14 38 15 39 16 40 17 41 18 42 19 43
REMARK SMILES IDX 20 44 21 45 22 46 83 47 23 48 82 49 24 50 25 51 26 52 76 53
REMARK SMILES IDX 27 54 81 55 75 56 77 57 28 58 80 59 74 60 73 61 29 63 61 64
REMARK SMILES IDX 41 65 60 66 42 67 45 68 59 69 78 70 43 71 44 72 58 74 79 75
REMARK SMILES IDX 46 76 30 77 31 78 39 79 32 80 33 81 37 82 40 83 34 84 35 85
REMARK SMILES IDX 38 86 36 87 62 88 63 89 71 90 64 91 65 92 69 93 72 94 66 95
REMARK SMILES IDX 67 96 70 97 68 98 47 99 48 100 56 101 49 102 50 103 54 104
REMARK SMILES IDX 57 105 51 106 52 107 55 108 53 109
REMARK H PARENT 87 19 95 32 77 62 45 73
REMARK Flexibility Score: inf
ROOT
ATOM      1  C   UNL A   1      37.083  32.194  30.693  1.00  0.00     0.188 C 
ENDROOT
BRANCH   1   2
ATOM      2  O   UNL A   1      37.809  31.008  30.408  1.00  0.00    -0.376 OA
BRANCH   2   3
ATOM      3  C   UNL A   1      37.017  29.847  30.197  1.00  0.00     0.202 C 
BRANCH   3   4
ATOM      4  C   UNL A   1      37.805  28.642  29.686  1.00  0.00     0.261 C 
BRANCH   4   5
ATOM      5  O   UNL A   1      39.134  28.940  29.241  1.00  0.00    -0.463 OA
BRANCH   5   6
ATOM      6  C   UNL A   1      39.436  28.912  27.923  1.00  0.00     0.310 C 
ATOM      7  O   UNL A   1      38.741  29.405  27.044  1.00  0.00    -0.252 OA
BRANCH   6   8
ATOM      8  C   UNL A   1      40.774  28.214  27.669  1.00  0.00     0.116 C 
ATOM      9  C   UNL A   1      44.860  26.929  29.012  1.00  0.00     0.039 C 
ATOM     10  C   UNL A   1      43.512  27.380  28.489  1.00  0.00    -0.074 C 
ATOM     11  C   UNL A   1      43.362  28.446  27.680  1.00  0.00    -0.073 C 
ATOM     12  C   UNL A   1      42.346  26.584  29.013  1.00  0.00     0.045 C 
ATOM     13  C   UNL A   1      44.539  29.062  26.953  1.00  0.00     0.039 C 
ATOM     14  C   UNL A   1      42.013  29.077  27.406  1.00  0.00     0.046 C 
ATOM     15  C   UNL A   1      40.942  26.925  28.473  1.00  0.00     0.097 C 
BRANCH  15  16
ATOM     16  C   UNL A   1      40.130  25.735  27.915  1.00  0.00     0.229 C 
ATOM     17  O   UNL A   1      38.942  25.629  28.256  1.00  0.00    -0.274 OA
ATOM     18  N   UNL A   1      40.571  24.825  26.987  1.00  0.00    -0.317 N 
ATOM     19  H   UNL A   1      39.844  24.345  26.528  1.00  0.00     0.170 HD
BRANCH  18  20
ATOM     20  C   UNL A   1      41.837  24.449  26.566  1.00  0.00     0.108 A 
ATOM     21  S   UNL A   1      42.414  25.527  25.350  1.00  0.00    -0.122 S 
ATOM     22  C   UNL A   1      42.804  23.499  26.912  1.00  0.00     0.078 A 
ATOM     23  C   UNL A   1      44.012  25.162  25.750  1.00  0.00     0.011 A 
ATOM     24  C   UNL A   1      44.096  24.140  26.670  1.00  0.00    -0.019 A 
ATOM     25  C   UNL A   1      45.235  25.843  25.219  1.00  0.00     0.047 C 
ATOM     26  C   UNL A   1      45.449  23.870  27.270  1.00  0.00     0.037 C 
ATOM     27  C   UNL A   1      46.333  24.775  25.013  1.00  0.00     0.006 C 
ATOM     28  C   UNL A   1      46.526  23.789  26.188  1.00  0.00     0.005 C 
BRANCH  22  29
ATOM     29  C   UNL A   1      42.704  22.205  27.607  1.00  0.00     0.254 C 
ATOM     30  O   UNL A   1      42.366  22.145  28.793  1.00  0.00    -0.269 OA
ATOM     31  N   UNL A   1      43.040  20.999  27.064  1.00  0.00    -0.349 N 
ATOM     32  H   UNL A   1      42.983  20.249  27.697  1.00  0.00     0.164 HD
BRANCH  31  33
ATOM     33  C   UNL A   1      43.458  20.615  25.751  1.00  0.00     0.082 C 
ATOM     34  C   UNL A   1      44.914  20.869  25.406  1.00  0.00     0.025 C 
ATOM     35  C   UNL A   1      43.313  19.125  25.462  1.00  0.00     0.025 C 
ATOM     36  C   UNL A   1      45.018  20.179  24.057  1.00  0.00     0.002 C 
ATOM     37  C   UNL A   1      44.152  18.924  24.197  1.00  0.00     0.002 C 
ENDBRANCH  31  33
ENDBRANCH  22  29
ENDBRANCH  18  20
ENDBRANCH  15  16
ENDBRANCH   6   8
ENDBRANCH   5   6
ENDBRANCH   4   5
ENDBRANCH   3   4
ENDBRANCH   2   3
ENDBRANCH   1   2
BRANCH   1  38
ATOM     38  C   UNL A   1      36.681  32.305  32.182  1.00  0.00     0.188 C 
BRANCH  38  39
ATOM     39  O   UNL A   1      36.583  33.562  32.815  1.00  0.00    -0.376 OA
BRANCH  39  40
ATOM     40  C   UNL A   1      36.003  33.602  34.099  1.00  0.00     0.202 C 
BRANCH  40  41
ATOM     41  C   UNL A   1      36.901  33.389  35.334  1.00  0.00     0.261 C 
BRANCH  41  42
ATOM     42  O   UNL A   1      37.406  32.057  35.583  1.00  0.00    -0.460 OA
BRANCH  42  43
ATOM     43  C   UNL A   1      38.637  31.944  36.141  1.00  0.00     0.338 C 
ATOM     44  O   UNL A   1      38.896  31.899  37.339  1.00  0.00    -0.246 OA
BRANCH  43  45
ATOM     45  C   UNL A   1      39.662  31.694  35.093  1.00  0.00     0.060 A 
ATOM     46  C   UNL A   1      39.331  30.903  33.984  1.00  0.00     0.016 A 
ATOM     47  C   UNL A   1      40.968  32.159  35.225  1.00  0.00     0.016 A 
ATOM     48  C   UNL A   1      40.281  30.587  33.000  1.00  0.00     0.010 A 
ATOM     49  C   UNL A   1      41.933  31.800  34.268  1.00  0.00     0.010 A 
ATOM     50  C   UNL A   1      41.604  30.999  33.155  1.00  0.00    -0.014 A 
BRANCH  50  51
ATOM     51  C   UNL A   1      42.692  30.432  32.308  1.00  0.00     0.031 A 
ATOM     52  C   UNL A   1      43.269  29.098  32.698  1.00  0.00     0.074 A 
ATOM     53  C   UNL A   1      43.187  31.064  31.226  1.00  0.00     0.049 A 
ATOM     54  N   UNL A   1      44.387  28.527  32.332  1.00  0.00    -0.248 NA
ATOM     55  C   UNL A   1      42.464  28.304  33.639  1.00  0.00     0.031 C 
ATOM     56  C   UNL A   1      42.649  32.283  30.631  1.00  0.00     0.029 A 
ATOM     57  N   UNL A   1      44.288  30.768  30.452  1.00  0.00    -0.354 N 
ATOM     58  C   UNL A   1      44.445  27.331  33.038  1.00  0.00     0.074 A 
ATOM     59  C   UNL A   1      43.246  27.255  33.844  1.00  0.00     0.031 C 
ATOM     60  C   UNL A   1      43.446  32.657  29.612  1.00  0.00     0.029 A 
ATOM     61  C   UNL A   1      44.588  31.744  29.531  1.00  0.00     0.049 A 
ATOM     62  H   UNL A   1      44.811  29.939  30.551  1.00  0.00     0.167 HD
ATOM     63  C   UNL A   1      45.421  26.392  33.026  1.00  0.00     0.037 A 
ATOM     64  C   UNL A   1      45.684  31.916  28.762  1.00  0.00     0.037 A 
ATOM     65  C   UNL A   1      46.603  26.464  32.208  1.00  0.00     0.049 A 
ATOM     66  C   UNL A   1      46.822  30.923  28.849  1.00  0.00     0.074 A 
ATOM     67  C   UNL A   1      47.659  25.572  32.136  1.00  0.00     0.029 A 
ATOM     68  N   UNL A   1      46.885  27.491  31.320  1.00  0.00    -0.354 N 
ATOM     69  N   UNL A   1      46.917  29.830  29.567  1.00  0.00    -0.248 NA
ATOM     70  C   UNL A   1      48.016  31.198  28.030  1.00  0.00     0.031 C 
ATOM     71  C   UNL A   1      48.609  26.091  31.250  1.00  0.00     0.029 A 
ATOM     72  C   UNL A   1      48.110  27.266  30.714  1.00  0.00     0.049 A 
ATOM     73  H   UNL A   1      46.302  28.265  31.146  1.00  0.00     0.167 HD
ATOM     74  C   UNL A   1      48.150  29.268  29.253  1.00  0.00     0.074 A 
ATOM     75  C   UNL A   1      48.775  30.142  28.286  1.00  0.00     0.031 C 
ATOM     76  C   UNL A   1      48.710  28.125  29.723  1.00  0.00     0.037 A 
BRANCH  63  77
ATOM     77  C   UNL A   1      45.286  25.236  33.976  1.00  0.00     0.064 A 
ATOM     78  C   UNL A   1      44.714  24.015  33.593  1.00  0.00     0.173 A 
ATOM     79  C   UNL A   1      45.765  25.353  35.291  1.00  0.00     0.173 A 
ATOM     80  F   UNL A   1      44.227  23.855  32.354  1.00  0.00    -0.203 F 
ATOM     81  C   UNL A   1      44.597  22.964  34.502  1.00  0.00     0.198 A 
ATOM     82  C   UNL A   1      45.680  24.289  36.184  1.00  0.00     0.198 A 
ATOM     83  F   UNL A   1      46.328  26.497  35.707  1.00  0.00    -0.203 F 
ATOM     84  F   UNL A   1      43.995  21.826  34.130  1.00  0.00    -0.200 F 
ATOM     85  C   UNL A   1      45.086  23.099  35.792  1.00  0.00     0.200 A 
ATOM     86  F   UNL A   1      46.169  24.417  37.425  1.00  0.00    -0.200 F 
ATOM     87  F   UNL A   1      44.980  22.085  36.661  1.00  0.00    -0.200 F 
ENDBRANCH  63  77
BRANCH  64  88
ATOM     88  C   UNL A   1      45.802  33.112  27.880  1.00  0.00     0.064 A 
ATOM     89  C   UNL A   1      46.456  34.273  28.315  1.00  0.00     0.173 A 
ATOM     90  C   UNL A   1      45.227  33.132  26.599  1.00  0.00     0.173 A 
ATOM     91  F   UNL A   1      46.988  34.321  29.545  1.00  0.00    -0.203 F 
ATOM     92  C   UNL A   1      46.520  35.410  27.511  1.00  0.00     0.198 A 
ATOM     93  C   UNL A   1      45.322  34.258  25.782  1.00  0.00     0.198 A 
ATOM     94  F   UNL A   1      44.576  32.057  26.136  1.00  0.00    -0.203 F 
ATOM     95  F   UNL A   1      47.105  36.524  27.974  1.00  0.00    -0.200 F 
ATOM     96  C   UNL A   1      45.961  35.399  26.242  1.00  0.00     0.200 A 
ATOM     97  F   UNL A   1      44.789  34.239  24.554  1.00  0.00    -0.200 F 
ATOM     98  F   UNL A   1      46.027  36.491  25.467  1.00  0.00    -0.200 F 
ENDBRANCH  64  88
BRANCH  76  99
ATOM     99  C   UNL A   1      50.028  27.689  29.148  1.00  0.00     0.064 A 
ATOM    100  C   UNL A   1      51.252  28.097  29.694  1.00  0.00     0.173 A 
ATOM    101  C   UNL A   1      50.058  26.767  28.088  1.00  0.00     0.173 A 
ATOM    102  F   UNL A   1      51.281  28.985  30.699  1.00  0.00    -0.203 F 
ATOM    103  C   UNL A   1      52.458  27.605  29.197  1.00  0.00     0.198 A 
ATOM    104  C   UNL A   1      51.262  26.253  27.615  1.00  0.00     0.198 A 
ATOM    105  F   UNL A   1      48.914  26.336  27.535  1.00  0.00    -0.203 F 
ATOM    106  F   UNL A   1      53.618  28.031  29.716  1.00  0.00    -0.200 F 
ATOM    107  C   UNL A   1      52.461  26.676  28.167  1.00  0.00     0.200 A 
ATOM    108  F   UNL A   1      51.260  25.341  26.633  1.00  0.00    -0.200 F 
ATOM    109  F   UNL A   1      53.620  26.185  27.707  1.00  0.00    -0.200 F 
ENDBRANCH  76  99
ENDBRANCH  50  51
ENDBRANCH  43  45
ENDBRANCH  42  43
ENDBRANCH  41  42
ENDBRANCH  40  41
ENDBRANCH  39  40
ENDBRANCH  38  39
ENDBRANCH   1  38
TORSDOF 21
ENDMDL
MODEL 2
REMARK VINA RESULT:      -8.3      3.022      5.414
REMARK SMILES CC1=C(C)C[C@H](C(=O)OCCOCCOCCOC(=O)c2ccc(-c3c4nc(c(-c5c(F)c(F)c(F)c(F)c5F)c5ccc([nH]5)c(-c5c(F)c(F)c(F)c(F)c5F)c5nc(c(-c6c(F)c(F)c(F)c(F)c6F)c6ccc3[nH]6)C=C5)C=C4)cc2)[C@@H](C(=O)Nc2sc3c(c2C(=O)NC2CCCC2)CCCC3)C1
REMARK SMILES IDX 13 1 12 2 11 3 10 4 9 5 7 6 8 7 6 8 1 9 2 10 3 11 105 12
REMARK SMILES IDX 4 13 5 14 84 15 85 16 86 17 87 18 88 20 89 21 92 22 90 23
REMARK SMILES IDX 91 24 104 25 101 26 103 27 102 28 93 29 94 30 95 31 96 33
REMARK SMILES IDX 97 34 100 35 98 36 99 37 14 38 15 39 16 40 17 41 18 42 19 43
REMARK SMILES IDX 20 44 21 45 22 46 83 47 23 48 82 49 24 50 25 51 26 52 76 53
REMARK SMILES IDX 27 54 81 55 75 56 77 57 28 58 80 59 74 60 73 61 29 63 61 64
REMARK SMILES IDX 41 65 60 66 42 67 45 68 59 69 78 70 43 71 44 72 58 74 79 75
REMARK SMILES IDX 46 76 30 77 31 78 39 79 32 80 33 81 37 82 40 83 34 84 35 85
REMARK SMILES IDX 38 86 36 87 62 88 63 89 71 90 64 91 65 92 69 93 72 94 66 95
REMARK SMILES IDX 67 96 70 97 68 98 47 99 48 100 56 101 49 102 50 103 54 104
REMARK SMILES IDX 57 105 51 106 52 107 55 108 53 109
REMARK H PARENT 87 19 95 32 77 62 45 73
REMARK Flexibility Score: inf
ROOT
ATOM      1  C   UNL A   1      37.329  32.681  30.866  1.00  0.00     0.188 C 
ENDROOT
BRANCH   1   2
ATOM      2  O   UNL A   1      38.023  31.506  30.477  1.00  0.00    -0.376 OA
BRANCH   2   3
ATOM      3  C   UNL A   1      37.209  30.361  30.267  1.00  0.00     0.202 C 
BRANCH   3   4
ATOM      4  C   UNL A   1      37.992  29.094  29.928  1.00  0.00     0.261 C 
BRANCH   4   5
ATOM      5  O   UNL A   1      39.308  29.324  29.409  1.00  0.00    -0.463 OA
BRANCH   5   6
ATOM      6  C   UNL A   1      39.557  29.172  28.088  1.00  0.00     0.310 C 
ATOM      7  O   UNL A   1      38.805  29.540  27.196  1.00  0.00    -0.252 OA
BRANCH   6   8
ATOM      8  C   UNL A   1      40.916  28.508  27.848  1.00  0.00     0.116 C 
ATOM      9  C   UNL A   1      44.936  27.133  29.297  1.00  0.00     0.039 C 
ATOM     10  C   UNL A   1      43.613  27.621  28.742  1.00  0.00    -0.074 C 
ATOM     11  C   UNL A   1      43.496  28.755  28.025  1.00  0.00    -0.073 C 
ATOM     12  C   UNL A   1      42.430  26.773  29.125  1.00  0.00     0.045 C 
ATOM     13  C   UNL A   1      44.704  29.442  27.424  1.00  0.00     0.039 C 
ATOM     14  C   UNL A   1      42.157  29.399  27.734  1.00  0.00     0.046 C 
ATOM     15  C   UNL A   1      41.054  27.152  28.541  1.00  0.00     0.097 C 
BRANCH  15  16
ATOM     16  C   UNL A   1      40.288  26.013  27.833  1.00  0.00     0.229 C 
ATOM     17  O   UNL A   1      39.076  25.893  28.065  1.00  0.00    -0.274 OA
ATOM     18  N   UNL A   1      40.802  25.168  26.881  1.00  0.00    -0.317 N 
ATOM     19  H   UNL A   1      40.114  24.728  26.330  1.00  0.00     0.170 HD
BRANCH  18  20
ATOM     20  C   UNL A   1      42.098  24.811  26.540  1.00  0.00     0.108 A 
ATOM     21  S   UNL A   1      42.729  25.894  25.356  1.00  0.00    -0.122 S 
ATOM     22  C   UNL A   1      43.057  23.880  26.951  1.00  0.00     0.078 A 
ATOM     23  C   UNL A   1      44.306  25.558  25.854  1.00  0.00     0.011 A 
ATOM     24  C   UNL A   1      44.351  24.542  26.784  1.00  0.00    -0.019 A 
ATOM     25  C   UNL A   1      45.547  26.257  25.395  1.00  0.00     0.047 C 
ATOM     26  C   UNL A   1      45.669  24.299  27.467  1.00  0.00     0.037 C 
ATOM     27  C   UNL A   1      46.674  25.208  25.263  1.00  0.00     0.006 C 
ATOM     28  C   UNL A   1      46.811  24.231  26.453  1.00  0.00     0.005 C 
BRANCH  22  29
ATOM     29  C   UNL A   1      42.937  22.588  27.646  1.00  0.00     0.254 C 
ATOM     30  O   UNL A   1      42.618  22.534  28.837  1.00  0.00    -0.269 OA
ATOM     31  N   UNL A   1      43.234  21.375  27.095  1.00  0.00    -0.349 N 
ATOM     32  H   UNL A   1      43.169  20.625  27.729  1.00  0.00     0.164 HD
BRANCH  31  33
ATOM     33  C   UNL A   1      43.619  20.982  25.776  1.00  0.00     0.082 C 
ATOM     34  C   UNL A   1      45.021  21.370  25.340  1.00  0.00     0.025 C 
ATOM     35  C   UNL A   1      43.616  19.476  25.548  1.00  0.00     0.025 C 
ATOM     36  C   UNL A   1      45.125  20.640  24.012  1.00  0.00     0.002 C 
ATOM     37  C   UNL A   1      44.403  19.310  24.244  1.00  0.00     0.002 C 
ENDBRANCH  31  33
ENDBRANCH  22  29
ENDBRANCH  18  20
ENDBRANCH  15  16
ENDBRANCH   6   8
ENDBRANCH   5   6
ENDBRANCH   4   5
ENDBRANCH   3   4
ENDBRANCH   2   3
ENDBRANCH   1   2
BRANCH   1  38
ATOM     38  C   UNL A   1      36.972  32.695  32.370  1.00  0.00     0.188 C 
BRANCH  38  39
ATOM     39  O   UNL A   1      37.912  32.294  33.342  1.00  0.00    -0.376 OA
BRANCH  39  40
ATOM     40  C   UNL A   1      37.443  32.080  34.654  1.00  0.00     0.202 C 
BRANCH  40  41
ATOM     41  C   UNL A   1      38.247  31.163  35.597  1.00  0.00     0.261 C 
BRANCH  41  42
ATOM     42  O   UNL A   1      38.842  29.969  35.038  1.00  0.00    -0.460 OA
BRANCH  42  43
ATOM     43  C   UNL A   1      40.187  29.833  35.130  1.00  0.00     0.338 C 
ATOM     44  O   UNL A   1      40.797  29.057  35.859  1.00  0.00    -0.246 OA
BRANCH  43  45
ATOM     45  C   UNL A   1      40.865  30.637  34.079  1.00  0.00     0.060 A 
ATOM     46  C   UNL A   1      40.680  30.300  32.731  1.00  0.00     0.016 A 
ATOM     47  C   UNL A   1      41.744  31.667  34.402  1.00  0.00     0.016 A 
ATOM     48  C   UNL A   1      41.346  30.988  31.705  1.00  0.00     0.010 A 
ATOM     49  C   UNL A   1      42.452  32.324  33.379  1.00  0.00     0.010 A 
ATOM     50  C   UNL A   1      42.273  31.981  32.024  1.00  0.00    -0.014 A 
BRANCH  50  51
ATOM     51  C   UNL A   1      43.215  32.514  30.998  1.00  0.00     0.031 A 
ATOM     52  C   UNL A   1      44.492  31.756  30.751  1.00  0.00     0.074 A 
ATOM     53  C   UNL A   1      42.982  33.641  30.300  1.00  0.00     0.049 A 
ATOM     54  N   UNL A   1      45.592  32.137  30.156  1.00  0.00    -0.248 NA
ATOM     55  C   UNL A   1      44.524  30.375  31.257  1.00  0.00     0.031 C 
ATOM     56  C   UNL A   1      41.741  34.409  30.311  1.00  0.00     0.029 A 
ATOM     57  N   UNL A   1      43.811  34.352  29.460  1.00  0.00    -0.354 N 
ATOM     58  C   UNL A   1      46.466  31.061  30.261  1.00  0.00     0.074 A 
ATOM     59  C   UNL A   1      45.764  30.012  30.967  1.00  0.00     0.031 C 
ATOM     60  C   UNL A   1      41.904  35.509  29.551  1.00  0.00     0.029 A 
ATOM     61  C   UNL A   1      43.282  35.557  29.059  1.00  0.00     0.049 A 
ATOM     62  H   UNL A   1      44.697  34.030  29.175  1.00  0.00     0.167 HD
ATOM     63  C   UNL A   1      47.744  30.967  29.822  1.00  0.00     0.037 A 
ATOM     64  C   UNL A   1      43.861  36.602  28.430  1.00  0.00     0.037 A 
ATOM     65  C   UNL A   1      48.431  32.008  29.104  1.00  0.00     0.049 A 
ATOM     66  C   UNL A   1      45.325  36.532  28.054  1.00  0.00     0.074 A 
ATOM     67  C   UNL A   1      49.732  32.017  28.631  1.00  0.00     0.029 A 
ATOM     68  N   UNL A   1      47.870  33.228  28.756  1.00  0.00    -0.354 N 
ATOM     69  N   UNL A   1      46.177  35.548  28.215  1.00  0.00    -0.248 NA
ATOM     70  C   UNL A   1      45.913  37.727  27.425  1.00  0.00     0.031 C 
ATOM     71  C   UNL A   1      49.977  33.266  28.052  1.00  0.00     0.029 A 
ATOM     72  C   UNL A   1      48.807  34.006  28.096  1.00  0.00     0.049 A 
ATOM     73  H   UNL A   1      46.944  33.501  28.950  1.00  0.00     0.167 HD
ATOM     74  C   UNL A   1      47.379  35.985  27.669  1.00  0.00     0.074 A 
ATOM     75  C   UNL A   1      47.153  37.326  27.178  1.00  0.00     0.031 C 
ATOM     76  C   UNL A   1      48.562  35.329  27.578  1.00  0.00     0.037 A 
BRANCH  63  77
ATOM     77  C   UNL A   1      48.508  29.721  30.166  1.00  0.00     0.064 A 
ATOM     78  C   UNL A   1      49.218  29.586  31.368  1.00  0.00     0.173 A 
ATOM     79  C   UNL A   1      48.505  28.631  29.281  1.00  0.00     0.173 A 
ATOM     80  F   UNL A   1      49.267  30.603  32.242  1.00  0.00    -0.203 F 
ATOM     81  C   UNL A   1      49.923  28.419  31.655  1.00  0.00     0.198 A 
ATOM     82  C   UNL A   1      49.179  27.453  29.588  1.00  0.00     0.198 A 
ATOM     83  F   UNL A   1      47.835  28.704  28.121  1.00  0.00    -0.203 F 
ATOM     84  F   UNL A   1      50.642  28.334  32.783  1.00  0.00    -0.200 F 
ATOM     85  C   UNL A   1      49.897  27.352  30.770  1.00  0.00     0.200 A 
ATOM     86  F   UNL A   1      49.138  26.418  28.738  1.00  0.00    -0.200 F 
ATOM     87  F   UNL A   1      50.569  26.227  31.051  1.00  0.00    -0.200 F 
ENDBRANCH  63  77
BRANCH  64  88
ATOM     88  C   UNL A   1      43.080  37.844  28.165  1.00  0.00     0.064 A 
ATOM     89  C   UNL A   1      43.048  38.894  29.094  1.00  0.00     0.173 A 
ATOM     90  C   UNL A   1      42.317  37.990  26.996  1.00  0.00     0.173 A 
ATOM     91  F   UNL A   1      43.728  38.790  30.245  1.00  0.00    -0.203 F 
ATOM     92  C   UNL A   1      42.277  40.033  28.871  1.00  0.00     0.198 A 
ATOM     93  C   UNL A   1      41.573  39.144  26.757  1.00  0.00     0.198 A 
ATOM     94  F   UNL A   1      42.297  37.012  26.079  1.00  0.00    -0.203 F 
ATOM     95  F   UNL A   1      42.223  40.997  29.800  1.00  0.00    -0.200 F 
ATOM     96  C   UNL A   1      41.546  40.161  27.699  1.00  0.00     0.200 A 
ATOM     97  F   UNL A   1      40.877  39.267  25.619  1.00  0.00    -0.200 F 
ATOM     98  F   UNL A   1      40.808  41.259  27.482  1.00  0.00    -0.200 F 
ENDBRANCH  64  88
BRANCH  76  99
ATOM     99  C   UNL A   1      49.694  36.000  26.852  1.00  0.00     0.064 A 
ATOM    100  C   UNL A   1      50.735  36.649  27.529  1.00  0.00     0.173 A 
ATOM    101  C   UNL A   1      49.783  35.901  25.453  1.00  0.00     0.173 A 
ATOM    102  F   UNL A   1      50.694  36.781  28.863  1.00  0.00    -0.203 F 
ATOM    103  C   UNL A   1      51.819  37.183  26.833  1.00  0.00     0.198 A 
ATOM    104  C   UNL A   1      50.882  36.407  24.764  1.00  0.00     0.198 A 
ATOM    105  F   UNL A   1      48.819  35.281  24.757  1.00  0.00    -0.203 F 
ATOM    106  F   UNL A   1      52.789  37.825  27.498  1.00  0.00    -0.200 F 
ATOM    107  C   UNL A   1      51.896  37.051  25.455  1.00  0.00     0.200 A 
ATOM    108  F   UNL A   1      50.963  36.261  23.434  1.00  0.00    -0.200 F 
ATOM    109  F   UNL A   1      52.952  37.543  24.790  1.00  0.00    -0.200 F 
ENDBRANCH  76  99
ENDBRANCH  50  51
ENDBRANCH  43  45
ENDBRANCH  42  43
ENDBRANCH  41  42
ENDBRANCH  40  41
ENDBRANCH  39  40
ENDBRANCH  38  39
ENDBRANCH   1  38
TORSDOF 21
ENDMDL
MODEL 3
REMARK VINA RESULT:      -7.9      6.304     12.748
REMARK SMILES CC1=C(C)C[C@H](C(=O)OCCOCCOCCOC(=O)c2ccc(-c3c4nc(c(-c5c(F)c(F)c(F)c(F)c5F)c5ccc([nH]5)c(-c5c(F)c(F)c(F)c(F)c5F)c5nc(c(-c6c(F)c(F)c(F)c(F)c6F)c6ccc3[nH]6)C=C5)C=C4)cc2)[C@@H](C(=O)Nc2sc3c(c2C(=O)NC2CCCC2)CCCC3)C1
REMARK SMILES IDX 13 1 12 2 11 3 10 4 9 5 7 6 8 7 6 8 1 9 2 10 3 11 105 12
REMARK SMILES IDX 4 13 5 14 84 15 85 16 86 17 87 18 88 20 89 21 92 22 90 23
REMARK SMILES IDX 91 24 104 25 101 26 103 27 102 28 93 29 94 30 95 31 96 33
REMARK SMILES IDX 97 34 100 35 98 36 99 37 14 38 15 39 16 40 17 41 18 42 19 43
REMARK SMILES IDX 20 44 21 45 22 46 83 47 23 48 82 49 24 50 25 51 26 52 76 53
REMARK SMILES IDX 27 54 81 55 75 56 77 57 28 58 80 59 74 60 73 61 29 63 61 64
REMARK SMILES IDX 41 65 60 66 42 67 45 68 59 69 78 70 43 71 44 72 58 74 79 75
REMARK SMILES IDX 46 76 30 77 31 78 39 79 32 80 33 81 37 82 40 83 34 84 35 85
REMARK SMILES IDX 38 86 36 87 62 88 63 89 71 90 64 91 65 92 69 93 72 94 66 95
REMARK SMILES IDX 67 96 70 97 68 98 47 99 48 100 56 101 49 102 50 103 54 104
REMARK SMILES IDX 57 105 51 106 52 107 55 108 53 109
REMARK H PARENT 87 19 95 32 77 62 45 73
REMARK Flexibility Score: inf
ROOT
ATOM      1  C   UNL A   1      54.483  26.155  35.809  1.00  0.00     0.188 C 
ENDROOT
BRANCH   1   2
ATOM      2  O   UNL A   1      54.450  24.863  36.396  1.00  0.00    -0.376 OA
BRANCH   2   3
ATOM      3  C   UNL A   1      55.239  23.880  35.741  1.00  0.00     0.202 C 
BRANCH   3   4
ATOM      4  C   UNL A   1      54.432  22.902  34.889  1.00  0.00     0.261 C 
BRANCH   4   5
ATOM      5  O   UNL A   1      53.240  22.407  35.512  1.00  0.00    -0.463 OA
BRANCH   5   6
ATOM      6  C   UNL A   1      52.567  21.366  34.970  1.00  0.00     0.310 C 
ATOM      7  O   UNL A   1      53.084  20.484  34.297  1.00  0.00    -0.252 OA
BRANCH   6   8
ATOM      8  C   UNL A   1      51.080  21.411  35.330  1.00  0.00     0.116 C 
ATOM      9  C   UNL A   1      46.751  20.928  34.247  1.00  0.00     0.039 C 
ATOM     10  C   UNL A   1      48.193  21.156  34.653  1.00  0.00    -0.074 C 
ATOM     11  C   UNL A   1      48.746  22.381  34.729  1.00  0.00    -0.073 C 
ATOM     12  C   UNL A   1      48.976  19.891  34.890  1.00  0.00     0.045 C 
ATOM     13  C   UNL A   1      47.897  23.634  34.756  1.00  0.00     0.039 C 
ATOM     14  C   UNL A   1      50.241  22.593  34.833  1.00  0.00     0.046 C 
ATOM     15  C   UNL A   1      50.431  20.028  35.381  1.00  0.00     0.097 C 
BRANCH  15  16
ATOM     16  C   UNL A   1      50.790  19.221  36.649  1.00  0.00     0.229 C 
ATOM     17  O   UNL A   1      51.606  18.294  36.537  1.00  0.00    -0.274 OA
ATOM     18  N   UNL A   1      50.365  19.495  37.925  1.00  0.00    -0.317 N 
ATOM     19  H   UNL A   1      50.924  19.085  38.624  1.00  0.00     0.170 HD
BRANCH  18  20
ATOM     20  C   UNL A   1      49.305  20.235  38.425  1.00  0.00     0.108 A 
ATOM     21  S   UNL A   1      49.883  21.637  39.247  1.00  0.00    -0.122 S 
ATOM     22  C   UNL A   1      47.908  20.208  38.373  1.00  0.00     0.078 A 
ATOM     23  C   UNL A   1      48.425  22.437  38.958  1.00  0.00     0.011 A 
ATOM     24  C   UNL A   1      47.482  21.608  38.392  1.00  0.00    -0.019 A 
ATOM     25  C   UNL A   1      48.136  23.878  39.241  1.00  0.00     0.047 C 
ATOM     26  C   UNL A   1      46.221  22.253  37.886  1.00  0.00     0.037 C 
ATOM     27  C   UNL A   1      46.681  23.989  39.749  1.00  0.00     0.006 C 
ATOM     28  C   UNL A   1      45.631  23.204  38.928  1.00  0.00     0.005 C 
BRANCH  22  29
ATOM     29  C   UNL A   1      46.956  19.117  38.107  1.00  0.00     0.254 C 
ATOM     30  O   UNL A   1      46.257  19.116  37.089  1.00  0.00    -0.269 OA
ATOM     31  N   UNL A   1      46.697  18.082  38.958  1.00  0.00    -0.349 N 
ATOM     32  H   UNL A   1      45.976  17.487  38.651  1.00  0.00     0.164 HD
BRANCH  31  33
ATOM     33  C   UNL A   1      47.271  17.695  40.209  1.00  0.00     0.082 C 
ATOM     34  C   UNL A   1      47.291  18.752  41.298  1.00  0.00     0.025 C 
ATOM     35  C   UNL A   1      46.551  16.540  40.894  1.00  0.00     0.025 C 
ATOM     36  C   UNL A   1      47.778  17.939  42.485  1.00  0.00     0.002 C 
ATOM     37  C   UNL A   1      47.098  16.577  42.325  1.00  0.00     0.002 C 
ENDBRANCH  31  33
ENDBRANCH  22  29
ENDBRANCH  18  20
ENDBRANCH  15  16
ENDBRANCH   6   8
ENDBRANCH   5   6
ENDBRANCH   4   5
ENDBRANCH   3   4
ENDBRANCH   2   3
ENDBRANCH   1   2
BRANCH   1  38
ATOM     38  C   UNL A   1      53.073  26.693  35.470  1.00  0.00     0.188 C 
BRANCH  38  39
ATOM     39  O   UNL A   1      52.133  26.959  36.487  1.00  0.00    -0.376 OA
BRANCH  39  40
ATOM     40  C   UNL A   1      51.175  25.964  36.765  1.00  0.00     0.202 C 
BRANCH  40  41
ATOM     41  C   UNL A   1      49.678  26.333  36.724  1.00  0.00     0.261 C 
BRANCH  41  42
ATOM     42  O   UNL A   1      49.285  27.485  35.943  1.00  0.00    -0.460 OA
BRANCH  42  43
ATOM     43  C   UNL A   1      48.898  27.274  34.661  1.00  0.00     0.338 C 
ATOM     44  O   UNL A   1      49.523  26.668  33.797  1.00  0.00    -0.246 OA
BRANCH  43  45
ATOM     45  C   UNL A   1      47.496  27.727  34.460  1.00  0.00     0.060 A 
ATOM     46  C   UNL A   1      46.442  26.864  34.789  1.00  0.00     0.016 A 
ATOM     47  C   UNL A   1      47.204  28.958  33.877  1.00  0.00     0.016 A 
ATOM     48  C   UNL A   1      45.104  27.221  34.560  1.00  0.00     0.010 A 
ATOM     49  C   UNL A   1      45.867  29.295  33.599  1.00  0.00     0.010 A 
ATOM     50  C   UNL A   1      44.806  28.424  33.923  1.00  0.00    -0.014 A 
BRANCH  50  51
ATOM     51  C   UNL A   1      43.440  28.697  33.390  1.00  0.00     0.031 A 
ATOM     52  C   UNL A   1      43.110  28.201  32.007  1.00  0.00     0.074 A 
ATOM     53  C   UNL A   1      42.503  29.374  34.079  1.00  0.00     0.049 A 
ATOM     54  N   UNL A   1      42.138  28.544  31.202  1.00  0.00    -0.248 NA
ATOM     55  C   UNL A   1      44.015  27.177  31.462  1.00  0.00     0.031 C 
ATOM     56  C   UNL A   1      42.607  29.794  35.472  1.00  0.00     0.029 A 
ATOM     57  N   UNL A   1      41.277  29.855  33.673  1.00  0.00    -0.354 N 
ATOM     58  C   UNL A   1      42.344  27.816  30.036  1.00  0.00     0.074 A 
ATOM     59  C   UNL A   1      43.525  27.008  30.243  1.00  0.00     0.031 C 
ATOM     60  C   UNL A   1      41.511  30.508  35.794  1.00  0.00     0.029 A 
ATOM     61  C   UNL A   1      40.665  30.655  34.609  1.00  0.00     0.049 A 
ATOM     62  H   UNL A   1      40.878  29.647  32.797  1.00  0.00     0.167 HD
ATOM     63  C   UNL A   1      41.620  27.836  28.891  1.00  0.00     0.037 A 
ATOM     64  C   UNL A   1      39.588  31.463  34.502  1.00  0.00     0.037 A 
ATOM     65  C   UNL A   1      40.434  28.628  28.698  1.00  0.00     0.049 A 
ATOM     66  C   UNL A   1      38.861  31.570  33.180  1.00  0.00     0.074 A 
ATOM     67  C   UNL A   1      39.639  28.731  27.570  1.00  0.00     0.029 A 
ATOM     68  N   UNL A   1      39.874  29.456  29.659  1.00  0.00    -0.354 N 
ATOM     69  N   UNL A   1      39.092  30.942  32.052  1.00  0.00    -0.248 NA
ATOM     70  C   UNL A   1      37.732  32.513  33.110  1.00  0.00     0.031 C 
ATOM     71  C   UNL A   1      38.634  29.668  27.828  1.00  0.00     0.029 A 
ATOM     72  C   UNL A   1      38.758  30.091  29.142  1.00  0.00     0.049 A 
ATOM     73  H   UNL A   1      40.218  29.574  30.574  1.00  0.00     0.167 HD
ATOM     74  C   UNL A   1      38.117  31.376  31.161  1.00  0.00     0.074 A 
ATOM     75  C   UNL A   1      37.293  32.327  31.873  1.00  0.00     0.031 C 
ATOM     76  C   UNL A   1      37.920  31.012  29.870  1.00  0.00     0.037 A 
BRANCH  63  77
ATOM     77  C   UNL A   1      42.129  27.027  27.732  1.00  0.00     0.064 A 
ATOM     78  C   UNL A   1      41.728  25.702  27.510  1.00  0.00     0.173 A 
ATOM     79  C   UNL A   1      43.019  27.606  26.813  1.00  0.00     0.173 A 
ATOM     80  F   UNL A   1      40.891  25.097  28.366  1.00  0.00    -0.203 F 
ATOM     81  C   UNL A   1      42.224  24.977  26.429  1.00  0.00     0.198 A 
ATOM     82  C   UNL A   1      43.484  26.890  25.714  1.00  0.00     0.198 A 
ATOM     83  F   UNL A   1      43.430  28.873  26.975  1.00  0.00    -0.203 F 
ATOM     84  F   UNL A   1      41.872  23.694  26.268  1.00  0.00    -0.200 F 
ATOM     85  C   UNL A   1      43.095  25.573  25.529  1.00  0.00     0.200 A 
ATOM     86  F   UNL A   1      44.312  27.475  24.838  1.00  0.00    -0.200 F 
ATOM     87  F   UNL A   1      43.565  24.876  24.485  1.00  0.00    -0.200 F 
ENDBRANCH  63  77
BRANCH  64  88
ATOM     88  C   UNL A   1      39.157  32.295  35.661  1.00  0.00     0.064 A 
ATOM     89  C   UNL A   1      39.646  33.597  35.843  1.00  0.00     0.173 A 
ATOM     90  C   UNL A   1      38.278  31.792  36.633  1.00  0.00     0.173 A 
ATOM     91  F   UNL A   1      40.519  34.112  34.964  1.00  0.00    -0.203 F 
ATOM     92  C   UNL A   1      39.284  34.357  36.954  1.00  0.00     0.198 A 
ATOM     93  C   UNL A   1      37.890  32.565  37.727  1.00  0.00     0.198 A 
ATOM     94  F   UNL A   1      37.791  30.548  36.521  1.00  0.00    -0.203 F 
ATOM     95  F   UNL A   1      39.809  35.577  37.129  1.00  0.00    -0.200 F 
ATOM     96  C   UNL A   1      38.400  33.843  37.891  1.00  0.00     0.200 A 
ATOM     97  F   UNL A   1      37.027  32.068  38.623  1.00  0.00    -0.200 F 
ATOM     98  F   UNL A   1      38.048  34.575  38.957  1.00  0.00    -0.200 F 
ENDBRANCH  64  88
BRANCH  76  99
ATOM     99  C   UNL A   1      36.725  31.567  29.148  1.00  0.00     0.064 A 
ATOM    100  C   UNL A   1      35.599  30.785  28.855  1.00  0.00     0.173 A 
ATOM    101  C   UNL A   1      36.672  32.935  28.832  1.00  0.00     0.173 A 
ATOM    102  F   UNL A   1      35.601  29.471  29.126  1.00  0.00    -0.203 F 
ATOM    103  C   UNL A   1      34.469  31.349  28.266  1.00  0.00     0.198 A 
ATOM    104  C   UNL A   1      35.531  33.502  28.272  1.00  0.00     0.198 A 
ATOM    105  F   UNL A   1      37.719  33.731  29.099  1.00  0.00    -0.203 F 
ATOM    106  F   UNL A   1      33.414  30.577  27.970  1.00  0.00    -0.200 F 
ATOM    107  C   UNL A   1      34.431  32.707  27.987  1.00  0.00     0.200 A 
ATOM    108  F   UNL A   1      35.491  34.818  28.022  1.00  0.00    -0.200 F 
ATOM    109  F   UNL A   1      33.334  33.252  27.443  1.00  0.00    -0.200 F 
ENDBRANCH  76  99
ENDBRANCH  50  51
ENDBRANCH  43  45
ENDBRANCH  42  43
ENDBRANCH  41  42
ENDBRANCH  40  41
ENDBRANCH  39  40
ENDBRANCH  38  39
ENDBRANCH   1  38
TORSDOF 21
ENDMDL
