MODEL 1
REMARK VINA RESULT:     -10.7      0.000      0.000
REMARK SMILES NC(=O)c1cccc(NC2(CC(=O)OCCOCCOCCOC(=O)c3ccc(-c4c5nc(c(-c6c(F)c(F)c(F)c(F)c6F)c6ccc([nH]6)c(-c6c(F)c(F)c(F)c(F)c6F)c6nc(c(-c7c(F)c(F)c(F)c(F)c7F)c7ccc4[nH]7)C=C6)C=C5)cc3)CCC2)n1
REMARK SMILES IDX 18 1 17 2 16 3 15 4 14 5 12 6 13 7 11 8 10 9 89 10 91 11
REMARK SMILES IDX 90 12 9 13 8 15 4 16 5 17 92 18 6 19 7 20 2 21 1 22 3 25
REMARK SMILES IDX 19 26 20 27 21 28 22 29 23 30 24 31 25 32 26 33 27 34 88 35
REMARK SMILES IDX 28 36 87 37 29 38 30 39 31 40 81 41 32 42 86 43 80 44 82 45
REMARK SMILES IDX 33 46 85 47 79 48 78 49 34 51 66 52 46 53 65 54 47 55 50 56
REMARK SMILES IDX 64 57 83 58 48 59 49 60 63 62 84 63 51 64 35 65 36 66 44 67
REMARK SMILES IDX 37 68 38 69 42 70 45 71 39 72 40 73 43 74 41 75 67 76 68 77
REMARK SMILES IDX 76 78 69 79 70 80 74 81 77 82 71 83 72 84 75 85 73 86 52 87
REMARK SMILES IDX 53 88 61 89 54 90 55 91 59 92 62 93 56 94 57 95 60 96 58 97
REMARK H PARENT 9 14 1 23 1 24 82 50 50 61
REMARK Flexibility Score: inf
ROOT
ATOM      1  C   UNL A   1      29.741  26.495  24.066  1.00  0.00     0.188 C 
ENDROOT
BRANCH   1   2
ATOM      2  O   UNL A   1      30.615  25.494  24.578  1.00  0.00    -0.376 OA
BRANCH   2   3
ATOM      3  C   UNL A   1      30.500  25.130  25.944  1.00  0.00     0.202 C 
BRANCH   3   4
ATOM      4  C   UNL A   1      31.803  24.712  26.627  1.00  0.00     0.261 C 
BRANCH   4   5
ATOM      5  O   UNL A   1      32.181  23.335  26.414  1.00  0.00    -0.463 OA
BRANCH   5   6
ATOM      6  C   UNL A   1      33.169  22.857  27.205  1.00  0.00     0.308 C 
ATOM      7  O   UNL A   1      32.973  22.165  28.201  1.00  0.00    -0.252 OA
BRANCH   6   8
ATOM      8  C   UNL A   1      34.563  23.321  26.865  1.00  0.00     0.151 C 
BRANCH   8   9
ATOM      9  C   UNL A   1      35.275  23.030  25.523  1.00  0.00     0.049 C 
ATOM     10  C   UNL A   1      35.788  21.547  25.540  1.00  0.00     0.029 C 
ATOM     11  C   UNL A   1      36.757  23.465  25.340  1.00  0.00     0.029 C 
ATOM     12  C   UNL A   1      37.195  22.081  25.850  1.00  0.00     0.005 C 
BRANCH   9  13
ATOM     13  N   UNL A   1      34.401  23.234  24.365  1.00  0.00    -0.364 N 
ATOM     14  H   UNL A   1      34.039  22.418  23.951  1.00  0.00     0.162 HD
BRANCH  13  15
ATOM     15  C   UNL A   1      34.010  24.467  23.760  1.00  0.00     0.127 A 
ATOM     16  C   UNL A   1      33.264  25.737  21.962  1.00  0.00     0.130 A 
ATOM     17  C   UNL A   1      33.479  26.944  22.610  1.00  0.00     0.034 A 
ATOM     18  N   UNL A   1      33.553  24.521  22.501  1.00  0.00    -0.226 NA
ATOM     19  C   UNL A   1      33.939  26.890  23.911  1.00  0.00     0.006 A 
ATOM     20  C   UNL A   1      34.162  25.644  24.496  1.00  0.00     0.047 A 
BRANCH  16  21
ATOM     21  C   UNL A   1      32.599  25.725  20.622  1.00  0.00     0.267 C 
ATOM     22  N   UNL A   1      31.277  26.088  20.575  1.00  0.00    -0.364 N 
ATOM     23  H   UNL A   1      30.799  26.095  19.715  1.00  0.00     0.160 HD
ATOM     24  H   UNL A   1      30.805  26.341  21.402  1.00  0.00     0.160 HD
ATOM     25  O   UNL A   1      33.187  25.390  19.601  1.00  0.00    -0.268 OA
ENDBRANCH  16  21
ENDBRANCH  13  15
ENDBRANCH   9  13
ENDBRANCH   8   9
ENDBRANCH   6   8
ENDBRANCH   5   6
ENDBRANCH   4   5
ENDBRANCH   3   4
ENDBRANCH   2   3
ENDBRANCH   1   2
BRANCH   1  26
ATOM     26  C   UNL A   1      30.282  27.900  23.749  1.00  0.00     0.188 C 
BRANCH  26  27
ATOM     27  O   UNL A   1      31.021  28.429  24.844  1.00  0.00    -0.376 OA
BRANCH  27  28
ATOM     28  C   UNL A   1      31.266  29.823  24.753  1.00  0.00     0.202 C 
BRANCH  28  29
ATOM     29  C   UNL A   1      31.585  30.409  26.129  1.00  0.00     0.261 C 
BRANCH  29  30
ATOM     30  O   UNL A   1      32.993  30.396  26.444  1.00  0.00    -0.460 OA
BRANCH  30  31
ATOM     31  C   UNL A   1      33.451  31.387  27.233  1.00  0.00     0.338 C 
ATOM     32  O   UNL A   1      32.857  32.388  27.589  1.00  0.00    -0.246 OA
BRANCH  31  33
ATOM     33  C   UNL A   1      34.832  31.074  27.653  1.00  0.00     0.060 A 
ATOM     34  C   UNL A   1      35.205  29.750  27.887  1.00  0.00     0.016 A 
ATOM     35  C   UNL A   1      35.713  32.107  27.961  1.00  0.00     0.016 A 
ATOM     36  C   UNL A   1      36.404  29.454  28.540  1.00  0.00     0.010 A 
ATOM     37  C   UNL A   1      36.948  31.806  28.550  1.00  0.00     0.010 A 
ATOM     38  C   UNL A   1      37.282  30.483  28.896  1.00  0.00    -0.014 A 
BRANCH  38  39
ATOM     39  C   UNL A   1      38.503  30.208  29.703  1.00  0.00     0.031 A 
ATOM     40  C   UNL A   1      39.563  29.288  29.153  1.00  0.00     0.074 A 
ATOM     41  C   UNL A   1      38.680  30.764  30.916  1.00  0.00     0.049 A 
ATOM     42  N   UNL A   1      40.582  28.732  29.758  1.00  0.00    -0.248 NA
ATOM     43  C   UNL A   1      39.456  28.949  27.725  1.00  0.00     0.031 C 
ATOM     44  C   UNL A   1      37.787  31.739  31.541  1.00  0.00     0.029 A 
ATOM     45  N   UNL A   1      39.669  30.572  31.851  1.00  0.00    -0.354 N 
ATOM     46  C   UNL A   1      41.205  27.939  28.802  1.00  0.00     0.074 A 
ATOM     47  C   UNL A   1      40.450  28.086  27.574  1.00  0.00     0.031 C 
ATOM     48  C   UNL A   1      38.264  32.055  32.755  1.00  0.00     0.029 A 
ATOM     49  C   UNL A   1      39.447  31.245  33.027  1.00  0.00     0.049 A 
ATOM     50  H   UNL A   1      40.459  30.005  31.693  1.00  0.00     0.167 HD
ATOM     51  C   UNL A   1      42.302  27.156  28.938  1.00  0.00     0.037 A 
ATOM     52  C   UNL A   1      40.087  31.173  34.212  1.00  0.00     0.037 A 
ATOM     53  C   UNL A   1      43.070  27.039  30.150  1.00  0.00     0.049 A 
ATOM     54  C   UNL A   1      41.249  30.229  34.367  1.00  0.00     0.074 A 
ATOM     55  C   UNL A   1      44.204  26.280  30.387  1.00  0.00     0.029 A 
ATOM     56  N   UNL A   1      42.785  27.706  31.332  1.00  0.00    -0.354 N 
ATOM     57  N   UNL A   1      41.803  29.441  33.478  1.00  0.00    -0.248 NA
ATOM     58  C   UNL A   1      41.863  30.152  35.701  1.00  0.00     0.031 C 
ATOM     59  C   UNL A   1      44.575  26.450  31.725  1.00  0.00     0.029 A 
ATOM     60  C   UNL A   1      43.704  27.356  32.309  1.00  0.00     0.049 A 
ATOM     61  H   UNL A   1      42.037  28.335  31.459  1.00  0.00     0.167 HD
ATOM     62  C   UNL A   1      42.840  28.791  34.136  1.00  0.00     0.074 A 
ATOM     63  C   UNL A   1      42.849  29.289  35.496  1.00  0.00     0.031 C 
ATOM     64  C   UNL A   1      43.704  27.864  33.657  1.00  0.00     0.037 A 
BRANCH  51  65
ATOM     65  C   UNL A   1      42.715  26.323  27.757  1.00  0.00     0.064 A 
ATOM     66  C   UNL A   1      42.143  25.071  27.490  1.00  0.00     0.173 A 
ATOM     67  C   UNL A   1      43.682  26.807  26.860  1.00  0.00     0.173 A 
ATOM     68  F   UNL A   1      41.227  24.556  28.324  1.00  0.00    -0.203 F 
ATOM     69  C   UNL A   1      42.542  24.323  26.386  1.00  0.00     0.198 A 
ATOM     70  C   UNL A   1      44.056  26.068  25.741  1.00  0.00     0.198 A 
ATOM     71  F   UNL A   1      44.258  28.001  27.066  1.00  0.00    -0.203 F 
ATOM     72  F   UNL A   1      42.018  23.106  26.178  1.00  0.00    -0.200 F 
ATOM     73  C   UNL A   1      43.493  24.824  25.509  1.00  0.00     0.200 A 
ATOM     74  F   UNL A   1      44.967  26.561  24.890  1.00  0.00    -0.200 F 
ATOM     75  F   UNL A   1      43.873  24.102  24.445  1.00  0.00    -0.200 F 
ENDBRANCH  51  65
BRANCH  52  76
ATOM     76  C   UNL A   1      39.603  31.978  35.364  1.00  0.00     0.064 A 
ATOM     77  C   UNL A   1      40.094  33.270  35.598  1.00  0.00     0.173 A 
ATOM     78  C   UNL A   1      38.651  31.470  36.260  1.00  0.00     0.173 A 
ATOM     79  F   UNL A   1      41.028  33.788  34.787  1.00  0.00    -0.203 F 
ATOM     80  C   UNL A   1      39.658  34.018  36.691  1.00  0.00     0.198 A 
ATOM     81  C   UNL A   1      38.194  32.230  37.334  1.00  0.00     0.198 A 
ATOM     82  F   UNL A   1      38.157  30.235  36.086  1.00  0.00    -0.203 F 
ATOM     83  F   UNL A   1      40.178  35.231  36.918  1.00  0.00    -0.200 F 
ATOM     84  C   UNL A   1      38.703  33.500  37.553  1.00  0.00     0.200 A 
ATOM     85  F   UNL A   1      37.263  31.729  38.159  1.00  0.00    -0.200 F 
ATOM     86  F   UNL A   1      38.282  34.222  38.601  1.00  0.00    -0.200 F 
ENDBRANCH  52  76
BRANCH  64  87
ATOM     87  C   UNL A   1      44.755  27.351  34.599  1.00  0.00     0.064 A 
ATOM     88  C   UNL A   1      44.555  26.194  35.366  1.00  0.00     0.173 A 
ATOM     89  C   UNL A   1      45.992  28.006  34.708  1.00  0.00     0.173 A 
ATOM     90  F   UNL A   1      43.384  25.541  35.310  1.00  0.00    -0.203 F 
ATOM     91  C   UNL A   1      45.545  25.727  36.227  1.00  0.00     0.198 A 
ATOM     92  C   UNL A   1      46.989  27.519  35.547  1.00  0.00     0.198 A 
ATOM     93  F   UNL A   1      46.235  29.114  33.991  1.00  0.00    -0.203 F 
ATOM     94  F   UNL A   1      45.314  24.646  36.985  1.00  0.00    -0.200 F 
ATOM     95  C   UNL A   1      46.763  26.385  36.311  1.00  0.00     0.200 A 
ATOM     96  F   UNL A   1      48.170  28.149  35.617  1.00  0.00    -0.200 F 
ATOM     97  F   UNL A   1      47.717  25.929  37.135  1.00  0.00    -0.200 F 
ENDBRANCH  64  87
ENDBRANCH  38  39
ENDBRANCH  31  33
ENDBRANCH  30  31
ENDBRANCH  29  30
ENDBRANCH  28  29
ENDBRANCH  27  28
ENDBRANCH  26  27
ENDBRANCH   1  26
TORSDOF 21
ENDMDL
MODEL 2
REMARK VINA RESULT:     -10.6      1.633      3.317
REMARK SMILES NC(=O)c1cccc(NC2(CC(=O)OCCOCCOCCOC(=O)c3ccc(-c4c5nc(c(-c6c(F)c(F)c(F)c(F)c6F)c6ccc([nH]6)c(-c6c(F)c(F)c(F)c(F)c6F)c6nc(c(-c7c(F)c(F)c(F)c(F)c7F)c7ccc4[nH]7)C=C6)C=C5)cc3)CCC2)n1
REMARK SMILES IDX 18 1 17 2 16 3 15 4 14 5 12 6 13 7 11 8 10 9 89 10 91 11
REMARK SMILES IDX 90 12 9 13 8 15 4 16 5 17 92 18 6 19 7 20 2 21 1 22 3 25
REMARK SMILES IDX 19 26 20 27 21 28 22 29 23 30 24 31 25 32 26 33 27 34 88 35
REMARK SMILES IDX 28 36 87 37 29 38 30 39 31 40 81 41 32 42 86 43 80 44 82 45
REMARK SMILES IDX 33 46 85 47 79 48 78 49 34 51 66 52 46 53 65 54 47 55 50 56
REMARK SMILES IDX 64 57 83 58 48 59 49 60 63 62 84 63 51 64 35 65 36 66 44 67
REMARK SMILES IDX 37 68 38 69 42 70 45 71 39 72 40 73 43 74 41 75 67 76 68 77
REMARK SMILES IDX 76 78 69 79 70 80 74 81 77 82 71 83 72 84 75 85 73 86 52 87
REMARK SMILES IDX 53 88 61 89 54 90 55 91 59 92 62 93 56 94 57 95 60 96 58 97
REMARK H PARENT 9 14 1 23 1 24 82 50 50 61
REMARK Flexibility Score: inf
ROOT
ATOM      1  C   UNL A   1      30.773  28.610  22.658  1.00  0.00     0.188 C 
ENDROOT
BRANCH   1   2
ATOM      2  O   UNL A   1      30.322  27.411  22.037  1.00  0.00    -0.376 OA
BRANCH   2   3
ATOM      3  C   UNL A   1      31.031  26.210  22.288  1.00  0.00     0.202 C 
BRANCH   3   4
ATOM      4  C   UNL A   1      30.858  25.621  23.689  1.00  0.00     0.261 C 
BRANCH   4   5
ATOM      5  O   UNL A   1      31.879  24.676  24.076  1.00  0.00    -0.463 OA
BRANCH   5   6
ATOM      6  C   UNL A   1      33.068  25.200  24.451  1.00  0.00     0.308 C 
ATOM      7  O   UNL A   1      33.186  26.256  25.069  1.00  0.00    -0.252 OA
BRANCH   6   8
ATOM      8  C   UNL A   1      34.292  24.466  23.962  1.00  0.00     0.151 C 
BRANCH   8   9
ATOM      9  C   UNL A   1      34.887  23.214  24.647  1.00  0.00     0.049 C 
ATOM     10  C   UNL A   1      35.803  23.680  25.833  1.00  0.00     0.029 C 
ATOM     11  C   UNL A   1      36.148  22.540  24.033  1.00  0.00     0.029 C 
ATOM     12  C   UNL A   1      37.024  23.427  24.935  1.00  0.00     0.005 C 
BRANCH   9  13
ATOM     13  N   UNL A   1      33.857  22.302  25.151  1.00  0.00    -0.364 N 
ATOM     14  H   UNL A   1      33.455  22.545  26.016  1.00  0.00     0.162 HD
BRANCH  13  15
ATOM     15  C   UNL A   1      33.364  21.106  24.546  1.00  0.00     0.127 A 
ATOM     16  C   UNL A   1      33.271  18.794  24.325  1.00  0.00     0.130 A 
ATOM     17  C   UNL A   1      32.516  18.847  23.162  1.00  0.00     0.034 A 
ATOM     18  N   UNL A   1      33.721  19.893  24.990  1.00  0.00    -0.226 NA
ATOM     19  C   UNL A   1      32.136  20.095  22.710  1.00  0.00     0.006 A 
ATOM     20  C   UNL A   1      32.529  21.222  23.433  1.00  0.00     0.047 A 
BRANCH  16  21
ATOM     21  C   UNL A   1      33.559  17.471  24.960  1.00  0.00     0.267 C 
ATOM     22  N   UNL A   1      34.870  17.069  25.005  1.00  0.00    -0.364 N 
ATOM     23  H   UNL A   1      35.105  16.205  25.414  1.00  0.00     0.160 HD
ATOM     24  H   UNL A   1      35.575  17.644  24.628  1.00  0.00     0.160 HD
ATOM     25  O   UNL A   1      32.673  16.752  25.409  1.00  0.00    -0.268 OA
ENDBRANCH  16  21
ENDBRANCH  13  15
ENDBRANCH   9  13
ENDBRANCH   8   9
ENDBRANCH   6   8
ENDBRANCH   5   6
ENDBRANCH   4   5
ENDBRANCH   3   4
ENDBRANCH   2   3
ENDBRANCH   1   2
BRANCH   1  26
ATOM     26  C   UNL A   1      32.279  28.868  22.831  1.00  0.00     0.188 C 
BRANCH  26  27
ATOM     27  O   UNL A   1      32.576  29.341  24.141  1.00  0.00    -0.376 OA
BRANCH  27  28
ATOM     28  C   UNL A   1      31.429  29.670  24.908  1.00  0.00     0.202 C 
BRANCH  28  29
ATOM     29  C   UNL A   1      31.827  30.375  26.204  1.00  0.00     0.261 C 
BRANCH  29  30
ATOM     30  O   UNL A   1      33.215  30.768  26.239  1.00  0.00    -0.460 OA
BRANCH  30  31
ATOM     31  C   UNL A   1      33.597  31.572  27.250  1.00  0.00     0.338 C 
ATOM     32  O   UNL A   1      32.958  32.470  27.767  1.00  0.00    -0.246 OA
BRANCH  31  33
ATOM     33  C   UNL A   1      34.953  31.187  27.690  1.00  0.00     0.060 A 
ATOM     34  C   UNL A   1      35.247  29.847  27.947  1.00  0.00     0.016 A 
ATOM     35  C   UNL A   1      35.888  32.172  27.995  1.00  0.00     0.016 A 
ATOM     36  C   UNL A   1      36.420  29.492  28.618  1.00  0.00     0.010 A 
ATOM     37  C   UNL A   1      37.097  31.809  28.603  1.00  0.00     0.010 A 
ATOM     38  C   UNL A   1      37.352  30.475  28.970  1.00  0.00    -0.014 A 
BRANCH  38  39
ATOM     39  C   UNL A   1      38.546  30.142  29.796  1.00  0.00     0.031 A 
ATOM     40  C   UNL A   1      39.589  29.203  29.244  1.00  0.00     0.074 A 
ATOM     41  C   UNL A   1      38.713  30.662  31.025  1.00  0.00     0.049 A 
ATOM     42  N   UNL A   1      40.577  28.601  29.857  1.00  0.00    -0.248 NA
ATOM     43  C   UNL A   1      39.502  28.904  27.807  1.00  0.00     0.031 C 
ATOM     44  C   UNL A   1      37.837  31.648  31.656  1.00  0.00     0.029 A 
ATOM     45  N   UNL A   1      39.675  30.416  31.976  1.00  0.00    -0.354 N 
ATOM     46  C   UNL A   1      41.197  27.814  28.893  1.00  0.00     0.074 A 
ATOM     47  C   UNL A   1      40.473  28.014  27.655  1.00  0.00     0.031 C 
ATOM     48  C   UNL A   1      38.296  31.919  32.888  1.00  0.00     0.029 A 
ATOM     49  C   UNL A   1      39.449  31.066  33.164  1.00  0.00     0.049 A 
ATOM     50  H   UNL A   1      40.451  29.829  31.820  1.00  0.00     0.167 HD
ATOM     51  C   UNL A   1      42.266  26.994  29.032  1.00  0.00     0.037 A 
ATOM     52  C   UNL A   1      40.060  30.945  34.359  1.00  0.00     0.037 A 
ATOM     53  C   UNL A   1      43.004  26.823  30.257  1.00  0.00     0.049 A 
ATOM     54  C   UNL A   1      41.189  29.962  34.515  1.00  0.00     0.074 A 
ATOM     55  C   UNL A   1      44.108  26.023  30.498  1.00  0.00     0.029 A 
ATOM     56  N   UNL A   1      42.713  27.469  31.449  1.00  0.00    -0.354 N 
ATOM     57  N   UNL A   1      41.738  29.179  33.618  1.00  0.00    -0.248 NA
ATOM     58  C   UNL A   1      41.772  29.832  35.859  1.00  0.00     0.031 C 
ATOM     59  C   UNL A   1      44.455  26.149  31.848  1.00  0.00     0.029 A 
ATOM     60  C   UNL A   1      43.600  27.067  32.436  1.00  0.00     0.049 A 
ATOM     61  H   UNL A   1      41.982  28.118  31.577  1.00  0.00     0.167 HD
ATOM     62  C   UNL A   1      42.740  28.482  34.281  1.00  0.00     0.074 A 
ATOM     63  C   UNL A   1      42.735  28.945  35.652  1.00  0.00     0.031 C 
ATOM     64  C   UNL A   1      43.586  27.540  33.797  1.00  0.00     0.037 A 
BRANCH  51  65
ATOM     65  C   UNL A   1      42.679  26.179  27.839  1.00  0.00     0.064 A 
ATOM     66  C   UNL A   1      43.661  26.617  26.940  1.00  0.00     0.173 A 
ATOM     67  C   UNL A   1      42.098  24.920  27.613  1.00  0.00     0.173 A 
ATOM     68  F   UNL A   1      44.236  27.819  27.101  1.00  0.00    -0.203 F 
ATOM     69  C   UNL A   1      44.027  25.839  25.844  1.00  0.00     0.198 A 
ATOM     70  C   UNL A   1      42.488  24.133  26.534  1.00  0.00     0.198 A 
ATOM     71  F   UNL A   1      41.157  24.451  28.446  1.00  0.00    -0.203 F 
ATOM     72  F   UNL A   1      44.932  26.301  24.969  1.00  0.00    -0.200 F 
ATOM     73  C   UNL A   1      43.446  24.596  25.645  1.00  0.00     0.200 A 
ATOM     74  F   UNL A   1      41.932  22.927  26.351  1.00  0.00    -0.200 F 
ATOM     75  F   UNL A   1      43.803  23.848  24.592  1.00  0.00    -0.200 F 
ENDBRANCH  51  65
BRANCH  52  76
ATOM     76  C   UNL A   1      39.576  31.736  35.522  1.00  0.00     0.064 A 
ATOM     77  C   UNL A   1      38.524  31.270  36.324  1.00  0.00     0.173 A 
ATOM     78  C   UNL A   1      40.145  32.976  35.847  1.00  0.00     0.173 A 
ATOM     79  F   UNL A   1      37.928  30.105  36.034  1.00  0.00    -0.203 F 
ATOM     80  C   UNL A   1      38.055  32.021  37.400  1.00  0.00     0.198 A 
ATOM     81  C   UNL A   1      39.695  33.710  36.942  1.00  0.00     0.198 A 
ATOM     82  F   UNL A   1      41.147  33.470  35.106  1.00  0.00    -0.203 F 
ATOM     83  F   UNL A   1      37.018  31.575  38.122  1.00  0.00    -0.200 F 
ATOM     84  C   UNL A   1      38.646  33.236  37.713  1.00  0.00     0.200 A 
ATOM     85  F   UNL A   1      40.275  34.880  37.246  1.00  0.00    -0.200 F 
ATOM     86  F   UNL A   1      38.196  33.954  38.751  1.00  0.00    -0.200 F 
ENDBRANCH  52  76
BRANCH  64  87
ATOM     87  C   UNL A   1      44.600  26.971  34.746  1.00  0.00     0.064 A 
ATOM     88  C   UNL A   1      45.845  27.586  34.949  1.00  0.00     0.173 A 
ATOM     89  C   UNL A   1      44.309  25.816  35.488  1.00  0.00     0.173 A 
ATOM     90  F   UNL A   1      46.177  28.682  34.252  1.00  0.00    -0.203 F 
ATOM     91  C   UNL A   1      46.770  27.050  35.842  1.00  0.00     0.198 A 
ATOM     92  C   UNL A   1      45.224  25.301  36.401  1.00  0.00     0.198 A 
ATOM     93  F   UNL A   1      43.130  25.193  35.335  1.00  0.00    -0.203 F 
ATOM     94  F   UNL A   1      47.970  27.628  35.986  1.00  0.00    -0.200 F 
ATOM     95  C   UNL A   1      46.456  25.913  36.572  1.00  0.00     0.200 A 
ATOM     96  F   UNL A   1      44.914  24.210  37.115  1.00  0.00    -0.200 F 
ATOM     97  F   UNL A   1      47.345  25.403  37.436  1.00  0.00    -0.200 F 
ENDBRANCH  64  87
ENDBRANCH  38  39
ENDBRANCH  31  33
ENDBRANCH  30  31
ENDBRANCH  29  30
ENDBRANCH  28  29
ENDBRANCH  27  28
ENDBRANCH  26  27
ENDBRANCH   1  26
TORSDOF 21
ENDMDL
MODEL 3
REMARK VINA RESULT:     -10.5      2.253      3.582
REMARK SMILES NC(=O)c1cccc(NC2(CC(=O)OCCOCCOCCOC(=O)c3ccc(-c4c5nc(c(-c6c(F)c(F)c(F)c(F)c6F)c6ccc([nH]6)c(-c6c(F)c(F)c(F)c(F)c6F)c6nc(c(-c7c(F)c(F)c(F)c(F)c7F)c7ccc4[nH]7)C=C6)C=C5)cc3)CCC2)n1
REMARK SMILES IDX 18 1 17 2 16 3 15 4 14 5 12 6 13 7 11 8 10 9 89 10 91 11
REMARK SMILES IDX 90 12 9 13 8 15 4 16 5 17 92 18 6 19 7 20 2 21 1 22 3 25
REMARK SMILES IDX 19 26 20 27 21 28 22 29 23 30 24 31 25 32 26 33 27 34 88 35
REMARK SMILES IDX 28 36 87 37 29 38 30 39 31 40 81 41 32 42 86 43 80 44 82 45
REMARK SMILES IDX 33 46 85 47 79 48 78 49 34 51 66 52 46 53 65 54 47 55 50 56
REMARK SMILES IDX 64 57 83 58 48 59 49 60 63 62 84 63 51 64 35 65 36 66 44 67
REMARK SMILES IDX 37 68 38 69 42 70 45 71 39 72 40 73 43 74 41 75 67 76 68 77
REMARK SMILES IDX 76 78 69 79 70 80 74 81 77 82 71 83 72 84 75 85 73 86 52 87
REMARK SMILES IDX 53 88 61 89 54 90 55 91 59 92 62 93 56 94 57 95 60 96 58 97
REMARK H PARENT 9 14 1 23 1 24 82 50 50 61
REMARK Flexibility Score: inf
ROOT
ATOM      1  C   UNL A   1      32.179  27.642  25.531  1.00  0.00     0.188 C 
ENDROOT
BRANCH   1   2
ATOM      2  O   UNL A   1      31.735  26.403  24.987  1.00  0.00    -0.376 OA
BRANCH   2   3
ATOM      3  C   UNL A   1      30.353  26.096  25.043  1.00  0.00     0.202 C 
BRANCH   3   4
ATOM      4  C   UNL A   1      29.919  25.210  26.212  1.00  0.00     0.261 C 
BRANCH   4   5
ATOM      5  O   UNL A   1      30.929  24.290  26.679  1.00  0.00    -0.463 OA
BRANCH   5   6
ATOM      6  C   UNL A   1      30.887  23.042  26.158  1.00  0.00     0.308 C 
ATOM      7  O   UNL A   1      30.007  22.223  26.414  1.00  0.00    -0.252 OA
BRANCH   6   8
ATOM      8  C   UNL A   1      32.071  22.645  25.311  1.00  0.00     0.151 C 
BRANCH   8   9
ATOM      9  C   UNL A   1      33.015  21.464  25.633  1.00  0.00     0.049 C 
ATOM     10  C   UNL A   1      33.586  21.658  27.081  1.00  0.00     0.029 C 
ATOM     11  C   UNL A   1      34.485  21.506  25.125  1.00  0.00     0.029 C 
ATOM     12  C   UNL A   1      34.892  22.168  26.453  1.00  0.00     0.005 C 
BRANCH   9  13
ATOM     13  N   UNL A   1      32.344  20.164  25.540  1.00  0.00    -0.364 N 
ATOM     14  H   UNL A   1      31.517  20.070  26.064  1.00  0.00     0.162 HD
BRANCH  13  15
ATOM     15  C   UNL A   1      32.740  19.018  24.785  1.00  0.00     0.127 A 
ATOM     16  C   UNL A   1      33.897  17.018  24.527  1.00  0.00     0.130 A 
ATOM     17  C   UNL A   1      33.633  16.938  23.168  1.00  0.00     0.034 A 
ATOM     18  N   UNL A   1      33.495  18.049  25.321  1.00  0.00    -0.226 NA
ATOM     19  C   UNL A   1      32.845  17.930  22.616  1.00  0.00     0.006 A 
ATOM     20  C   UNL A   1      32.365  18.946  23.443  1.00  0.00     0.047 A 
BRANCH  16  21
ATOM     21  C   UNL A   1      34.590  15.884  25.214  1.00  0.00     0.267 C 
ATOM     22  N   UNL A   1      35.851  16.122  25.698  1.00  0.00    -0.364 N 
ATOM     23  H   UNL A   1      36.345  15.405  26.157  1.00  0.00     0.160 HD
ATOM     24  H   UNL A   1      36.264  17.009  25.586  1.00  0.00     0.160 HD
ATOM     25  O   UNL A   1      34.078  14.777  25.331  1.00  0.00    -0.268 OA
ENDBRANCH  16  21
ENDBRANCH  13  15
ENDBRANCH   9  13
ENDBRANCH   8   9
ENDBRANCH   6   8
ENDBRANCH   5   6
ENDBRANCH   4   5
ENDBRANCH   3   4
ENDBRANCH   2   3
ENDBRANCH   1   2
BRANCH   1  26
ATOM     26  C   UNL A   1      31.420  28.940  25.209  1.00  0.00     0.188 C 
BRANCH  26  27
ATOM     27  O   UNL A   1      32.245  30.083  25.403  1.00  0.00    -0.376 OA
BRANCH  27  28
ATOM     28  C   UNL A   1      32.121  30.672  26.688  1.00  0.00     0.202 C 
BRANCH  28  29
ATOM     29  C   UNL A   1      32.161  32.197  26.592  1.00  0.00     0.261 C 
BRANCH  29  30
ATOM     30  O   UNL A   1      32.266  32.849  27.874  1.00  0.00    -0.460 OA
BRANCH  30  31
ATOM     31  C   UNL A   1      33.251  33.757  28.019  1.00  0.00     0.338 C 
ATOM     32  O   UNL A   1      33.179  34.962  27.865  1.00  0.00    -0.246 OA
BRANCH  31  33
ATOM     33  C   UNL A   1      34.489  33.066  28.434  1.00  0.00     0.060 A 
ATOM     34  C   UNL A   1      34.415  31.930  29.240  1.00  0.00     0.016 A 
ATOM     35  C   UNL A   1      35.728  33.634  28.149  1.00  0.00     0.016 A 
ATOM     36  C   UNL A   1      35.559  31.427  29.866  1.00  0.00     0.010 A 
ATOM     37  C   UNL A   1      36.884  33.086  28.718  1.00  0.00     0.010 A 
ATOM     38  C   UNL A   1      36.806  32.012  29.624  1.00  0.00    -0.014 A 
BRANCH  38  39
ATOM     39  C   UNL A   1      38.018  31.577  30.374  1.00  0.00     0.031 A 
ATOM     40  C   UNL A   1      38.938  30.551  29.763  1.00  0.00     0.074 A 
ATOM     41  C   UNL A   1      38.308  32.082  31.587  1.00  0.00     0.049 A 
ATOM     42  N   UNL A   1      39.908  29.866  30.314  1.00  0.00    -0.248 NA
ATOM     43  C   UNL A   1      38.733  30.259  28.336  1.00  0.00     0.031 C 
ATOM     44  C   UNL A   1      37.563  33.140  32.267  1.00  0.00     0.029 A 
ATOM     45  N   UNL A   1      39.304  31.753  32.476  1.00  0.00    -0.354 N 
ATOM     46  C   UNL A   1      40.394  29.027  29.318  1.00  0.00     0.074 A 
ATOM     47  C   UNL A   1      39.612  29.289  28.127  1.00  0.00     0.031 C 
ATOM     48  C   UNL A   1      38.123  33.371  33.465  1.00  0.00     0.029 A 
ATOM     49  C   UNL A   1      39.212  32.421  33.672  1.00  0.00     0.049 A 
ATOM     50  H   UNL A   1      40.014  31.101  32.274  1.00  0.00     0.167 HD
ATOM     51  C   UNL A   1      41.395  28.117  29.393  1.00  0.00     0.037 A 
ATOM     52  C   UNL A   1      39.886  32.248  34.826  1.00  0.00     0.037 A 
ATOM     53  C   UNL A   1      42.192  27.884  30.570  1.00  0.00     0.049 A 
ATOM     54  C   UNL A   1      40.934  31.171  34.916  1.00  0.00     0.074 A 
ATOM     55  C   UNL A   1      43.236  26.991  30.744  1.00  0.00     0.029 A 
ATOM     56  N   UNL A   1      42.035  28.554  31.774  1.00  0.00    -0.354 N 
ATOM     57  N   UNL A   1      41.353  30.344  33.990  1.00  0.00    -0.248 NA
ATOM     58  C   UNL A   1      41.588  30.993  36.220  1.00  0.00     0.031 C 
ATOM     59  C   UNL A   1      43.679  27.087  32.068  1.00  0.00     0.029 A 
ATOM     60  C   UNL A   1      42.946  28.076  32.704  1.00  0.00     0.049 A 
ATOM     61  H   UNL A   1      41.373  29.263  31.944  1.00  0.00     0.167 HD
ATOM     62  C   UNL A   1      42.332  29.562  34.592  1.00  0.00     0.074 A 
ATOM     63  C   UNL A   1      42.456  30.025  35.958  1.00  0.00     0.031 C 
ATOM     64  C   UNL A   1      43.061  28.550  34.060  1.00  0.00     0.037 A 
BRANCH  51  65
ATOM     65  C   UNL A   1      41.658  27.269  28.182  1.00  0.00     0.064 A 
ATOM     66  C   UNL A   1      40.963  26.074  27.942  1.00  0.00     0.173 A 
ATOM     67  C   UNL A   1      42.604  27.679  27.229  1.00  0.00     0.173 A 
ATOM     68  F   UNL A   1      40.061  25.629  28.829  1.00  0.00    -0.203 F 
ATOM     69  C   UNL A   1      41.225  25.309  26.808  1.00  0.00     0.198 A 
ATOM     70  C   UNL A   1      42.841  26.927  26.082  1.00  0.00     0.198 A 
ATOM     71  F   UNL A   1      43.294  28.816  27.407  1.00  0.00    -0.203 F 
ATOM     72  F   UNL A   1      40.585  24.146  26.625  1.00  0.00    -0.200 F 
ATOM     73  C   UNL A   1      42.158  25.738  25.876  1.00  0.00     0.200 A 
ATOM     74  F   UNL A   1      43.736  27.350  25.178  1.00  0.00    -0.200 F 
ATOM     75  F   UNL A   1      42.405  25.002  24.784  1.00  0.00    -0.200 F 
ENDBRANCH  51  65
BRANCH  52  76
ATOM     76  C   UNL A   1      39.548  33.079  36.012  1.00  0.00     0.064 A 
ATOM     77  C   UNL A   1      38.546  32.683  36.909  1.00  0.00     0.173 A 
ATOM     78  C   UNL A   1      40.210  34.290  36.267  1.00  0.00     0.173 A 
ATOM     79  F   UNL A   1      37.864  31.549  36.692  1.00  0.00    -0.203 F 
ATOM     80  C   UNL A   1      38.212  33.471  38.009  1.00  0.00     0.198 A 
ATOM     81  C   UNL A   1      39.897  35.061  37.383  1.00  0.00     0.198 A 
ATOM     82  F   UNL A   1      41.170  34.718  35.434  1.00  0.00    -0.203 F 
ATOM     83  F   UNL A   1      37.219  33.093  38.824  1.00  0.00    -0.200 F 
ATOM     84  C   UNL A   1      38.894  34.655  38.249  1.00  0.00     0.200 A 
ATOM     85  F   UNL A   1      40.564  36.200  37.617  1.00  0.00    -0.200 F 
ATOM     86  F   UNL A   1      38.575  35.410  39.310  1.00  0.00    -0.200 F 
ENDBRANCH  52  76
BRANCH  64  87
ATOM     87  C   UNL A   1      44.081  27.896  34.947  1.00  0.00     0.064 A 
ATOM     88  C   UNL A   1      43.779  26.750  35.696  1.00  0.00     0.173 A 
ATOM     89  C   UNL A   1      45.387  28.404  35.020  1.00  0.00     0.173 A 
ATOM     90  F   UNL A   1      42.540  26.236  35.673  1.00  0.00    -0.203 F 
ATOM     91  C   UNL A   1      44.741  26.150  36.506  1.00  0.00     0.198 A 
ATOM     92  C   UNL A   1      46.353  27.785  35.807  1.00  0.00     0.198 A 
ATOM     93  F   UNL A   1      45.729  29.495  34.319  1.00  0.00    -0.203 F 
ATOM     94  F   UNL A   1      44.417  25.083  37.248  1.00  0.00    -0.200 F 
ATOM     95  C   UNL A   1      46.028  26.663  36.554  1.00  0.00     0.200 A 
ATOM     96  F   UNL A   1      47.600  28.274  35.843  1.00  0.00    -0.200 F 
ATOM     97  F   UNL A   1      46.954  26.081  37.329  1.00  0.00    -0.200 F 
ENDBRANCH  64  87
ENDBRANCH  38  39
ENDBRANCH  31  33
ENDBRANCH  30  31
ENDBRANCH  29  30
ENDBRANCH  28  29
ENDBRANCH  27  28
ENDBRANCH  26  27
ENDBRANCH   1  26
TORSDOF 21
ENDMDL
