MODEL 1
REMARK VINA RESULT:      -8.2      0.000      0.000
REMARK SMILES COc1ccc2cc([C@H](C)C(=O)OCCOCCOCCOC(=O)c3ccc(-c4c5nc(c(-c6c(F)c(F)c(F)c(F)c6F)c6ccc([nH]6)c(-c6c(F)c(F)c(F)c(F)c6F)c6nc(c(-c7c(F)c(F)c(F)c(F)c7F)c7ccc4[nH]7)C=C6)C=C5)cc3)ccc2c1
REMARK SMILES IDX 17 1 16 2 15 3 14 4 13 5 11 6 12 7 9 8 10 9 8 10 3 11 4 12
REMARK SMILES IDX 91 13 5 14 90 15 6 16 89 17 7 18 88 19 2 20 1 21 18 22 19 23
REMARK SMILES IDX 20 24 21 25 22 26 23 27 24 28 25 29 26 30 87 31 27 32 86 33
REMARK SMILES IDX 28 34 29 35 30 36 80 37 31 38 85 39 79 40 81 41 32 42 84 43
REMARK SMILES IDX 78 44 77 45 33 47 65 48 45 49 64 50 46 51 49 52 63 53 82 54
REMARK SMILES IDX 47 55 48 56 62 58 83 59 50 60 34 61 35 62 43 63 36 64 37 65
REMARK SMILES IDX 41 66 44 67 38 68 39 69 42 70 40 71 66 72 67 73 75 74 68 75
REMARK SMILES IDX 69 76 73 77 76 78 70 79 71 80 74 81 72 82 51 83 52 84 60 85
REMARK SMILES IDX 53 86 54 87 58 88 61 89 55 90 56 91 59 92 57 93
REMARK H PARENT 81 46 49 57
REMARK Flexibility Score: inf
ROOT
ATOM      1  C   UNL A   1      37.692  32.752  37.205  1.00  0.00     0.188 C 
ENDROOT
BRANCH   1   2
ATOM      2  O   UNL A   1      37.518  31.351  37.050  1.00  0.00    -0.376 OA
BRANCH   2   3
ATOM      3  C   UNL A   1      38.170  30.661  35.991  1.00  0.00     0.202 C 
BRANCH   3   4
ATOM      4  C   UNL A   1      39.704  30.717  35.868  1.00  0.00     0.261 C 
BRANCH   4   5
ATOM      5  O   UNL A   1      40.258  31.809  35.103  1.00  0.00    -0.463 OA
BRANCH   5   6
ATOM      6  C   UNL A   1      41.614  31.827  34.985  1.00  0.00     0.313 C 
ATOM      7  O   UNL A   1      42.386  31.807  35.940  1.00  0.00    -0.252 OA
BRANCH   6   8
ATOM      8  C   UNL A   1      42.128  31.965  33.538  1.00  0.00     0.126 C 
ATOM      9  C   UNL A   1      43.109  33.082  33.176  1.00  0.00     0.025 C 
BRANCH   8  10
ATOM     10  C   UNL A   1      42.633  30.607  33.121  1.00  0.00    -0.033 A 
ATOM     11  C   UNL A   1      45.272  27.088  30.711  1.00  0.00     0.119 A 
ATOM     12  C   UNL A   1      46.109  28.199  30.787  1.00  0.00     0.047 A 
ATOM     13  C   UNL A   1      43.993  27.112  31.262  1.00  0.00     0.055 A 
ATOM     14  C   UNL A   1      45.682  29.336  31.463  1.00  0.00     0.012 A 
ATOM     15  C   UNL A   1      43.545  28.251  31.931  1.00  0.00    -0.015 A 
ATOM     16  C   UNL A   1      44.405  29.369  32.032  1.00  0.00    -0.018 A 
ATOM     17  C   UNL A   1      42.251  28.315  32.465  1.00  0.00     0.009 A 
ATOM     18  C   UNL A   1      43.949  30.525  32.651  1.00  0.00     0.013 A 
ATOM     19  C   UNL A   1      41.790  29.493  33.040  1.00  0.00     0.005 A 
BRANCH  11  20
ATOM     20  O   UNL A   1      45.638  25.948  30.051  1.00  0.00    -0.497 OA
ATOM     21  C   UNL A   1      44.835  24.845  30.466  1.00  0.00     0.278 C 
ENDBRANCH  11  20
ENDBRANCH   8  10
ENDBRANCH   6   8
ENDBRANCH   5   6
ENDBRANCH   4   5
ENDBRANCH   3   4
ENDBRANCH   2   3
ENDBRANCH   1   2
BRANCH   1  22
ATOM     22  C   UNL A   1      37.280  33.700  36.070  1.00  0.00     0.188 C 
BRANCH  22  23
ATOM     23  O   UNL A   1      35.897  33.854  35.889  1.00  0.00    -0.376 OA
BRANCH  23  24
ATOM     24  C   UNL A   1      35.417  34.311  34.642  1.00  0.00     0.202 C 
BRANCH  24  25
ATOM     25  C   UNL A   1      34.748  33.350  33.642  1.00  0.00     0.261 C 
BRANCH  25  26
ATOM     26  O   UNL A   1      35.572  32.347  33.024  1.00  0.00    -0.460 OA
BRANCH  26  27
ATOM     27  C   UNL A   1      35.301  32.020  31.736  1.00  0.00     0.338 C 
ATOM     28  O   UNL A   1      34.384  32.430  31.055  1.00  0.00    -0.246 OA
BRANCH  27  29
ATOM     29  C   UNL A   1      36.462  31.256  31.212  1.00  0.00     0.060 A 
ATOM     30  C   UNL A   1      37.527  30.958  32.075  1.00  0.00     0.016 A 
ATOM     31  C   UNL A   1      36.494  30.821  29.886  1.00  0.00     0.016 A 
ATOM     32  C   UNL A   1      38.637  30.249  31.609  1.00  0.00     0.010 A 
ATOM     33  C   UNL A   1      37.619  30.137  29.412  1.00  0.00     0.010 A 
ATOM     34  C   UNL A   1      38.710  29.873  30.263  1.00  0.00    -0.014 A 
BRANCH  34  35
ATOM     35  C   UNL A   1      39.992  29.385  29.693  1.00  0.00     0.031 A 
ATOM     36  C   UNL A   1      41.131  30.359  29.562  1.00  0.00     0.074 A 
ATOM     37  C   UNL A   1      40.156  28.107  29.306  1.00  0.00     0.049 A 
ATOM     38  N   UNL A   1      42.314  30.196  29.026  1.00  0.00    -0.248 NA
ATOM     39  C   UNL A   1      40.899  31.705  30.108  1.00  0.00     0.031 C 
ATOM     40  C   UNL A   1      39.154  27.051  29.422  1.00  0.00     0.029 A 
ATOM     41  N   UNL A   1      41.234  27.487  28.720  1.00  0.00    -0.354 N 
ATOM     42  C   UNL A   1      42.960  31.419  29.161  1.00  0.00     0.074 A 
ATOM     43  C   UNL A   1      42.029  32.322  29.800  1.00  0.00     0.031 C 
ATOM     44  C   UNL A   1      39.658  25.916  28.906  1.00  0.00     0.029 A 
ATOM     45  C   UNL A   1      41.002  26.174  28.389  1.00  0.00     0.049 A 
ATOM     46  H   UNL A   1      42.092  27.941  28.552  1.00  0.00     0.167 HD
ATOM     47  C   UNL A   1      44.218  31.756  28.790  1.00  0.00     0.037 A 
ATOM     48  C   UNL A   1      41.775  25.295  27.722  1.00  0.00     0.037 A 
ATOM     49  C   UNL A   1      45.144  30.859  28.150  1.00  0.00     0.049 A 
ATOM     50  C   UNL A   1      43.142  25.719  27.243  1.00  0.00     0.074 A 
ATOM     51  C   UNL A   1      46.446  31.103  27.752  1.00  0.00     0.029 A 
ATOM     52  N   UNL A   1      44.860  29.546  27.804  1.00  0.00    -0.354 N 
ATOM     53  N   UNL A   1      43.756  26.869  27.393  1.00  0.00    -0.248 NA
ATOM     54  C   UNL A   1      43.925  24.720  26.500  1.00  0.00     0.031 C 
ATOM     55  C   UNL A   1      46.928  29.959  27.108  1.00  0.00     0.029 A 
ATOM     56  C   UNL A   1      45.953  28.978  27.168  1.00  0.00     0.049 A 
ATOM     57  H   UNL A   1      44.008  29.086  27.983  1.00  0.00     0.167 HD
ATOM     58  C   UNL A   1      45.004  26.719  26.798  1.00  0.00     0.074 A 
ATOM     59  C   UNL A   1      45.066  25.362  26.297  1.00  0.00     0.031 C 
ATOM     60  C   UNL A   1      46.008  27.623  26.680  1.00  0.00     0.037 A 
BRANCH  47  61
ATOM     61  C   UNL A   1      44.657  33.171  29.037  1.00  0.00     0.064 A 
ATOM     62  C   UNL A   1      44.385  34.201  28.124  1.00  0.00     0.173 A 
ATOM     63  C   UNL A   1      45.332  33.506  30.221  1.00  0.00     0.173 A 
ATOM     64  F   UNL A   1      43.758  33.933  26.970  1.00  0.00    -0.203 F 
ATOM     65  C   UNL A   1      44.798  35.507  28.374  1.00  0.00     0.198 A 
ATOM     66  C   UNL A   1      45.711  34.819  30.484  1.00  0.00     0.198 A 
ATOM     67  F   UNL A   1      45.613  32.561  31.131  1.00  0.00    -0.203 F 
ATOM     68  F   UNL A   1      44.575  36.465  27.464  1.00  0.00    -0.200 F 
ATOM     69  C   UNL A   1      45.453  35.818  29.558  1.00  0.00     0.200 A 
ATOM     70  F   UNL A   1      46.331  35.119  31.635  1.00  0.00    -0.200 F 
ATOM     71  F   UNL A   1      45.841  37.077  29.801  1.00  0.00    -0.200 F 
ENDBRANCH  47  61
BRANCH  48  72
ATOM     72  C   UNL A   1      41.274  23.921  27.442  1.00  0.00     0.064 A 
ATOM     73  C   UNL A   1      41.856  22.799  28.051  1.00  0.00     0.173 A 
ATOM     74  C   UNL A   1      40.230  23.697  26.532  1.00  0.00     0.173 A 
ATOM     75  F   UNL A   1      42.879  22.957  28.903  1.00  0.00    -0.203 F 
ATOM     76  C   UNL A   1      41.429  21.508  27.743  1.00  0.00     0.198 A 
ATOM     77  C   UNL A   1      39.782  22.409  26.250  1.00  0.00     0.198 A 
ATOM     78  F   UNL A   1      39.643  24.733  25.915  1.00  0.00    -0.203 F 
ATOM     79  F   UNL A   1      42.043  20.454  28.295  1.00  0.00    -0.200 F 
ATOM     80  C   UNL A   1      40.388  21.314  26.848  1.00  0.00     0.200 A 
ATOM     81  F   UNL A   1      38.769  22.225  25.392  1.00  0.00    -0.200 F 
ATOM     82  F   UNL A   1      39.979  20.073  26.553  1.00  0.00    -0.200 F 
ENDBRANCH  48  72
BRANCH  60  83
ATOM     83  C   UNL A   1      47.283  27.165  26.025  1.00  0.00     0.064 A 
ATOM     84  C   UNL A   1      47.530  27.366  24.659  1.00  0.00     0.173 A 
ATOM     85  C   UNL A   1      48.291  26.552  26.787  1.00  0.00     0.173 A 
ATOM     86  F   UNL A   1      46.598  27.938  23.881  1.00  0.00    -0.203 F 
ATOM     87  C   UNL A   1      48.721  26.940  24.074  1.00  0.00     0.198 A 
ATOM     88  C   UNL A   1      49.494  26.160  26.207  1.00  0.00     0.198 A 
ATOM     89  F   UNL A   1      48.113  26.344  28.100  1.00  0.00    -0.203 F 
ATOM     90  F   UNL A   1      48.909  27.092  22.757  1.00  0.00    -0.200 F 
ATOM     91  C   UNL A   1      49.704  26.345  24.850  1.00  0.00     0.200 A 
ATOM     92  F   UNL A   1      50.451  25.603  26.963  1.00  0.00    -0.200 F 
ATOM     93  F   UNL A   1      50.853  25.944  24.288  1.00  0.00    -0.200 F 
ENDBRANCH  60  83
ENDBRANCH  34  35
ENDBRANCH  27  29
ENDBRANCH  26  27
ENDBRANCH  25  26
ENDBRANCH  24  25
ENDBRANCH  23  24
ENDBRANCH  22  23
ENDBRANCH   1  22
TORSDOF 19
ENDMDL
MODEL 2
REMARK VINA RESULT:      -8.2      4.717      9.183
REMARK SMILES COc1ccc2cc([C@H](C)C(=O)OCCOCCOCCOC(=O)c3ccc(-c4c5nc(c(-c6c(F)c(F)c(F)c(F)c6F)c6ccc([nH]6)c(-c6c(F)c(F)c(F)c(F)c6F)c6nc(c(-c7c(F)c(F)c(F)c(F)c7F)c7ccc4[nH]7)C=C6)C=C5)cc3)ccc2c1
REMARK SMILES IDX 17 1 16 2 15 3 14 4 13 5 11 6 12 7 9 8 10 9 8 10 3 11 4 12
REMARK SMILES IDX 91 13 5 14 90 15 6 16 89 17 7 18 88 19 2 20 1 21 18 22 19 23
REMARK SMILES IDX 20 24 21 25 22 26 23 27 24 28 25 29 26 30 87 31 27 32 86 33
REMARK SMILES IDX 28 34 29 35 30 36 80 37 31 38 85 39 79 40 81 41 32 42 84 43
REMARK SMILES IDX 78 44 77 45 33 47 65 48 45 49 64 50 46 51 49 52 63 53 82 54
REMARK SMILES IDX 47 55 48 56 62 58 83 59 50 60 34 61 35 62 43 63 36 64 37 65
REMARK SMILES IDX 41 66 44 67 38 68 39 69 42 70 40 71 66 72 67 73 75 74 68 75
REMARK SMILES IDX 69 76 73 77 76 78 70 79 71 80 74 81 72 82 51 83 52 84 60 85
REMARK SMILES IDX 53 86 54 87 58 88 61 89 55 90 56 91 59 92 57 93
REMARK H PARENT 81 46 49 57
REMARK Flexibility Score: inf
ROOT
ATOM      1  C   UNL A   1      32.402  28.054  26.429  1.00  0.00     0.188 C 
ENDROOT
BRANCH   1   2
ATOM      2  O   UNL A   1      31.624  27.281  25.526  1.00  0.00    -0.376 OA
BRANCH   2   3
ATOM      3  C   UNL A   1      31.840  25.881  25.412  1.00  0.00     0.202 C 
BRANCH   3   4
ATOM      4  C   UNL A   1      33.047  25.352  24.615  1.00  0.00     0.261 C 
BRANCH   4   5
ATOM      5  O   UNL A   1      32.781  24.342  23.618  1.00  0.00    -0.463 OA
BRANCH   5   6
ATOM      6  C   UNL A   1      33.793  23.466  23.372  1.00  0.00     0.313 C 
ATOM      7  O   UNL A   1      34.455  23.456  22.336  1.00  0.00    -0.252 OA
BRANCH   6   8
ATOM      8  C   UNL A   1      34.002  22.405  24.470  1.00  0.00     0.126 C 
ATOM      9  C   UNL A   1      33.413  21.002  24.303  1.00  0.00     0.025 C 
BRANCH   8  10
ATOM     10  C   UNL A   1      35.480  22.370  24.770  1.00  0.00    -0.033 A 
ATOM     11  C   UNL A   1      39.981  20.621  26.122  1.00  0.00     0.119 A 
ATOM     12  C   UNL A   1      39.316  19.541  25.545  1.00  0.00     0.047 A 
ATOM     13  C   UNL A   1      39.378  21.873  26.209  1.00  0.00     0.055 A 
ATOM     14  C   UNL A   1      38.048  19.723  25.007  1.00  0.00     0.012 A 
ATOM     15  C   UNL A   1      38.099  22.068  25.687  1.00  0.00    -0.015 A 
ATOM     16  C   UNL A   1      37.436  20.978  25.078  1.00  0.00    -0.018 A 
ATOM     17  C   UNL A   1      37.456  23.308  25.792  1.00  0.00     0.009 A 
ATOM     18  C   UNL A   1      36.143  21.149  24.601  1.00  0.00     0.013 A 
ATOM     19  C   UNL A   1      36.146  23.453  25.353  1.00  0.00     0.005 A 
BRANCH  11  20
ATOM     20  O   UNL A   1      41.226  20.495  26.674  1.00  0.00    -0.497 OA
ATOM     21  C   UNL A   1      41.918  19.383  26.108  1.00  0.00     0.278 C 
ENDBRANCH  11  20
ENDBRANCH   8  10
ENDBRANCH   6   8
ENDBRANCH   5   6
ENDBRANCH   4   5
ENDBRANCH   3   4
ENDBRANCH   2   3
ENDBRANCH   1   2
BRANCH   1  22
ATOM     22  C   UNL A   1      31.768  29.256  27.142  1.00  0.00     0.188 C 
BRANCH  22  23
ATOM     23  O   UNL A   1      32.255  30.512  26.751  1.00  0.00    -0.376 OA
BRANCH  23  24
ATOM     24  C   UNL A   1      31.339  31.565  26.536  1.00  0.00     0.202 C 
BRANCH  24  25
ATOM     25  C   UNL A   1      31.719  33.028  26.834  1.00  0.00     0.261 C 
BRANCH  25  26
ATOM     26  O   UNL A   1      33.117  33.351  26.930  1.00  0.00    -0.460 OA
BRANCH  26  27
ATOM     27  C   UNL A   1      33.557  33.880  28.099  1.00  0.00     0.338 C 
ATOM     28  O   UNL A   1      32.990  34.699  28.792  1.00  0.00    -0.246 OA
BRANCH  27  29
ATOM     29  C   UNL A   1      34.751  33.103  28.522  1.00  0.00     0.060 A 
ATOM     30  C   UNL A   1      34.612  31.732  28.787  1.00  0.00     0.016 A 
ATOM     31  C   UNL A   1      36.000  33.715  28.641  1.00  0.00     0.016 A 
ATOM     32  C   UNL A   1      35.714  30.976  29.196  1.00  0.00     0.010 A 
ATOM     33  C   UNL A   1      37.097  32.964  29.078  1.00  0.00     0.010 A 
ATOM     34  C   UNL A   1      36.954  31.598  29.387  1.00  0.00    -0.014 A 
BRANCH  34  35
ATOM     35  C   UNL A   1      38.048  30.879  30.092  1.00  0.00     0.031 A 
ATOM     36  C   UNL A   1      38.282  31.188  31.546  1.00  0.00     0.074 A 
ATOM     37  C   UNL A   1      38.814  29.968  29.469  1.00  0.00     0.049 A 
ATOM     38  N   UNL A   1      39.218  30.755  32.352  1.00  0.00    -0.248 NA
ATOM     39  C   UNL A   1      37.329  32.117  32.174  1.00  0.00     0.031 C 
ATOM     40  C   UNL A   1      38.664  29.540  28.080  1.00  0.00     0.029 A 
ATOM     41  N   UNL A   1      39.889  29.245  29.931  1.00  0.00    -0.354 N 
ATOM     42  C   UNL A   1      38.972  31.367  33.575  1.00  0.00     0.074 A 
ATOM     43  C   UNL A   1      37.820  32.224  33.398  1.00  0.00     0.031 C 
ATOM     44  C   UNL A   1      39.624  28.642  27.796  1.00  0.00     0.029 A 
ATOM     45  C   UNL A   1      40.478  28.459  28.970  1.00  0.00     0.049 A 
ATOM     46  H   UNL A   1      40.207  29.286  30.861  1.00  0.00     0.167 HD
ATOM     47  C   UNL A   1      39.644  31.224  34.743  1.00  0.00     0.037 A 
ATOM     48  C   UNL A   1      41.594  27.705  29.026  1.00  0.00     0.037 A 
ATOM     49  C   UNL A   1      40.793  30.375  34.919  1.00  0.00     0.049 A 
ATOM     50  C   UNL A   1      42.375  27.627  30.316  1.00  0.00     0.074 A 
ATOM     51  C   UNL A   1      41.531  30.149  36.067  1.00  0.00     0.029 A 
ATOM     52  N   UNL A   1      41.378  29.619  33.914  1.00  0.00    -0.354 N 
ATOM     53  N   UNL A   1      42.126  28.189  31.474  1.00  0.00    -0.248 NA
ATOM     54  C   UNL A   1      43.596  26.806  30.303  1.00  0.00     0.031 C 
ATOM     55  C   UNL A   1      42.600  29.309  35.743  1.00  0.00     0.029 A 
ATOM     56  C   UNL A   1      42.488  28.952  34.409  1.00  0.00     0.049 A 
ATOM     57  H   UNL A   1      41.054  29.566  32.985  1.00  0.00     0.167 HD
ATOM     58  C   UNL A   1      43.133  27.763  32.334  1.00  0.00     0.074 A 
ATOM     59  C   UNL A   1      43.989  26.883  31.567  1.00  0.00     0.031 C 
ATOM     60  C   UNL A   1      43.329  28.071  33.639  1.00  0.00     0.037 A 
BRANCH  47  61
ATOM     61  C   UNL A   1      39.172  32.031  35.917  1.00  0.00     0.064 A 
ATOM     62  C   UNL A   1      38.258  31.518  36.850  1.00  0.00     0.173 A 
ATOM     63  C   UNL A   1      39.666  33.327  36.130  1.00  0.00     0.173 A 
ATOM     64  F   UNL A   1      37.742  30.291  36.686  1.00  0.00    -0.203 F 
ATOM     65  C   UNL A   1      37.835  32.283  37.935  1.00  0.00     0.198 A 
ATOM     66  C   UNL A   1      39.269  34.076  37.234  1.00  0.00     0.198 A 
ATOM     67  F   UNL A   1      40.546  33.866  35.271  1.00  0.00    -0.203 F 
ATOM     68  F   UNL A   1      36.922  31.792  38.783  1.00  0.00    -0.200 F 
ATOM     69  C   UNL A   1      38.347  33.557  38.131  1.00  0.00     0.200 A 
ATOM     70  F   UNL A   1      39.776  35.301  37.430  1.00  0.00    -0.200 F 
ATOM     71  F   UNL A   1      37.947  34.288  39.181  1.00  0.00    -0.200 F 
ENDBRANCH  47  61
BRANCH  48  72
ATOM     72  C   UNL A   1      42.062  26.971  27.819  1.00  0.00     0.064 A 
ATOM     73  C   UNL A   1      41.766  25.612  27.637  1.00  0.00     0.173 A 
ATOM     74  C   UNL A   1      42.846  27.601  26.841  1.00  0.00     0.173 A 
ATOM     75  F   UNL A   1      41.047  24.955  28.558  1.00  0.00    -0.203 F 
ATOM     76  C   UNL A   1      42.255  24.908  26.537  1.00  0.00     0.198 A 
ATOM     77  C   UNL A   1      43.307  26.905  25.726  1.00  0.00     0.198 A 
ATOM     78  F   UNL A   1      43.167  28.897  26.970  1.00  0.00    -0.203 F 
ATOM     79  F   UNL A   1      42.006  23.597  26.421  1.00  0.00    -0.200 F 
ATOM     80  C   UNL A   1      43.020  25.556  25.579  1.00  0.00     0.200 A 
ATOM     81  F   UNL A   1      44.038  27.537  24.798  1.00  0.00    -0.200 F 
ATOM     82  F   UNL A   1      43.491  24.879  24.524  1.00  0.00    -0.200 F 
ENDBRANCH  48  72
BRANCH  60  83
ATOM     83  C   UNL A   1      44.487  27.416  34.343  1.00  0.00     0.064 A 
ATOM     84  C   UNL A   1      45.746  28.028  34.428  1.00  0.00     0.173 A 
ATOM     85  C   UNL A   1      44.322  26.174  34.977  1.00  0.00     0.173 A 
ATOM     86  F   UNL A   1      45.964  29.211  33.832  1.00  0.00    -0.203 F 
ATOM     87  C   UNL A   1      46.804  27.407  35.090  1.00  0.00     0.198 A 
ATOM     88  C   UNL A   1      45.369  25.573  35.668  1.00  0.00     0.198 A 
ATOM     89  F   UNL A   1      43.136  25.548  34.937  1.00  0.00    -0.203 F 
ATOM     90  F   UNL A   1      48.012  27.985  35.108  1.00  0.00    -0.200 F 
ATOM     91  C   UNL A   1      46.612  26.184  35.716  1.00  0.00     0.200 A 
ATOM     92  F   UNL A   1      45.176  24.401  36.289  1.00  0.00    -0.200 F 
ATOM     93  F   UNL A   1      47.628  25.592  36.359  1.00  0.00    -0.200 F 
ENDBRANCH  60  83
ENDBRANCH  34  35
ENDBRANCH  27  29
ENDBRANCH  26  27
ENDBRANCH  25  26
ENDBRANCH  24  25
ENDBRANCH  23  24
ENDBRANCH  22  23
ENDBRANCH   1  22
TORSDOF 19
ENDMDL
MODEL 3
REMARK VINA RESULT:      -8.1      5.372     11.528
REMARK SMILES COc1ccc2cc([C@H](C)C(=O)OCCOCCOCCOC(=O)c3ccc(-c4c5nc(c(-c6c(F)c(F)c(F)c(F)c6F)c6ccc([nH]6)c(-c6c(F)c(F)c(F)c(F)c6F)c6nc(c(-c7c(F)c(F)c(F)c(F)c7F)c7ccc4[nH]7)C=C6)C=C5)cc3)ccc2c1
REMARK SMILES IDX 17 1 16 2 15 3 14 4 13 5 11 6 12 7 9 8 10 9 8 10 3 11 4 12
REMARK SMILES IDX 91 13 5 14 90 15 6 16 89 17 7 18 88 19 2 20 1 21 18 22 19 23
REMARK SMILES IDX 20 24 21 25 22 26 23 27 24 28 25 29 26 30 87 31 27 32 86 33
REMARK SMILES IDX 28 34 29 35 30 36 80 37 31 38 85 39 79 40 81 41 32 42 84 43
REMARK SMILES IDX 78 44 77 45 33 47 65 48 45 49 64 50 46 51 49 52 63 53 82 54
REMARK SMILES IDX 47 55 48 56 62 58 83 59 50 60 34 61 35 62 43 63 36 64 37 65
REMARK SMILES IDX 41 66 44 67 38 68 39 69 42 70 40 71 66 72 67 73 75 74 68 75
REMARK SMILES IDX 69 76 73 77 76 78 70 79 71 80 74 81 72 82 51 83 52 84 60 85
REMARK SMILES IDX 53 86 54 87 58 88 61 89 55 90 56 91 59 92 57 93
REMARK H PARENT 81 46 49 57
REMARK Flexibility Score: inf
ROOT
ATOM      1  C   UNL A   1      32.029  28.868  25.713  1.00  0.00     0.188 C 
ENDROOT
BRANCH   1   2
ATOM      2  O   UNL A   1      31.744  29.368  24.414  1.00  0.00    -0.376 OA
BRANCH   2   3
ATOM      3  C   UNL A   1      30.478  29.122  23.814  1.00  0.00     0.202 C 
BRANCH   3   4
ATOM      4  C   UNL A   1      30.151  27.724  23.258  1.00  0.00     0.261 C 
BRANCH   4   5
ATOM      5  O   UNL A   1      30.750  27.367  21.994  1.00  0.00    -0.463 OA
BRANCH   5   6
ATOM      6  C   UNL A   1      31.560  26.273  22.006  1.00  0.00     0.313 C 
ATOM      7  O   UNL A   1      32.317  25.969  21.087  1.00  0.00    -0.252 OA
BRANCH   6   8
ATOM      8  C   UNL A   1      31.394  25.368  23.244  1.00  0.00     0.126 C 
ATOM      9  C   UNL A   1      30.648  24.038  23.127  1.00  0.00     0.025 C 
BRANCH   8  10
ATOM     10  C   UNL A   1      32.765  25.201  23.850  1.00  0.00    -0.033 A 
ATOM     11  C   UNL A   1      37.124  23.090  25.151  1.00  0.00     0.119 A 
ATOM     12  C   UNL A   1      36.778  22.515  23.930  1.00  0.00     0.047 A 
ATOM     13  C   UNL A   1      36.317  24.058  25.745  1.00  0.00     0.055 A 
ATOM     14  C   UNL A   1      35.633  22.944  23.270  1.00  0.00     0.012 A 
ATOM     15  C   UNL A   1      35.157  24.487  25.101  1.00  0.00    -0.015 A 
ATOM     16  C   UNL A   1      34.820  23.923  23.849  1.00  0.00    -0.018 A 
ATOM     17  C   UNL A   1      34.309  25.434  25.691  1.00  0.00     0.009 A 
ATOM     18  C   UNL A   1      33.641  24.307  23.223  1.00  0.00     0.013 A 
ATOM     19  C   UNL A   1      33.110  25.775  25.078  1.00  0.00     0.005 A 
BRANCH  11  20
ATOM     20  O   UNL A   1      38.234  22.700  25.848  1.00  0.00    -0.497 OA
ATOM     21  C   UNL A   1      38.573  21.349  25.541  1.00  0.00     0.278 C 
ENDBRANCH  11  20
ENDBRANCH   8  10
ENDBRANCH   6   8
ENDBRANCH   5   6
ENDBRANCH   4   5
ENDBRANCH   3   4
ENDBRANCH   2   3
ENDBRANCH   1   2
BRANCH   1  22
ATOM     22  C   UNL A   1      32.152  29.843  26.892  1.00  0.00     0.188 C 
BRANCH  22  23
ATOM     23  O   UNL A   1      33.461  30.095  27.329  1.00  0.00    -0.376 OA
BRANCH  23  24
ATOM     24  C   UNL A   1      33.827  31.415  27.672  1.00  0.00     0.202 C 
BRANCH  24  25
ATOM     25  C   UNL A   1      32.793  32.557  27.671  1.00  0.00     0.261 C 
BRANCH  25  26
ATOM     26  O   UNL A   1      33.279  33.899  27.501  1.00  0.00    -0.460 OA
BRANCH  26  27
ATOM     27  C   UNL A   1      33.295  34.701  28.596  1.00  0.00     0.338 C 
ATOM     28  O   UNL A   1      32.427  35.469  28.953  1.00  0.00    -0.246 OA
BRANCH  27  29
ATOM     29  C   UNL A   1      34.460  34.303  29.427  1.00  0.00     0.060 A 
ATOM     30  C   UNL A   1      35.753  34.455  28.904  1.00  0.00     0.016 A 
ATOM     31  C   UNL A   1      34.283  33.801  30.717  1.00  0.00     0.016 A 
ATOM     32  C   UNL A   1      36.869  34.080  29.658  1.00  0.00     0.010 A 
ATOM     33  C   UNL A   1      35.398  33.400  31.461  1.00  0.00     0.010 A 
ATOM     34  C   UNL A   1      36.695  33.509  30.924  1.00  0.00    -0.014 A 
BRANCH  34  35
ATOM     35  C   UNL A   1      37.837  32.846  31.606  1.00  0.00     0.031 A 
ATOM     36  C   UNL A   1      38.452  31.637  30.955  1.00  0.00     0.074 A 
ATOM     37  C   UNL A   1      38.330  33.303  32.771  1.00  0.00     0.049 A 
ATOM     38  N   UNL A   1      39.398  30.844  31.390  1.00  0.00    -0.248 NA
ATOM     39  C   UNL A   1      37.921  31.271  29.633  1.00  0.00     0.031 C 
ATOM     40  C   UNL A   1      37.861  34.489  33.483  1.00  0.00     0.029 A 
ATOM     41  N   UNL A   1      39.334  32.805  33.567  1.00  0.00    -0.354 N 
ATOM     42  C   UNL A   1      39.566  29.882  30.401  1.00  0.00     0.074 A 
ATOM     43  C   UNL A   1      38.605  30.172  29.359  1.00  0.00     0.031 C 
ATOM     44  C   UNL A   1      38.564  34.618  34.622  1.00  0.00     0.029 A 
ATOM     45  C   UNL A   1      39.506  33.505  34.737  1.00  0.00     0.049 A 
ATOM     46  H   UNL A   1      39.878  32.022  33.324  1.00  0.00     0.167 HD
ATOM     47  C   UNL A   1      40.446  28.853  30.362  1.00  0.00     0.037 A 
ATOM     48  C   UNL A   1      40.310  33.255  35.790  1.00  0.00     0.037 A 
ATOM     49  C   UNL A   1      41.400  28.561  31.400  1.00  0.00     0.049 A 
ATOM     50  C   UNL A   1      41.223  32.053  35.761  1.00  0.00     0.074 A 
ATOM     51  C   UNL A   1      42.345  27.552  31.444  1.00  0.00     0.029 A 
ATOM     52  N   UNL A   1      41.522  29.274  32.583  1.00  0.00    -0.354 N 
ATOM     53  N   UNL A   1      41.394  31.162  34.814  1.00  0.00    -0.248 NA
ATOM     54  C   UNL A   1      42.057  31.824  36.951  1.00  0.00     0.031 C 
ATOM     55  C   UNL A   1      42.994  27.614  32.680  1.00  0.00     0.029 A 
ATOM     56  C   UNL A   1      42.505  28.706  33.378  1.00  0.00     0.049 A 
ATOM     57  H   UNL A   1      40.988  30.066  32.824  1.00  0.00     0.167 HD
ATOM     58  C   UNL A   1      42.375  30.291  35.278  1.00  0.00     0.074 A 
ATOM     59  C   UNL A   1      42.773  30.771  36.584  1.00  0.00     0.031 C 
ATOM     60  C   UNL A   1      42.900  29.197  34.674  1.00  0.00     0.037 A 
BRANCH  47  61
ATOM     61  C   UNL A   1      40.395  27.943  29.169  1.00  0.00     0.064 A 
ATOM     62  C   UNL A   1      39.589  26.793  29.148  1.00  0.00     0.173 A 
ATOM     63  C   UNL A   1      41.138  28.242  28.017  1.00  0.00     0.173 A 
ATOM     64  F   UNL A   1      38.871  26.453  30.228  1.00  0.00    -0.203 F 
ATOM     65  C   UNL A   1      39.553  25.964  28.030  1.00  0.00     0.198 A 
ATOM     66  C   UNL A   1      41.073  27.430  26.889  1.00  0.00     0.198 A 
ATOM     67  F   UNL A   1      41.922  29.331  27.981  1.00  0.00    -0.203 F 
ATOM     68  F   UNL A   1      38.819  24.844  28.052  1.00  0.00    -0.200 F 
ATOM     69  C   UNL A   1      40.288  26.287  26.898  1.00  0.00     0.200 A 
ATOM     70  F   UNL A   1      41.772  27.752  25.791  1.00  0.00    -0.200 F 
ATOM     71  F   UNL A   1      40.244  25.493  25.819  1.00  0.00    -0.200 F 
ENDBRANCH  47  61
BRANCH  48  72
ATOM     72  C   UNL A   1      40.282  34.149  36.980  1.00  0.00     0.064 A 
ATOM     73  C   UNL A   1      39.375  33.934  38.028  1.00  0.00     0.173 A 
ATOM     74  C   UNL A   1      41.135  35.259  37.079  1.00  0.00     0.173 A 
ATOM     75  F   UNL A   1      38.516  32.906  37.967  1.00  0.00    -0.203 F 
ATOM     76  C   UNL A   1      39.306  34.805  39.114  1.00  0.00     0.198 A 
ATOM     77  C   UNL A   1      41.089  36.110  38.180  1.00  0.00     0.198 A 
ATOM     78  F   UNL A   1      42.017  35.517  36.101  1.00  0.00    -0.203 F 
ATOM     79  F   UNL A   1      38.389  34.608  40.069  1.00  0.00    -0.200 F 
ATOM     80  C   UNL A   1      40.167  35.889  39.192  1.00  0.00     0.200 A 
ATOM     81  F   UNL A   1      41.929  37.151  38.256  1.00  0.00    -0.200 F 
ATOM     82  F   UNL A   1      40.100  36.726  40.235  1.00  0.00    -0.200 F 
ENDBRANCH  48  72
BRANCH  60  83
ATOM     83  C   UNL A   1      43.999  28.464  35.396  1.00  0.00     0.064 A 
ATOM     84  C   UNL A   1      45.352  28.783  35.209  1.00  0.00     0.173 A 
ATOM     85  C   UNL A   1      43.689  27.452  36.319  1.00  0.00     0.173 A 
ATOM     86  F   UNL A   1      45.707  29.733  34.331  1.00  0.00    -0.203 F 
ATOM     87  C   UNL A   1      46.353  28.095  35.892  1.00  0.00     0.198 A 
ATOM     88  C   UNL A   1      44.688  26.792  37.027  1.00  0.00     0.198 A 
ATOM     89  F   UNL A   1      42.411  27.113  36.546  1.00  0.00    -0.203 F 
ATOM     90  F   UNL A   1      47.640  28.379  35.654  1.00  0.00    -0.200 F 
ATOM     91  C   UNL A   1      46.020  27.106  36.806  1.00  0.00     0.200 A 
ATOM     92  F   UNL A   1      44.363  25.850  37.924  1.00  0.00    -0.200 F 
ATOM     93  F   UNL A   1      46.983  26.451  37.469  1.00  0.00    -0.200 F 
ENDBRANCH  60  83
ENDBRANCH  34  35
ENDBRANCH  27  29
ENDBRANCH  26  27
ENDBRANCH  25  26
ENDBRANCH  24  25
ENDBRANCH  23  24
ENDBRANCH  22  23
ENDBRANCH   1  22
TORSDOF 19
ENDMDL
