MODEL 1
REMARK VINA RESULT:     -11.3      0.000      0.000
REMARK SMILES Cc1c(Br)c(C)c2c(c1Br)O[C@H](C(F)(F)F)C(C(=O)OCCOCCOCCOC(=O)c1ccc(-c3c4nc(c(-c5c(F)c(F)c(F)c(F)c5F)c5ccc([nH]5)c(-c5c(F)c(F)c(F)c(F)c5F)c5nc(c(-c6c(F)c(F)c(F)c(F)c6F)c6ccc3[nH]6)C=C5)C=C4)cc1)=C2
REMARK SMILES IDX 25 1 24 2 23 3 22 4 21 5 20 6 18 7 19 8 17 9 1 10 2 11 3 12
REMARK SMILES IDX 9 13 4 14 5 15 8 16 10 17 6 18 7 19 11 20 95 21 12 22 13 23
REMARK SMILES IDX 14 24 15 25 16 26 26 27 27 28 28 29 29 30 30 31 31 32 32 33
REMARK SMILES IDX 33 34 94 35 34 36 93 37 35 38 36 39 37 40 87 41 38 42 92 43
REMARK SMILES IDX 86 44 88 45 39 46 91 47 85 48 84 49 40 51 72 52 52 53 71 54
REMARK SMILES IDX 53 55 56 56 70 57 89 58 54 59 55 60 69 62 90 63 57 64 41 65
REMARK SMILES IDX 42 66 50 67 43 68 44 69 48 70 51 71 45 72 46 73 49 74 47 75
REMARK SMILES IDX 73 76 74 77 82 78 75 79 76 80 80 81 83 82 77 83 78 84 81 85
REMARK SMILES IDX 79 86 58 87 59 88 67 89 60 90 61 91 65 92 68 93 62 94 63 95
REMARK SMILES IDX 66 96 64 97
REMARK H PARENT 88 50 56 61
REMARK Flexibility Score: inf
ROOT
ATOM      1  C   UNL A   1      45.936  22.852  38.796  1.00  0.00     0.188 C 
ENDROOT
BRANCH   1   2
ATOM      2  C   UNL A   1      46.387  21.852  39.882  1.00  0.00     0.188 C 
BRANCH   2   3
ATOM      3  O   UNL A   1      46.982  20.631  39.512  1.00  0.00    -0.376 OA
BRANCH   3   4
ATOM      4  C   UNL A   1      46.877  19.482  40.335  1.00  0.00     0.202 C 
BRANCH   4   5
ATOM      5  C   UNL A   1      45.941  18.296  40.055  1.00  0.00     0.261 C 
BRANCH   5   6
ATOM      6  O   UNL A   1      45.682  17.411  41.149  1.00  0.00    -0.460 OA
BRANCH   6   7
ATOM      7  C   UNL A   1      44.542  17.661  41.836  1.00  0.00     0.338 C 
ATOM      8  O   UNL A   1      43.947  18.723  41.905  1.00  0.00    -0.246 OA
BRANCH   7   9
ATOM      9  C   UNL A   1      44.005  16.396  42.379  1.00  0.00     0.087 C 
ATOM     10  C   UNL A   1      43.237  10.337  44.660  1.00  0.00     0.047 C 
ATOM     11  C   UNL A   1      43.566  11.794  44.426  1.00  0.00    -0.019 A 
ATOM     12  C   UNL A   1      44.750  12.362  44.964  1.00  0.00     0.025 A 
ATOM     13  C   UNL A   1      42.759  12.602  43.599  1.00  0.00     0.064 A 
ATOM     14  Br  UNL A   1      45.894  11.262  46.047  1.00  0.00    -0.050 Br
ATOM     15  C   UNL A   1      45.126  13.700  44.683  1.00  0.00    -0.026 A 
ATOM     16  C   UNL A   1      43.133  13.923  43.288  1.00  0.00     0.142 A 
ATOM     17  Br  UNL A   1      41.153  11.920  42.803  1.00  0.00    -0.046 Br
ATOM     18  C   UNL A   1      46.358  14.339  45.291  1.00  0.00     0.046 C 
ATOM     19  C   UNL A   1      44.328  14.458  43.789  1.00  0.00     0.022 A 
ATOM     20  O   UNL A   1      42.271  14.640  42.499  1.00  0.00    -0.474 OA
ATOM     21  C   UNL A   1      44.752  15.770  43.297  1.00  0.00     0.027 C 
ATOM     22  C   UNL A   1      42.686  15.885  41.892  1.00  0.00     0.316 C 
BRANCH  22  23
ATOM     23  C   UNL A   1      42.645  15.731  40.365  1.00  0.00     0.430 C 
ATOM     24  F   UNL A   1      42.363  16.907  39.758  1.00  0.00    -0.167 F 
ATOM     25  F   UNL A   1      43.836  15.315  39.874  1.00  0.00    -0.167 F 
ATOM     26  F   UNL A   1      41.711  14.835  39.976  1.00  0.00    -0.167 F 
ENDBRANCH  22  23
ENDBRANCH   7   9
ENDBRANCH   6   7
ENDBRANCH   5   6
ENDBRANCH   4   5
ENDBRANCH   3   4
ENDBRANCH   2   3
ENDBRANCH   1   2
BRANCH   1  27
ATOM     27  O   UNL A   1      44.932  23.797  39.083  1.00  0.00    -0.376 OA
BRANCH  27  28
ATOM     28  C   UNL A   1      45.230  24.899  39.927  1.00  0.00     0.202 C 
BRANCH  28  29
ATOM     29  C   UNL A   1      46.465  25.807  39.759  1.00  0.00     0.261 C 
BRANCH  29  30
ATOM     30  O   UNL A   1      46.417  26.780  38.707  1.00  0.00    -0.460 OA
BRANCH  30  31
ATOM     31  C   UNL A   1      46.913  26.373  37.509  1.00  0.00     0.338 C 
ATOM     32  O   UNL A   1      47.890  25.680  37.306  1.00  0.00    -0.246 OA
BRANCH  31  33
ATOM     33  C   UNL A   1      45.945  26.725  36.450  1.00  0.00     0.060 A 
ATOM     34  C   UNL A   1      46.174  27.882  35.691  1.00  0.00     0.016 A 
ATOM     35  C   UNL A   1      44.819  25.936  36.214  1.00  0.00     0.016 A 
ATOM     36  C   UNL A   1      45.284  28.247  34.685  1.00  0.00     0.010 A 
ATOM     37  C   UNL A   1      43.906  26.323  35.228  1.00  0.00     0.010 A 
ATOM     38  C   UNL A   1      44.126  27.489  34.469  1.00  0.00    -0.014 A 
BRANCH  38  39
ATOM     39  C   UNL A   1      43.054  28.052  33.612  1.00  0.00     0.031 A 
ATOM     40  C   UNL A   1      42.111  29.048  34.227  1.00  0.00     0.074 A 
ATOM     41  C   UNL A   1      42.957  27.749  32.305  1.00  0.00     0.049 A 
ATOM     42  N   UNL A   1      41.106  29.686  33.687  1.00  0.00    -0.248 NA
ATOM     43  C   UNL A   1      42.341  29.375  35.644  1.00  0.00     0.031 C 
ATOM     44  C   UNL A   1      43.848  26.851  31.576  1.00  0.00     0.029 A 
ATOM     45  N   UNL A   1      42.059  28.176  31.357  1.00  0.00    -0.354 N 
ATOM     46  C   UNL A   1      40.593  30.494  34.692  1.00  0.00     0.074 A 
ATOM     47  C   UNL A   1      41.367  30.237  35.885  1.00  0.00     0.031 C 
ATOM     48  C   UNL A   1      43.451  26.793  30.292  1.00  0.00     0.029 A 
ATOM     49  C   UNL A   1      42.261  27.625  30.115  1.00  0.00     0.049 A 
ATOM     50  H   UNL A   1      41.338  28.819  31.550  1.00  0.00     0.167 HD
ATOM     51  C   UNL A   1      39.579  31.386  34.621  1.00  0.00     0.037 A 
ATOM     52  C   UNL A   1      41.553  27.767  28.975  1.00  0.00     0.037 A 
ATOM     53  C   UNL A   1      38.804  31.640  33.438  1.00  0.00     0.049 A 
ATOM     54  C   UNL A   1      40.344  28.673  28.956  1.00  0.00     0.074 A 
ATOM     55  C   UNL A   1      37.757  32.528  33.270  1.00  0.00     0.029 A 
ATOM     56  N   UNL A   1      38.986  30.999  32.222  1.00  0.00    -0.354 N 
ATOM     57  N   UNL A   1      39.880  29.453  29.902  1.00  0.00    -0.248 NA
ATOM     58  C   UNL A   1      39.555  28.711  27.714  1.00  0.00     0.031 C 
ATOM     59  C   UNL A   1      37.267  32.382  31.970  1.00  0.00     0.029 A 
ATOM     60  C   UNL A   1      38.043  31.443  31.310  1.00  0.00     0.049 A 
ATOM     61  H   UNL A   1      39.682  30.328  32.034  1.00  0.00     0.167 HD
ATOM     62  C   UNL A   1      38.764  30.086  29.367  1.00  0.00     0.074 A 
ATOM     63  C   UNL A   1      38.629  29.615  28.004  1.00  0.00     0.031 C 
ATOM     64  C   UNL A   1      37.922  30.972  29.954  1.00  0.00     0.037 A 
BRANCH  51  65
ATOM     65  C   UNL A   1      39.235  32.147  35.866  1.00  0.00     0.064 A 
ATOM     66  C   UNL A   1      39.747  33.432  36.103  1.00  0.00     0.173 A 
ATOM     67  C   UNL A   1      38.343  31.610  36.805  1.00  0.00     0.173 A 
ATOM     68  F   UNL A   1      40.617  33.982  35.243  1.00  0.00    -0.203 F 
ATOM     69  C   UNL A   1      39.389  34.144  37.245  1.00  0.00     0.198 A 
ATOM     70  C   UNL A   1      37.964  32.337  37.929  1.00  0.00     0.198 A 
ATOM     71  F   UNL A   1      37.825  30.386  36.622  1.00  0.00    -0.203 F 
ATOM     72  F   UNL A   1      39.921  35.354  37.471  1.00  0.00    -0.200 F 
ATOM     73  C   UNL A   1      38.491  33.601  38.150  1.00  0.00     0.200 A 
ATOM     74  F   UNL A   1      37.086  31.817  38.797  1.00  0.00    -0.200 F 
ATOM     75  F   UNL A   1      38.135  34.294  39.240  1.00  0.00    -0.200 F 
ENDBRANCH  51  65
BRANCH  52  76
ATOM     76  C   UNL A   1      41.958  27.025  27.749  1.00  0.00     0.064 A 
ATOM     77  C   UNL A   1      42.801  27.611  26.796  1.00  0.00     0.173 A 
ATOM     78  C   UNL A   1      41.496  25.725  27.495  1.00  0.00     0.173 A 
ATOM     79  F   UNL A   1      43.244  28.865  26.975  1.00  0.00    -0.203 F 
ATOM     80  C   UNL A   1      43.163  26.930  25.635  1.00  0.00     0.198 A 
ATOM     81  C   UNL A   1      41.881  25.032  26.348  1.00  0.00     0.198 A 
ATOM     82  F   UNL A   1      40.676  25.120  28.367  1.00  0.00    -0.203 F 
ATOM     83  F   UNL A   1      43.937  27.531  24.721  1.00  0.00    -0.200 F 
ATOM     84  C   UNL A   1      42.710  25.637  25.416  1.00  0.00     0.200 A 
ATOM     85  F   UNL A   1      41.446  23.781  26.145  1.00  0.00    -0.200 F 
ATOM     86  F   UNL A   1      43.063  24.980  24.303  1.00  0.00    -0.200 F 
ENDBRANCH  52  76
BRANCH  64  87
ATOM     87  C   UNL A   1      36.770  31.501  29.149  1.00  0.00     0.064 A 
ATOM     88  C   UNL A   1      35.639  30.712  28.894  1.00  0.00     0.173 A 
ATOM     89  C   UNL A   1      36.739  32.844  28.742  1.00  0.00     0.173 A 
ATOM     90  F   UNL A   1      35.622  29.420  29.255  1.00  0.00    -0.203 F 
ATOM     91  C   UNL A   1      34.519  31.248  28.264  1.00  0.00     0.198 A 
ATOM     92  C   UNL A   1      35.607  33.385  28.138  1.00  0.00     0.198 A 
ATOM     93  F   UNL A   1      37.790  33.645  28.973  1.00  0.00    -0.203 F 
ATOM     94  F   UNL A   1      33.456  30.471  28.014  1.00  0.00    -0.200 F 
ATOM     95  C   UNL A   1      34.498  32.586  27.900  1.00  0.00     0.200 A 
ATOM     96  F   UNL A   1      35.580  34.683  27.808  1.00  0.00    -0.200 F 
ATOM     97  F   UNL A   1      33.406  33.109  27.323  1.00  0.00    -0.200 F 
ENDBRANCH  64  87
ENDBRANCH  38  39
ENDBRANCH  31  33
ENDBRANCH  30  31
ENDBRANCH  29  30
ENDBRANCH  28  29
ENDBRANCH  27  28
ENDBRANCH   1  27
TORSDOF 18
ENDMDL
MODEL 2
REMARK VINA RESULT:     -11.3      9.006     14.182
REMARK SMILES Cc1c(Br)c(C)c2c(c1Br)O[C@H](C(F)(F)F)C(C(=O)OCCOCCOCCOC(=O)c1ccc(-c3c4nc(c(-c5c(F)c(F)c(F)c(F)c5F)c5ccc([nH]5)c(-c5c(F)c(F)c(F)c(F)c5F)c5nc(c(-c6c(F)c(F)c(F)c(F)c6F)c6ccc3[nH]6)C=C5)C=C4)cc1)=C2
REMARK SMILES IDX 25 1 24 2 23 3 22 4 21 5 20 6 18 7 19 8 17 9 1 10 2 11 3 12
REMARK SMILES IDX 9 13 4 14 5 15 8 16 10 17 6 18 7 19 11 20 95 21 12 22 13 23
REMARK SMILES IDX 14 24 15 25 16 26 26 27 27 28 28 29 29 30 30 31 31 32 32 33
REMARK SMILES IDX 33 34 94 35 34 36 93 37 35 38 36 39 37 40 87 41 38 42 92 43
REMARK SMILES IDX 86 44 88 45 39 46 91 47 85 48 84 49 40 51 72 52 52 53 71 54
REMARK SMILES IDX 53 55 56 56 70 57 89 58 54 59 55 60 69 62 90 63 57 64 41 65
REMARK SMILES IDX 42 66 50 67 43 68 44 69 48 70 51 71 45 72 46 73 49 74 47 75
REMARK SMILES IDX 73 76 74 77 82 78 75 79 76 80 80 81 83 82 77 83 78 84 81 85
REMARK SMILES IDX 79 86 58 87 59 88 67 89 60 90 61 91 65 92 68 93 62 94 63 95
REMARK SMILES IDX 66 96 64 97
REMARK H PARENT 88 50 56 61
REMARK Flexibility Score: inf
ROOT
ATOM      1  C   UNL A   1      35.564  33.101  28.084  1.00  0.00     0.188 C 
ENDROOT
BRANCH   1   2
ATOM      2  C   UNL A   1      34.711  31.886  28.505  1.00  0.00     0.188 C 
BRANCH   2   3
ATOM      3  O   UNL A   1      33.923  31.213  27.551  1.00  0.00    -0.376 OA
BRANCH   3   4
ATOM      4  C   UNL A   1      34.034  29.813  27.362  1.00  0.00     0.202 C 
BRANCH   4   5
ATOM      5  C   UNL A   1      33.028  28.961  26.572  1.00  0.00     0.261 C 
BRANCH   5   6
ATOM      6  O   UNL A   1      33.265  27.550  26.546  1.00  0.00    -0.460 OA
BRANCH   6   7
ATOM      7  C   UNL A   1      33.588  27.042  25.333  1.00  0.00     0.338 C 
ATOM      8  O   UNL A   1      33.933  27.669  24.345  1.00  0.00    -0.246 OA
BRANCH   7   9
ATOM      9  C   UNL A   1      33.628  25.567  25.409  1.00  0.00     0.087 C 
ATOM     10  C   UNL A   1      35.105  19.256  24.707  1.00  0.00     0.047 C 
ATOM     11  C   UNL A   1      35.045  20.726  25.051  1.00  0.00    -0.019 A 
ATOM     12  C   UNL A   1      36.237  21.486  25.186  1.00  0.00     0.025 A 
ATOM     13  C   UNL A   1      33.813  21.403  25.158  1.00  0.00     0.064 A 
ATOM     14  Br  UNL A   1      37.927  20.595  24.987  1.00  0.00    -0.050 Br
ATOM     15  C   UNL A   1      36.204  22.884  25.417  1.00  0.00    -0.026 A 
ATOM     16  C   UNL A   1      33.764  22.795  25.359  1.00  0.00     0.142 A 
ATOM     17  Br  UNL A   1      32.147  20.472  24.963  1.00  0.00    -0.046 Br
ATOM     18  C   UNL A   1      37.465  23.700  25.617  1.00  0.00     0.046 C 
ATOM     19  C   UNL A   1      34.947  23.541  25.446  1.00  0.00     0.022 A 
ATOM     20  O   UNL A   1      32.520  23.360  25.477  1.00  0.00    -0.474 OA
ATOM     21  C   UNL A   1      34.839  25.000  25.482  1.00  0.00     0.027 C 
ATOM     22  C   UNL A   1      32.347  24.793  25.399  1.00  0.00     0.316 C 
BRANCH  22  23
ATOM     23  C   UNL A   1      31.473  25.123  24.182  1.00  0.00     0.430 C 
ATOM     24  F   UNL A   1      30.563  24.148  23.949  1.00  0.00    -0.167 F 
ATOM     25  F   UNL A   1      30.777  26.270  24.363  1.00  0.00    -0.167 F 
ATOM     26  F   UNL A   1      32.211  25.270  23.059  1.00  0.00    -0.167 F 
ENDBRANCH  22  23
ENDBRANCH   7   9
ENDBRANCH   6   7
ENDBRANCH   5   6
ENDBRANCH   4   5
ENDBRANCH   3   4
ENDBRANCH   2   3
ENDBRANCH   1   2
BRANCH   1  27
ATOM     27  O   UNL A   1      35.005  34.393  28.099  1.00  0.00    -0.376 OA
BRANCH  27  28
ATOM     28  C   UNL A   1      33.647  34.563  28.473  1.00  0.00     0.202 C 
BRANCH  28  29
ATOM     29  C   UNL A   1      33.157  35.601  29.503  1.00  0.00     0.261 C 
BRANCH  29  30
ATOM     30  O   UNL A   1      32.420  35.102  30.628  1.00  0.00    -0.460 OA
BRANCH  30  31
ATOM     31  C   UNL A   1      32.740  35.651  31.829  1.00  0.00     0.338 C 
ATOM     32  O   UNL A   1      32.099  36.460  32.470  1.00  0.00    -0.246 OA
BRANCH  31  33
ATOM     33  C   UNL A   1      33.919  34.948  32.374  1.00  0.00     0.060 A 
ATOM     34  C   UNL A   1      35.154  35.613  32.375  1.00  0.00     0.016 A 
ATOM     35  C   UNL A   1      33.816  33.646  32.864  1.00  0.00     0.016 A 
ATOM     36  C   UNL A   1      36.288  34.983  32.881  1.00  0.00     0.010 A 
ATOM     37  C   UNL A   1      34.964  33.000  33.337  1.00  0.00     0.010 A 
ATOM     38  C   UNL A   1      36.208  33.659  33.333  1.00  0.00    -0.014 A 
BRANCH  38  39
ATOM     39  C   UNL A   1      37.465  32.913  33.581  1.00  0.00     0.031 A 
ATOM     40  C   UNL A   1      38.204  33.183  34.861  1.00  0.00     0.074 A 
ATOM     41  C   UNL A   1      37.908  31.967  32.732  1.00  0.00     0.049 A 
ATOM     42  N   UNL A   1      39.313  32.654  35.309  1.00  0.00    -0.248 NA
ATOM     43  C   UNL A   1      37.604  34.180  35.763  1.00  0.00     0.031 C 
ATOM     44  C   UNL A   1      37.248  31.565  31.493  1.00  0.00     0.029 A 
ATOM     45  N   UNL A   1      39.023  31.166  32.796  1.00  0.00    -0.354 N 
ATOM     46  C   UNL A   1      39.535  33.245  36.545  1.00  0.00     0.074 A 
ATOM     47  C   UNL A   1      38.474  34.202  36.760  1.00  0.00     0.031 C 
ATOM     48  C   UNL A   1      37.972  30.593  30.911  1.00  0.00     0.029 A 
ATOM     49  C   UNL A   1      39.162  30.324  31.720  1.00  0.00     0.049 A 
ATOM     50  H   UNL A   1      39.662  31.193  33.545  1.00  0.00     0.167 HD
ATOM     51  C   UNL A   1      40.526  32.997  37.432  1.00  0.00     0.037 A 
ATOM     52  C   UNL A   1      40.146  29.451  31.419  1.00  0.00     0.037 A 
ATOM     53  C   UNL A   1      41.586  32.051  37.219  1.00  0.00     0.049 A 
ATOM     54  C   UNL A   1      41.311  29.287  32.367  1.00  0.00     0.074 A 
ATOM     55  C   UNL A   1      42.634  31.731  38.063  1.00  0.00     0.029 A 
ATOM     56  N   UNL A   1      41.737  31.278  36.078  1.00  0.00    -0.354 N 
ATOM     57  N   UNL A   1      41.502  29.829  33.545  1.00  0.00    -0.248 NA
ATOM     58  C   UNL A   1      42.401  28.395  31.940  1.00  0.00     0.031 C 
ATOM     59  C   UNL A   1      43.453  30.807  37.408  1.00  0.00     0.029 A 
ATOM     60  C   UNL A   1      42.886  30.511  36.179  1.00  0.00     0.049 A 
ATOM     61  H   UNL A   1      41.120  31.275  35.311  1.00  0.00     0.167 HD
ATOM     62  C   UNL A   1      42.716  29.333  34.006  1.00  0.00     0.074 A 
ATOM     63  C   UNL A   1      43.211  28.428  32.990  1.00  0.00     0.031 C 
ATOM     64  C   UNL A   1      43.365  29.608  35.163  1.00  0.00     0.037 A 
BRANCH  51  65
ATOM     65  C   UNL A   1      40.522  33.776  38.713  1.00  0.00     0.064 A 
ATOM     66  C   UNL A   1      39.767  33.360  39.820  1.00  0.00     0.173 A 
ATOM     67  C   UNL A   1      41.322  34.918  38.854  1.00  0.00     0.173 A 
ATOM     68  F   UNL A   1      38.973  32.282  39.729  1.00  0.00    -0.203 F 
ATOM     69  C   UNL A   1      39.802  34.069  41.017  1.00  0.00     0.198 A 
ATOM     70  C   UNL A   1      41.379  35.608  40.062  1.00  0.00     0.198 A 
ATOM     71  F   UNL A   1      42.064  35.356  37.826  1.00  0.00    -0.203 F 
ATOM     72  F   UNL A   1      39.042  33.676  42.049  1.00  0.00    -0.200 F 
ATOM     73  C   UNL A   1      40.615  35.186  41.140  1.00  0.00     0.200 A 
ATOM     74  F   UNL A   1      42.175  36.679  40.184  1.00  0.00    -0.200 F 
ATOM     75  F   UNL A   1      40.660  35.859  42.298  1.00  0.00    -0.200 F 
ENDBRANCH  51  65
BRANCH  52  76
ATOM     76  C   UNL A   1      40.086  28.666  30.156  1.00  0.00     0.064 A 
ATOM     77  C   UNL A   1      40.630  29.168  28.966  1.00  0.00     0.173 A 
ATOM     78  C   UNL A   1      39.468  27.407  30.107  1.00  0.00     0.173 A 
ATOM     79  F   UNL A   1      41.203  30.381  28.952  1.00  0.00    -0.203 F 
ATOM     80  C   UNL A   1      40.554  28.447  27.776  1.00  0.00     0.198 A 
ATOM     81  C   UNL A   1      39.418  26.672  28.922  1.00  0.00     0.198 A 
ATOM     82  F   UNL A   1      38.919  26.883  31.213  1.00  0.00    -0.203 F 
ATOM     83  F   UNL A   1      41.046  28.970  26.645  1.00  0.00    -0.200 F 
ATOM     84  C   UNL A   1      39.956  27.195  27.757  1.00  0.00     0.200 A 
ATOM     85  F   UNL A   1      38.845  25.461  28.912  1.00  0.00    -0.200 F 
ATOM     86  F   UNL A   1      39.889  26.499  26.614  1.00  0.00    -0.200 F 
ENDBRANCH  52  76
BRANCH  64  87
ATOM     87  C   UNL A   1      44.687  28.940  35.415  1.00  0.00     0.064 A 
ATOM     88  C   UNL A   1      45.895  29.577  35.097  1.00  0.00     0.173 A 
ATOM     89  C   UNL A   1      44.751  27.714  36.095  1.00  0.00     0.173 A 
ATOM     90  F   UNL A   1      45.889  30.746  34.439  1.00  0.00    -0.203 F 
ATOM     91  C   UNL A   1      47.118  29.013  35.453  1.00  0.00     0.198 A 
ATOM     92  C   UNL A   1      45.973  27.167  36.476  1.00  0.00     0.198 A 
ATOM     93  F   UNL A   1      43.624  27.069  36.433  1.00  0.00    -0.203 F 
ATOM     94  F   UNL A   1      48.261  29.631  35.124  1.00  0.00    -0.200 F 
ATOM     95  C   UNL A   1      47.155  27.817  36.154  1.00  0.00     0.200 A 
ATOM     96  F   UNL A   1      46.007  26.023  37.173  1.00  0.00    -0.200 F 
ATOM     97  F   UNL A   1      48.332  27.293  36.525  1.00  0.00    -0.200 F 
ENDBRANCH  64  87
ENDBRANCH  38  39
ENDBRANCH  31  33
ENDBRANCH  30  31
ENDBRANCH  29  30
ENDBRANCH  28  29
ENDBRANCH  27  28
ENDBRANCH   1  27
TORSDOF 18
ENDMDL
MODEL 3
REMARK VINA RESULT:     -11.2      8.792     15.742
REMARK SMILES Cc1c(Br)c(C)c2c(c1Br)O[C@H](C(F)(F)F)C(C(=O)OCCOCCOCCOC(=O)c1ccc(-c3c4nc(c(-c5c(F)c(F)c(F)c(F)c5F)c5ccc([nH]5)c(-c5c(F)c(F)c(F)c(F)c5F)c5nc(c(-c6c(F)c(F)c(F)c(F)c6F)c6ccc3[nH]6)C=C5)C=C4)cc1)=C2
REMARK SMILES IDX 25 1 24 2 23 3 22 4 21 5 20 6 18 7 19 8 17 9 1 10 2 11 3 12
REMARK SMILES IDX 9 13 4 14 5 15 8 16 10 17 6 18 7 19 11 20 95 21 12 22 13 23
REMARK SMILES IDX 14 24 15 25 16 26 26 27 27 28 28 29 29 30 30 31 31 32 32 33
REMARK SMILES IDX 33 34 94 35 34 36 93 37 35 38 36 39 37 40 87 41 38 42 92 43
REMARK SMILES IDX 86 44 88 45 39 46 91 47 85 48 84 49 40 51 72 52 52 53 71 54
REMARK SMILES IDX 53 55 56 56 70 57 89 58 54 59 55 60 69 62 90 63 57 64 41 65
REMARK SMILES IDX 42 66 50 67 43 68 44 69 48 70 51 71 45 72 46 73 49 74 47 75
REMARK SMILES IDX 73 76 74 77 82 78 75 79 76 80 80 81 83 82 77 83 78 84 81 85
REMARK SMILES IDX 79 86 58 87 59 88 67 89 60 90 61 91 65 92 68 93 62 94 63 95
REMARK SMILES IDX 66 96 64 97
REMARK H PARENT 88 50 56 61
REMARK Flexibility Score: inf
ROOT
ATOM      1  C   UNL A   1      35.437  33.751  28.785  1.00  0.00     0.188 C 
ENDROOT
BRANCH   1   2
ATOM      2  C   UNL A   1      34.523  32.538  29.061  1.00  0.00     0.188 C 
BRANCH   2   3
ATOM      3  O   UNL A   1      33.894  31.871  27.992  1.00  0.00    -0.376 OA
BRANCH   3   4
ATOM      4  C   UNL A   1      34.202  30.522  27.685  1.00  0.00     0.202 C 
BRANCH   4   5
ATOM      5  C   UNL A   1      33.323  29.607  26.816  1.00  0.00     0.261 C 
BRANCH   5   6
ATOM      6  O   UNL A   1      33.694  28.227  26.762  1.00  0.00    -0.460 OA
BRANCH   6   7
ATOM      7  C   UNL A   1      33.779  27.701  25.517  1.00  0.00     0.338 C 
ATOM      8  O   UNL A   1      34.032  28.301  24.485  1.00  0.00    -0.246 OA
BRANCH   7   9
ATOM      9  C   UNL A   1      33.683  26.229  25.593  1.00  0.00     0.087 C 
ATOM     10  C   UNL A   1      34.508  19.808  24.818  1.00  0.00     0.047 C 
ATOM     11  C   UNL A   1      34.608  21.277  25.162  1.00  0.00    -0.019 A 
ATOM     12  C   UNL A   1      35.873  21.918  25.224  1.00  0.00     0.025 A 
ATOM     13  C   UNL A   1      33.455  22.067  25.340  1.00  0.00     0.064 A 
ATOM     14  Br  UNL A   1      37.456  20.872  24.928  1.00  0.00    -0.050 Br
ATOM     15  C   UNL A   1      35.988  23.313  25.454  1.00  0.00    -0.026 A 
ATOM     16  C   UNL A   1      33.551  23.457  25.541  1.00  0.00     0.142 A 
ATOM     17  Br  UNL A   1      31.699  21.300  25.247  1.00  0.00    -0.046 Br
ATOM     18  C   UNL A   1      37.330  24.005  25.578  1.00  0.00     0.046 C 
ATOM     19  C   UNL A   1      34.803  24.086  25.556  1.00  0.00     0.022 A 
ATOM     20  O   UNL A   1      32.375  24.137  25.731  1.00  0.00    -0.474 OA
ATOM     21  C   UNL A   1      34.836  25.549  25.596  1.00  0.00     0.027 C 
ATOM     22  C   UNL A   1      32.336  25.580  25.660  1.00  0.00     0.316 C 
BRANCH  22  23
ATOM     23  C   UNL A   1      31.426  25.996  24.497  1.00  0.00     0.430 C 
ATOM     24  F   UNL A   1      32.132  26.164  23.354  1.00  0.00    -0.167 F 
ATOM     25  F   UNL A   1      30.485  25.058  24.239  1.00  0.00    -0.167 F 
ATOM     26  F   UNL A   1      30.781  27.156  24.754  1.00  0.00    -0.167 F 
ENDBRANCH  22  23
ENDBRANCH   7   9
ENDBRANCH   6   7
ENDBRANCH   5   6
ENDBRANCH   4   5
ENDBRANCH   3   4
ENDBRANCH   2   3
ENDBRANCH   1   2
BRANCH   1  27
ATOM     27  O   UNL A   1      34.871  35.015  28.530  1.00  0.00    -0.376 OA
BRANCH  27  28
ATOM     28  C   UNL A   1      33.478  35.210  28.723  1.00  0.00     0.202 C 
BRANCH  28  29
ATOM     29  C   UNL A   1      32.872  36.026  29.883  1.00  0.00     0.261 C 
BRANCH  29  30
ATOM     30  O   UNL A   1      32.385  35.286  31.011  1.00  0.00    -0.460 OA
BRANCH  30  31
ATOM     31  C   UNL A   1      32.928  35.622  32.211  1.00  0.00     0.338 C 
ATOM     32  O   UNL A   1      32.422  36.283  33.096  1.00  0.00    -0.246 OA
BRANCH  31  33
ATOM     33  C   UNL A   1      34.186  34.869  32.390  1.00  0.00     0.060 A 
ATOM     34  C   UNL A   1      34.119  33.568  32.910  1.00  0.00     0.016 A 
ATOM     35  C   UNL A   1      35.417  35.438  32.064  1.00  0.00     0.016 A 
ATOM     36  C   UNL A   1      35.283  32.826  33.093  1.00  0.00     0.010 A 
ATOM     37  C   UNL A   1      36.589  34.706  32.284  1.00  0.00     0.010 A 
ATOM     38  C   UNL A   1      36.529  33.403  32.813  1.00  0.00    -0.014 A 
BRANCH  38  39
ATOM     39  C   UNL A   1      37.755  32.720  33.293  1.00  0.00     0.031 A 
ATOM     40  C   UNL A   1      38.355  31.654  32.419  1.00  0.00     0.074 A 
ATOM     41  C   UNL A   1      38.366  33.078  34.437  1.00  0.00     0.049 A 
ATOM     42  N   UNL A   1      39.423  30.925  32.611  1.00  0.00    -0.248 NA
ATOM     43  C   UNL A   1      37.659  31.382  31.151  1.00  0.00     0.031 C 
ATOM     44  C   UNL A   1      37.923  34.139  35.337  1.00  0.00     0.029 A 
ATOM     45  N   UNL A   1      39.503  32.585  35.030  1.00  0.00    -0.354 N 
ATOM     46  C   UNL A   1      39.530  30.118  31.487  1.00  0.00     0.074 A 
ATOM     47  C   UNL A   1      38.400  30.414  30.637  1.00  0.00     0.031 C 
ATOM     48  C   UNL A   1      38.779  34.217  36.371  1.00  0.00     0.029 A 
ATOM     49  C   UNL A   1      39.813  33.193  36.222  1.00  0.00     0.049 A 
ATOM     50  H   UNL A   1      40.047  31.865  34.636  1.00  0.00     0.167 HD
ATOM     51  C   UNL A   1      40.498  29.223  31.181  1.00  0.00     0.037 A 
ATOM     52  C   UNL A   1      40.809  32.936  37.097  1.00  0.00     0.037 A 
ATOM     53  C   UNL A   1      41.620  28.922  32.027  1.00  0.00     0.049 A 
ATOM     54  C   UNL A   1      41.804  31.842  36.792  1.00  0.00     0.074 A 
ATOM     55  C   UNL A   1      42.653  28.031  31.799  1.00  0.00     0.029 A 
ATOM     56  N   UNL A   1      41.852  29.500  33.266  1.00  0.00    -0.354 N 
ATOM     57  N   UNL A   1      41.916  31.100  35.716  1.00  0.00    -0.248 NA
ATOM     58  C   UNL A   1      42.807  31.541  37.826  1.00  0.00     0.031 C 
ATOM     59  C   UNL A   1      43.478  28.025  32.926  1.00  0.00     0.029 A 
ATOM     60  C   UNL A   1      42.991  28.952  33.833  1.00  0.00     0.049 A 
ATOM     61  H   UNL A   1      41.292  30.195  33.681  1.00  0.00     0.167 HD
ATOM     62  C   UNL A   1      43.005  30.265  35.934  1.00  0.00     0.074 A 
ATOM     63  C   UNL A   1      43.537  30.603  37.238  1.00  0.00     0.031 C 
ATOM     64  C   UNL A   1      43.515  29.301  35.129  1.00  0.00     0.037 A 
BRANCH  51  65
ATOM     65  C   UNL A   1      40.378  28.489  29.880  1.00  0.00     0.064 A 
ATOM     66  C   UNL A   1      41.017  28.949  28.719  1.00  0.00     0.173 A 
ATOM     67  C   UNL A   1      39.662  27.286  29.805  1.00  0.00     0.173 A 
ATOM     68  F   UNL A   1      41.700  30.103  28.736  1.00  0.00    -0.203 F 
ATOM     69  C   UNL A   1      40.931  28.237  27.525  1.00  0.00     0.198 A 
ATOM     70  C   UNL A   1      39.603  26.561  28.618  1.00  0.00     0.198 A 
ATOM     71  F   UNL A   1      39.035  26.803  30.888  1.00  0.00    -0.203 F 
ATOM     72  F   UNL A   1      41.517  28.715  26.418  1.00  0.00    -0.200 F 
ATOM     73  C   UNL A   1      40.233  27.040  27.479  1.00  0.00     0.200 A 
ATOM     74  F   UNL A   1      38.940  25.397  28.578  1.00  0.00    -0.200 F 
ATOM     75  F   UNL A   1      40.164  26.347  26.334  1.00  0.00    -0.200 F 
ENDBRANCH  51  65
BRANCH  52  76
ATOM     76  C   UNL A   1      40.915  33.722  38.357  1.00  0.00     0.064 A 
ATOM     77  C   UNL A   1      40.137  33.400  39.477  1.00  0.00     0.173 A 
ATOM     78  C   UNL A   1      41.782  34.820  38.463  1.00  0.00     0.173 A 
ATOM     79  F   UNL A   1      39.269  32.380  39.417  1.00  0.00    -0.203 F 
ATOM     80  C   UNL A   1      40.216  34.148  40.650  1.00  0.00     0.198 A 
ATOM     81  C   UNL A   1      41.882  35.551  39.646  1.00  0.00     0.198 A 
ATOM     82  F   UNL A   1      42.542  35.181  37.417  1.00  0.00    -0.203 F 
ATOM     83  F   UNL A   1      39.429  33.843  41.691  1.00  0.00    -0.200 F 
ATOM     84  C   UNL A   1      41.095  35.218  40.737  1.00  0.00     0.200 A 
ATOM     85  F   UNL A   1      42.739  36.578  39.726  1.00  0.00    -0.200 F 
ATOM     86  F   UNL A   1      41.175  35.932  41.868  1.00  0.00    -0.200 F 
ENDBRANCH  52  76
BRANCH  64  87
ATOM     87  C   UNL A   1      44.704  28.522  35.615  1.00  0.00     0.064 A 
ATOM     88  C   UNL A   1      44.548  27.320  36.320  1.00  0.00     0.173 A 
ATOM     89  C   UNL A   1      46.006  28.911  35.262  1.00  0.00     0.173 A 
ATOM     90  F   UNL A   1      43.325  26.910  36.690  1.00  0.00    -0.203 F 
ATOM     91  C   UNL A   1      45.649  26.536  36.652  1.00  0.00     0.198 A 
ATOM     92  C   UNL A   1      47.102  28.110  35.569  1.00  0.00     0.198 A 
ATOM     93  F   UNL A   1      46.210  30.046  34.577  1.00  0.00    -0.203 F 
ATOM     94  F   UNL A   1      45.477  25.400  37.342  1.00  0.00    -0.200 F 
ATOM     95  C   UNL A   1      46.923  26.923  36.264  1.00  0.00     0.200 A 
ATOM     96  F   UNL A   1      48.330  28.475  35.173  1.00  0.00    -0.200 F 
ATOM     97  F   UNL A   1      47.978  26.150  36.555  1.00  0.00    -0.200 F 
ENDBRANCH  64  87
ENDBRANCH  38  39
ENDBRANCH  31  33
ENDBRANCH  30  31
ENDBRANCH  29  30
ENDBRANCH  28  29
ENDBRANCH  27  28
ENDBRANCH   1  27
TORSDOF 18
ENDMDL
