MODEL 1
REMARK VINA RESULT:     -11.6      0.000      0.000
REMARK SMILES Cc1ccc(-c2c[nH]c(=O)cc2C(=O)OCCOCCOCCOC(=O)c2ccc(-c3c4nc(c(-c5c(F)c(F)c(F)c(F)c5F)c5ccc([nH]5)c(-c5c(F)c(F)c(F)c(F)c5F)c5nc(c(-c6c(F)c(F)c(F)c(F)c6F)c6ccc3[nH]6)C=C5)C=C4)cc2)cc1Cl
REMARK SMILES IDX 20 1 19 2 18 3 17 4 16 5 15 6 13 7 14 8 12 9 6 10 7 11 8 12
REMARK SMILES IDX 11 13 9 14 10 16 5 17 1 18 2 19 3 20 91 21 4 22 90 23 92 24
REMARK SMILES IDX 21 25 22 26 23 27 24 28 25 29 26 30 27 31 28 32 89 33 29 34
REMARK SMILES IDX 88 35 30 36 31 37 32 38 82 39 33 40 87 41 81 42 83 43 34 44
REMARK SMILES IDX 86 45 80 46 79 47 35 49 67 50 47 51 66 52 48 53 51 54 65 55
REMARK SMILES IDX 84 56 49 57 50 58 64 60 85 61 52 62 36 63 37 64 45 65 38 66
REMARK SMILES IDX 39 67 43 68 46 69 40 70 41 71 44 72 42 73 68 74 69 75 77 76
REMARK SMILES IDX 70 77 71 78 75 79 78 80 72 81 73 82 76 83 74 84 53 85 54 86
REMARK SMILES IDX 62 87 55 88 56 89 60 90 63 91 57 92 58 93 61 94 59 95
REMARK H PARENT 8 15 83 48 51 59
REMARK Flexibility Score: inf
ROOT
ATOM      1  C   UNL A   1      40.389  20.635  26.559  1.00  0.00     0.188 C 
ENDROOT
BRANCH   1   2
ATOM      2  C   UNL A   1      39.205  21.481  26.047  1.00  0.00     0.188 C 
BRANCH   2   3
ATOM      3  O   UNL A   1      38.241  20.720  25.348  1.00  0.00    -0.376 OA
BRANCH   3   4
ATOM      4  C   UNL A   1      37.062  21.407  24.969  1.00  0.00     0.202 C 
BRANCH   4   5
ATOM      5  C   UNL A   1      36.826  22.796  25.586  1.00  0.00     0.261 C 
BRANCH   5   6
ATOM      6  O   UNL A   1      35.454  23.180  25.791  1.00  0.00    -0.460 OA
BRANCH   6   7
ATOM      7  C   UNL A   1      34.799  23.842  24.802  1.00  0.00     0.339 C 
ATOM      8  O   UNL A   1      35.241  24.069  23.689  1.00  0.00    -0.246 OA
BRANCH   7   9
ATOM      9  C   UNL A   1      33.411  24.179  25.256  1.00  0.00     0.074 A 
ATOM     10  C   UNL A   1      32.267  23.298  24.963  1.00  0.00     0.013 A 
ATOM     11  C   UNL A   1      31.046  23.676  25.383  1.00  0.00     0.095 A 
ATOM     12  N   UNL A   1      30.875  24.837  26.095  1.00  0.00    -0.328 N 
ATOM     13  C   UNL A   1      33.245  25.300  25.980  1.00  0.00     0.087 A 
ATOM     14  C   UNL A   1      31.896  25.677  26.458  1.00  0.00     0.248 A 
ATOM     15  H   UNL A   1      29.959  25.083  26.361  1.00  0.00     0.169 HD
ATOM     16  O   UNL A   1      31.719  26.682  27.135  1.00  0.00    -0.270 OA
BRANCH  10  17
ATOM     17  C   UNL A   1      32.407  21.949  24.388  1.00  0.00    -0.015 A 
ATOM     18  C   UNL A   1      32.189  18.056  22.521  1.00  0.00     0.046 C 
ATOM     19  C   UNL A   1      32.303  19.396  23.194  1.00  0.00    -0.032 A 
ATOM     20  C   UNL A   1      32.147  20.552  22.422  1.00  0.00     0.005 A 
ATOM     21  C   UNL A   1      32.567  19.540  24.567  1.00  0.00     0.044 A 
ATOM     22  C   UNL A   1      32.268  21.809  23.006  1.00  0.00     0.009 A 
ATOM     23  C   UNL A   1      32.595  20.807  25.167  1.00  0.00     0.029 A 
ATOM     24  Cl  UNL A   1      32.886  18.165  25.562  1.00  0.00    -0.084 Cl
ENDBRANCH  10  17
ENDBRANCH   7   9
ENDBRANCH   6   7
ENDBRANCH   5   6
ENDBRANCH   4   5
ENDBRANCH   3   4
ENDBRANCH   2   3
ENDBRANCH   1   2
BRANCH   1  25
ATOM     25  O   UNL A   1      41.185  19.874  25.665  1.00  0.00    -0.376 OA
BRANCH  25  26
ATOM     26  C   UNL A   1      42.594  19.888  25.802  1.00  0.00     0.202 C 
BRANCH  26  27
ATOM     27  C   UNL A   1      43.316  21.245  25.814  1.00  0.00     0.261 C 
BRANCH  27  28
ATOM     28  O   UNL A   1      42.738  22.285  25.006  1.00  0.00    -0.460 OA
BRANCH  28  29
ATOM     29  C   UNL A   1      43.441  23.442  24.955  1.00  0.00     0.338 C 
ATOM     30  O   UNL A   1      44.407  23.684  24.245  1.00  0.00    -0.246 OA
BRANCH  29  31
ATOM     31  C   UNL A   1      42.794  24.479  25.794  1.00  0.00     0.060 A 
ATOM     32  C   UNL A   1      43.402  25.740  25.875  1.00  0.00     0.016 A 
ATOM     33  C   UNL A   1      41.656  24.207  26.556  1.00  0.00     0.016 A 
ATOM     34  C   UNL A   1      42.902  26.718  26.741  1.00  0.00     0.010 A 
ATOM     35  C   UNL A   1      41.166  25.183  27.438  1.00  0.00     0.010 A 
ATOM     36  C   UNL A   1      41.806  26.434  27.564  1.00  0.00    -0.014 A 
BRANCH  36  37
ATOM     37  C   UNL A   1      41.448  27.351  28.683  1.00  0.00     0.031 A 
ATOM     38  C   UNL A   1      42.230  27.275  29.959  1.00  0.00     0.074 A 
ATOM     39  C   UNL A   1      40.476  28.276  28.584  1.00  0.00     0.049 A 
ATOM     40  N   UNL A   1      42.088  27.973  31.057  1.00  0.00    -0.248 NA
ATOM     41  C   UNL A   1      43.345  26.317  29.987  1.00  0.00     0.031 C 
ATOM     42  C   UNL A   1      39.747  28.579  27.368  1.00  0.00     0.029 A 
ATOM     43  N   UNL A   1      39.922  29.121  29.515  1.00  0.00    -0.354 N 
ATOM     44  C   UNL A   1      43.123  27.577  31.887  1.00  0.00     0.074 A 
ATOM     45  C   UNL A   1      43.841  26.524  31.198  1.00  0.00     0.031 C 
ATOM     46  C   UNL A   1      38.771  29.462  27.634  1.00  0.00     0.029 A 
ATOM     47  C   UNL A   1      38.820  29.800  29.048  1.00  0.00     0.049 A 
ATOM     48  H   UNL A   1      40.279  29.231  30.426  1.00  0.00     0.167 HD
ATOM     49  C   UNL A   1      43.467  28.076  33.098  1.00  0.00     0.037 A 
ATOM     50  C   UNL A   1      37.942  30.598  29.683  1.00  0.00     0.037 A 
ATOM     51  C   UNL A   1      42.730  29.096  33.798  1.00  0.00     0.049 A 
ATOM     52  C   UNL A   1      38.216  30.983  31.109  1.00  0.00     0.074 A 
ATOM     53  C   UNL A   1      43.001  29.659  35.032  1.00  0.00     0.029 A 
ATOM     54  N   UNL A   1      41.562  29.688  33.338  1.00  0.00    -0.354 N 
ATOM     55  N   UNL A   1      39.220  30.634  31.874  1.00  0.00    -0.248 NA
ATOM     56  C   UNL A   1      37.273  31.915  31.741  1.00  0.00     0.031 C 
ATOM     57  C   UNL A   1      41.960  30.539  35.351  1.00  0.00     0.029 A 
ATOM     58  C   UNL A   1      41.077  30.580  34.285  1.00  0.00     0.049 A 
ATOM     59  H   UNL A   1      41.139  29.502  32.469  1.00  0.00     0.167 HD
ATOM     60  C   UNL A   1      39.071  31.354  33.050  1.00  0.00     0.074 A 
ATOM     61  C   UNL A   1      37.867  32.148  32.902  1.00  0.00     0.031 C 
ATOM     62  C   UNL A   1      39.880  31.373  34.138  1.00  0.00     0.037 A 
BRANCH  49  63
ATOM     63  C   UNL A   1      44.687  27.491  33.745  1.00  0.00     0.064 A 
ATOM     64  C   UNL A   1      45.970  28.006  33.496  1.00  0.00     0.173 A 
ATOM     65  C   UNL A   1      44.574  26.399  34.616  1.00  0.00     0.173 A 
ATOM     66  F   UNL A   1      46.133  29.038  32.655  1.00  0.00    -0.203 F 
ATOM     67  C   UNL A   1      47.097  27.424  34.068  1.00  0.00     0.198 A 
ATOM     68  C   UNL A   1      45.701  25.841  35.213  1.00  0.00     0.198 A 
ATOM     69  F   UNL A   1      43.371  25.870  34.886  1.00  0.00    -0.203 F 
ATOM     70  F   UNL A   1      48.317  27.891  33.768  1.00  0.00    -0.200 F 
ATOM     71  C   UNL A   1      46.961  26.346  34.930  1.00  0.00     0.200 A 
ATOM     72  F   UNL A   1      45.567  24.805  36.053  1.00  0.00    -0.200 F 
ATOM     73  F   UNL A   1      48.047  25.784  35.479  1.00  0.00    -0.200 F 
ENDBRANCH  49  63
BRANCH  50  74
ATOM     74  C   UNL A   1      36.737  31.100  28.971  1.00  0.00     0.064 A 
ATOM     75  C   UNL A   1      36.611  32.445  28.600  1.00  0.00     0.173 A 
ATOM     76  C   UNL A   1      35.669  30.239  28.670  1.00  0.00     0.173 A 
ATOM     77  F   UNL A   1      37.594  33.312  28.884  1.00  0.00    -0.203 F 
ATOM     78  C   UNL A   1      35.453  32.916  27.982  1.00  0.00     0.198 A 
ATOM     79  C   UNL A   1      34.521  30.707  28.032  1.00  0.00     0.198 A 
ATOM     80  F   UNL A   1      35.738  28.942  29.004  1.00  0.00    -0.203 F 
ATOM     81  F   UNL A   1      35.338  34.219  27.686  1.00  0.00    -0.200 F 
ATOM     82  C   UNL A   1      34.411  32.047  27.697  1.00  0.00     0.200 A 
ATOM     83  F   UNL A   1      33.518  29.862  27.758  1.00  0.00    -0.200 F 
ATOM     84  F   UNL A   1      33.294  32.504  27.114  1.00  0.00    -0.200 F 
ENDBRANCH  50  74
BRANCH  62  85
ATOM     85  C   UNL A   1      39.526  32.331  35.240  1.00  0.00     0.064 A 
ATOM     86  C   UNL A   1      40.001  33.650  35.263  1.00  0.00     0.173 A 
ATOM     87  C   UNL A   1      38.680  31.922  36.283  1.00  0.00     0.173 A 
ATOM     88  F   UNL A   1      40.828  34.087  34.300  1.00  0.00    -0.203 F 
ATOM     89  C   UNL A   1      39.673  34.512  36.308  1.00  0.00     0.198 A 
ATOM     90  C   UNL A   1      38.322  32.798  37.305  1.00  0.00     0.198 A 
ATOM     91  F   UNL A   1      38.192  30.673  36.309  1.00  0.00    -0.203 F 
ATOM     92  F   UNL A   1      40.191  35.747  36.342  1.00  0.00    -0.200 F 
ATOM     93  C   UNL A   1      38.828  34.088  37.321  1.00  0.00     0.200 A 
ATOM     94  F   UNL A   1      37.493  32.390  38.274  1.00  0.00    -0.200 F 
ATOM     95  F   UNL A   1      38.509  34.920  38.322  1.00  0.00    -0.200 F 
ENDBRANCH  62  85
ENDBRANCH  36  37
ENDBRANCH  29  31
ENDBRANCH  28  29
ENDBRANCH  27  28
ENDBRANCH  26  27
ENDBRANCH  25  26
ENDBRANCH   1  25
TORSDOF 18
ENDMDL
MODEL 2
REMARK VINA RESULT:     -11.6      1.593      2.887
REMARK SMILES Cc1ccc(-c2c[nH]c(=O)cc2C(=O)OCCOCCOCCOC(=O)c2ccc(-c3c4nc(c(-c5c(F)c(F)c(F)c(F)c5F)c5ccc([nH]5)c(-c5c(F)c(F)c(F)c(F)c5F)c5nc(c(-c6c(F)c(F)c(F)c(F)c6F)c6ccc3[nH]6)C=C5)C=C4)cc2)cc1Cl
REMARK SMILES IDX 20 1 19 2 18 3 17 4 16 5 15 6 13 7 14 8 12 9 6 10 7 11 8 12
REMARK SMILES IDX 11 13 9 14 10 16 5 17 1 18 2 19 3 20 91 21 4 22 90 23 92 24
REMARK SMILES IDX 21 25 22 26 23 27 24 28 25 29 26 30 27 31 28 32 89 33 29 34
REMARK SMILES IDX 88 35 30 36 31 37 32 38 82 39 33 40 87 41 81 42 83 43 34 44
REMARK SMILES IDX 86 45 80 46 79 47 35 49 67 50 47 51 66 52 48 53 51 54 65 55
REMARK SMILES IDX 84 56 49 57 50 58 64 60 85 61 52 62 36 63 37 64 45 65 38 66
REMARK SMILES IDX 39 67 43 68 46 69 40 70 41 71 44 72 42 73 68 74 69 75 77 76
REMARK SMILES IDX 70 77 71 78 75 79 78 80 72 81 73 82 76 83 74 84 53 85 54 86
REMARK SMILES IDX 62 87 55 88 56 89 60 90 63 91 57 92 58 93 61 94 59 95
REMARK H PARENT 8 15 83 48 51 59
REMARK Flexibility Score: inf
ROOT
ATOM      1  C   UNL A   1      40.340  19.874  26.108  1.00  0.00     0.188 C 
ENDROOT
BRANCH   1   2
ATOM      2  C   UNL A   1      39.780  21.309  26.038  1.00  0.00     0.188 C 
BRANCH   2   3
ATOM      3  O   UNL A   1      38.396  21.351  25.755  1.00  0.00    -0.376 OA
BRANCH   3   4
ATOM      4  C   UNL A   1      37.850  22.635  25.513  1.00  0.00     0.202 C 
BRANCH   4   5
ATOM      5  C   UNL A   1      36.960  22.801  24.269  1.00  0.00     0.261 C 
BRANCH   5   6
ATOM      6  O   UNL A   1      35.715  23.496  24.461  1.00  0.00    -0.460 OA
BRANCH   6   7
ATOM      7  C   UNL A   1      34.682  23.246  23.616  1.00  0.00     0.339 C 
ATOM      8  O   UNL A   1      34.696  23.422  22.409  1.00  0.00    -0.246 OA
BRANCH   7   9
ATOM      9  C   UNL A   1      33.543  22.638  24.377  1.00  0.00     0.074 A 
ATOM     10  C   UNL A   1      32.569  23.470  25.104  1.00  0.00     0.013 A 
ATOM     11  C   UNL A   1      31.585  22.853  25.784  1.00  0.00     0.095 A 
ATOM     12  N   UNL A   1      31.472  21.485  25.773  1.00  0.00    -0.328 N 
ATOM     13  C   UNL A   1      33.412  21.300  24.342  1.00  0.00     0.087 A 
ATOM     14  C   UNL A   1      32.301  20.649  25.071  1.00  0.00     0.248 A 
ATOM     15  H   UNL A   1      30.748  21.079  26.304  1.00  0.00     0.169 HD
ATOM     16  O   UNL A   1      32.146  19.434  25.041  1.00  0.00    -0.270 OA
BRANCH  10  17
ATOM     17  C   UNL A   1      32.510  24.937  24.993  1.00  0.00    -0.015 A 
ATOM     18  C   UNL A   1      31.860  29.209  25.115  1.00  0.00     0.046 C 
ATOM     19  C   UNL A   1      32.107  27.729  25.031  1.00  0.00    -0.032 A 
ATOM     20  C   UNL A   1      32.577  27.059  26.166  1.00  0.00     0.005 A 
ATOM     21  C   UNL A   1      31.894  26.986  23.858  1.00  0.00     0.044 A 
ATOM     22  C   UNL A   1      32.839  25.693  26.119  1.00  0.00     0.009 A 
ATOM     23  C   UNL A   1      32.070  25.594  23.843  1.00  0.00     0.029 A 
ATOM     24  Cl  UNL A   1      31.425  27.759  22.386  1.00  0.00    -0.084 Cl
ENDBRANCH  10  17
ENDBRANCH   7   9
ENDBRANCH   6   7
ENDBRANCH   5   6
ENDBRANCH   4   5
ENDBRANCH   3   4
ENDBRANCH   2   3
ENDBRANCH   1   2
BRANCH   1  25
ATOM     25  O   UNL A   1      41.502  19.506  25.382  1.00  0.00    -0.376 OA
BRANCH  25  26
ATOM     26  C   UNL A   1      42.774  19.626  25.994  1.00  0.00     0.202 C 
BRANCH  26  27
ATOM     27  C   UNL A   1      43.574  20.919  25.770  1.00  0.00     0.261 C 
BRANCH  27  28
ATOM     28  O   UNL A   1      43.058  22.108  26.396  1.00  0.00    -0.460 OA
BRANCH  28  29
ATOM     29  C   UNL A   1      42.994  23.203  25.602  1.00  0.00     0.338 C 
ATOM     30  O   UNL A   1      43.245  23.259  24.406  1.00  0.00    -0.246 OA
BRANCH  29  31
ATOM     31  C   UNL A   1      42.424  24.351  26.347  1.00  0.00     0.060 A 
ATOM     32  C   UNL A   1      43.090  25.583  26.275  1.00  0.00     0.016 A 
ATOM     33  C   UNL A   1      41.303  24.215  27.167  1.00  0.00     0.016 A 
ATOM     34  C   UNL A   1      42.665  26.669  27.049  1.00  0.00     0.010 A 
ATOM     35  C   UNL A   1      40.889  25.299  27.958  1.00  0.00     0.010 A 
ATOM     36  C   UNL A   1      41.588  26.524  27.931  1.00  0.00    -0.014 A 
BRANCH  36  37
ATOM     37  C   UNL A   1      41.312  27.569  28.957  1.00  0.00     0.031 A 
ATOM     38  C   UNL A   1      42.157  27.609  30.194  1.00  0.00     0.074 A 
ATOM     39  C   UNL A   1      40.359  28.506  28.804  1.00  0.00     0.049 A 
ATOM     40  N   UNL A   1      42.089  28.427  31.213  1.00  0.00    -0.248 NA
ATOM     41  C   UNL A   1      43.247  26.627  30.273  1.00  0.00     0.031 C 
ATOM     42  C   UNL A   1      39.575  28.697  27.599  1.00  0.00     0.029 A 
ATOM     43  N   UNL A   1      39.875  29.464  29.662  1.00  0.00    -0.354 N 
ATOM     44  C   UNL A   1      43.156  28.093  32.031  1.00  0.00     0.074 A 
ATOM     45  C   UNL A   1      43.811  26.949  31.428  1.00  0.00     0.031 C 
ATOM     46  C   UNL A   1      38.636  29.633  27.814  1.00  0.00     0.029 A 
ATOM     47  C   UNL A   1      38.767  30.121  29.178  1.00  0.00     0.049 A 
ATOM     48  H   UNL A   1      40.281  29.662  30.537  1.00  0.00     0.167 HD
ATOM     49  C   UNL A   1      43.575  28.710  33.161  1.00  0.00     0.037 A 
ATOM     50  C   UNL A   1      37.943  31.010  29.763  1.00  0.00     0.037 A 
ATOM     51  C   UNL A   1      42.901  29.822  33.779  1.00  0.00     0.049 A 
ATOM     52  C   UNL A   1      38.301  31.540  31.122  1.00  0.00     0.074 A 
ATOM     53  C   UNL A   1      43.249  30.509  34.928  1.00  0.00     0.029 A 
ATOM     54  N   UNL A   1      41.725  30.396  33.314  1.00  0.00    -0.354 N 
ATOM     55  N   UNL A   1      39.334  31.246  31.871  1.00  0.00    -0.248 NA
ATOM     56  C   UNL A   1      37.415  32.563  31.692  1.00  0.00     0.031 C 
ATOM     57  C   UNL A   1      42.248  31.449  35.198  1.00  0.00     0.029 A 
ATOM     58  C   UNL A   1      41.312  31.401  34.179  1.00  0.00     0.049 A 
ATOM     59  H   UNL A   1      41.253  30.129  32.493  1.00  0.00     0.167 HD
ATOM     60  C   UNL A   1      39.264  32.095  32.966  1.00  0.00     0.074 A 
ATOM     61  C   UNL A   1      38.074  32.904  32.790  1.00  0.00     0.031 C 
ATOM     62  C   UNL A   1      40.129  32.208  34.004  1.00  0.00     0.037 A 
BRANCH  49  63
ATOM     63  C   UNL A   1      44.812  28.163  33.808  1.00  0.00     0.064 A 
ATOM     64  C   UNL A   1      44.760  27.073  34.691  1.00  0.00     0.173 A 
ATOM     65  C   UNL A   1      46.063  28.740  33.548  1.00  0.00     0.173 A 
ATOM     66  F   UNL A   1      43.584  26.498  34.987  1.00  0.00    -0.203 F 
ATOM     67  C   UNL A   1      45.911  26.605  35.319  1.00  0.00     0.198 A 
ATOM     68  C   UNL A   1      47.216  28.248  34.152  1.00  0.00     0.198 A 
ATOM     69  F   UNL A   1      46.166  29.784  32.712  1.00  0.00    -0.203 F 
ATOM     70  F   UNL A   1      45.830  25.604  36.207  1.00  0.00    -0.200 F 
ATOM     71  C   UNL A   1      47.138  27.190  35.045  1.00  0.00     0.200 A 
ATOM     72  F   UNL A   1      48.403  28.807  33.878  1.00  0.00    -0.200 F 
ATOM     73  F   UNL A   1      48.246  26.741  35.651  1.00  0.00    -0.200 F 
ENDBRANCH  49  63
BRANCH  50  74
ATOM     74  C   UNL A   1      36.716  31.467  29.059  1.00  0.00     0.064 A 
ATOM     75  C   UNL A   1      36.575  32.787  28.611  1.00  0.00     0.173 A 
ATOM     76  C   UNL A   1      35.641  30.589  28.845  1.00  0.00     0.173 A 
ATOM     77  F   UNL A   1      37.564  33.670  28.812  1.00  0.00    -0.203 F 
ATOM     78  C   UNL A   1      35.397  33.220  28.003  1.00  0.00     0.198 A 
ATOM     79  C   UNL A   1      34.473  31.017  28.215  1.00  0.00     0.198 A 
ATOM     80  F   UNL A   1      35.723  29.315  29.254  1.00  0.00    -0.203 F 
ATOM     81  F   UNL A   1      35.270  34.502  27.632  1.00  0.00    -0.200 F 
ATOM     82  C   UNL A   1      34.349  32.334  27.803  1.00  0.00     0.200 A 
ATOM     83  F   UNL A   1      33.464  30.156  28.024  1.00  0.00    -0.200 F 
ATOM     84  F   UNL A   1      33.213  32.755  27.229  1.00  0.00    -0.200 F 
ENDBRANCH  50  74
BRANCH  62  85
ATOM     85  C   UNL A   1      39.857  33.291  35.009  1.00  0.00     0.064 A 
ATOM     86  C   UNL A   1      40.301  34.609  34.826  1.00  0.00     0.173 A 
ATOM     87  C   UNL A   1      39.121  33.005  36.170  1.00  0.00     0.173 A 
ATOM     88  F   UNL A   1      41.024  34.932  33.743  1.00  0.00    -0.203 F 
ATOM     89  C   UNL A   1      40.051  35.589  35.784  1.00  0.00     0.198 A 
ATOM     90  C   UNL A   1      38.839  33.996  37.107  1.00  0.00     0.198 A 
ATOM     91  F   UNL A   1      38.667  31.762  36.395  1.00  0.00    -0.203 F 
ATOM     92  F   UNL A   1      40.542  36.825  35.617  1.00  0.00    -0.200 F 
ATOM     93  C   UNL A   1      39.314  35.284  36.917  1.00  0.00     0.200 A 
ATOM     94  F   UNL A   1      38.113  33.701  38.193  1.00  0.00    -0.200 F 
ATOM     95  F   UNL A   1      39.070  36.230  37.835  1.00  0.00    -0.200 F 
ENDBRANCH  62  85
ENDBRANCH  36  37
ENDBRANCH  29  31
ENDBRANCH  28  29
ENDBRANCH  27  28
ENDBRANCH  26  27
ENDBRANCH  25  26
ENDBRANCH   1  25
TORSDOF 18
ENDMDL
MODEL 3
REMARK VINA RESULT:     -11.4      2.904      7.930
REMARK SMILES Cc1ccc(-c2c[nH]c(=O)cc2C(=O)OCCOCCOCCOC(=O)c2ccc(-c3c4nc(c(-c5c(F)c(F)c(F)c(F)c5F)c5ccc([nH]5)c(-c5c(F)c(F)c(F)c(F)c5F)c5nc(c(-c6c(F)c(F)c(F)c(F)c6F)c6ccc3[nH]6)C=C5)C=C4)cc2)cc1Cl
REMARK SMILES IDX 20 1 19 2 18 3 17 4 16 5 15 6 13 7 14 8 12 9 6 10 7 11 8 12
REMARK SMILES IDX 11 13 9 14 10 16 5 17 1 18 2 19 3 20 91 21 4 22 90 23 92 24
REMARK SMILES IDX 21 25 22 26 23 27 24 28 25 29 26 30 27 31 28 32 89 33 29 34
REMARK SMILES IDX 88 35 30 36 31 37 32 38 82 39 33 40 87 41 81 42 83 43 34 44
REMARK SMILES IDX 86 45 80 46 79 47 35 49 67 50 47 51 66 52 48 53 51 54 65 55
REMARK SMILES IDX 84 56 49 57 50 58 64 60 85 61 52 62 36 63 37 64 45 65 38 66
REMARK SMILES IDX 39 67 43 68 46 69 40 70 41 71 44 72 42 73 68 74 69 75 77 76
REMARK SMILES IDX 70 77 71 78 75 79 78 80 72 81 73 82 76 83 74 84 53 85 54 86
REMARK SMILES IDX 62 87 55 88 56 89 60 90 63 91 57 92 58 93 61 94 59 95
REMARK H PARENT 8 15 83 48 51 59
REMARK Flexibility Score: inf
ROOT
ATOM      1  C   UNL A   1      33.621  27.210  24.643  1.00  0.00     0.188 C 
ENDROOT
BRANCH   1   2
ATOM      2  C   UNL A   1      33.519  26.129  25.740  1.00  0.00     0.188 C 
BRANCH   2   3
ATOM      3  O   UNL A   1      34.343  25.008  25.491  1.00  0.00    -0.376 OA
BRANCH   3   4
ATOM      4  C   UNL A   1      34.133  23.886  26.329  1.00  0.00     0.202 C 
BRANCH   4   5
ATOM      5  C   UNL A   1      35.251  22.830  26.388  1.00  0.00     0.261 C 
BRANCH   5   6
ATOM      6  O   UNL A   1      34.853  21.465  26.166  1.00  0.00    -0.460 OA
BRANCH   6   7
ATOM      7  C   UNL A   1      35.368  20.792  25.105  1.00  0.00     0.339 C 
ATOM      8  O   UNL A   1      36.478  20.961  24.630  1.00  0.00    -0.246 OA
BRANCH   7   9
ATOM      9  C   UNL A   1      34.396  19.744  24.654  1.00  0.00     0.074 A 
ATOM     10  C   UNL A   1      33.014  20.083  24.277  1.00  0.00     0.013 A 
ATOM     11  C   UNL A   1      32.191  19.086  23.902  1.00  0.00     0.095 A 
ATOM     12  N   UNL A   1      32.638  17.790  23.842  1.00  0.00    -0.328 N 
ATOM     13  C   UNL A   1      34.841  18.477  24.564  1.00  0.00     0.087 A 
ATOM     14  C   UNL A   1      33.924  17.404  24.118  1.00  0.00     0.248 A 
ATOM     15  H   UNL A   1      31.992  17.093  23.584  1.00  0.00     0.169 HD
ATOM     16  O   UNL A   1      34.306  16.246  24.009  1.00  0.00    -0.270 OA
BRANCH  10  17
ATOM     17  C   UNL A   1      32.530  21.466  24.123  1.00  0.00    -0.015 A 
ATOM     18  C   UNL A   1      30.525  25.253  23.550  1.00  0.00     0.046 C 
ATOM     19  C   UNL A   1      31.264  23.957  23.741  1.00  0.00    -0.032 A 
ATOM     20  C   UNL A   1      30.897  23.125  24.805  1.00  0.00     0.005 A 
ATOM     21  C   UNL A   1      32.314  23.547  22.903  1.00  0.00     0.044 A 
ATOM     22  C   UNL A   1      31.573  21.929  25.027  1.00  0.00     0.009 A 
ATOM     23  C   UNL A   1      32.929  22.298  23.076  1.00  0.00     0.029 A 
ATOM     24  Cl  UNL A   1      32.900  24.571  21.641  1.00  0.00    -0.084 Cl
ENDBRANCH  10  17
ENDBRANCH   7   9
ENDBRANCH   6   7
ENDBRANCH   5   6
ENDBRANCH   4   5
ENDBRANCH   3   4
ENDBRANCH   2   3
ENDBRANCH   1   2
BRANCH   1  25
ATOM     25  O   UNL A   1      33.458  28.585  24.953  1.00  0.00    -0.376 OA
BRANCH  25  26
ATOM     26  C   UNL A   1      32.186  29.187  24.805  1.00  0.00     0.202 C 
BRANCH  26  27
ATOM     27  C   UNL A   1      31.793  30.316  25.771  1.00  0.00     0.261 C 
BRANCH  27  28
ATOM     28  O   UNL A   1      32.484  30.349  27.032  1.00  0.00    -0.460 OA
BRANCH  28  29
ATOM     29  C   UNL A   1      33.190  31.478  27.280  1.00  0.00     0.338 C 
ATOM     30  O   UNL A   1      32.774  32.628  27.247  1.00  0.00    -0.246 OA
BRANCH  29  31
ATOM     31  C   UNL A   1      34.554  31.142  27.753  1.00  0.00     0.060 A 
ATOM     32  C   UNL A   1      34.839  29.803  28.059  1.00  0.00     0.016 A 
ATOM     33  C   UNL A   1      35.521  32.125  27.973  1.00  0.00     0.016 A 
ATOM     34  C   UNL A   1      36.070  29.446  28.620  1.00  0.00     0.010 A 
ATOM     35  C   UNL A   1      36.750  31.768  28.553  1.00  0.00     0.010 A 
ATOM     36  C   UNL A   1      37.020  30.432  28.914  1.00  0.00    -0.014 A 
BRANCH  36  37
ATOM     37  C   UNL A   1      38.200  30.107  29.764  1.00  0.00     0.031 A 
ATOM     38  C   UNL A   1      39.186  29.090  29.276  1.00  0.00     0.074 A 
ATOM     39  C   UNL A   1      38.442  30.718  30.938  1.00  0.00     0.049 A 
ATOM     40  N   UNL A   1      40.277  28.655  29.852  1.00  0.00    -0.248 NA
ATOM     41  C   UNL A   1      38.933  28.520  27.945  1.00  0.00     0.031 C 
ATOM     42  C   UNL A   1      37.674  31.831  31.463  1.00  0.00     0.029 A 
ATOM     43  N   UNL A   1      39.386  30.488  31.909  1.00  0.00    -0.354 N 
ATOM     44  C   UNL A   1      40.867  27.800  28.936  1.00  0.00     0.074 A 
ATOM     45  C   UNL A   1      39.976  27.718  27.797  1.00  0.00     0.031 C 
ATOM     46  C   UNL A   1      38.098  32.129  32.702  1.00  0.00     0.029 A 
ATOM     47  C   UNL A   1      39.188  31.230  33.051  1.00  0.00     0.049 A 
ATOM     48  H   UNL A   1      40.133  29.855  31.799  1.00  0.00     0.167 HD
ATOM     49  C   UNL A   1      42.064  27.172  29.023  1.00  0.00     0.037 A 
ATOM     50  C   UNL A   1      39.804  31.190  34.247  1.00  0.00     0.037 A 
ATOM     51  C   UNL A   1      42.930  27.224  30.171  1.00  0.00     0.049 A 
ATOM     52  C   UNL A   1      41.018  30.321  34.405  1.00  0.00     0.074 A 
ATOM     53  C   UNL A   1      44.160  26.616  30.351  1.00  0.00     0.029 A 
ATOM     54  N   UNL A   1      42.649  27.905  31.348  1.00  0.00    -0.354 N 
ATOM     55  N   UNL A   1      41.592  29.545  33.520  1.00  0.00    -0.248 NA
ATOM     56  C   UNL A   1      41.704  30.364  35.703  1.00  0.00     0.031 C 
ATOM     57  C   UNL A   1      44.588  26.868  31.659  1.00  0.00     0.029 A 
ATOM     58  C   UNL A   1      43.662  27.695  32.273  1.00  0.00     0.049 A 
ATOM     59  H   UNL A   1      41.847  28.455  31.504  1.00  0.00     0.167 HD
ATOM     60  C   UNL A   1      42.742  29.062  34.126  1.00  0.00     0.074 A 
ATOM     61  C   UNL A   1      42.774  29.621  35.463  1.00  0.00     0.031 C 
ATOM     62  C   UNL A   1      43.696  28.252  33.604  1.00  0.00     0.037 A 
BRANCH  49  63
ATOM     63  C   UNL A   1      42.480  26.352  27.838  1.00  0.00     0.064 A 
ATOM     64  C   UNL A   1      42.046  25.027  27.671  1.00  0.00     0.173 A 
ATOM     65  C   UNL A   1      43.329  26.894  26.863  1.00  0.00     0.173 A 
ATOM     66  F   UNL A   1      41.247  24.457  28.586  1.00  0.00    -0.203 F 
ATOM     67  C   UNL A   1      42.478  24.263  26.590  1.00  0.00     0.198 A 
ATOM     68  C   UNL A   1      43.732  26.138  25.766  1.00  0.00     0.198 A 
ATOM     69  F   UNL A   1      43.772  28.155  26.977  1.00  0.00    -0.203 F 
ATOM     70  F   UNL A   1      42.101  22.982  26.484  1.00  0.00    -0.200 F 
ATOM     71  C   UNL A   1      43.315  24.821  25.636  1.00  0.00     0.200 A 
ATOM     72  F   UNL A   1      44.534  26.681  24.840  1.00  0.00    -0.200 F 
ATOM     73  F   UNL A   1      43.733  24.085  24.597  1.00  0.00    -0.200 F 
ENDBRANCH  49  63
BRANCH  50  74
ATOM     74  C   UNL A   1      39.295  32.012  35.377  1.00  0.00     0.064 A 
ATOM     75  C   UNL A   1      39.653  33.358  35.526  1.00  0.00     0.173 A 
ATOM     76  C   UNL A   1      38.455  31.450  36.352  1.00  0.00     0.173 A 
ATOM     77  F   UNL A   1      40.471  33.934  34.633  1.00  0.00    -0.203 F 
ATOM     78  C   UNL A   1      39.216  34.103  36.621  1.00  0.00     0.198 A 
ATOM     79  C   UNL A   1      37.999  32.203  37.434  1.00  0.00     0.198 A 
ATOM     80  F   UNL A   1      38.081  30.166  36.258  1.00  0.00    -0.203 F 
ATOM     81  F   UNL A   1      39.618  35.374  36.765  1.00  0.00    -0.200 F 
ATOM     82  C   UNL A   1      38.388  33.526  37.572  1.00  0.00     0.200 A 
ATOM     83  F   UNL A   1      37.198  31.640  38.349  1.00  0.00    -0.200 F 
ATOM     84  F   UNL A   1      37.978  34.240  38.629  1.00  0.00    -0.200 F 
ENDBRANCH  50  74
BRANCH  62  85
ATOM     85  C   UNL A   1      44.898  27.967  34.460  1.00  0.00     0.064 A 
ATOM     86  C   UNL A   1      46.053  28.759  34.413  1.00  0.00     0.173 A 
ATOM     87  C   UNL A   1      44.880  26.887  35.357  1.00  0.00     0.173 A 
ATOM     88  F   UNL A   1      46.129  29.792  33.560  1.00  0.00    -0.203 F 
ATOM     89  C   UNL A   1      47.160  28.459  35.204  1.00  0.00     0.198 A 
ATOM     90  C   UNL A   1      45.974  26.613  36.175  1.00  0.00     0.198 A 
ATOM     91  F   UNL A   1      43.799  26.097  35.448  1.00  0.00    -0.203 F 
ATOM     92  F   UNL A   1      48.277  29.191  35.094  1.00  0.00    -0.200 F 
ATOM     93  C   UNL A   1      47.116  27.393  36.089  1.00  0.00     0.200 A 
ATOM     94  F   UNL A   1      45.922  25.592  37.040  1.00  0.00    -0.200 F 
ATOM     95  F   UNL A   1      48.180  27.110  36.853  1.00  0.00    -0.200 F 
ENDBRANCH  62  85
ENDBRANCH  36  37
ENDBRANCH  29  31
ENDBRANCH  28  29
ENDBRANCH  27  28
ENDBRANCH  26  27
ENDBRANCH  25  26
ENDBRANCH   1  25
TORSDOF 18
ENDMDL
