MODEL 1
REMARK VINA RESULT:      -9.5      0.000      0.000
REMARK SMILES CCOC(=O)c1cc(C[NH2+]CC(=O)OCCOCCOCCOC(=O)c2ccc(-c3c4nc(c(-c5c(F)c(F)c(F)c(F)c5F)c5ccc([nH]5)c(-c5c(F)c(F)c(F)c(F)c5F)c5nc(c(-c6c(F)c(F)c(F)c(F)c6F)c6ccc3[nH]6)C=C5)C=C4)cc2)c(C)o1
REMARK SMILES IDX 16 1 15 2 14 3 12 4 13 5 11 6 10 7 9 10 8 11 6 12 7 13 91 14
REMARK SMILES IDX 89 15 90 16 4 17 5 18 3 19 2 20 1 21 17 22 18 23 19 24 20 25
REMARK SMILES IDX 21 26 22 27 23 28 24 29 25 30 26 31 27 32 88 33 28 34 87 35
REMARK SMILES IDX 29 36 30 37 31 38 81 39 32 40 86 41 80 42 82 43 33 44 85 45
REMARK SMILES IDX 79 46 78 47 34 49 66 50 46 51 65 52 47 53 50 54 64 55 83 56
REMARK SMILES IDX 48 57 49 58 63 60 84 61 51 62 35 63 36 64 44 65 37 66 38 67
REMARK SMILES IDX 42 68 45 69 39 70 40 71 43 72 41 73 67 74 68 75 76 76 69 77
REMARK SMILES IDX 70 78 74 79 77 80 71 81 72 82 75 83 73 84 52 85 53 86 61 87
REMARK SMILES IDX 54 88 55 89 59 90 62 91 56 92 57 93 60 94 58 95
REMARK H PARENT 10 8 10 9 82 48 50 59
REMARK Flexibility Score: inf
ROOT
ATOM      1  C   UNL A   1      33.776  30.597  27.628  1.00  0.00     0.202 C 
ENDROOT
BRANCH   1   2
ATOM      2  C   UNL A   1      33.000  29.760  26.589  1.00  0.00     0.261 C 
BRANCH   2   3
ATOM      3  O   UNL A   1      33.055  28.327  26.642  1.00  0.00    -0.459 OA
BRANCH   3   4
ATOM      4  C   UNL A   1      31.934  27.665  27.017  1.00  0.00     0.361 C 
ATOM      5  O   UNL A   1      31.249  27.999  27.981  1.00  0.00    -0.245 OA
BRANCH   4   6
ATOM      6  C   UNL A   1      31.598  26.414  26.188  1.00  0.00     0.385 C 
BRANCH   6   7
ATOM      7  N   UNL A   1      30.232  26.204  25.673  1.00  0.00    -0.333 N 
ATOM      8  H   UNL A   1      29.849  25.370  26.119  1.00  0.00     0.347 HD
ATOM      9  H   UNL A   1      29.711  27.054  25.889  1.00  0.00     0.347 HD
BRANCH   7  10
ATOM     10  C   UNL A   1      30.141  26.025  24.234  1.00  0.00     0.301 C 
BRANCH  10  11
ATOM     11  C   UNL A   1      30.043  27.358  23.564  1.00  0.00     0.048 A 
ATOM     12  C   UNL A   1      29.195  29.367  22.959  1.00  0.00     0.212 A 
ATOM     13  C   UNL A   1      28.841  28.092  23.355  1.00  0.00     0.068 A 
ATOM     14  O   UNL A   1      30.545  29.408  22.753  1.00  0.00    -0.454 OA
ATOM     15  C   UNL A   1      31.047  28.186  23.095  1.00  0.00     0.110 A 
ATOM     16  C   UNL A   1      32.508  28.034  22.947  1.00  0.00     0.088 C 
BRANCH  12  17
ATOM     17  C   UNL A   1      28.410  30.577  22.860  1.00  0.00     0.374 C 
ATOM     18  O   UNL A   1      27.280  30.769  23.290  1.00  0.00    -0.242 OA
BRANCH  17  19
ATOM     19  O   UNL A   1      29.078  31.468  22.071  1.00  0.00    -0.460 OA
BRANCH  19  20
ATOM     20  C   UNL A   1      28.369  32.690  21.839  1.00  0.00     0.230 C 
ATOM     21  C   UNL A   1      27.794  32.600  20.434  1.00  0.00     0.049 C 
ENDBRANCH  19  20
ENDBRANCH  17  19
ENDBRANCH  12  17
ENDBRANCH  10  11
ENDBRANCH   7  10
ENDBRANCH   6   7
ENDBRANCH   4   6
ENDBRANCH   3   4
ENDBRANCH   2   3
ENDBRANCH   1   2
BRANCH   1  22
ATOM     22  O   UNL A   1      34.215  31.929  27.458  1.00  0.00    -0.376 OA
BRANCH  22  23
ATOM     23  C   UNL A   1      35.290  32.425  28.215  1.00  0.00     0.188 C 
BRANCH  23  24
ATOM     24  C   UNL A   1      35.277  33.950  28.380  1.00  0.00     0.188 C 
BRANCH  24  25
ATOM     25  O   UNL A   1      34.837  34.535  29.594  1.00  0.00    -0.376 OA
BRANCH  25  26
ATOM     26  C   UNL A   1      34.401  33.673  30.636  1.00  0.00     0.202 C 
BRANCH  26  27
ATOM     27  C   UNL A   1      35.275  33.540  31.889  1.00  0.00     0.261 C 
BRANCH  27  28
ATOM     28  O   UNL A   1      35.456  32.186  32.339  1.00  0.00    -0.460 OA
BRANCH  28  29
ATOM     29  C   UNL A   1      36.557  31.962  33.102  1.00  0.00     0.338 C 
ATOM     30  O   UNL A   1      36.633  31.961  34.319  1.00  0.00    -0.246 OA
BRANCH  29  31
ATOM     31  C   UNL A   1      37.648  31.490  32.227  1.00  0.00     0.060 A 
ATOM     32  C   UNL A   1      38.871  31.116  32.809  1.00  0.00     0.016 A 
ATOM     33  C   UNL A   1      37.466  31.406  30.848  1.00  0.00     0.016 A 
ATOM     34  C   UNL A   1      39.908  30.633  32.010  1.00  0.00     0.010 A 
ATOM     35  C   UNL A   1      38.516  30.953  30.047  1.00  0.00     0.010 A 
ATOM     36  C   UNL A   1      39.741  30.567  30.622  1.00  0.00    -0.014 A 
BRANCH  36  37
ATOM     37  C   UNL A   1      40.870  30.193  29.740  1.00  0.00     0.031 A 
ATOM     38  C   UNL A   1      40.934  28.797  29.195  1.00  0.00     0.074 A 
ATOM     39  C   UNL A   1      41.849  31.075  29.466  1.00  0.00     0.049 A 
ATOM     40  N   UNL A   1      41.900  28.202  28.545  1.00  0.00    -0.248 NA
ATOM     41  C   UNL A   1      39.747  27.956  29.418  1.00  0.00     0.031 C 
ATOM     42  C   UNL A   1      41.875  32.470  29.899  1.00  0.00     0.029 A 
ATOM     43  N   UNL A   1      43.027  30.912  28.781  1.00  0.00    -0.354 N 
ATOM     44  C   UNL A   1      41.442  26.919  28.283  1.00  0.00     0.074 A 
ATOM     45  C   UNL A   1      40.120  26.812  28.864  1.00  0.00     0.031 C 
ATOM     46  C   UNL A   1      43.031  33.028  29.499  1.00  0.00     0.029 A 
ATOM     47  C   UNL A   1      43.841  32.017  28.822  1.00  0.00     0.049 A 
ATOM     48  H   UNL A   1      43.265  30.083  28.305  1.00  0.00     0.167 HD
ATOM     49  C   UNL A   1      42.067  25.924  27.612  1.00  0.00     0.037 A 
ATOM     50  C   UNL A   1      45.112  32.176  28.402  1.00  0.00     0.037 A 
ATOM     51  C   UNL A   1      43.387  26.031  27.048  1.00  0.00     0.049 A 
ATOM     52  C   UNL A   1      45.827  31.015  27.755  1.00  0.00     0.074 A 
ATOM     53  C   UNL A   1      44.103  25.080  26.342  1.00  0.00     0.029 A 
ATOM     54  N   UNL A   1      44.192  27.156  27.133  1.00  0.00    -0.354 N 
ATOM     55  N   UNL A   1      45.384  29.810  27.492  1.00  0.00    -0.248 NA
ATOM     56  C   UNL A   1      47.226  31.235  27.356  1.00  0.00     0.031 C 
ATOM     57  C   UNL A   1      45.361  25.612  26.045  1.00  0.00     0.029 A 
ATOM     58  C   UNL A   1      45.410  26.912  26.521  1.00  0.00     0.049 A 
ATOM     59  H   UNL A   1      43.936  28.003  27.565  1.00  0.00     0.167 HD
ATOM     60  C   UNL A   1      46.435  29.139  26.880  1.00  0.00     0.074 A 
ATOM     61  C   UNL A   1      47.533  30.077  26.790  1.00  0.00     0.031 C 
ATOM     62  C   UNL A   1      46.492  27.859  26.437  1.00  0.00     0.037 A 
BRANCH  49  63
ATOM     63  C   UNL A   1      41.342  24.620  27.466  1.00  0.00     0.064 A 
ATOM     64  C   UNL A   1      40.234  24.492  26.616  1.00  0.00     0.173 A 
ATOM     65  C   UNL A   1      41.798  23.474  28.133  1.00  0.00     0.173 A 
ATOM     66  F   UNL A   1      39.752  25.561  25.967  1.00  0.00    -0.203 F 
ATOM     67  C   UNL A   1      39.600  23.262  26.451  1.00  0.00     0.198 A 
ATOM     68  C   UNL A   1      41.178  22.242  27.945  1.00  0.00     0.198 A 
ATOM     69  F   UNL A   1      42.856  23.545  28.954  1.00  0.00    -0.203 F 
ATOM     70  F   UNL A   1      38.524  23.167  25.658  1.00  0.00    -0.200 F 
ATOM     71  C   UNL A   1      40.079  22.138  27.106  1.00  0.00     0.200 A 
ATOM     72  F   UNL A   1      41.649  21.154  28.569  1.00  0.00    -0.200 F 
ATOM     73  F   UNL A   1      39.477  20.953  26.932  1.00  0.00    -0.200 F 
ENDBRANCH  49  63
BRANCH  50  74
ATOM     74  C   UNL A   1      45.822  33.464  28.624  1.00  0.00     0.064 A 
ATOM     75  C   UNL A   1      45.776  34.490  27.670  1.00  0.00     0.173 A 
ATOM     76  C   UNL A   1      46.608  33.674  29.767  1.00  0.00     0.173 A 
ATOM     77  F   UNL A   1      45.065  34.326  26.544  1.00  0.00    -0.203 F 
ATOM     78  C   UNL A   1      46.511  35.662  27.837  1.00  0.00     0.198 A 
ATOM     79  C   UNL A   1      47.315  34.860  29.950  1.00  0.00     0.198 A 
ATOM     80  F   UNL A   1      46.692  32.722  30.709  1.00  0.00    -0.203 F 
ATOM     81  F   UNL A   1      46.500  36.599  26.879  1.00  0.00    -0.200 F 
ATOM     82  C   UNL A   1      47.276  35.848  28.978  1.00  0.00     0.200 A 
ATOM     83  F   UNL A   1      48.047  35.039  31.058  1.00  0.00    -0.200 F 
ATOM     84  F   UNL A   1      47.988  36.973  29.135  1.00  0.00    -0.200 F 
ENDBRANCH  50  74
BRANCH  62  85
ATOM     85  C   UNL A   1      47.772  27.402  25.798  1.00  0.00     0.064 A 
ATOM     86  C   UNL A   1      47.949  27.436  24.407  1.00  0.00     0.173 A 
ATOM     87  C   UNL A   1      48.851  26.975  26.587  1.00  0.00     0.173 A 
ATOM     88  F   UNL A   1      46.943  27.823  23.608  1.00  0.00    -0.203 F 
ATOM     89  C   UNL A   1      49.151  27.038  23.829  1.00  0.00     0.198 A 
ATOM     90  C   UNL A   1      50.062  26.607  26.007  1.00  0.00     0.198 A 
ATOM     91  F   UNL A   1      48.736  26.930  27.923  1.00  0.00    -0.203 F 
ATOM     92  F   UNL A   1      49.282  27.037  22.495  1.00  0.00    -0.200 F 
ATOM     93  C   UNL A   1      50.209  26.632  24.628  1.00  0.00     0.200 A 
ATOM     94  F   UNL A   1      51.087  26.230  26.783  1.00  0.00    -0.200 F 
ATOM     95  F   UNL A   1      51.369  26.262  24.070  1.00  0.00    -0.200 F 
ENDBRANCH  62  85
ENDBRANCH  36  37
ENDBRANCH  29  31
ENDBRANCH  28  29
ENDBRANCH  27  28
ENDBRANCH  26  27
ENDBRANCH  25  26
ENDBRANCH  24  25
ENDBRANCH  23  24
ENDBRANCH  22  23
ENDBRANCH   1  22
TORSDOF 23
ENDMDL
MODEL 2
REMARK VINA RESULT:      -9.3      6.089     11.284
REMARK SMILES CCOC(=O)c1cc(C[NH2+]CC(=O)OCCOCCOCCOC(=O)c2ccc(-c3c4nc(c(-c5c(F)c(F)c(F)c(F)c5F)c5ccc([nH]5)c(-c5c(F)c(F)c(F)c(F)c5F)c5nc(c(-c6c(F)c(F)c(F)c(F)c6F)c6ccc3[nH]6)C=C5)C=C4)cc2)c(C)o1
REMARK SMILES IDX 16 1 15 2 14 3 12 4 13 5 11 6 10 7 9 10 8 11 6 12 7 13 91 14
REMARK SMILES IDX 89 15 90 16 4 17 5 18 3 19 2 20 1 21 17 22 18 23 19 24 20 25
REMARK SMILES IDX 21 26 22 27 23 28 24 29 25 30 26 31 27 32 88 33 28 34 87 35
REMARK SMILES IDX 29 36 30 37 31 38 81 39 32 40 86 41 80 42 82 43 33 44 85 45
REMARK SMILES IDX 79 46 78 47 34 49 66 50 46 51 65 52 47 53 50 54 64 55 83 56
REMARK SMILES IDX 48 57 49 58 63 60 84 61 51 62 35 63 36 64 44 65 37 66 38 67
REMARK SMILES IDX 42 68 45 69 39 70 40 71 43 72 41 73 67 74 68 75 76 76 69 77
REMARK SMILES IDX 70 78 74 79 77 80 71 81 72 82 75 83 73 84 52 85 53 86 61 87
REMARK SMILES IDX 54 88 55 89 59 90 62 91 56 92 57 93 60 94 58 95
REMARK H PARENT 10 8 10 9 82 48 50 59
REMARK Flexibility Score: inf
ROOT
ATOM      1  C   UNL A   1      42.322  19.302  26.027  1.00  0.00     0.202 C 
ENDROOT
BRANCH   1   2
ATOM      2  C   UNL A   1      41.480  20.408  26.701  1.00  0.00     0.261 C 
BRANCH   2   3
ATOM      3  O   UNL A   1      40.181  20.729  26.185  1.00  0.00    -0.459 OA
BRANCH   3   4
ATOM      4  C   UNL A   1      39.679  21.957  26.460  1.00  0.00     0.361 C 
ATOM      5  O   UNL A   1      40.212  22.740  27.243  1.00  0.00    -0.245 OA
BRANCH   4   6
ATOM      6  C   UNL A   1      38.346  22.294  25.771  1.00  0.00     0.385 C 
BRANCH   6   7
ATOM      7  N   UNL A   1      37.152  21.459  26.005  1.00  0.00    -0.333 N 
ATOM      8  H   UNL A   1      37.429  20.480  25.921  1.00  0.00     0.347 HD
ATOM      9  H   UNL A   1      36.809  21.704  26.933  1.00  0.00     0.347 HD
BRANCH   7  10
ATOM     10  C   UNL A   1      36.051  21.694  25.087  1.00  0.00     0.301 C 
BRANCH  10  11
ATOM     11  C   UNL A   1      35.260  22.880  25.539  1.00  0.00     0.048 A 
ATOM     12  C   UNL A   1      34.206  24.880  25.454  1.00  0.00     0.212 A 
ATOM     13  C   UNL A   1      35.247  24.155  24.907  1.00  0.00     0.068 A 
ATOM     14  O   UNL A   1      33.683  24.181  26.505  1.00  0.00    -0.454 OA
ATOM     15  C   UNL A   1      34.341  22.986  26.567  1.00  0.00     0.110 A 
ATOM     16  C   UNL A   1      33.906  22.076  27.646  1.00  0.00     0.088 C 
BRANCH  12  17
ATOM     17  C   UNL A   1      33.584  26.112  25.023  1.00  0.00     0.374 C 
ATOM     18  O   UNL A   1      34.036  27.246  25.112  1.00  0.00    -0.242 OA
BRANCH  17  19
ATOM     19  O   UNL A   1      32.313  25.837  24.608  1.00  0.00    -0.460 OA
BRANCH  19  20
ATOM     20  C   UNL A   1      32.242  25.137  23.361  1.00  0.00     0.230 C 
ATOM     21  C   UNL A   1      31.445  26.018  22.412  1.00  0.00     0.049 C 
ENDBRANCH  19  20
ENDBRANCH  17  19
ENDBRANCH  12  17
ENDBRANCH  10  11
ENDBRANCH   7  10
ENDBRANCH   6   7
ENDBRANCH   4   6
ENDBRANCH   3   4
ENDBRANCH   2   3
ENDBRANCH   1   2
BRANCH   1  22
ATOM     22  O   UNL A   1      43.281  19.495  25.007  1.00  0.00    -0.376 OA
BRANCH  22  23
ATOM     23  C   UNL A   1      44.511  18.817  25.051  1.00  0.00     0.188 C 
BRANCH  23  24
ATOM     24  C   UNL A   1      45.700  19.667  24.586  1.00  0.00     0.188 C 
BRANCH  24  25
ATOM     25  O   UNL A   1      46.144  20.764  25.366  1.00  0.00    -0.376 OA
BRANCH  25  26
ATOM     26  C   UNL A   1      46.002  22.072  24.829  1.00  0.00     0.202 C 
BRANCH  26  27
ATOM     27  C   UNL A   1      44.639  22.767  24.944  1.00  0.00     0.261 C 
BRANCH  27  28
ATOM     28  O   UNL A   1      44.534  23.677  26.052  1.00  0.00    -0.460 OA
BRANCH  28  29
ATOM     29  C   UNL A   1      44.260  24.968  25.730  1.00  0.00     0.338 C 
ATOM     30  O   UNL A   1      44.238  25.469  24.617  1.00  0.00    -0.246 OA
BRANCH  29  31
ATOM     31  C   UNL A   1      43.762  25.660  26.935  1.00  0.00     0.060 A 
ATOM     32  C   UNL A   1      42.694  25.095  27.649  1.00  0.00     0.016 A 
ATOM     33  C   UNL A   1      44.350  26.850  27.362  1.00  0.00     0.016 A 
ATOM     34  C   UNL A   1      42.226  25.708  28.812  1.00  0.00     0.010 A 
ATOM     35  C   UNL A   1      43.858  27.479  28.508  1.00  0.00     0.010 A 
ATOM     36  C   UNL A   1      42.795  26.915  29.236  1.00  0.00    -0.014 A 
BRANCH  36  37
ATOM     37  C   UNL A   1      42.226  27.659  30.383  1.00  0.00     0.031 A 
ATOM     38  C   UNL A   1      41.006  28.503  30.166  1.00  0.00     0.074 A 
ATOM     39  C   UNL A   1      42.819  27.619  31.590  1.00  0.00     0.049 A 
ATOM     40  N   UNL A   1      40.434  29.361  30.971  1.00  0.00    -0.248 NA
ATOM     41  C   UNL A   1      40.340  28.364  28.860  1.00  0.00     0.031 C 
ATOM     42  C   UNL A   1      43.980  26.801  31.934  1.00  0.00     0.029 A 
ATOM     43  N   UNL A   1      42.537  28.308  32.743  1.00  0.00    -0.354 N 
ATOM     44  C   UNL A   1      39.346  29.864  30.273  1.00  0.00     0.074 A 
ATOM     45  C   UNL A   1      39.349  29.236  28.969  1.00  0.00     0.031 C 
ATOM     46  C   UNL A   1      44.335  27.063  33.205  1.00  0.00     0.029 A 
ATOM     47  C   UNL A   1      43.452  28.097  33.744  1.00  0.00     0.049 A 
ATOM     48  H   UNL A   1      41.753  28.896  32.843  1.00  0.00     0.167 HD
ATOM     49  C   UNL A   1      38.426  30.766  30.687  1.00  0.00     0.037 A 
ATOM     50  C   UNL A   1      43.588  28.704  34.940  1.00  0.00     0.037 A 
ATOM     51  C   UNL A   1      38.435  31.399  31.980  1.00  0.00     0.049 A 
ATOM     52  C   UNL A   1      42.612  29.787  35.334  1.00  0.00     0.074 A 
ATOM     53  C   UNL A   1      37.540  32.320  32.496  1.00  0.00     0.029 A 
ATOM     54  N   UNL A   1      39.394  31.181  32.957  1.00  0.00    -0.354 N 
ATOM     55  N   UNL A   1      41.574  30.246  34.679  1.00  0.00    -0.248 NA
ATOM     56  C   UNL A   1      42.836  30.443  36.631  1.00  0.00     0.031 C 
ATOM     57  C   UNL A   1      37.987  32.698  33.766  1.00  0.00     0.029 A 
ATOM     58  C   UNL A   1      39.130  31.975  34.061  1.00  0.00     0.049 A 
ATOM     59  H   UNL A   1      40.150  30.556  32.878  1.00  0.00     0.167 HD
ATOM     60  C   UNL A   1      41.011  31.223  35.490  1.00  0.00     0.074 A 
ATOM     61  C   UNL A   1      41.809  31.277  36.695  1.00  0.00     0.031 C 
ATOM     62  C   UNL A   1      39.934  32.013  35.256  1.00  0.00     0.037 A 
BRANCH  49  63
ATOM     63  C   UNL A   1      37.338  31.142  29.726  1.00  0.00     0.064 A 
ATOM     64  C   UNL A   1      36.257  30.285  29.475  1.00  0.00     0.173 A 
ATOM     65  C   UNL A   1      37.344  32.397  29.101  1.00  0.00     0.173 A 
ATOM     66  F   UNL A   1      36.213  29.069  30.039  1.00  0.00    -0.203 F 
ATOM     67  C   UNL A   1      35.227  30.667  28.619  1.00  0.00     0.198 A 
ATOM     68  C   UNL A   1      36.300  32.786  28.267  1.00  0.00     0.198 A 
ATOM     69  F   UNL A   1      38.355  33.254  29.312  1.00  0.00    -0.203 F 
ATOM     70  F   UNL A   1      34.219  29.821  28.367  1.00  0.00    -0.200 F 
ATOM     71  C   UNL A   1      35.244  31.920  28.025  1.00  0.00     0.200 A 
ATOM     72  F   UNL A   1      36.312  34.002  27.702  1.00  0.00    -0.200 F 
ATOM     73  F   UNL A   1      34.243  32.292  27.214  1.00  0.00    -0.200 F 
ENDBRANCH  49  63
BRANCH  50  74
ATOM     74  C   UNL A   1      44.719  28.351  35.839  1.00  0.00     0.064 A 
ATOM     75  C   UNL A   1      45.962  28.989  35.725  1.00  0.00     0.173 A 
ATOM     76  C   UNL A   1      44.598  27.329  36.793  1.00  0.00     0.173 A 
ATOM     77  F   UNL A   1      46.138  29.951  34.806  1.00  0.00    -0.203 F 
ATOM     78  C   UNL A   1      47.046  28.599  36.508  1.00  0.00     0.198 A 
ATOM     79  C   UNL A   1      45.674  26.962  37.599  1.00  0.00     0.198 A 
ATOM     80  F   UNL A   1      43.432  26.681  36.940  1.00  0.00    -0.203 F 
ATOM     81  F   UNL A   1      48.240  29.182  36.332  1.00  0.00    -0.200 F 
ATOM     82  C   UNL A   1      46.901  27.589  37.447  1.00  0.00     0.200 A 
ATOM     83  F   UNL A   1      45.525  25.992  38.511  1.00  0.00    -0.200 F 
ATOM     84  F   UNL A   1      47.946  27.210  38.195  1.00  0.00    -0.200 F 
ENDBRANCH  50  74
BRANCH  62  85
ATOM     85  C   UNL A   1      39.541  32.986  36.331  1.00  0.00     0.064 A 
ATOM     86  C   UNL A   1      38.621  32.640  37.331  1.00  0.00     0.173 A 
ATOM     87  C   UNL A   1      40.129  34.259  36.390  1.00  0.00     0.173 A 
ATOM     88  F   UNL A   1      38.020  31.441  37.311  1.00  0.00    -0.203 F 
ATOM     89  C   UNL A   1      38.288  33.541  38.339  1.00  0.00     0.198 A 
ATOM     90  C   UNL A   1      39.816  35.145  37.417  1.00  0.00     0.198 A 
ATOM     91  F   UNL A   1      41.020  34.637  35.461  1.00  0.00    -0.203 F 
ATOM     92  F   UNL A   1      37.374  33.204  39.260  1.00  0.00    -0.200 F 
ATOM     93  C   UNL A   1      38.891  34.788  38.387  1.00  0.00     0.200 A 
ATOM     94  F   UNL A   1      40.411  36.344  37.469  1.00  0.00    -0.200 F 
ATOM     95  F   UNL A   1      38.579  35.649  39.365  1.00  0.00    -0.200 F 
ENDBRANCH  62  85
ENDBRANCH  36  37
ENDBRANCH  29  31
ENDBRANCH  28  29
ENDBRANCH  27  28
ENDBRANCH  26  27
ENDBRANCH  25  26
ENDBRANCH  24  25
ENDBRANCH  23  24
ENDBRANCH  22  23
ENDBRANCH   1  22
TORSDOF 23
ENDMDL
MODEL 3
REMARK VINA RESULT:      -9.0      6.171     11.537
REMARK SMILES CCOC(=O)c1cc(C[NH2+]CC(=O)OCCOCCOCCOC(=O)c2ccc(-c3c4nc(c(-c5c(F)c(F)c(F)c(F)c5F)c5ccc([nH]5)c(-c5c(F)c(F)c(F)c(F)c5F)c5nc(c(-c6c(F)c(F)c(F)c(F)c6F)c6ccc3[nH]6)C=C5)C=C4)cc2)c(C)o1
REMARK SMILES IDX 16 1 15 2 14 3 12 4 13 5 11 6 10 7 9 10 8 11 6 12 7 13 91 14
REMARK SMILES IDX 89 15 90 16 4 17 5 18 3 19 2 20 1 21 17 22 18 23 19 24 20 25
REMARK SMILES IDX 21 26 22 27 23 28 24 29 25 30 26 31 27 32 88 33 28 34 87 35
REMARK SMILES IDX 29 36 30 37 31 38 81 39 32 40 86 41 80 42 82 43 33 44 85 45
REMARK SMILES IDX 79 46 78 47 34 49 66 50 46 51 65 52 47 53 50 54 64 55 83 56
REMARK SMILES IDX 48 57 49 58 63 60 84 61 51 62 35 63 36 64 44 65 37 66 38 67
REMARK SMILES IDX 42 68 45 69 39 70 40 71 43 72 41 73 67 74 68 75 76 76 69 77
REMARK SMILES IDX 70 78 74 79 77 80 71 81 72 82 75 83 73 84 52 85 53 86 61 87
REMARK SMILES IDX 54 88 55 89 59 90 62 91 56 92 57 93 60 94 58 95
REMARK H PARENT 10 8 10 9 82 48 50 59
REMARK Flexibility Score: inf
ROOT
ATOM      1  C   UNL A   1      42.776  19.552  25.873  1.00  0.00     0.202 C 
ENDROOT
BRANCH   1   2
ATOM      2  C   UNL A   1      41.891  20.475  26.737  1.00  0.00     0.261 C 
BRANCH   2   3
ATOM      3  O   UNL A   1      40.805  21.192  26.134  1.00  0.00    -0.459 OA
BRANCH   3   4
ATOM      4  C   UNL A   1      39.658  20.514  25.892  1.00  0.00     0.361 C 
ATOM      5  O   UNL A   1      39.618  19.295  25.741  1.00  0.00    -0.245 OA
BRANCH   4   6
ATOM      6  C   UNL A   1      38.395  21.381  25.755  1.00  0.00     0.385 C 
BRANCH   6   7
ATOM      7  N   UNL A   1      38.505  22.809  25.401  1.00  0.00    -0.333 N 
ATOM      8  H   UNL A   1      39.448  23.121  25.632  1.00  0.00     0.347 HD
ATOM      9  H   UNL A   1      38.289  22.875  24.407  1.00  0.00     0.347 HD
BRANCH   7  10
ATOM     10  C   UNL A   1      37.563  23.682  26.081  1.00  0.00     0.301 C 
BRANCH  10  11
ATOM     11  C   UNL A   1      36.213  23.557  25.451  1.00  0.00     0.048 A 
ATOM     12  C   UNL A   1      33.987  23.824  25.142  1.00  0.00     0.212 A 
ATOM     13  C   UNL A   1      34.970  23.767  26.112  1.00  0.00     0.068 A 
ATOM     14  O   UNL A   1      34.536  23.495  23.936  1.00  0.00    -0.454 OA
ATOM     15  C   UNL A   1      35.874  23.310  24.133  1.00  0.00     0.110 A 
ATOM     16  C   UNL A   1      36.651  22.953  22.929  1.00  0.00     0.088 C 
BRANCH  12  17
ATOM     17  C   UNL A   1      32.611  24.261  25.217  1.00  0.00     0.374 C 
ATOM     18  O   UNL A   1      32.192  25.410  25.171  1.00  0.00    -0.242 OA
BRANCH  17  19
ATOM     19  O   UNL A   1      31.823  23.182  25.493  1.00  0.00    -0.460 OA
BRANCH  19  20
ATOM     20  C   UNL A   1      31.435  23.076  26.867  1.00  0.00     0.230 C 
ATOM     21  C   UNL A   1      29.920  22.952  26.883  1.00  0.00     0.049 C 
ENDBRANCH  19  20
ENDBRANCH  17  19
ENDBRANCH  12  17
ENDBRANCH  10  11
ENDBRANCH   7  10
ENDBRANCH   6   7
ENDBRANCH   4   6
ENDBRANCH   3   4
ENDBRANCH   2   3
ENDBRANCH   1   2
BRANCH   1  22
ATOM     22  O   UNL A   1      43.696  19.972  24.885  1.00  0.00    -0.376 OA
BRANCH  22  23
ATOM     23  C   UNL A   1      45.054  19.624  24.986  1.00  0.00     0.188 C 
BRANCH  23  24
ATOM     24  C   UNL A   1      46.011  20.796  24.727  1.00  0.00     0.188 C 
BRANCH  24  25
ATOM     25  O   UNL A   1      46.072  21.883  25.633  1.00  0.00    -0.376 OA
BRANCH  25  26
ATOM     26  C   UNL A   1      45.733  23.178  25.155  1.00  0.00     0.202 C 
BRANCH  26  27
ATOM     27  C   UNL A   1      44.250  23.524  24.970  1.00  0.00     0.261 C 
BRANCH  27  28
ATOM     28  O   UNL A   1      43.678  24.264  26.062  1.00  0.00    -0.460 OA
BRANCH  28  29
ATOM     29  C   UNL A   1      43.119  25.458  25.735  1.00  0.00     0.338 C 
ATOM     30  O   UNL A   1      42.795  25.850  24.625  1.00  0.00    -0.246 OA
BRANCH  29  31
ATOM     31  C   UNL A   1      42.745  26.161  26.978  1.00  0.00     0.060 A 
ATOM     32  C   UNL A   1      41.762  25.596  27.807  1.00  0.00     0.016 A 
ATOM     33  C   UNL A   1      43.363  27.360  27.328  1.00  0.00     0.016 A 
ATOM     34  C   UNL A   1      41.414  26.219  29.006  1.00  0.00     0.010 A 
ATOM     35  C   UNL A   1      42.989  27.999  28.512  1.00  0.00     0.010 A 
ATOM     36  C   UNL A   1      42.013  27.435  29.354  1.00  0.00    -0.014 A 
BRANCH  36  37
ATOM     37  C   UNL A   1      41.561  28.188  30.547  1.00  0.00     0.031 A 
ATOM     38  C   UNL A   1      40.401  29.130  30.412  1.00  0.00     0.074 A 
ATOM     39  C   UNL A   1      42.206  28.067  31.721  1.00  0.00     0.049 A 
ATOM     40  N   UNL A   1      39.938  30.005  31.267  1.00  0.00    -0.248 NA
ATOM     41  C   UNL A   1      39.664  29.079  29.139  1.00  0.00     0.031 C 
ATOM     42  C   UNL A   1      43.315  27.154  31.985  1.00  0.00     0.029 A 
ATOM     43  N   UNL A   1      42.036  28.744  32.903  1.00  0.00    -0.354 N 
ATOM     44  C   UNL A   1      38.861  30.611  30.637  1.00  0.00     0.074 A 
ATOM     45  C   UNL A   1      38.750  30.021  29.319  1.00  0.00     0.031 C 
ATOM     46  C   UNL A   1      43.751  27.351  33.242  1.00  0.00     0.029 A 
ATOM     47  C   UNL A   1      42.980  28.434  33.851  1.00  0.00     0.049 A 
ATOM     48  H   UNL A   1      41.307  29.388  33.057  1.00  0.00     0.167 HD
ATOM     49  C   UNL A   1      38.036  31.569  31.119  1.00  0.00     0.037 A 
ATOM     50  C   UNL A   1      43.220  28.995  35.053  1.00  0.00     0.037 A 
ATOM     51  C   UNL A   1      38.158  32.162  32.425  1.00  0.00     0.049 A 
ATOM     52  C   UNL A   1      42.353  30.138  35.522  1.00  0.00     0.074 A 
ATOM     53  C   UNL A   1      37.364  33.135  33.008  1.00  0.00     0.029 A 
ATOM     54  N   UNL A   1      39.143  31.844  33.346  1.00  0.00    -0.354 N 
ATOM     55  N   UNL A   1      41.324  30.695  34.932  1.00  0.00    -0.248 NA
ATOM     56  C   UNL A   1      42.691  30.738  36.822  1.00  0.00     0.031 C 
ATOM     57  C   UNL A   1      37.900  33.441  34.262  1.00  0.00     0.029 A 
ATOM     58  C   UNL A   1      38.996  32.624  34.482  1.00  0.00     0.049 A 
ATOM     59  H   UNL A   1      39.843  31.164  33.214  1.00  0.00     0.167 HD
ATOM     60  C   UNL A   1      40.879  31.689  35.794  1.00  0.00     0.074 A 
ATOM     61  C   UNL A   1      41.737  31.647  36.958  1.00  0.00     0.031 C 
ATOM     62  C   UNL A   1      39.857  32.566  35.635  1.00  0.00     0.037 A 
BRANCH  49  63
ATOM     63  C   UNL A   1      36.935  32.055  30.224  1.00  0.00     0.064 A 
ATOM     64  C   UNL A   1      36.923  33.366  29.726  1.00  0.00     0.173 A 
ATOM     65  C   UNL A   1      35.917  31.183  29.812  1.00  0.00     0.173 A 
ATOM     66  F   UNL A   1      37.867  34.241  30.102  1.00  0.00    -0.203 F 
ATOM     67  C   UNL A   1      35.921  33.790  28.856  1.00  0.00     0.198 A 
ATOM     68  C   UNL A   1      34.932  31.603  28.922  1.00  0.00     0.198 A 
ATOM     69  F   UNL A   1      35.887  29.919  30.259  1.00  0.00    -0.203 F 
ATOM     70  F   UNL A   1      35.910  35.055  28.416  1.00  0.00    -0.200 F 
ATOM     71  C   UNL A   1      34.934  32.905  28.447  1.00  0.00     0.200 A 
ATOM     72  F   UNL A   1      33.986  30.744  28.518  1.00  0.00    -0.200 F 
ATOM     73  F   UNL A   1      33.980  33.311  27.597  1.00  0.00    -0.200 F 
ENDBRANCH  49  63
BRANCH  50  74
ATOM     74  C   UNL A   1      44.363  28.531  35.885  1.00  0.00     0.064 A 
ATOM     75  C   UNL A   1      45.651  29.050  35.701  1.00  0.00     0.173 A 
ATOM     76  C   UNL A   1      44.201  27.516  36.841  1.00  0.00     0.173 A 
ATOM     77  F   UNL A   1      45.864  30.000  34.777  1.00  0.00    -0.203 F 
ATOM     78  C   UNL A   1      46.737  28.555  36.420  1.00  0.00     0.198 A 
ATOM     79  C   UNL A   1      45.282  27.044  37.582  1.00  0.00     0.198 A 
ATOM     80  F   UNL A   1      42.990  26.978  37.052  1.00  0.00    -0.203 F 
ATOM     81  F   UNL A   1      47.969  29.024  36.177  1.00  0.00    -0.200 F 
ATOM     82  C   UNL A   1      46.551  27.555  37.362  1.00  0.00     0.200 A 
ATOM     83  F   UNL A   1      45.095  26.084  38.498  1.00  0.00    -0.200 F 
ATOM     84  F   UNL A   1      47.597  27.073  38.047  1.00  0.00    -0.200 F 
ENDBRANCH  50  74
BRANCH  62  85
ATOM     85  C   UNL A   1      39.595  33.535  36.751  1.00  0.00     0.064 A 
ATOM     86  C   UNL A   1      40.132  34.831  36.738  1.00  0.00     0.173 A 
ATOM     87  C   UNL A   1      38.757  33.183  37.820  1.00  0.00     0.173 A 
ATOM     88  F   UNL A   1      40.952  35.211  35.747  1.00  0.00    -0.203 F 
ATOM     89  C   UNL A   1      39.857  35.730  37.764  1.00  0.00     0.198 A 
ATOM     90  C   UNL A   1      38.459  34.096  38.829  1.00  0.00     0.198 A 
ATOM     91  F   UNL A   1      38.211  31.959  37.877  1.00  0.00    -0.203 F 
ATOM     92  F   UNL A   1      40.417  36.948  37.753  1.00  0.00    -0.200 F 
ATOM     93  C   UNL A   1      39.015  35.366  38.804  1.00  0.00     0.200 A 
ATOM     94  F   UNL A   1      37.633  33.746  39.824  1.00  0.00    -0.200 F 
ATOM     95  F   UNL A   1      38.741  36.237  39.784  1.00  0.00    -0.200 F 
ENDBRANCH  62  85
ENDBRANCH  36  37
ENDBRANCH  29  31
ENDBRANCH  28  29
ENDBRANCH  27  28
ENDBRANCH  26  27
ENDBRANCH  25  26
ENDBRANCH  24  25
ENDBRANCH  23  24
ENDBRANCH  22  23
ENDBRANCH   1  22
TORSDOF 23
ENDMDL
