MODEL 1
REMARK VINA RESULT:     -11.0      0.000      0.000
REMARK SMILES O=C(OCCOCCOCCOC(=O)c1ccc(OC[C@H]2C[C@H]3CC[C@@H]2C3)c(Cl)c1)c1ccc(-c2c3nc(c(-c4c(F)c(F)c(F)c(F)c4F)c4ccc([nH]4)c(-c4c(F)c(F)c(F)c(F)c4F)c4nc(c(-c5c(F)c(F)c(F)c(F)c5F)c5ccc2[nH]5)C=C4)C=C3)cc1
REMARK SMILES IDX 8 1 7 2 6 3 5 4 4 5 3 6 2 7 1 8 31 9 32 10 93 11 33 12 92 13
REMARK SMILES IDX 34 14 35 15 36 16 86 17 37 18 91 19 85 20 87 21 38 22 90 23
REMARK SMILES IDX 84 24 83 25 39 27 71 28 51 29 70 30 52 31 55 32 69 33 88 34
REMARK SMILES IDX 53 35 54 36 68 38 89 39 56 40 40 41 41 42 49 43 42 44 43 45
REMARK SMILES IDX 47 46 50 47 44 48 45 49 48 50 46 51 72 52 73 53 81 54 74 55
REMARK SMILES IDX 75 56 79 57 82 58 76 59 77 60 80 61 78 62 57 63 58 64 66 65
REMARK SMILES IDX 59 66 60 67 64 68 67 69 61 70 62 71 65 72 63 73 9 74 10 75
REMARK SMILES IDX 11 76 12 77 13 78 14 79 15 80 16 81 30 82 17 83 28 84 18 85
REMARK SMILES IDX 29 86 19 87 20 88 21 89 22 90 26 91 23 92 25 93 27 94 24 95
REMARK H PARENT 87 26 55 37
REMARK Flexibility Score: inf
ROOT
ATOM      1  C   UNL A   1      34.489  24.804  25.099  1.00  0.00     0.188 C 
ENDROOT
BRANCH   1   2
ATOM      2  C   UNL A   1      34.707  24.578  23.601  1.00  0.00     0.188 C 
BRANCH   2   3
ATOM      3  O   UNL A   1      35.150  23.249  23.319  1.00  0.00    -0.376 OA
BRANCH   3   4
ATOM      4  C   UNL A   1      35.551  22.494  24.471  1.00  0.00     0.202 C 
BRANCH   4   5
ATOM      5  C   UNL A   1      36.898  21.748  24.372  1.00  0.00     0.261 C 
BRANCH   5   6
ATOM      6  O   UNL A   1      37.489  21.420  25.645  1.00  0.00    -0.460 OA
BRANCH   6   7
ATOM      7  C   UNL A   1      38.803  21.475  25.990  1.00  0.00     0.338 C 
ATOM      8  O   UNL A   1      39.507  20.476  25.874  1.00  0.00    -0.246 OA
BRANCH   7   9
ATOM      9  C   UNL A   1      39.425  22.724  26.508  1.00  0.00     0.060 A 
ATOM     10  C   UNL A   1      38.982  23.991  26.150  1.00  0.00     0.016 A 
ATOM     11  C   UNL A   1      40.451  22.638  27.455  1.00  0.00     0.016 A 
ATOM     12  C   UNL A   1      39.623  25.143  26.549  1.00  0.00     0.010 A 
ATOM     13  C   UNL A   1      41.022  23.807  27.979  1.00  0.00     0.010 A 
ATOM     14  C   UNL A   1      40.625  25.071  27.502  1.00  0.00    -0.014 A 
BRANCH  14  15
ATOM     15  C   UNL A   1      41.274  26.338  27.904  1.00  0.00     0.031 A 
ATOM     16  C   UNL A   1      42.696  26.542  27.494  1.00  0.00     0.074 A 
ATOM     17  C   UNL A   1      40.566  27.326  28.493  1.00  0.00     0.049 A 
ATOM     18  N   UNL A   1      43.492  27.544  27.742  1.00  0.00    -0.248 NA
ATOM     19  C   UNL A   1      43.301  25.479  26.671  1.00  0.00     0.031 C 
ATOM     20  C   UNL A   1      39.136  27.279  28.797  1.00  0.00     0.029 A 
ATOM     21  N   UNL A   1      40.932  28.576  28.923  1.00  0.00    -0.354 N 
ATOM     22  C   UNL A   1      44.684  27.229  27.110  1.00  0.00     0.074 A 
ATOM     23  C   UNL A   1      44.539  25.916  26.529  1.00  0.00     0.031 C 
ATOM     24  C   UNL A   1      38.750  28.412  29.397  1.00  0.00     0.029 A 
ATOM     25  C   UNL A   1      39.910  29.272  29.532  1.00  0.00     0.049 A 
ATOM     26  H   UNL A   1      41.839  28.940  28.809  1.00  0.00     0.167 HD
ATOM     27  C   UNL A   1      45.790  27.994  26.993  1.00  0.00     0.037 A 
ATOM     28  C   UNL A   1      39.917  30.471  30.141  1.00  0.00     0.037 A 
ATOM     29  C   UNL A   1      45.902  29.301  27.574  1.00  0.00     0.049 A 
ATOM     30  C   UNL A   1      41.201  31.246  30.105  1.00  0.00     0.074 A 
ATOM     31  C   UNL A   1      46.992  30.147  27.598  1.00  0.00     0.029 A 
ATOM     32  N   UNL A   1      44.867  29.952  28.236  1.00  0.00    -0.354 N 
ATOM     33  N   UNL A   1      42.343  30.921  29.546  1.00  0.00    -0.248 NA
ATOM     34  C   UNL A   1      41.201  32.559  30.759  1.00  0.00     0.031 C 
ATOM     35  C   UNL A   1      46.629  31.294  28.311  1.00  0.00     0.029 A 
ATOM     36  C   UNL A   1      45.297  31.187  28.684  1.00  0.00     0.049 A 
ATOM     37  H   UNL A   1      43.962  29.587  28.366  1.00  0.00     0.167 HD
ATOM     38  C   UNL A   1      43.189  31.995  29.752  1.00  0.00     0.074 A 
ATOM     39  C   UNL A   1      42.417  32.995  30.469  1.00  0.00     0.031 C 
ATOM     40  C   UNL A   1      44.486  32.148  29.390  1.00  0.00     0.037 A 
BRANCH  27  41
ATOM     41  C   UNL A   1      46.941  27.397  26.243  1.00  0.00     0.064 A 
ATOM     42  C   UNL A   1      47.930  26.640  26.891  1.00  0.00     0.173 A 
ATOM     43  C   UNL A   1      47.098  27.647  24.873  1.00  0.00     0.173 A 
ATOM     44  F   UNL A   1      47.849  26.411  28.211  1.00  0.00    -0.203 F 
ATOM     45  C   UNL A   1      49.051  26.186  26.203  1.00  0.00     0.198 A 
ATOM     46  C   UNL A   1      48.204  27.165  24.180  1.00  0.00     0.198 A 
ATOM     47  F   UNL A   1      46.191  28.382  24.212  1.00  0.00    -0.203 F 
ATOM     48  F   UNL A   1      50.020  25.532  26.858  1.00  0.00    -0.200 F 
ATOM     49  C   UNL A   1      49.185  26.445  24.847  1.00  0.00     0.200 A 
ATOM     50  F   UNL A   1      48.335  27.420  22.871  1.00  0.00    -0.200 F 
ATOM     51  F   UNL A   1      50.271  26.018  24.186  1.00  0.00    -0.200 F 
ENDBRANCH  27  41
BRANCH  28  52
ATOM     52  C   UNL A   1      38.701  30.988  30.830  1.00  0.00     0.064 A 
ATOM     53  C   UNL A   1      37.722  31.721  30.145  1.00  0.00     0.173 A 
ATOM     54  C   UNL A   1      38.508  30.784  32.207  1.00  0.00     0.173 A 
ATOM     55  F   UNL A   1      37.856  31.952  28.831  1.00  0.00    -0.203 F 
ATOM     56  C   UNL A   1      36.626  32.266  30.814  1.00  0.00     0.198 A 
ATOM     57  C   UNL A   1      37.394  31.299  32.868  1.00  0.00     0.198 A 
ATOM     58  F   UNL A   1      39.405  30.081  32.914  1.00  0.00    -0.203 F 
ATOM     59  F   UNL A   1      35.740  33.016  30.144  1.00  0.00    -0.200 F 
ATOM     60  C   UNL A   1      36.461  32.053  32.175  1.00  0.00     0.200 A 
ATOM     61  F   UNL A   1      37.231  31.074  34.179  1.00  0.00    -0.200 F 
ATOM     62  F   UNL A   1      35.413  32.584  32.818  1.00  0.00    -0.200 F 
ENDBRANCH  28  52
BRANCH  40  63
ATOM     63  C   UNL A   1      45.125  33.456  29.741  1.00  0.00     0.064 A 
ATOM     64  C   UNL A   1      45.804  33.638  30.954  1.00  0.00     0.173 A 
ATOM     65  C   UNL A   1      45.078  34.527  28.837  1.00  0.00     0.173 A 
ATOM     66  F   UNL A   1      45.857  32.646  31.855  1.00  0.00    -0.203 F 
ATOM     67  C   UNL A   1      46.386  34.862  31.264  1.00  0.00     0.198 A 
ATOM     68  C   UNL A   1      45.694  35.737  29.135  1.00  0.00     0.198 A 
ATOM     69  F   UNL A   1      44.444  34.395  27.663  1.00  0.00    -0.203 F 
ATOM     70  F   UNL A   1      46.977  35.036  32.454  1.00  0.00    -0.200 F 
ATOM     71  C   UNL A   1      46.338  35.906  30.352  1.00  0.00     0.200 A 
ATOM     72  F   UNL A   1      45.661  36.739  28.247  1.00  0.00    -0.200 F 
ATOM     73  F   UNL A   1      46.906  37.082  30.650  1.00  0.00    -0.200 F 
ENDBRANCH  40  63
ENDBRANCH  14  15
ENDBRANCH   7   9
ENDBRANCH   6   7
ENDBRANCH   5   6
ENDBRANCH   4   5
ENDBRANCH   3   4
ENDBRANCH   2   3
ENDBRANCH   1   2
BRANCH   1  74
ATOM     74  O   UNL A   1      33.865  26.037  25.451  1.00  0.00    -0.376 OA
BRANCH  74  75
ATOM     75  C   UNL A   1      33.434  26.865  24.377  1.00  0.00     0.202 C 
BRANCH  75  76
ATOM     76  C   UNL A   1      32.034  27.485  24.492  1.00  0.00     0.261 C 
BRANCH  76  77
ATOM     77  O   UNL A   1      31.094  26.774  25.325  1.00  0.00    -0.460 OA
BRANCH  77  78
ATOM     78  C   UNL A   1      30.361  25.843  24.668  1.00  0.00     0.338 C 
ATOM     79  O   UNL A   1      29.284  26.035  24.104  1.00  0.00    -0.246 OA
BRANCH  78  80
ATOM     80  C   UNL A   1      30.938  24.482  24.724  1.00  0.00     0.061 A 
ATOM     81  C   UNL A   1      31.111  23.904  25.987  1.00  0.00     0.019 A 
ATOM     82  C   UNL A   1      31.244  23.730  23.594  1.00  0.00     0.040 A 
ATOM     83  C   UNL A   1      31.468  22.560  26.113  1.00  0.00     0.049 A 
ATOM     84  C   UNL A   1      31.645  22.387  23.736  1.00  0.00     0.083 A 
ATOM     85  C   UNL A   1      31.660  21.757  24.986  1.00  0.00     0.137 A 
ATOM     86  Cl  UNL A   1      32.157  21.620  22.296  1.00  0.00    -0.080 Cl
BRANCH  85  87
ATOM     87  O   UNL A   1      31.795  20.436  25.304  1.00  0.00    -0.492 OA
BRANCH  87  88
ATOM     88  C   UNL A   1      33.060  19.824  25.563  1.00  0.00     0.233 C 
BRANCH  88  89
ATOM     89  C   UNL A   1      33.652  18.949  24.439  1.00  0.00     0.030 C 
ATOM     90  C   UNL A   1      35.042  18.298  24.598  1.00  0.00     0.011 C 
ATOM     91  C   UNL A   1      32.774  17.731  24.024  1.00  0.00    -0.004 C 
ATOM     92  C   UNL A   1      34.800  16.823  24.225  1.00  0.00    -0.010 C 
ATOM     93  C   UNL A   1      32.596  16.726  25.178  1.00  0.00     0.004 C 
ATOM     94  C   UNL A   1      33.746  16.947  23.131  1.00  0.00     0.007 C 
ATOM     95  C   UNL A   1      34.002  16.130  25.342  1.00  0.00     0.004 C 
ENDBRANCH  88  89
ENDBRANCH  87  88
ENDBRANCH  85  87
ENDBRANCH  78  80
ENDBRANCH  77  78
ENDBRANCH  76  77
ENDBRANCH  75  76
ENDBRANCH  74  75
ENDBRANCH   1  74
TORSDOF 20
ENDMDL
MODEL 2
REMARK VINA RESULT:     -10.8      4.195      9.555
REMARK SMILES O=C(OCCOCCOCCOC(=O)c1ccc(OC[C@H]2C[C@H]3CC[C@@H]2C3)c(Cl)c1)c1ccc(-c2c3nc(c(-c4c(F)c(F)c(F)c(F)c4F)c4ccc([nH]4)c(-c4c(F)c(F)c(F)c(F)c4F)c4nc(c(-c5c(F)c(F)c(F)c(F)c5F)c5ccc2[nH]5)C=C4)C=C3)cc1
REMARK SMILES IDX 8 1 7 2 6 3 5 4 4 5 3 6 2 7 1 8 31 9 32 10 93 11 33 12 92 13
REMARK SMILES IDX 34 14 35 15 36 16 86 17 37 18 91 19 85 20 87 21 38 22 90 23
REMARK SMILES IDX 84 24 83 25 39 27 71 28 51 29 70 30 52 31 55 32 69 33 88 34
REMARK SMILES IDX 53 35 54 36 68 38 89 39 56 40 40 41 41 42 49 43 42 44 43 45
REMARK SMILES IDX 47 46 50 47 44 48 45 49 48 50 46 51 72 52 73 53 81 54 74 55
REMARK SMILES IDX 75 56 79 57 82 58 76 59 77 60 80 61 78 62 57 63 58 64 66 65
REMARK SMILES IDX 59 66 60 67 64 68 67 69 61 70 62 71 65 72 63 73 9 74 10 75
REMARK SMILES IDX 11 76 12 77 13 78 14 79 15 80 16 81 30 82 17 83 28 84 18 85
REMARK SMILES IDX 29 86 19 87 20 88 21 89 22 90 26 91 23 92 25 93 27 94 24 95
REMARK H PARENT 87 26 55 37
REMARK Flexibility Score: inf
ROOT
ATOM      1  C   UNL A   1      31.693  28.437  26.216  1.00  0.00     0.188 C 
ENDROOT
BRANCH   1   2
ATOM      2  C   UNL A   1      32.771  29.012  27.137  1.00  0.00     0.188 C 
BRANCH   2   3
ATOM      3  O   UNL A   1      32.468  30.348  27.545  1.00  0.00    -0.376 OA
BRANCH   3   4
ATOM      4  C   UNL A   1      32.317  31.283  26.469  1.00  0.00     0.202 C 
BRANCH   4   5
ATOM      5  C   UNL A   1      31.793  32.686  26.843  1.00  0.00     0.261 C 
BRANCH   5   6
ATOM      6  O   UNL A   1      32.494  33.309  27.938  1.00  0.00    -0.460 OA
BRANCH   6   7
ATOM      7  C   UNL A   1      33.732  33.870  27.921  1.00  0.00     0.338 C 
ATOM      8  O   UNL A   1      33.890  34.984  27.428  1.00  0.00    -0.246 OA
BRANCH   7   9
ATOM      9  C   UNL A   1      34.917  33.172  28.491  1.00  0.00     0.060 A 
ATOM     10  C   UNL A   1      34.837  31.926  29.098  1.00  0.00     0.016 A 
ATOM     11  C   UNL A   1      36.184  33.747  28.349  1.00  0.00     0.016 A 
ATOM     12  C   UNL A   1      35.915  31.330  29.714  1.00  0.00     0.010 A 
ATOM     13  C   UNL A   1      37.314  33.084  28.850  1.00  0.00     0.010 A 
ATOM     14  C   UNL A   1      37.177  31.877  29.563  1.00  0.00    -0.014 A 
BRANCH  14  15
ATOM     15  C   UNL A   1      38.302  31.193  30.236  1.00  0.00     0.031 A 
ATOM     16  C   UNL A   1      38.526  31.497  31.681  1.00  0.00     0.074 A 
ATOM     17  C   UNL A   1      39.005  30.227  29.606  1.00  0.00     0.049 A 
ATOM     18  N   UNL A   1      39.451  31.053  32.486  1.00  0.00    -0.248 NA
ATOM     19  C   UNL A   1      37.561  32.412  32.317  1.00  0.00     0.031 C 
ATOM     20  C   UNL A   1      38.762  29.753  28.243  1.00  0.00     0.029 A 
ATOM     21  N   UNL A   1      40.052  29.445  30.023  1.00  0.00    -0.354 N 
ATOM     22  C   UNL A   1      39.179  31.636  33.712  1.00  0.00     0.074 A 
ATOM     23  C   UNL A   1      38.052  32.520  33.539  1.00  0.00     0.031 C 
ATOM     24  C   UNL A   1      39.648  28.804  27.915  1.00  0.00     0.029 A 
ATOM     25  C   UNL A   1      40.535  28.602  29.045  1.00  0.00     0.049 A 
ATOM     26  H   UNL A   1      40.424  29.484  30.933  1.00  0.00     0.167 HD
ATOM     27  C   UNL A   1      39.797  31.416  34.892  1.00  0.00     0.037 A 
ATOM     28  C   UNL A   1      41.588  27.765  29.061  1.00  0.00     0.037 A 
ATOM     29  C   UNL A   1      40.911  30.523  35.037  1.00  0.00     0.049 A 
ATOM     30  C   UNL A   1      42.336  27.636  30.355  1.00  0.00     0.074 A 
ATOM     31  C   UNL A   1      41.676  30.269  36.157  1.00  0.00     0.029 A 
ATOM     32  N   UNL A   1      41.413  29.729  34.012  1.00  0.00    -0.354 N 
ATOM     33  N   UNL A   1      42.103  28.228  31.502  1.00  0.00    -0.248 NA
ATOM     34  C   UNL A   1      43.475  26.713  30.372  1.00  0.00     0.031 C 
ATOM     35  C   UNL A   1      42.669  29.351  35.799  1.00  0.00     0.029 A 
ATOM     36  C   UNL A   1      42.488  28.991  34.471  1.00  0.00     0.049 A 
ATOM     37  H   UNL A   1      41.055  29.697  33.096  1.00  0.00     0.167 HD
ATOM     38  C   UNL A   1      43.043  27.731  32.387  1.00  0.00     0.074 A 
ATOM     39  C   UNL A   1      43.837  26.768  31.645  1.00  0.00     0.031 C 
ATOM     40  C   UNL A   1      43.243  28.041  33.691  1.00  0.00     0.037 A 
BRANCH  27  41
ATOM     41  C   UNL A   1      39.286  32.186  36.070  1.00  0.00     0.064 A 
ATOM     42  C   UNL A   1      39.807  33.444  36.411  1.00  0.00     0.173 A 
ATOM     43  C   UNL A   1      38.315  31.627  36.913  1.00  0.00     0.173 A 
ATOM     44  F   UNL A   1      40.771  34.002  35.661  1.00  0.00    -0.203 F 
ATOM     45  C   UNL A   1      39.401  34.099  37.571  1.00  0.00     0.198 A 
ATOM     46  C   UNL A   1      37.888  32.298  38.055  1.00  0.00     0.198 A 
ATOM     47  F   UNL A   1      37.800  30.419  36.642  1.00  0.00    -0.203 F 
ATOM     48  F   UNL A   1      39.968  35.263  37.917  1.00  0.00    -0.200 F 
ATOM     49  C   UNL A   1      38.438  33.526  38.389  1.00  0.00     0.200 A 
ATOM     50  F   UNL A   1      36.961  31.743  38.848  1.00  0.00    -0.200 F 
ATOM     51  F   UNL A   1      38.056  34.151  39.512  1.00  0.00    -0.200 F 
ENDBRANCH  27  41
BRANCH  28  52
ATOM     52  C   UNL A   1      41.991  27.016  27.838  1.00  0.00     0.064 A 
ATOM     53  C   UNL A   1      41.498  25.733  27.562  1.00  0.00     0.173 A 
ATOM     54  C   UNL A   1      42.911  27.563  26.926  1.00  0.00     0.173 A 
ATOM     55  F   UNL A   1      40.621  25.159  28.400  1.00  0.00    -0.203 F 
ATOM     56  C   UNL A   1      41.939  25.010  26.454  1.00  0.00     0.198 A 
ATOM     57  C   UNL A   1      43.326  26.853  25.800  1.00  0.00     0.198 A 
ATOM     58  F   UNL A   1      43.410  28.791  27.129  1.00  0.00    -0.203 F 
ATOM     59  F   UNL A   1      41.498  23.761  26.252  1.00  0.00    -0.200 F 
ATOM     60  C   UNL A   1      42.852  25.571  25.572  1.00  0.00     0.200 A 
ATOM     61  F   UNL A   1      44.193  27.408  24.942  1.00  0.00    -0.200 F 
ATOM     62  F   UNL A   1      43.282  24.873  24.513  1.00  0.00    -0.200 F 
ENDBRANCH  28  52
BRANCH  40  63
ATOM     63  C   UNL A   1      44.341  27.301  34.391  1.00  0.00     0.064 A 
ATOM     64  C   UNL A   1      45.644  27.813  34.456  1.00  0.00     0.173 A 
ATOM     65  C   UNL A   1      44.073  26.079  35.024  1.00  0.00     0.173 A 
ATOM     66  F   UNL A   1      45.948  28.970  33.848  1.00  0.00    -0.203 F 
ATOM     67  C   UNL A   1      46.651  27.108  35.105  1.00  0.00     0.198 A 
ATOM     68  C   UNL A   1      45.075  25.396  35.705  1.00  0.00     0.198 A 
ATOM     69  F   UNL A   1      42.839  25.555  34.991  1.00  0.00    -0.203 F 
ATOM     70  F   UNL A   1      47.904  27.583  35.104  1.00  0.00    -0.200 F 
ATOM     71  C   UNL A   1      46.364  25.906  35.735  1.00  0.00     0.200 A 
ATOM     72  F   UNL A   1      44.793  24.244  36.326  1.00  0.00    -0.200 F 
ATOM     73  F   UNL A   1      47.335  25.233  36.366  1.00  0.00    -0.200 F 
ENDBRANCH  40  63
ENDBRANCH  14  15
ENDBRANCH   7   9
ENDBRANCH   6   7
ENDBRANCH   5   6
ENDBRANCH   4   5
ENDBRANCH   3   4
ENDBRANCH   2   3
ENDBRANCH   1   2
BRANCH   1  74
ATOM     74  O   UNL A   1      32.088  28.232  24.861  1.00  0.00    -0.376 OA
BRANCH  74  75
ATOM     75  C   UNL A   1      31.285  28.848  23.860  1.00  0.00     0.202 C 
BRANCH  75  76
ATOM     76  C   UNL A   1      31.020  28.040  22.582  1.00  0.00     0.261 C 
BRANCH  76  77
ATOM     77  O   UNL A   1      30.611  26.669  22.774  1.00  0.00    -0.460 OA
BRANCH  77  78
ATOM     78  C   UNL A   1      31.472  25.754  22.270  1.00  0.00     0.338 C 
ATOM     79  O   UNL A   1      32.034  25.814  21.175  1.00  0.00    -0.246 OA
BRANCH  78  80
ATOM     80  C   UNL A   1      31.666  24.573  23.140  1.00  0.00     0.061 A 
ATOM     81  C   UNL A   1      32.389  23.496  22.616  1.00  0.00     0.019 A 
ATOM     82  C   UNL A   1      31.232  24.513  24.460  1.00  0.00     0.040 A 
ATOM     83  C   UNL A   1      32.775  22.432  23.434  1.00  0.00     0.049 A 
ATOM     84  C   UNL A   1      31.592  23.413  25.264  1.00  0.00     0.083 A 
ATOM     85  C   UNL A   1      32.452  22.415  24.794  1.00  0.00     0.137 A 
ATOM     86  Cl  UNL A   1      30.860  23.366  26.809  1.00  0.00    -0.080 Cl
BRANCH  85  87
ATOM     87  O   UNL A   1      33.088  21.411  25.468  1.00  0.00    -0.492 OA
BRANCH  87  88
ATOM     88  C   UNL A   1      34.027  21.652  26.518  1.00  0.00     0.233 C 
BRANCH  88  89
ATOM     89  C   UNL A   1      35.521  21.627  26.133  1.00  0.00     0.030 C 
ATOM     90  C   UNL A   1      35.975  21.029  24.784  1.00  0.00     0.011 C 
ATOM     91  C   UNL A   1      36.218  23.020  26.115  1.00  0.00    -0.004 C 
ATOM     92  C   UNL A   1      36.889  22.118  24.191  1.00  0.00    -0.010 C 
ATOM     93  C   UNL A   1      35.610  23.959  25.056  1.00  0.00     0.004 C 
ATOM     94  C   UNL A   1      37.555  22.682  25.441  1.00  0.00     0.007 C 
ATOM     95  C   UNL A   1      36.039  23.313  23.730  1.00  0.00     0.004 C 
ENDBRANCH  88  89
ENDBRANCH  87  88
ENDBRANCH  85  87
ENDBRANCH  78  80
ENDBRANCH  77  78
ENDBRANCH  76  77
ENDBRANCH  75  76
ENDBRANCH  74  75
ENDBRANCH   1  74
TORSDOF 20
ENDMDL
MODEL 3
REMARK VINA RESULT:     -10.7      4.349      7.530
REMARK SMILES O=C(OCCOCCOCCOC(=O)c1ccc(OC[C@H]2C[C@H]3CC[C@@H]2C3)c(Cl)c1)c1ccc(-c2c3nc(c(-c4c(F)c(F)c(F)c(F)c4F)c4ccc([nH]4)c(-c4c(F)c(F)c(F)c(F)c4F)c4nc(c(-c5c(F)c(F)c(F)c(F)c5F)c5ccc2[nH]5)C=C4)C=C3)cc1
REMARK SMILES IDX 8 1 7 2 6 3 5 4 4 5 3 6 2 7 1 8 31 9 32 10 93 11 33 12 92 13
REMARK SMILES IDX 34 14 35 15 36 16 86 17 37 18 91 19 85 20 87 21 38 22 90 23
REMARK SMILES IDX 84 24 83 25 39 27 71 28 51 29 70 30 52 31 55 32 69 33 88 34
REMARK SMILES IDX 53 35 54 36 68 38 89 39 56 40 40 41 41 42 49 43 42 44 43 45
REMARK SMILES IDX 47 46 50 47 44 48 45 49 48 50 46 51 72 52 73 53 81 54 74 55
REMARK SMILES IDX 75 56 79 57 82 58 76 59 77 60 80 61 78 62 57 63 58 64 66 65
REMARK SMILES IDX 59 66 60 67 64 68 67 69 61 70 62 71 65 72 63 73 9 74 10 75
REMARK SMILES IDX 11 76 12 77 13 78 14 79 15 80 16 81 30 82 17 83 28 84 18 85
REMARK SMILES IDX 29 86 19 87 20 88 21 89 22 90 26 91 23 92 25 93 27 94 24 95
REMARK H PARENT 87 26 55 37
REMARK Flexibility Score: inf
ROOT
ATOM      1  C   UNL A   1      41.149  21.560  26.107  1.00  0.00     0.188 C 
ENDROOT
BRANCH   1   2
ATOM      2  C   UNL A   1      42.483  20.898  26.461  1.00  0.00     0.188 C 
BRANCH   2   3
ATOM      3  O   UNL A   1      43.215  20.514  25.294  1.00  0.00    -0.376 OA
BRANCH   3   4
ATOM      4  C   UNL A   1      44.443  21.227  25.096  1.00  0.00     0.202 C 
BRANCH   4   5
ATOM      5  C   UNL A   1      44.415  22.378  24.070  1.00  0.00     0.261 C 
BRANCH   5   6
ATOM      6  O   UNL A   1      43.756  23.573  24.537  1.00  0.00    -0.460 OA
BRANCH   6   7
ATOM      7  C   UNL A   1      44.330  24.685  25.068  1.00  0.00     0.338 C 
ATOM      8  O   UNL A   1      45.413  25.075  24.642  1.00  0.00    -0.246 OA
BRANCH   7   9
ATOM      9  C   UNL A   1      43.677  25.458  26.160  1.00  0.00     0.060 A 
ATOM     10  C   UNL A   1      43.911  26.811  26.370  1.00  0.00     0.016 A 
ATOM     11  C   UNL A   1      42.727  24.828  26.971  1.00  0.00     0.016 A 
ATOM     12  C   UNL A   1      43.385  27.497  27.442  1.00  0.00     0.010 A 
ATOM     13  C   UNL A   1      42.077  25.553  27.981  1.00  0.00     0.010 A 
ATOM     14  C   UNL A   1      42.428  26.892  28.239  1.00  0.00    -0.014 A 
BRANCH  14  15
ATOM     15  C   UNL A   1      41.888  27.676  29.370  1.00  0.00     0.031 A 
ATOM     16  C   UNL A   1      42.649  27.642  30.655  1.00  0.00     0.074 A 
ATOM     17  C   UNL A   1      40.831  28.501  29.203  1.00  0.00     0.049 A 
ATOM     18  N   UNL A   1      42.375  28.217  31.793  1.00  0.00    -0.248 NA
ATOM     19  C   UNL A   1      43.905  26.872  30.654  1.00  0.00     0.031 C 
ATOM     20  C   UNL A   1      40.115  28.717  27.945  1.00  0.00     0.029 A 
ATOM     21  N   UNL A   1      40.180  29.334  30.076  1.00  0.00    -0.354 N 
ATOM     22  C   UNL A   1      43.419  27.874  32.636  1.00  0.00     0.074 A 
ATOM     23  C   UNL A   1      44.296  26.987  31.911  1.00  0.00     0.031 C 
ATOM     24  C   UNL A   1      39.107  29.579  28.126  1.00  0.00     0.029 A 
ATOM     25  C   UNL A   1      39.094  29.976  29.521  1.00  0.00     0.049 A 
ATOM     26  H   UNL A   1      40.461  29.460  31.010  1.00  0.00     0.167 HD
ATOM     27  C   UNL A   1      43.644  28.302  33.896  1.00  0.00     0.037 A 
ATOM     28  C   UNL A   1      38.183  30.789  30.085  1.00  0.00     0.037 A 
ATOM     29  C   UNL A   1      42.759  29.193  34.590  1.00  0.00     0.049 A 
ATOM     30  C   UNL A   1      38.390  31.147  31.528  1.00  0.00     0.074 A 
ATOM     31  C   UNL A   1      42.828  29.640  35.893  1.00  0.00     0.029 A 
ATOM     32  N   UNL A   1      41.635  29.778  34.017  1.00  0.00    -0.354 N 
ATOM     33  N   UNL A   1      39.356  30.780  32.336  1.00  0.00    -0.248 NA
ATOM     34  C   UNL A   1      37.402  32.044  32.135  1.00  0.00     0.031 C 
ATOM     35  C   UNL A   1      41.722  30.465  36.123  1.00  0.00     0.029 A 
ATOM     36  C   UNL A   1      40.994  30.575  34.947  1.00  0.00     0.049 A 
ATOM     37  H   UNL A   1      41.341  29.644  33.088  1.00  0.00     0.167 HD
ATOM     38  C   UNL A   1      39.114  31.421  33.537  1.00  0.00     0.074 A 
ATOM     39  C   UNL A   1      37.918  32.221  33.342  1.00  0.00     0.031 C 
ATOM     40  C   UNL A   1      39.807  31.356  34.700  1.00  0.00     0.037 A 
BRANCH  27  41
ATOM     41  C   UNL A   1      44.868  27.768  34.576  1.00  0.00     0.064 A 
ATOM     42  C   UNL A   1      46.103  28.431  34.498  1.00  0.00     0.173 A 
ATOM     43  C   UNL A   1      44.823  26.540  35.251  1.00  0.00     0.173 A 
ATOM     44  F   UNL A   1      46.208  29.587  33.824  1.00  0.00    -0.203 F 
ATOM     45  C   UNL A   1      47.255  27.867  35.040  1.00  0.00     0.198 A 
ATOM     46  C   UNL A   1      45.969  25.994  35.819  1.00  0.00     0.198 A 
ATOM     47  F   UNL A   1      43.671  25.858  35.336  1.00  0.00    -0.203 F 
ATOM     48  F   UNL A   1      48.436  28.481  34.887  1.00  0.00    -0.200 F 
ATOM     49  C   UNL A   1      47.185  26.652  35.704  1.00  0.00     0.200 A 
ATOM     50  F   UNL A   1      45.904  24.818  36.457  1.00  0.00    -0.200 F 
ATOM     51  F   UNL A   1      48.297  26.103  36.216  1.00  0.00    -0.200 F 
ENDBRANCH  27  41
BRANCH  28  52
ATOM     52  C   UNL A   1      37.019  31.294  29.305  1.00  0.00     0.064 A 
ATOM     53  C   UNL A   1      36.921  32.636  28.910  1.00  0.00     0.173 A 
ATOM     54  C   UNL A   1      35.954  30.442  28.963  1.00  0.00     0.173 A 
ATOM     55  F   UNL A   1      37.904  33.496  29.214  1.00  0.00    -0.203 F 
ATOM     56  C   UNL A   1      35.791  33.114  28.246  1.00  0.00     0.198 A 
ATOM     57  C   UNL A   1      34.841  30.914  28.269  1.00  0.00     0.198 A 
ATOM     58  F   UNL A   1      35.995  29.146  29.304  1.00  0.00    -0.203 F 
ATOM     59  F   UNL A   1      35.699  34.415  27.938  1.00  0.00    -0.200 F 
ATOM     60  C   UNL A   1      34.753  32.253  27.924  1.00  0.00     0.200 A 
ATOM     61  F   UNL A   1      33.849  30.074  27.944  1.00  0.00    -0.200 F 
ATOM     62  F   UNL A   1      33.665  32.716  27.295  1.00  0.00    -0.200 F 
ENDBRANCH  28  52
BRANCH  40  63
ATOM     63  C   UNL A   1      39.297  32.200  35.827  1.00  0.00     0.064 A 
ATOM     64  C   UNL A   1      39.712  33.529  35.992  1.00  0.00     0.173 A 
ATOM     65  C   UNL A   1      38.362  31.677  36.732  1.00  0.00     0.173 A 
ATOM     66  F   UNL A   1      40.618  34.063  35.160  1.00  0.00    -0.203 F 
ATOM     67  C   UNL A   1      39.231  34.296  37.047  1.00  0.00     0.198 A 
ATOM     68  C   UNL A   1      37.855  32.460  37.763  1.00  0.00     0.198 A 
ATOM     69  F   UNL A   1      37.933  30.412  36.608  1.00  0.00    -0.203 F 
ATOM     70  F   UNL A   1      39.685  35.544  37.225  1.00  0.00    -0.200 F 
ATOM     71  C   UNL A   1      38.299  33.764  37.926  1.00  0.00     0.200 A 
ATOM     72  F   UNL A   1      36.942  31.951  38.600  1.00  0.00    -0.200 F 
ATOM     73  F   UNL A   1      37.831  34.508  38.937  1.00  0.00    -0.200 F 
ENDBRANCH  40  63
ENDBRANCH  14  15
ENDBRANCH   7   9
ENDBRANCH   6   7
ENDBRANCH   5   6
ENDBRANCH   4   5
ENDBRANCH   3   4
ENDBRANCH   2   3
ENDBRANCH   1   2
BRANCH   1  74
ATOM     74  O   UNL A   1      39.983  20.833  26.486  1.00  0.00    -0.376 OA
BRANCH  74  75
ATOM     75  C   UNL A   1      38.969  20.688  25.497  1.00  0.00     0.202 C 
BRANCH  75  76
ATOM     76  C   UNL A   1      38.047  21.892  25.261  1.00  0.00     0.261 C 
BRANCH  76  77
ATOM     77  O   UNL A   1      36.731  21.591  24.749  1.00  0.00    -0.460 OA
BRANCH  77  78
ATOM     78  C   UNL A   1      36.172  22.590  24.026  1.00  0.00     0.338 C 
ATOM     79  O   UNL A   1      36.588  23.029  22.953  1.00  0.00    -0.246 OA
BRANCH  78  80
ATOM     80  C   UNL A   1      34.992  23.206  24.672  1.00  0.00     0.061 A 
ATOM     81  C   UNL A   1      35.114  24.527  25.118  1.00  0.00     0.019 A 
ATOM     82  C   UNL A   1      33.762  22.568  24.791  1.00  0.00     0.040 A 
ATOM     83  C   UNL A   1      33.996  25.235  25.561  1.00  0.00     0.049 A 
ATOM     84  C   UNL A   1      32.650  23.281  25.280  1.00  0.00     0.083 A 
ATOM     85  C   UNL A   1      32.728  24.647  25.571  1.00  0.00     0.137 A 
ATOM     86  Cl  UNL A   1      31.240  22.348  25.542  1.00  0.00    -0.080 Cl
BRANCH  85  87
ATOM     87  O   UNL A   1      31.737  25.550  25.833  1.00  0.00    -0.492 OA
BRANCH  87  88
ATOM     88  C   UNL A   1      30.666  25.815  24.925  1.00  0.00     0.233 C 
BRANCH  88  89
ATOM     89  C   UNL A   1      30.576  27.246  24.356  1.00  0.00     0.030 C 
ATOM     90  C   UNL A   1      31.626  28.311  24.737  1.00  0.00     0.011 C 
ATOM     91  C   UNL A   1      30.579  27.337  22.801  1.00  0.00    -0.004 C 
ATOM     92  C   UNL A   1      32.064  28.894  23.380  1.00  0.00    -0.010 C 
ATOM     93  C   UNL A   1      31.893  26.811  22.193  1.00  0.00     0.004 C 
ATOM     94  C   UNL A   1      30.765  28.845  22.585  1.00  0.00     0.007 C 
ATOM     95  C   UNL A   1      32.923  27.865  22.627  1.00  0.00     0.004 C 
ENDBRANCH  88  89
ENDBRANCH  87  88
ENDBRANCH  85  87
ENDBRANCH  78  80
ENDBRANCH  77  78
ENDBRANCH  76  77
ENDBRANCH  75  76
ENDBRANCH  74  75
ENDBRANCH   1  74
TORSDOF 20
ENDMDL
