MODEL 1
REMARK VINA RESULT:     -11.6      0.000      0.000
REMARK SMILES CC[C@H](C)[C@@H](NC(=S)Nc1ccccc1)C(=O)OCCOCCOCCOC(=O)c1ccc(-c2c3nc(c(-c4c(F)c(F)c(F)c(F)c4F)c4ccc([nH]4)c(-c4c(F)c(F)c(F)c(F)c4F)c4nc(c(-c5c(F)c(F)c(F)c(F)c5F)c5ccc2[nH]5)C=C4)C=C3)cc1
REMARK SMILES IDX 22 1 21 2 20 3 19 4 18 5 16 6 17 7 5 8 3 9 4 10 2 11 1 12
REMARK SMILES IDX 6 13 7 15 8 16 9 17 10 19 11 20 15 21 12 22 14 23 13 24
REMARK SMILES IDX 23 25 24 26 25 27 26 28 27 29 28 30 29 31 30 32 31 33 92 34
REMARK SMILES IDX 32 35 91 36 33 37 34 38 35 39 85 40 36 41 90 42 84 43 86 44
REMARK SMILES IDX 37 45 89 46 83 47 82 48 38 50 70 51 50 52 69 53 51 54 54 55
REMARK SMILES IDX 68 56 87 57 52 58 53 59 67 61 88 62 55 63 39 64 40 65 48 66
REMARK SMILES IDX 41 67 42 68 46 69 49 70 43 71 44 72 47 73 45 74 71 75 72 76
REMARK SMILES IDX 80 77 73 78 74 79 78 80 81 81 75 82 76 83 79 84 77 85 56 86
REMARK SMILES IDX 57 87 65 88 58 89 59 90 63 91 66 92 60 93 61 94 64 95 62 96
REMARK H PARENT 6 14 9 18 86 49 54 60
REMARK Flexibility Score: inf
ROOT
ATOM      1  C   UNL A   1      41.507  20.425  27.197  1.00  0.00     0.188 C 
ENDROOT
BRANCH   1   2
ATOM      2  O   UNL A   1      39.956  21.696  27.227  1.00  0.00    -0.376 OA
BRANCH   2   3
ATOM      3  C   UNL A   1      38.967  22.535  26.161  1.00  0.00     0.202 C 
BRANCH   3   4
ATOM      4  C   UNL A   1      37.278  22.402  25.857  1.00  0.00     0.261 C 
BRANCH   4   5
ATOM      5  O   UNL A   1      36.313  23.492  26.220  1.00  0.00    -0.462 OA
BRANCH   5   6
ATOM      6  C   UNL A   1      34.921  23.377  26.438  1.00  0.00     0.328 C 
ATOM      7  O   UNL A   1      34.435  22.727  27.357  1.00  0.00    -0.250 OA
BRANCH   6   8
ATOM      8  C   UNL A   1      34.122  23.828  25.114  1.00  0.00     0.194 C 
BRANCH   8   9
ATOM      9  C   UNL A   1      34.098  25.292  24.542  1.00  0.00     0.019 C 
ATOM     10  C   UNL A   1      33.503  25.375  23.120  1.00  0.00     0.010 C 
BRANCH   9  11
ATOM     11  C   UNL A   1      33.221  26.184  25.482  1.00  0.00     0.002 C 
ATOM     12  C   UNL A   1      33.857  27.433  26.081  1.00  0.00     0.004 C 
ENDBRANCH   9  11
ENDBRANCH   8   9
BRANCH   8  13
ATOM     13  N   UNL A   1      34.364  22.809  24.122  1.00  0.00    -0.349 N 
ATOM     14  H   UNL A   1      35.107  22.947  23.491  1.00  0.00     0.163 HD
BRANCH  13  15
ATOM     15  C   UNL A   1      33.644  21.689  24.003  1.00  0.00     0.171 C 
ATOM     16  S   UNL A   1      32.269  21.722  23.051  1.00  0.00    -0.041 S 
BRANCH  15  17
ATOM     17  N   UNL A   1      33.957  20.545  24.625  1.00  0.00    -0.333 N 
ATOM     18  H   UNL A   1      34.520  20.727  25.411  1.00  0.00     0.169 HD
BRANCH  17  19
ATOM     19  C   UNL A   1      33.725  19.150  24.496  1.00  0.00     0.040 A 
ATOM     20  C   UNL A   1      32.228  18.097  24.790  1.00  0.00     0.026 A 
ATOM     21  C   UNL A   1      35.329  18.371  24.595  1.00  0.00     0.026 A 
ATOM     22  C   UNL A   1      32.455  16.368  25.374  1.00  0.00     0.002 A 
ATOM     23  C   UNL A   1      35.501  16.686  25.057  1.00  0.00     0.002 A 
ATOM     24  C   UNL A   1      34.094  15.688  25.438  1.00  0.00     0.000 A 
ENDBRANCH  17  19
ENDBRANCH  15  17
ENDBRANCH  13  15
ENDBRANCH   8  13
ENDBRANCH   6   8
ENDBRANCH   5   6
ENDBRANCH   4   5
ENDBRANCH   3   4
ENDBRANCH   2   3
ENDBRANCH   1   2
BRANCH   1  25
ATOM     25  C   UNL A   1      42.252  19.678  25.845  1.00  0.00     0.188 C 
BRANCH  25  26
ATOM     26  O   UNL A   1      43.630  19.283  25.779  1.00  0.00    -0.376 OA
BRANCH  26  27
ATOM     27  C   UNL A   1      44.604  20.172  25.214  1.00  0.00     0.202 C 
BRANCH  27  28
ATOM     28  C   UNL A   1      44.192  21.590  24.763  1.00  0.00     0.261 C 
BRANCH  28  29
ATOM     29  O   UNL A   1      44.080  22.547  25.818  1.00  0.00    -0.460 OA
BRANCH  29  30
ATOM     30  C   UNL A   1      44.281  23.831  25.425  1.00  0.00     0.338 C 
ATOM     31  O   UNL A   1      44.820  24.201  24.396  1.00  0.00    -0.246 OA
BRANCH  30  32
ATOM     32  C   UNL A   1      43.518  24.730  26.327  1.00  0.00     0.060 A 
ATOM     33  C   UNL A   1      43.853  26.094  26.311  1.00  0.00     0.016 A 
ATOM     34  C   UNL A   1      42.432  24.289  27.088  1.00  0.00     0.016 A 
ATOM     35  C   UNL A   1      43.125  27.013  27.061  1.00  0.00     0.010 A 
ATOM     36  C   UNL A   1      41.732  25.203  27.883  1.00  0.00     0.010 A 
ATOM     37  C   UNL A   1      42.102  26.562  27.900  1.00  0.00    -0.014 A 
BRANCH  37  38
ATOM     38  C   UNL A   1      41.640  27.447  28.996  1.00  0.00     0.031 A 
ATOM     39  C   UNL A   1      42.418  27.405  30.285  1.00  0.00     0.074 A 
ATOM     40  C   UNL A   1      40.614  28.302  28.854  1.00  0.00     0.049 A 
ATOM     41  N   UNL A   1      42.201  28.028  31.413  1.00  0.00    -0.248 NA
ATOM     42  C   UNL A   1      43.607  26.536  30.295  1.00  0.00     0.031 C 
ATOM     43  C   UNL A   1      39.834  28.500  27.634  1.00  0.00     0.029 A 
ATOM     44  N   UNL A   1      40.052  29.170  29.759  1.00  0.00    -0.354 N 
ATOM     45  C   UNL A   1      43.215  27.614  32.268  1.00  0.00     0.074 A 
ATOM     46  C   UNL A   1      44.030  26.668  31.541  1.00  0.00     0.031 C 
ATOM     47  C   UNL A   1      38.884  29.423  27.873  1.00  0.00     0.029 A 
ATOM     48  C   UNL A   1      38.963  29.849  29.271  1.00  0.00     0.049 A 
ATOM     49  H   UNL A   1      40.399  29.292  30.673  1.00  0.00     0.167 HD
ATOM     50  C   UNL A   1      43.449  27.993  33.545  1.00  0.00     0.037 A 
ATOM     51  C   UNL A   1      38.117  30.693  29.895  1.00  0.00     0.037 A 
ATOM     52  C   UNL A   1      42.639  28.936  34.267  1.00  0.00     0.049 A 
ATOM     53  C   UNL A   1      38.339  31.021  31.353  1.00  0.00     0.074 A 
ATOM     54  C   UNL A   1      42.796  29.392  35.563  1.00  0.00     0.029 A 
ATOM     55  N   UNL A   1      41.511  29.560  33.755  1.00  0.00    -0.354 N 
ATOM     56  N   UNL A   1      39.300  30.634  32.157  1.00  0.00    -0.248 NA
ATOM     57  C   UNL A   1      37.353  31.908  31.991  1.00  0.00     0.031 C 
ATOM     58  C   UNL A   1      41.724  30.238  35.860  1.00  0.00     0.029 A 
ATOM     59  C   UNL A   1      40.941  30.371  34.724  1.00  0.00     0.049 A 
ATOM     60  H   UNL A   1      41.165  29.444  32.840  1.00  0.00     0.167 HD
ATOM     61  C   UNL A   1      39.058  31.256  33.377  1.00  0.00     0.074 A 
ATOM     62  C   UNL A   1      37.865  32.057  33.204  1.00  0.00     0.031 C 
ATOM     63  C   UNL A   1      39.760  31.175  34.535  1.00  0.00     0.037 A 
BRANCH  50  64
ATOM     64  C   UNL A   1      44.599  27.346  34.261  1.00  0.00     0.064 A 
ATOM     65  C   UNL A   1      45.882  27.915  34.276  1.00  0.00     0.173 A 
ATOM     66  C   UNL A   1      44.407  26.145  34.960  1.00  0.00     0.173 A 
ATOM     67  F   UNL A   1      46.126  29.051  33.606  1.00  0.00    -0.203 F 
ATOM     68  C   UNL A   1      46.934  27.291  34.943  1.00  0.00     0.198 A 
ATOM     69  C   UNL A   1      45.451  25.543  35.655  1.00  0.00     0.198 A 
ATOM     70  F   UNL A   1      43.200  25.558  34.976  1.00  0.00    -0.203 F 
ATOM     71  F   UNL A   1      48.163  27.822  34.897  1.00  0.00    -0.200 F 
ATOM     72  C   UNL A   1      46.715  26.111  35.639  1.00  0.00     0.200 A 
ATOM     73  F   UNL A   1      45.233  24.411  36.339  1.00  0.00    -0.200 F 
ATOM     74  F   UNL A   1      47.726  25.517  36.288  1.00  0.00    -0.200 F 
ENDBRANCH  50  64
BRANCH  51  75
ATOM     75  C   UNL A   1      36.957  31.272  29.162  1.00  0.00     0.064 A 
ATOM     76  C   UNL A   1      36.925  32.630  28.811  1.00  0.00     0.173 A 
ATOM     77  C   UNL A   1      35.836  30.494  28.840  1.00  0.00     0.173 A 
ATOM     78  F   UNL A   1      37.957  33.427  29.123  1.00  0.00    -0.203 F 
ATOM     79  C   UNL A   1      35.808  33.189  28.191  1.00  0.00     0.198 A 
ATOM     80  C   UNL A   1      34.735  31.045  28.190  1.00  0.00     0.198 A 
ATOM     81  F   UNL A   1      35.808  29.191  29.161  1.00  0.00    -0.203 F 
ATOM     82  F   UNL A   1      35.780  34.501  27.923  1.00  0.00    -0.200 F 
ATOM     83  C   UNL A   1      34.716  32.394  27.875  1.00  0.00     0.200 A 
ATOM     84  F   UNL A   1      33.687  30.270  27.877  1.00  0.00    -0.200 F 
ATOM     85  F   UNL A   1      33.644  32.932  27.279  1.00  0.00    -0.200 F 
ENDBRANCH  51  75
BRANCH  63  86
ATOM     86  C   UNL A   1      39.296  32.012  35.695  1.00  0.00     0.064 A 
ATOM     87  C   UNL A   1      39.693  33.349  35.854  1.00  0.00     0.173 A 
ATOM     88  C   UNL A   1      38.399  31.481  36.635  1.00  0.00     0.173 A 
ATOM     89  F   UNL A   1      40.556  33.904  34.990  1.00  0.00    -0.203 F 
ATOM     90  C   UNL A   1      39.234  34.109  36.927  1.00  0.00     0.198 A 
ATOM     91  C   UNL A   1      37.913  32.255  37.685  1.00  0.00     0.198 A 
ATOM     92  F   UNL A   1      37.976  30.212  36.526  1.00  0.00    -0.203 F 
ATOM     93  F   UNL A   1      39.670  35.366  37.088  1.00  0.00    -0.200 F 
ATOM     94  C   UNL A   1      38.339  33.566  37.836  1.00  0.00     0.200 A 
ATOM     95  F   UNL A   1      37.031  31.734  38.549  1.00  0.00    -0.200 F 
ATOM     96  F   UNL A   1      37.890  34.303  38.861  1.00  0.00    -0.200 F 
ENDBRANCH  63  86
ENDBRANCH  37  38
ENDBRANCH  30  32
ENDBRANCH  29  30
ENDBRANCH  28  29
ENDBRANCH  27  28
ENDBRANCH  26  27
ENDBRANCH  25  26
ENDBRANCH   1  25
TORSDOF 23
ENDMDL
MODEL 2
REMARK VINA RESULT:     -11.6      4.502      8.984
REMARK SMILES CC[C@H](C)[C@@H](NC(=S)Nc1ccccc1)C(=O)OCCOCCOCCOC(=O)c1ccc(-c2c3nc(c(-c4c(F)c(F)c(F)c(F)c4F)c4ccc([nH]4)c(-c4c(F)c(F)c(F)c(F)c4F)c4nc(c(-c5c(F)c(F)c(F)c(F)c5F)c5ccc2[nH]5)C=C4)C=C3)cc1
REMARK SMILES IDX 22 1 21 2 20 3 19 4 18 5 16 6 17 7 5 8 3 9 4 10 2 11 1 12
REMARK SMILES IDX 6 13 7 15 8 16 9 17 10 19 11 20 15 21 12 22 14 23 13 24
REMARK SMILES IDX 23 25 24 26 25 27 26 28 27 29 28 30 29 31 30 32 31 33 92 34
REMARK SMILES IDX 32 35 91 36 33 37 34 38 35 39 85 40 36 41 90 42 84 43 86 44
REMARK SMILES IDX 37 45 89 46 83 47 82 48 38 50 70 51 50 52 69 53 51 54 54 55
REMARK SMILES IDX 68 56 87 57 52 58 53 59 67 61 88 62 55 63 39 64 40 65 48 66
REMARK SMILES IDX 41 67 42 68 46 69 49 70 43 71 44 72 47 73 45 74 71 75 72 76
REMARK SMILES IDX 80 77 73 78 74 79 78 80 81 81 75 82 76 83 79 84 77 85 56 86
REMARK SMILES IDX 57 87 65 88 58 89 59 90 63 91 66 92 60 93 61 94 64 95 62 96
REMARK H PARENT 6 14 9 18 86 49 54 60
REMARK Flexibility Score: inf
ROOT
ATOM      1  C   UNL A   1      36.695  23.008  25.228  1.00  0.00     0.188 C 
ENDROOT
BRANCH   1   2
ATOM      2  O   UNL A   1      35.196  23.148  26.554  1.00  0.00    -0.376 OA
BRANCH   2   3
ATOM      3  C   UNL A   1      34.271  22.162  27.550  1.00  0.00     0.202 C 
BRANCH   3   4
ATOM      4  C   UNL A   1      32.707  22.402  28.226  1.00  0.00     0.261 C 
BRANCH   4   5
ATOM      5  O   UNL A   1      31.722  23.367  27.637  1.00  0.00    -0.462 OA
BRANCH   5   6
ATOM      6  C   UNL A   1      31.082  23.291  26.378  1.00  0.00     0.328 C 
ATOM      7  O   UNL A   1      30.377  22.348  26.037  1.00  0.00    -0.250 OA
BRANCH   6   8
ATOM      8  C   UNL A   1      31.750  24.349  25.362  1.00  0.00     0.194 C 
BRANCH   8   9
ATOM      9  C   UNL A   1      31.933  25.881  25.663  1.00  0.00     0.019 C 
ATOM     10  C   UNL A   1      33.407  26.336  25.602  1.00  0.00     0.010 C 
BRANCH   9  11
ATOM     11  C   UNL A   1      31.133  26.700  24.596  1.00  0.00     0.002 C 
ATOM     12  C   UNL A   1      29.672  26.335  24.361  1.00  0.00     0.004 C 
ENDBRANCH   9  11
ENDBRANCH   8   9
BRANCH   8  13
ATOM     13  N   UNL A   1      32.922  23.709  24.815  1.00  0.00    -0.349 N 
ATOM     14  H   UNL A   1      33.775  23.825  25.292  1.00  0.00     0.163 HD
BRANCH  13  15
ATOM     15  C   UNL A   1      32.924  22.968  23.703  1.00  0.00     0.171 C 
ATOM     16  S   UNL A   1      33.505  23.652  22.291  1.00  0.00    -0.041 S 
BRANCH  15  17
ATOM     17  N   UNL A   1      32.466  21.711  23.656  1.00  0.00    -0.333 N 
ATOM     18  H   UNL A   1      31.567  21.689  23.256  1.00  0.00     0.169 HD
BRANCH  17  19
ATOM     19  C   UNL A   1      32.880  20.399  24.008  1.00  0.00     0.040 A 
ATOM     20  C   UNL A   1      34.368  19.754  24.907  1.00  0.00     0.026 A 
ATOM     21  C   UNL A   1      32.039  19.297  22.883  1.00  0.00     0.026 A 
ATOM     22  C   UNL A   1      35.038  18.103  24.452  1.00  0.00     0.002 A 
ATOM     23  C   UNL A   1      32.652  17.685  22.551  1.00  0.00     0.002 A 
ATOM     24  C   UNL A   1      34.125  17.084  23.322  1.00  0.00     0.000 A 
ENDBRANCH  17  19
ENDBRANCH  15  17
ENDBRANCH  13  15
ENDBRANCH   8  13
ENDBRANCH   6   8
ENDBRANCH   5   6
ENDBRANCH   4   5
ENDBRANCH   3   4
ENDBRANCH   2   3
ENDBRANCH   1   2
BRANCH   1  25
ATOM     25  C   UNL A   1      37.949  21.842  25.151  1.00  0.00     0.188 C 
BRANCH  25  26
ATOM     26  O   UNL A   1      37.777  20.470  24.764  1.00  0.00    -0.376 OA
BRANCH  26  27
ATOM     27  C   UNL A   1      38.706  19.476  25.216  1.00  0.00     0.202 C 
BRANCH  27  28
ATOM     28  C   UNL A   1      40.035  19.898  25.877  1.00  0.00     0.261 C 
BRANCH  28  29
ATOM     29  O   UNL A   1      40.944  18.827  26.138  1.00  0.00    -0.460 OA
BRANCH  29  30
ATOM     30  C   UNL A   1      42.247  19.140  25.919  1.00  0.00     0.338 C 
ATOM     31  O   UNL A   1      43.061  18.475  25.303  1.00  0.00    -0.246 OA
BRANCH  30  32
ATOM     32  C   UNL A   1      42.474  20.548  26.335  1.00  0.00     0.060 A 
ATOM     33  C   UNL A   1      42.548  21.514  25.319  1.00  0.00     0.016 A 
ATOM     34  C   UNL A   1      42.504  20.942  27.675  1.00  0.00     0.016 A 
ATOM     35  C   UNL A   1      42.671  22.866  25.632  1.00  0.00     0.010 A 
ATOM     36  C   UNL A   1      42.680  22.293  27.991  1.00  0.00     0.010 A 
ATOM     37  C   UNL A   1      42.802  23.254  26.969  1.00  0.00    -0.014 A 
BRANCH  37  38
ATOM     38  C   UNL A   1      43.362  24.594  27.267  1.00  0.00     0.031 A 
ATOM     39  C   UNL A   1      42.424  25.610  27.864  1.00  0.00     0.074 A 
ATOM     40  C   UNL A   1      44.657  24.897  27.080  1.00  0.00     0.049 A 
ATOM     41  N   UNL A   1      42.634  26.864  28.168  1.00  0.00    -0.248 NA
ATOM     42  C   UNL A   1      41.060  25.139  28.158  1.00  0.00     0.031 C 
ATOM     43  C   UNL A   1      45.683  23.980  26.589  1.00  0.00     0.029 A 
ATOM     44  N   UNL A   1      45.328  26.078  27.285  1.00  0.00    -0.354 N 
ATOM     45  C   UNL A   1      41.427  27.333  28.672  1.00  0.00     0.074 A 
ATOM     46  C   UNL A   1      40.483  26.241  28.608  1.00  0.00     0.031 C 
ATOM     47  C   UNL A   1      46.855  24.639  26.518  1.00  0.00     0.029 A 
ATOM     48  C   UNL A   1      46.651  26.032  26.919  1.00  0.00     0.049 A 
ATOM     49  H   UNL A   1      44.901  26.882  27.660  1.00  0.00     0.167 HD
ATOM     50  C   UNL A   1      41.133  28.563  29.150  1.00  0.00     0.037 A 
ATOM     51  C   UNL A   1      47.576  27.012  26.887  1.00  0.00     0.037 A 
ATOM     52  C   UNL A   1      42.074  29.648  29.216  1.00  0.00     0.049 A 
ATOM     53  C   UNL A   1      47.194  28.406  27.330  1.00  0.00     0.074 A 
ATOM     54  C   UNL A   1      41.876  30.932  29.691  1.00  0.00     0.029 A 
ATOM     55  N   UNL A   1      43.389  29.577  28.783  1.00  0.00    -0.354 N 
ATOM     56  N   UNL A   1      46.056  28.845  27.811  1.00  0.00    -0.248 NA
ATOM     57  C   UNL A   1      48.233  29.443  27.225  1.00  0.00     0.031 C 
ATOM     58  C   UNL A   1      43.050  31.659  29.480  1.00  0.00     0.029 A 
ATOM     59  C   UNL A   1      44.005  30.808  28.947  1.00  0.00     0.049 A 
ATOM     60  H   UNL A   1      43.822  28.773  28.413  1.00  0.00     0.167 HD
ATOM     61  C   UNL A   1      46.251  30.191  28.099  1.00  0.00     0.074 A 
ATOM     62  C   UNL A   1      47.623  30.495  27.751  1.00  0.00     0.031 C 
ATOM     63  C   UNL A   1      45.377  31.094  28.608  1.00  0.00     0.037 A 
BRANCH  50  64
ATOM     64  C   UNL A   1      39.721  28.815  29.592  1.00  0.00     0.064 A 
ATOM     65  C   UNL A   1      39.295  28.568  30.907  1.00  0.00     0.173 A 
ATOM     66  C   UNL A   1      38.782  29.334  28.687  1.00  0.00     0.173 A 
ATOM     67  F   UNL A   1      40.146  28.052  31.807  1.00  0.00    -0.203 F 
ATOM     68  C   UNL A   1      37.978  28.806  31.290  1.00  0.00     0.198 A 
ATOM     69  C   UNL A   1      37.476  29.604  29.082  1.00  0.00     0.198 A 
ATOM     70  F   UNL A   1      39.136  29.586  27.417  1.00  0.00    -0.203 F 
ATOM     71  F   UNL A   1      37.579  28.509  32.534  1.00  0.00    -0.200 F 
ATOM     72  C   UNL A   1      37.072  29.331  30.380  1.00  0.00     0.200 A 
ATOM     73  F   UNL A   1      36.607  30.125  28.205  1.00  0.00    -0.200 F 
ATOM     74  F   UNL A   1      35.806  29.568  30.753  1.00  0.00    -0.200 F 
ENDBRANCH  50  64
BRANCH  51  75
ATOM     75  C   UNL A   1      48.953  26.731  26.392  1.00  0.00     0.064 A 
ATOM     76  C   UNL A   1      49.299  26.944  25.050  1.00  0.00     0.173 A 
ATOM     77  C   UNL A   1      49.936  26.197  27.238  1.00  0.00     0.173 A 
ATOM     78  F   UNL A   1      48.387  27.422  24.190  1.00  0.00    -0.203 F 
ATOM     79  C   UNL A   1      50.565  26.612  24.570  1.00  0.00     0.198 A 
ATOM     80  C   UNL A   1      51.211  25.898  26.766  1.00  0.00     0.198 A 
ATOM     81  F   UNL A   1      49.656  25.964  28.530  1.00  0.00    -0.203 F 
ATOM     82  F   UNL A   1      50.849  26.768  23.269  1.00  0.00    -0.200 F 
ATOM     83  C   UNL A   1      51.523  26.095  25.430  1.00  0.00     0.200 A 
ATOM     84  F   UNL A   1      52.136  25.410  27.603  1.00  0.00    -0.200 F 
ATOM     85  F   UNL A   1      52.739  25.776  24.968  1.00  0.00    -0.200 F 
ENDBRANCH  51  75
BRANCH  63  86
ATOM     86  C   UNL A   1      45.883  32.485  28.875  1.00  0.00     0.064 A 
ATOM     87  C   UNL A   1      46.501  32.832  30.086  1.00  0.00     0.173 A 
ATOM     88  C   UNL A   1      45.792  33.472  27.882  1.00  0.00     0.173 A 
ATOM     89  F   UNL A   1      46.606  31.930  31.074  1.00  0.00    -0.203 F 
ATOM     90  C   UNL A   1      46.978  34.122  30.303  1.00  0.00     0.198 A 
ATOM     91  C   UNL A   1      46.304  34.750  28.087  1.00  0.00     0.198 A 
ATOM     92  F   UNL A   1      45.222  33.193  26.699  1.00  0.00    -0.203 F 
ATOM     93  F   UNL A   1      47.515  34.446  31.487  1.00  0.00    -0.200 F 
ATOM     94  C   UNL A   1      46.888  35.078  29.301  1.00  0.00     0.200 A 
ATOM     95  F   UNL A   1      46.235  35.664  27.110  1.00  0.00    -0.200 F 
ATOM     96  F   UNL A   1      47.358  36.315  29.507  1.00  0.00    -0.200 F 
ENDBRANCH  63  86
ENDBRANCH  37  38
ENDBRANCH  30  32
ENDBRANCH  29  30
ENDBRANCH  28  29
ENDBRANCH  27  28
ENDBRANCH  26  27
ENDBRANCH  25  26
ENDBRANCH   1  25
TORSDOF 23
ENDMDL
MODEL 3
REMARK VINA RESULT:     -11.6      1.508      3.338
REMARK SMILES CC[C@H](C)[C@@H](NC(=S)Nc1ccccc1)C(=O)OCCOCCOCCOC(=O)c1ccc(-c2c3nc(c(-c4c(F)c(F)c(F)c(F)c4F)c4ccc([nH]4)c(-c4c(F)c(F)c(F)c(F)c4F)c4nc(c(-c5c(F)c(F)c(F)c(F)c5F)c5ccc2[nH]5)C=C4)C=C3)cc1
REMARK SMILES IDX 22 1 21 2 20 3 19 4 18 5 16 6 17 7 5 8 3 9 4 10 2 11 1 12
REMARK SMILES IDX 6 13 7 15 8 16 9 17 10 19 11 20 15 21 12 22 14 23 13 24
REMARK SMILES IDX 23 25 24 26 25 27 26 28 27 29 28 30 29 31 30 32 31 33 92 34
REMARK SMILES IDX 32 35 91 36 33 37 34 38 35 39 85 40 36 41 90 42 84 43 86 44
REMARK SMILES IDX 37 45 89 46 83 47 82 48 38 50 70 51 50 52 69 53 51 54 54 55
REMARK SMILES IDX 68 56 87 57 52 58 53 59 67 61 88 62 55 63 39 64 40 65 48 66
REMARK SMILES IDX 41 67 42 68 46 69 49 70 43 71 44 72 47 73 45 74 71 75 72 76
REMARK SMILES IDX 80 77 73 78 74 79 78 80 81 81 75 82 76 83 79 84 77 85 56 86
REMARK SMILES IDX 57 87 65 88 58 89 59 90 63 91 66 92 60 93 61 94 64 95 62 96
REMARK H PARENT 6 14 9 18 86 49 54 60
REMARK Flexibility Score: inf
ROOT
ATOM      1  C   UNL A   1      40.480  20.504  26.588  1.00  0.00     0.188 C 
ENDROOT
BRANCH   1   2
ATOM      2  O   UNL A   1      38.866  20.361  25.407  1.00  0.00    -0.376 OA
BRANCH   2   3
ATOM      3  C   UNL A   1      37.418  21.159  25.115  1.00  0.00     0.202 C 
BRANCH   3   4
ATOM      4  C   UNL A   1      37.084  22.833  24.893  1.00  0.00     0.261 C 
BRANCH   4   5
ATOM      5  O   UNL A   1      35.795  23.318  24.298  1.00  0.00    -0.462 OA
BRANCH   5   6
ATOM      6  C   UNL A   1      34.728  23.968  24.960  1.00  0.00     0.328 C 
ATOM      7  O   UNL A   1      34.891  24.819  25.826  1.00  0.00    -0.250 OA
BRANCH   6   8
ATOM      8  C   UNL A   1      33.364  23.141  24.737  1.00  0.00     0.194 C 
BRANCH   8   9
ATOM      9  C   UNL A   1      32.696  22.212  25.815  1.00  0.00     0.019 C 
ATOM     10  C   UNL A   1      33.721  21.369  26.604  1.00  0.00     0.010 C 
BRANCH   9  11
ATOM     11  C   UNL A   1      31.923  23.108  26.839  1.00  0.00     0.002 C 
ATOM     12  C   UNL A   1      30.399  23.074  26.813  1.00  0.00     0.004 C 
ENDBRANCH   9  11
ENDBRANCH   8   9
BRANCH   8  13
ATOM     13  N   UNL A   1      32.444  24.036  24.077  1.00  0.00    -0.349 N 
ATOM     14  H   UNL A   1      31.680  24.377  24.596  1.00  0.00     0.163 HD
BRANCH  13  15
ATOM     15  C   UNL A   1      32.563  24.434  22.807  1.00  0.00     0.171 C 
ATOM     16  S   UNL A   1      33.194  23.358  21.691  1.00  0.00    -0.041 S 
BRANCH  15  17
ATOM     17  N   UNL A   1      32.221  25.658  22.385  1.00  0.00    -0.333 N 
ATOM     18  H   UNL A   1      31.799  25.607  21.497  1.00  0.00     0.169 HD
BRANCH  17  19
ATOM     19  C   UNL A   1      32.282  27.006  22.826  1.00  0.00     0.040 A 
ATOM     20  C   UNL A   1      33.442  27.901  23.963  1.00  0.00     0.026 A 
ATOM     21  C   UNL A   1      30.637  27.669  22.617  1.00  0.00     0.026 A 
ATOM     22  C   UNL A   1      32.797  29.291  24.980  1.00  0.00     0.002 A 
ATOM     23  C   UNL A   1      30.090  29.064  23.532  1.00  0.00     0.002 A 
ATOM     24  C   UNL A   1      31.146  29.874  24.695  1.00  0.00     0.000 A 
ENDBRANCH  17  19
ENDBRANCH  15  17
ENDBRANCH  13  15
ENDBRANCH   8  13
ENDBRANCH   6   8
ENDBRANCH   5   6
ENDBRANCH   4   5
ENDBRANCH   3   4
ENDBRANCH   2   3
ENDBRANCH   1   2
BRANCH   1  25
ATOM     25  C   UNL A   1      41.985  19.694  26.445  1.00  0.00     0.188 C 
BRANCH  25  26
ATOM     26  O   UNL A   1      42.791  19.658  25.257  1.00  0.00    -0.376 OA
BRANCH  26  27
ATOM     27  C   UNL A   1      43.864  20.596  25.091  1.00  0.00     0.202 C 
BRANCH  27  28
ATOM     28  C   UNL A   1      43.832  21.951  25.828  1.00  0.00     0.261 C 
BRANCH  28  29
ATOM     29  O   UNL A   1      43.171  23.004  25.124  1.00  0.00    -0.460 OA
BRANCH  29  30
ATOM     30  C   UNL A   1      43.818  24.196  25.174  1.00  0.00     0.338 C 
ATOM     31  O   UNL A   1      44.716  24.568  24.439  1.00  0.00    -0.246 OA
BRANCH  30  32
ATOM     32  C   UNL A   1      43.095  25.092  26.113  1.00  0.00     0.060 A 
ATOM     33  C   UNL A   1      43.536  26.422  26.201  1.00  0.00     0.016 A 
ATOM     34  C   UNL A   1      41.950  24.689  26.807  1.00  0.00     0.016 A 
ATOM     35  C   UNL A   1      42.854  27.345  26.991  1.00  0.00     0.010 A 
ATOM     36  C   UNL A   1      41.295  25.601  27.642  1.00  0.00     0.010 A 
ATOM     37  C   UNL A   1      41.769  26.921  27.764  1.00  0.00    -0.014 A 
BRANCH  37  38
ATOM     38  C   UNL A   1      41.338  27.766  28.905  1.00  0.00     0.031 A 
ATOM     39  C   UNL A   1      42.131  27.652  30.179  1.00  0.00     0.074 A 
ATOM     40  C   UNL A   1      40.327  28.645  28.814  1.00  0.00     0.049 A 
ATOM     41  N   UNL A   1      41.941  28.228  31.337  1.00  0.00    -0.248 NA
ATOM     42  C   UNL A   1      43.304  26.762  30.135  1.00  0.00     0.031 C 
ATOM     43  C   UNL A   1      39.535  28.911  27.615  1.00  0.00     0.029 A 
ATOM     44  N   UNL A   1      39.793  29.481  29.764  1.00  0.00    -0.354 N 
ATOM     45  C   UNL A   1      42.957  27.759  32.159  1.00  0.00     0.074 A 
ATOM     46  C   UNL A   1      43.745  26.831  31.380  1.00  0.00     0.031 C 
ATOM     47  C   UNL A   1      38.606  29.839  27.907  1.00  0.00     0.029 A 
ATOM     48  C   UNL A   1      38.711  30.201  29.321  1.00  0.00     0.049 A 
ATOM     49  H   UNL A   1      40.154  29.557  30.677  1.00  0.00     0.167 HD
ATOM     50  C   UNL A   1      43.215  28.076  33.448  1.00  0.00     0.037 A 
ATOM     51  C   UNL A   1      37.889  31.032  29.993  1.00  0.00     0.037 A 
ATOM     52  C   UNL A   1      42.432  29.001  34.222  1.00  0.00     0.049 A 
ATOM     53  C   UNL A   1      38.136  31.291  31.461  1.00  0.00     0.074 A 
ATOM     54  C   UNL A   1      42.614  29.397  35.535  1.00  0.00     0.029 A 
ATOM     55  N   UNL A   1      41.309  29.667  33.753  1.00  0.00    -0.354 N 
ATOM     56  N   UNL A   1      39.099  30.852  32.234  1.00  0.00    -0.248 NA
ATOM     57  C   UNL A   1      37.175  32.167  32.151  1.00  0.00     0.031 C 
ATOM     58  C   UNL A   1      41.562  30.247  35.883  1.00  0.00     0.029 A 
ATOM     59  C   UNL A   1      40.768  30.445  34.765  1.00  0.00     0.049 A 
ATOM     60  H   UNL A   1      40.950  29.599  32.839  1.00  0.00     0.167 HD
ATOM     61  C   UNL A   1      38.884  31.423  33.484  1.00  0.00     0.074 A 
ATOM     62  C   UNL A   1      37.705  32.253  33.362  1.00  0.00     0.031 C 
ATOM     63  C   UNL A   1      39.599  31.278  34.627  1.00  0.00     0.037 A 
BRANCH  50  64
ATOM     64  C   UNL A   1      44.362  27.377  34.119  1.00  0.00     0.064 A 
ATOM     65  C   UNL A   1      45.656  27.920  34.140  1.00  0.00     0.173 A 
ATOM     66  C   UNL A   1      44.155  26.151  34.769  1.00  0.00     0.173 A 
ATOM     67  F   UNL A   1      45.913  29.079  33.515  1.00  0.00    -0.203 F 
ATOM     68  C   UNL A   1      46.704  27.248  34.765  1.00  0.00     0.198 A 
ATOM     69  C   UNL A   1      45.196  25.500  35.423  1.00  0.00     0.198 A 
ATOM     70  F   UNL A   1      42.937  25.587  34.777  1.00  0.00    -0.203 F 
ATOM     71  F   UNL A   1      47.943  27.757  34.724  1.00  0.00    -0.200 F 
ATOM     72  C   UNL A   1      46.471  26.044  35.413  1.00  0.00     0.200 A 
ATOM     73  F   UNL A   1      44.965  24.344  36.061  1.00  0.00    -0.200 F 
ATOM     74  F   UNL A   1      47.479  25.403  36.021  1.00  0.00    -0.200 F 
ENDBRANCH  50  64
BRANCH  51  75
ATOM     75  C   UNL A   1      36.731  31.665  29.302  1.00  0.00     0.064 A 
ATOM     76  C   UNL A   1      36.716  33.039  29.020  1.00  0.00     0.173 A 
ATOM     77  C   UNL A   1      35.595  30.920  28.954  1.00  0.00     0.173 A 
ATOM     78  F   UNL A   1      37.764  33.804  29.361  1.00  0.00    -0.203 F 
ATOM     79  C   UNL A   1      35.602  33.644  28.440  1.00  0.00     0.198 A 
ATOM     80  C   UNL A   1      34.496  31.519  28.343  1.00  0.00     0.198 A 
ATOM     81  F   UNL A   1      35.551  29.603  29.209  1.00  0.00    -0.203 F 
ATOM     82  F   UNL A   1      35.591  34.969  28.238  1.00  0.00    -0.200 F 
ATOM     83  C   UNL A   1      34.495  32.883  28.096  1.00  0.00     0.200 A 
ATOM     84  F   UNL A   1      33.434  30.777  28.002  1.00  0.00    -0.200 F 
ATOM     85  F   UNL A   1      33.425  33.466  27.539  1.00  0.00    -0.200 F 
ENDBRANCH  51  75
BRANCH  63  86
ATOM     86  C   UNL A   1      39.166  32.071  35.829  1.00  0.00     0.064 A 
ATOM     87  C   UNL A   1      39.597  33.389  36.046  1.00  0.00     0.173 A 
ATOM     88  C   UNL A   1      38.264  31.519  36.752  1.00  0.00     0.173 A 
ATOM     89  F   UNL A   1      40.466  33.963  35.200  1.00  0.00    -0.203 F 
ATOM     90  C   UNL A   1      39.167  34.110  37.157  1.00  0.00     0.198 A 
ATOM     91  C   UNL A   1      37.806  32.255  37.841  1.00  0.00     0.198 A 
ATOM     92  F   UNL A   1      37.809  30.267  36.589  1.00  0.00    -0.203 F 
ATOM     93  F   UNL A   1      39.635  35.347  37.373  1.00  0.00    -0.200 F 
ATOM     94  C   UNL A   1      38.266  33.547  38.049  1.00  0.00     0.200 A 
ATOM     95  F   UNL A   1      36.919  31.716  38.689  1.00  0.00    -0.200 F 
ATOM     96  F   UNL A   1      37.844  34.246  39.111  1.00  0.00    -0.200 F 
ENDBRANCH  63  86
ENDBRANCH  37  38
ENDBRANCH  30  32
ENDBRANCH  29  30
ENDBRANCH  28  29
ENDBRANCH  27  28
ENDBRANCH  26  27
ENDBRANCH  25  26
ENDBRANCH   1  25
TORSDOF 23
ENDMDL
