MODEL 1
REMARK VINA RESULT:     -12.0      0.000      0.000
REMARK SMILES CS(=O)(=O)c1ccc(/C=C(/C(=O)OCCOCCOCCOC(=O)c2ccc(-c3c4nc(c(-c5c(F)c(F)c(F)c(F)c5F)c5ccc([nH]5)c(-c5c(F)c(F)c(F)c(F)c5F)c5nc(c(-c6c(F)c(F)c(F)c(F)c6F)c6ccc3[nH]6)C=C5)C=C4)cc2)c2ccc(F)cc2)cc1
REMARK SMILES IDX 17 1 16 2 15 3 14 4 13 5 11 6 12 7 10 8 9 9 8 10 5 11 6 12
REMARK SMILES IDX 96 13 7 14 95 15 2 16 1 17 3 18 4 19 88 20 89 21 94 22 90 23
REMARK SMILES IDX 93 24 91 25 92 26 18 27 19 28 20 29 21 30 22 31 23 32 24 33
REMARK SMILES IDX 25 34 26 35 87 36 27 37 86 38 28 39 29 40 30 41 80 42 31 43
REMARK SMILES IDX 85 44 79 45 81 46 32 47 84 48 78 49 77 50 33 52 65 53 45 54
REMARK SMILES IDX 64 55 46 56 49 57 63 58 82 59 47 60 48 61 62 63 83 64 50 65
REMARK SMILES IDX 34 66 35 67 43 68 36 69 37 70 41 71 44 72 38 73 39 74 42 75
REMARK SMILES IDX 40 76 66 77 67 78 75 79 68 80 69 81 73 82 76 83 70 84 71 85
REMARK SMILES IDX 74 86 72 87 51 88 52 89 60 90 53 91 54 92 58 93 61 94 55 95
REMARK SMILES IDX 56 96 59 97 57 98
REMARK H PARENT 81 51 49 62
REMARK Flexibility Score: inf
ROOT
ATOM      1  C   UNL A   1      34.084  23.068  23.042  1.00  0.00     0.188 C 
ENDROOT
BRANCH   1   2
ATOM      2  O   UNL A   1      33.519  21.868  23.541  1.00  0.00    -0.376 OA
BRANCH   2   3
ATOM      3  C   UNL A   1      32.158  21.933  23.936  1.00  0.00     0.202 C 
BRANCH   3   4
ATOM      4  C   UNL A   1      31.924  22.073  25.445  1.00  0.00     0.261 C 
BRANCH   4   5
ATOM      5  O   UNL A   1      32.063  23.408  25.964  1.00  0.00    -0.460 OA
BRANCH   5   6
ATOM      6  C   UNL A   1      30.941  24.042  26.381  1.00  0.00     0.338 C 
ATOM      7  O   UNL A   1      30.168  23.619  27.227  1.00  0.00    -0.246 OA
BRANCH   6   8
ATOM      8  C   UNL A   1      30.830  25.401  25.742  1.00  0.00     0.067 C 
ATOM      9  C   UNL A   1      29.980  25.582  24.701  1.00  0.00     0.024 C 
BRANCH   9  10
ATOM     10  C   UNL A   1      29.628  26.841  24.002  1.00  0.00    -0.025 A 
ATOM     11  C   UNL A   1      28.812  29.328  22.992  1.00  0.00     0.067 A 
ATOM     12  C   UNL A   1      30.170  29.022  23.058  1.00  0.00     0.021 A 
ATOM     13  C   UNL A   1      27.854  28.368  23.312  1.00  0.00     0.021 A 
ATOM     14  C   UNL A   1      30.570  27.771  23.538  1.00  0.00     0.009 A 
ATOM     15  C   UNL A   1      28.266  27.129  23.816  1.00  0.00     0.009 A 
BRANCH  11  16
ATOM     16  S   UNL A   1      28.317  30.969  22.529  1.00  0.00     0.175 S 
ATOM     17  C   UNL A   1      28.037  30.828  20.779  1.00  0.00     0.163 C 
ATOM     18  O   UNL A   1      29.457  31.847  22.722  1.00  0.00    -0.224 OA
ATOM     19  O   UNL A   1      27.049  31.235  23.177  1.00  0.00    -0.224 OA
ENDBRANCH  11  16
ENDBRANCH   9  10
BRANCH   8  20
ATOM     20  C   UNL A   1      31.656  26.494  26.296  1.00  0.00    -0.011 A 
ATOM     21  C   UNL A   1      32.985  26.646  25.857  1.00  0.00     0.012 A 
ATOM     22  C   UNL A   1      31.112  27.443  27.172  1.00  0.00     0.012 A 
ATOM     23  C   UNL A   1      33.743  27.743  26.266  1.00  0.00     0.040 A 
ATOM     24  C   UNL A   1      31.871  28.545  27.573  1.00  0.00     0.040 A 
ATOM     25  C   UNL A   1      33.176  28.686  27.112  1.00  0.00     0.123 A 
ATOM     26  F   UNL A   1      33.891  29.757  27.476  1.00  0.00    -0.207 F 
ENDBRANCH   8  20
ENDBRANCH   6   8
ENDBRANCH   5   6
ENDBRANCH   4   5
ENDBRANCH   3   4
ENDBRANCH   2   3
ENDBRANCH   1   2
BRANCH   1  27
ATOM     27  C   UNL A   1      34.946  23.825  24.073  1.00  0.00     0.188 C 
BRANCH  27  28
ATOM     28  O   UNL A   1      36.357  23.656  24.089  1.00  0.00    -0.376 OA
BRANCH  28  29
ATOM     29  C   UNL A   1      36.921  22.455  23.583  1.00  0.00     0.202 C 
BRANCH  29  30
ATOM     30  C   UNL A   1      37.139  21.297  24.563  1.00  0.00     0.261 C 
BRANCH  30  31
ATOM     31  O   UNL A   1      37.612  21.701  25.858  1.00  0.00    -0.460 OA
BRANCH  31  32
ATOM     32  C   UNL A   1      38.929  21.475  26.089  1.00  0.00     0.338 C 
ATOM     33  O   UNL A   1      39.595  20.520  25.736  1.00  0.00    -0.246 OA
BRANCH  32  34
ATOM     34  C   UNL A   1      39.531  22.668  26.718  1.00  0.00     0.060 A 
ATOM     35  C   UNL A   1      39.001  23.926  26.396  1.00  0.00     0.016 A 
ATOM     36  C   UNL A   1      40.644  22.560  27.554  1.00  0.00     0.016 A 
ATOM     37  C   UNL A   1      39.595  25.085  26.894  1.00  0.00     0.010 A 
ATOM     38  C   UNL A   1      41.257  23.724  28.026  1.00  0.00     0.010 A 
ATOM     39  C   UNL A   1      40.751  24.990  27.678  1.00  0.00    -0.014 A 
BRANCH  39  40
ATOM     40  C   UNL A   1      41.545  26.202  27.990  1.00  0.00     0.031 A 
ATOM     41  C   UNL A   1      40.885  27.312  28.756  1.00  0.00     0.074 A 
ATOM     42  C   UNL A   1      42.818  26.325  27.578  1.00  0.00     0.049 A 
ATOM     43  N   UNL A   1      41.329  28.513  29.027  1.00  0.00    -0.248 NA
ATOM     44  C   UNL A   1      39.542  27.029  29.287  1.00  0.00     0.031 C 
ATOM     45  C   UNL A   1      43.587  25.295  26.887  1.00  0.00     0.029 A 
ATOM     46  N   UNL A   1      43.681  27.389  27.668  1.00  0.00    -0.354 N 
ATOM     47  C   UNL A   1      40.319  29.129  29.756  1.00  0.00     0.074 A 
ATOM     48  C   UNL A   1      39.237  28.177  29.876  1.00  0.00     0.031 C 
ATOM     49  C   UNL A   1      44.802  25.786  26.590  1.00  0.00     0.029 A 
ATOM     50  C   UNL A   1      44.878  27.180  27.030  1.00  0.00     0.049 A 
ATOM     51  H   UNL A   1      43.462  28.222  28.146  1.00  0.00     0.167 HD
ATOM     52  C   UNL A   1      40.296  30.380  30.270  1.00  0.00     0.037 A 
ATOM     53  C   UNL A   1      45.896  28.031  26.793  1.00  0.00     0.037 A 
ATOM     54  C   UNL A   1      41.361  31.336  30.127  1.00  0.00     0.049 A 
ATOM     55  C   UNL A   1      45.799  29.457  27.279  1.00  0.00     0.074 A 
ATOM     56  C   UNL A   1      41.426  32.634  30.601  1.00  0.00     0.029 A 
ATOM     57  N   UNL A   1      42.544  31.097  29.445  1.00  0.00    -0.354 N 
ATOM     58  N   UNL A   1      44.845  30.034  27.970  1.00  0.00    -0.248 NA
ATOM     59  C   UNL A   1      46.915  30.353  26.942  1.00  0.00     0.031 C 
ATOM     60  C   UNL A   1      42.629  33.197  30.163  1.00  0.00     0.029 A 
ATOM     61  C   UNL A   1      43.335  32.232  29.463  1.00  0.00     0.049 A 
ATOM     62  H   UNL A   1      42.785  30.245  29.013  1.00  0.00     0.167 HD
ATOM     63  C   UNL A   1      45.262  31.343  28.181  1.00  0.00     0.074 A 
ATOM     64  C   UNL A   1      46.554  31.479  27.542  1.00  0.00     0.031 C 
ATOM     65  C   UNL A   1      44.632  32.341  28.845  1.00  0.00     0.037 A 
BRANCH  52  66
ATOM     66  C   UNL A   1      39.056  30.801  31.000  1.00  0.00     0.064 A 
ATOM     67  C   UNL A   1      37.957  31.353  30.327  1.00  0.00     0.173 A 
ATOM     68  C   UNL A   1      38.959  30.628  32.389  1.00  0.00     0.173 A 
ATOM     69  F   UNL A   1      38.009  31.554  29.002  1.00  0.00    -0.203 F 
ATOM     70  C   UNL A   1      36.813  31.738  31.021  1.00  0.00     0.198 A 
ATOM     71  C   UNL A   1      37.805  30.989  33.076  1.00  0.00     0.198 A 
ATOM     72  F   UNL A   1      39.984  30.102  33.077  1.00  0.00    -0.203 F 
ATOM     73  F   UNL A   1      35.791  32.303  30.365  1.00  0.00    -0.200 F 
ATOM     74  C   UNL A   1      36.736  31.550  32.394  1.00  0.00     0.200 A 
ATOM     75  F   UNL A   1      37.729  30.800  34.401  1.00  0.00    -0.200 F 
ATOM     76  F   UNL A   1      35.634  31.918  33.061  1.00  0.00    -0.200 F 
ENDBRANCH  52  66
BRANCH  53  77
ATOM     77  C   UNL A   1      47.084  27.578  26.024  1.00  0.00     0.064 A 
ATOM     78  C   UNL A   1      48.205  27.047  26.675  1.00  0.00     0.173 A 
ATOM     79  C   UNL A   1      47.136  27.697  24.627  1.00  0.00     0.173 A 
ATOM     80  F   UNL A   1      48.216  26.942  28.012  1.00  0.00    -0.203 F 
ATOM     81  C   UNL A   1      49.340  26.667  25.960  1.00  0.00     0.198 A 
ATOM     82  C   UNL A   1      48.260  27.293  23.910  1.00  0.00     0.198 A 
ATOM     83  F   UNL A   1      46.093  28.207  23.956  1.00  0.00    -0.203 F 
ATOM     84  F   UNL A   1      50.418  26.210  26.611  1.00  0.00    -0.200 F 
ATOM     85  C   UNL A   1      49.365  26.786  24.579  1.00  0.00     0.200 A 
ATOM     86  F   UNL A   1      48.278  27.403  22.576  1.00  0.00    -0.200 F 
ATOM     87  F   UNL A   1      50.457  26.425  23.892  1.00  0.00    -0.200 F 
ENDBRANCH  53  77
BRANCH  65  88
ATOM     88  C   UNL A   1      45.343  33.656  28.975  1.00  0.00     0.064 A 
ATOM     89  C   UNL A   1      46.283  33.889  29.989  1.00  0.00     0.173 A 
ATOM     90  C   UNL A   1      45.146  34.661  28.015  1.00  0.00     0.173 A 
ATOM     91  F   UNL A   1      46.497  32.964  30.937  1.00  0.00    -0.203 F 
ATOM     92  C   UNL A   1      46.996  35.084  30.040  1.00  0.00     0.198 A 
ATOM     93  C   UNL A   1      45.878  35.844  28.055  1.00  0.00     0.198 A 
ATOM     94  F   UNL A   1      44.262  34.482  27.021  1.00  0.00    -0.203 F 
ATOM     95  F   UNL A   1      47.872  35.297  31.031  1.00  0.00    -0.200 F 
ATOM     96  C   UNL A   1      46.800  36.056  29.068  1.00  0.00     0.200 A 
ATOM     97  F   UNL A   1      45.698  36.774  27.107  1.00  0.00    -0.200 F 
ATOM     98  F   UNL A   1      47.503  37.197  29.108  1.00  0.00    -0.200 F 
ENDBRANCH  65  88
ENDBRANCH  39  40
ENDBRANCH  32  34
ENDBRANCH  31  32
ENDBRANCH  30  31
ENDBRANCH  29  30
ENDBRANCH  28  29
ENDBRANCH  27  28
ENDBRANCH   1  27
TORSDOF 20
ENDMDL
MODEL 2
REMARK VINA RESULT:     -11.0      2.590      8.129
REMARK SMILES CS(=O)(=O)c1ccc(/C=C(/C(=O)OCCOCCOCCOC(=O)c2ccc(-c3c4nc(c(-c5c(F)c(F)c(F)c(F)c5F)c5ccc([nH]5)c(-c5c(F)c(F)c(F)c(F)c5F)c5nc(c(-c6c(F)c(F)c(F)c(F)c6F)c6ccc3[nH]6)C=C5)C=C4)cc2)c2ccc(F)cc2)cc1
REMARK SMILES IDX 17 1 16 2 15 3 14 4 13 5 11 6 12 7 10 8 9 9 8 10 5 11 6 12
REMARK SMILES IDX 96 13 7 14 95 15 2 16 1 17 3 18 4 19 88 20 89 21 94 22 90 23
REMARK SMILES IDX 93 24 91 25 92 26 18 27 19 28 20 29 21 30 22 31 23 32 24 33
REMARK SMILES IDX 25 34 26 35 87 36 27 37 86 38 28 39 29 40 30 41 80 42 31 43
REMARK SMILES IDX 85 44 79 45 81 46 32 47 84 48 78 49 77 50 33 52 65 53 45 54
REMARK SMILES IDX 64 55 46 56 49 57 63 58 82 59 47 60 48 61 62 63 83 64 50 65
REMARK SMILES IDX 34 66 35 67 43 68 36 69 37 70 41 71 44 72 38 73 39 74 42 75
REMARK SMILES IDX 40 76 66 77 67 78 75 79 68 80 69 81 73 82 76 83 70 84 71 85
REMARK SMILES IDX 74 86 72 87 51 88 52 89 60 90 53 91 54 92 58 93 61 94 55 95
REMARK SMILES IDX 56 96 59 97 57 98
REMARK H PARENT 81 51 49 62
REMARK Flexibility Score: inf
ROOT
ATOM      1  C   UNL A   1      40.196  22.529  26.849  1.00  0.00     0.188 C 
ENDROOT
BRANCH   1   2
ATOM      2  O   UNL A   1      39.194  22.137  25.927  1.00  0.00    -0.376 OA
BRANCH   2   3
ATOM      3  C   UNL A   1      37.973  22.858  25.984  1.00  0.00     0.202 C 
BRANCH   3   4
ATOM      4  C   UNL A   1      37.125  22.804  24.707  1.00  0.00     0.261 C 
BRANCH   4   5
ATOM      5  O   UNL A   1      35.875  23.513  24.773  1.00  0.00    -0.460 OA
BRANCH   5   6
ATOM      6  C   UNL A   1      35.199  23.707  23.615  1.00  0.00     0.338 C 
ATOM      7  O   UNL A   1      35.506  23.229  22.534  1.00  0.00    -0.246 OA
BRANCH   6   8
ATOM      8  C   UNL A   1      33.945  24.504  23.859  1.00  0.00     0.067 C 
ATOM      9  C   UNL A   1      33.753  25.669  23.193  1.00  0.00     0.024 C 
BRANCH   9  10
ATOM     10  C   UNL A   1      32.560  26.548  23.189  1.00  0.00    -0.025 A 
ATOM     11  C   UNL A   1      30.445  28.367  22.890  1.00  0.00     0.067 A 
ATOM     12  C   UNL A   1      30.201  27.000  22.773  1.00  0.00     0.021 A 
ATOM     13  C   UNL A   1      31.703  28.831  23.269  1.00  0.00     0.021 A 
ATOM     14  C   UNL A   1      31.254  26.097  22.949  1.00  0.00     0.009 A 
ATOM     15  C   UNL A   1      32.754  27.920  23.417  1.00  0.00     0.009 A 
BRANCH  11  16
ATOM     16  S   UNL A   1      29.142  29.513  22.513  1.00  0.00     0.175 S 
ATOM     17  C   UNL A   1      29.375  30.799  23.719  1.00  0.00     0.163 C 
ATOM     18  O   UNL A   1      27.879  28.860  22.805  1.00  0.00    -0.224 OA
ATOM     19  O   UNL A   1      29.417  30.061  21.200  1.00  0.00    -0.224 OA
ENDBRANCH  11  16
ENDBRANCH   9  10
BRANCH   8  20
ATOM     20  C   UNL A   1      32.960  23.964  24.820  1.00  0.00    -0.011 A 
ATOM     21  C   UNL A   1      32.748  24.633  26.040  1.00  0.00     0.012 A 
ATOM     22  C   UNL A   1      32.161  22.859  24.496  1.00  0.00     0.012 A 
ATOM     23  C   UNL A   1      31.735  24.219  26.906  1.00  0.00     0.040 A 
ATOM     24  C   UNL A   1      31.142  22.453  25.361  1.00  0.00     0.040 A 
ATOM     25  C   UNL A   1      30.936  23.140  26.553  1.00  0.00     0.123 A 
ATOM     26  F   UNL A   1      29.942  22.764  27.367  1.00  0.00    -0.207 F 
ENDBRANCH   8  20
ENDBRANCH   6   8
ENDBRANCH   5   6
ENDBRANCH   4   5
ENDBRANCH   3   4
ENDBRANCH   2   3
ENDBRANCH   1   2
BRANCH   1  27
ATOM     27  C   UNL A   1      41.585  21.931  26.550  1.00  0.00     0.188 C 
BRANCH  27  28
ATOM     28  O   UNL A   1      42.141  20.946  27.410  1.00  0.00    -0.376 OA
BRANCH  28  29
ATOM     29  C   UNL A   1      42.006  19.572  27.076  1.00  0.00     0.202 C 
BRANCH  29  30
ATOM     30  C   UNL A   1      42.547  19.107  25.721  1.00  0.00     0.261 C 
BRANCH  30  31
ATOM     31  O   UNL A   1      43.981  19.120  25.621  1.00  0.00    -0.460 OA
BRANCH  31  32
ATOM     32  C   UNL A   1      44.476  19.675  24.488  1.00  0.00     0.338 C 
ATOM     33  O   UNL A   1      44.485  19.200  23.367  1.00  0.00    -0.246 OA
BRANCH  32  34
ATOM     34  C   UNL A   1      44.886  21.068  24.758  1.00  0.00     0.060 A 
ATOM     35  C   UNL A   1      45.385  21.377  26.031  1.00  0.00     0.016 A 
ATOM     36  C   UNL A   1      44.716  22.069  23.800  1.00  0.00     0.016 A 
ATOM     37  C   UNL A   1      45.699  22.695  26.361  1.00  0.00     0.010 A 
ATOM     38  C   UNL A   1      45.000  23.395  24.143  1.00  0.00     0.010 A 
ATOM     39  C   UNL A   1      45.468  23.716  25.430  1.00  0.00    -0.014 A 
BRANCH  39  40
ATOM     40  C   UNL A   1      45.538  25.136  25.847  1.00  0.00     0.031 A 
ATOM     41  C   UNL A   1      46.867  25.833  25.795  1.00  0.00     0.074 A 
ATOM     42  C   UNL A   1      44.447  25.787  26.287  1.00  0.00     0.049 A 
ATOM     43  N   UNL A   1      47.200  27.021  26.231  1.00  0.00    -0.248 NA
ATOM     44  C   UNL A   1      47.969  25.089  25.166  1.00  0.00     0.031 C 
ATOM     45  C   UNL A   1      43.093  25.241  26.321  1.00  0.00     0.029 A 
ATOM     46  N   UNL A   1      44.318  27.050  26.809  1.00  0.00    -0.354 N 
ATOM     47  C   UNL A   1      48.549  27.164  25.934  1.00  0.00     0.074 A 
ATOM     48  C   UNL A   1      48.976  25.940  25.291  1.00  0.00     0.031 C 
ATOM     49  C   UNL A   1      42.271  26.156  26.864  1.00  0.00     0.029 A 
ATOM     50  C   UNL A   1      43.051  27.331  27.256  1.00  0.00     0.049 A 
ATOM     51  H   UNL A   1      45.062  27.693  26.858  1.00  0.00     0.167 HD
ATOM     52  C   UNL A   1      49.359  28.218  26.184  1.00  0.00     0.037 A 
ATOM     53  C   UNL A   1      42.588  28.396  27.941  1.00  0.00     0.037 A 
ATOM     54  C   UNL A   1      48.941  29.423  26.848  1.00  0.00     0.049 A 
ATOM     55  C   UNL A   1      43.538  29.511  28.308  1.00  0.00     0.074 A 
ATOM     56  C   UNL A   1      49.690  30.543  27.159  1.00  0.00     0.029 A 
ATOM     57  N   UNL A   1      47.656  29.656  27.314  1.00  0.00    -0.354 N 
ATOM     58  N   UNL A   1      44.810  29.643  28.022  1.00  0.00    -0.248 NA
ATOM     59  C   UNL A   1      42.987  30.619  29.102  1.00  0.00     0.031 C 
ATOM     60  C   UNL A   1      48.871  31.434  27.859  1.00  0.00     0.029 A 
ATOM     61  C   UNL A   1      47.598  30.892  27.935  1.00  0.00     0.049 A 
ATOM     62  H   UNL A   1      46.898  29.035  27.218  1.00  0.00     0.167 HD
ATOM     63  C   UNL A   1      45.201  30.861  28.567  1.00  0.00     0.074 A 
ATOM     64  C   UNL A   1      44.032  31.429  29.205  1.00  0.00     0.031 C 
ATOM     65  C   UNL A   1      46.418  31.454  28.540  1.00  0.00     0.037 A 
BRANCH  52  66
ATOM     66  C   UNL A   1      50.796  28.094  25.774  1.00  0.00     0.064 A 
ATOM     67  C   UNL A   1      51.200  28.277  24.444  1.00  0.00     0.173 A 
ATOM     68  C   UNL A   1      51.783  27.810  26.730  1.00  0.00     0.173 A 
ATOM     69  F   UNL A   1      50.291  28.532  23.492  1.00  0.00    -0.203 F 
ATOM     70  C   UNL A   1      52.539  28.158  24.082  1.00  0.00     0.198 A 
ATOM     71  C   UNL A   1      53.123  27.718  26.369  1.00  0.00     0.198 A 
ATOM     72  F   UNL A   1      51.446  27.629  28.016  1.00  0.00    -0.203 F 
ATOM     73  F   UNL A   1      52.899  28.293  22.798  1.00  0.00    -0.200 F 
ATOM     74  C   UNL A   1      53.500  27.884  25.045  1.00  0.00     0.200 A 
ATOM     75  F   UNL A   1      54.051  27.462  27.302  1.00  0.00    -0.200 F 
ATOM     76  F   UNL A   1      54.788  27.774  24.695  1.00  0.00    -0.200 F 
ENDBRANCH  52  66
BRANCH  53  77
ATOM     77  C   UNL A   1      41.165  28.450  28.365  1.00  0.00     0.064 A 
ATOM     78  C   UNL A   1      40.178  28.966  27.515  1.00  0.00     0.173 A 
ATOM     79  C   UNL A   1      40.767  28.017  29.639  1.00  0.00     0.173 A 
ATOM     80  F   UNL A   1      40.513  29.421  26.298  1.00  0.00    -0.203 F 
ATOM     81  C   UNL A   1      38.850  29.064  27.928  1.00  0.00     0.198 A 
ATOM     82  C   UNL A   1      39.436  28.090  30.041  1.00  0.00     0.198 A 
ATOM     83  F   UNL A   1      41.674  27.523  30.494  1.00  0.00    -0.203 F 
ATOM     84  F   UNL A   1      37.936  29.609  27.115  1.00  0.00    -0.200 F 
ATOM     85  C   UNL A   1      38.480  28.622  29.189  1.00  0.00     0.200 A 
ATOM     86  F   UNL A   1      39.081  27.656  31.258  1.00  0.00    -0.200 F 
ATOM     87  F   UNL A   1      37.204  28.719  29.588  1.00  0.00    -0.200 F 
ENDBRANCH  53  77
BRANCH  65  88
ATOM     88  C   UNL A   1      46.550  32.814  29.163  1.00  0.00     0.064 A 
ATOM     89  C   UNL A   1      46.285  33.984  28.440  1.00  0.00     0.173 A 
ATOM     90  C   UNL A   1      46.857  32.935  30.527  1.00  0.00     0.173 A 
ATOM     91  F   UNL A   1      45.999  33.920  27.132  1.00  0.00    -0.203 F 
ATOM     92  C   UNL A   1      46.328  35.230  29.061  1.00  0.00     0.198 A 
ATOM     93  C   UNL A   1      46.876  34.181  31.150  1.00  0.00     0.198 A 
ATOM     94  F   UNL A   1      47.112  31.843  31.263  1.00  0.00    -0.203 F 
ATOM     95  F   UNL A   1      46.095  36.340  28.347  1.00  0.00    -0.200 F 
ATOM     96  C   UNL A   1      46.614  35.327  30.415  1.00  0.00     0.200 A 
ATOM     97  F   UNL A   1      47.136  34.269  32.461  1.00  0.00    -0.200 F 
ATOM     98  F   UNL A   1      46.634  36.526  31.014  1.00  0.00    -0.200 F 
ENDBRANCH  65  88
ENDBRANCH  39  40
ENDBRANCH  32  34
ENDBRANCH  31  32
ENDBRANCH  30  31
ENDBRANCH  29  30
ENDBRANCH  28  29
ENDBRANCH  27  28
ENDBRANCH   1  27
TORSDOF 20
ENDMDL
MODEL 3
REMARK VINA RESULT:     -10.8      2.655      8.267
REMARK SMILES CS(=O)(=O)c1ccc(/C=C(/C(=O)OCCOCCOCCOC(=O)c2ccc(-c3c4nc(c(-c5c(F)c(F)c(F)c(F)c5F)c5ccc([nH]5)c(-c5c(F)c(F)c(F)c(F)c5F)c5nc(c(-c6c(F)c(F)c(F)c(F)c6F)c6ccc3[nH]6)C=C5)C=C4)cc2)c2ccc(F)cc2)cc1
REMARK SMILES IDX 17 1 16 2 15 3 14 4 13 5 11 6 12 7 10 8 9 9 8 10 5 11 6 12
REMARK SMILES IDX 96 13 7 14 95 15 2 16 1 17 3 18 4 19 88 20 89 21 94 22 90 23
REMARK SMILES IDX 93 24 91 25 92 26 18 27 19 28 20 29 21 30 22 31 23 32 24 33
REMARK SMILES IDX 25 34 26 35 87 36 27 37 86 38 28 39 29 40 30 41 80 42 31 43
REMARK SMILES IDX 85 44 79 45 81 46 32 47 84 48 78 49 77 50 33 52 65 53 45 54
REMARK SMILES IDX 64 55 46 56 49 57 63 58 82 59 47 60 48 61 62 63 83 64 50 65
REMARK SMILES IDX 34 66 35 67 43 68 36 69 37 70 41 71 44 72 38 73 39 74 42 75
REMARK SMILES IDX 40 76 66 77 67 78 75 79 68 80 69 81 73 82 76 83 70 84 71 85
REMARK SMILES IDX 74 86 72 87 51 88 52 89 60 90 53 91 54 92 58 93 61 94 55 95
REMARK SMILES IDX 56 96 59 97 57 98
REMARK H PARENT 81 51 49 62
REMARK Flexibility Score: inf
ROOT
ATOM      1  C   UNL A   1      39.617  21.807  26.498  1.00  0.00     0.188 C 
ENDROOT
BRANCH   1   2
ATOM      2  O   UNL A   1      38.940  21.430  25.311  1.00  0.00    -0.376 OA
BRANCH   2   3
ATOM      3  C   UNL A   1      37.770  20.644  25.479  1.00  0.00     0.202 C 
BRANCH   3   4
ATOM      4  C   UNL A   1      36.466  21.314  25.031  1.00  0.00     0.261 C 
BRANCH   4   5
ATOM      5  O   UNL A   1      35.860  22.183  26.004  1.00  0.00    -0.460 OA
BRANCH   5   6
ATOM      6  C   UNL A   1      36.081  23.514  25.884  1.00  0.00     0.338 C 
ATOM      7  O   UNL A   1      37.144  24.072  26.105  1.00  0.00    -0.246 OA
BRANCH   6   8
ATOM      8  C   UNL A   1      34.865  24.207  25.329  1.00  0.00     0.067 C 
ATOM      9  C   UNL A   1      34.647  25.512  25.621  1.00  0.00     0.024 C 
BRANCH   9  10
ATOM     10  C   UNL A   1      33.594  26.415  25.099  1.00  0.00    -0.025 A 
ATOM     11  C   UNL A   1      31.490  27.842  23.912  1.00  0.00     0.067 A 
ATOM     12  C   UNL A   1      31.490  27.631  25.289  1.00  0.00     0.021 A 
ATOM     13  C   UNL A   1      32.581  27.454  23.137  1.00  0.00     0.021 A 
ATOM     14  C   UNL A   1      32.554  26.941  25.879  1.00  0.00     0.009 A 
ATOM     15  C   UNL A   1      33.628  26.743  23.734  1.00  0.00     0.009 A 
BRANCH  11  16
ATOM     16  S   UNL A   1      30.065  28.579  23.150  1.00  0.00     0.175 S 
ATOM     17  C   UNL A   1      28.771  27.412  23.500  1.00  0.00     0.163 C 
ATOM     18  O   UNL A   1      30.280  28.579  21.714  1.00  0.00    -0.224 OA
ATOM     19  O   UNL A   1      29.782  29.807  23.865  1.00  0.00    -0.224 OA
ENDBRANCH  11  16
ENDBRANCH   9  10
BRANCH   8  20
ATOM     20  C   UNL A   1      33.957  23.421  24.466  1.00  0.00    -0.011 A 
ATOM     21  C   UNL A   1      32.790  22.862  25.020  1.00  0.00     0.012 A 
ATOM     22  C   UNL A   1      34.182  23.308  23.088  1.00  0.00     0.012 A 
ATOM     23  C   UNL A   1      31.853  22.229  24.204  1.00  0.00     0.040 A 
ATOM     24  C   UNL A   1      33.238  22.680  22.271  1.00  0.00     0.040 A 
ATOM     25  C   UNL A   1      32.082  22.152  22.837  1.00  0.00     0.123 A 
ATOM     26  F   UNL A   1      31.168  21.575  22.048  1.00  0.00    -0.207 F 
ENDBRANCH   8  20
ENDBRANCH   6   8
ENDBRANCH   5   6
ENDBRANCH   4   5
ENDBRANCH   3   4
ENDBRANCH   2   3
ENDBRANCH   1   2
BRANCH   1  27
ATOM     27  C   UNL A   1      41.142  21.951  26.325  1.00  0.00     0.188 C 
BRANCH  27  28
ATOM     28  O   UNL A   1      42.030  21.263  27.194  1.00  0.00    -0.376 OA
BRANCH  28  29
ATOM     29  C   UNL A   1      42.011  19.843  27.228  1.00  0.00     0.202 C 
BRANCH  29  30
ATOM     30  C   UNL A   1      42.400  19.090  25.952  1.00  0.00     0.261 C 
BRANCH  30  31
ATOM     31  O   UNL A   1      43.817  18.943  25.761  1.00  0.00    -0.460 OA
BRANCH  31  32
ATOM     32  C   UNL A   1      44.301  19.454  24.602  1.00  0.00     0.338 C 
ATOM     33  O   UNL A   1      44.285  18.941  23.498  1.00  0.00    -0.246 OA
BRANCH  32  34
ATOM     34  C   UNL A   1      44.731  20.850  24.818  1.00  0.00     0.060 A 
ATOM     35  C   UNL A   1      45.291  21.187  26.058  1.00  0.00     0.016 A 
ATOM     36  C   UNL A   1      44.522  21.828  23.845  1.00  0.00     0.016 A 
ATOM     37  C   UNL A   1      45.627  22.510  26.340  1.00  0.00     0.010 A 
ATOM     38  C   UNL A   1      44.830  23.160  24.140  1.00  0.00     0.010 A 
ATOM     39  C   UNL A   1      45.359  23.509  25.396  1.00  0.00    -0.014 A 
BRANCH  39  40
ATOM     40  C   UNL A   1      45.457  24.939  25.774  1.00  0.00     0.031 A 
ATOM     41  C   UNL A   1      46.795  25.614  25.683  1.00  0.00     0.074 A 
ATOM     42  C   UNL A   1      44.383  25.618  26.213  1.00  0.00     0.049 A 
ATOM     43  N   UNL A   1      47.153  26.807  26.082  1.00  0.00    -0.248 NA
ATOM     44  C   UNL A   1      47.876  24.836  25.057  1.00  0.00     0.031 C 
ATOM     45  C   UNL A   1      43.022  25.094  26.282  1.00  0.00     0.029 A 
ATOM     46  N   UNL A   1      44.281  26.896  26.703  1.00  0.00    -0.354 N 
ATOM     47  C   UNL A   1      48.499  26.921  25.761  1.00  0.00     0.074 A 
ATOM     48  C   UNL A   1      48.898  25.675  25.145  1.00  0.00     0.031 C 
ATOM     49  C   UNL A   1      42.222  26.035  26.813  1.00  0.00     0.029 A 
ATOM     50  C   UNL A   1      43.026  27.208  27.162  1.00  0.00     0.049 A 
ATOM     51  H   UNL A   1      45.036  27.528  26.724  1.00  0.00     0.167 HD
ATOM     52  C   UNL A   1      49.329  27.969  25.971  1.00  0.00     0.037 A 
ATOM     53  C   UNL A   1      42.590  28.298  27.825  1.00  0.00     0.037 A 
ATOM     54  C   UNL A   1      48.939  29.197  26.608  1.00  0.00     0.049 A 
ATOM     55  C   UNL A   1      43.561  29.407  28.148  1.00  0.00     0.074 A 
ATOM     56  C   UNL A   1      49.710  30.313  26.878  1.00  0.00     0.029 A 
ATOM     57  N   UNL A   1      47.666  29.462  27.088  1.00  0.00    -0.354 N 
ATOM     58  N   UNL A   1      44.831  29.512  27.840  1.00  0.00    -0.248 NA
ATOM     59  C   UNL A   1      43.040  30.545  28.921  1.00  0.00     0.031 C 
ATOM     60  C   UNL A   1      48.915  31.235  27.567  1.00  0.00     0.029 A 
ATOM     61  C   UNL A   1      47.636  30.715  27.677  1.00  0.00     0.049 A 
ATOM     62  H   UNL A   1      46.897  28.851  27.020  1.00  0.00     0.167 HD
ATOM     63  C   UNL A   1      45.249  30.738  28.346  1.00  0.00     0.074 A 
ATOM     64  C   UNL A   1      44.099  31.340  28.986  1.00  0.00     0.031 C 
ATOM     65  C   UNL A   1      46.474  31.311  28.285  1.00  0.00     0.037 A 
BRANCH  52  66
ATOM     66  C   UNL A   1      50.757  27.812  25.543  1.00  0.00     0.064 A 
ATOM     67  C   UNL A   1      51.762  27.450  26.450  1.00  0.00     0.173 A 
ATOM     68  C   UNL A   1      51.119  28.005  24.201  1.00  0.00     0.173 A 
ATOM     69  F   UNL A   1      51.468  27.272  27.747  1.00  0.00    -0.203 F 
ATOM     70  C   UNL A   1      53.083  27.309  26.035  1.00  0.00     0.198 A 
ATOM     71  C   UNL A   1      52.435  27.838  23.784  1.00  0.00     0.198 A 
ATOM     72  F   UNL A   1      50.192  28.350  23.294  1.00  0.00    -0.203 F 
ATOM     73  F   UNL A   1      54.036  27.005  26.927  1.00  0.00    -0.200 F 
ATOM     74  C   UNL A   1      53.418  27.497  24.701  1.00  0.00     0.200 A 
ATOM     75  F   UNL A   1      52.755  28.011  22.494  1.00  0.00    -0.200 F 
ATOM     76  F   UNL A   1      54.689  27.357  24.302  1.00  0.00    -0.200 F 
ENDBRANCH  52  66
BRANCH  53  77
ATOM     77  C   UNL A   1      41.174  28.385  28.269  1.00  0.00     0.064 A 
ATOM     78  C   UNL A   1      40.186  28.913  27.428  1.00  0.00     0.173 A 
ATOM     79  C   UNL A   1      40.786  27.973  29.553  1.00  0.00     0.173 A 
ATOM     80  F   UNL A   1      40.512  29.349  26.202  1.00  0.00    -0.203 F 
ATOM     81  C   UNL A   1      38.866  29.042  27.859  1.00  0.00     0.198 A 
ATOM     82  C   UNL A   1      39.463  28.077  29.974  1.00  0.00     0.198 A 
ATOM     83  F   UNL A   1      41.695  27.468  30.400  1.00  0.00    -0.203 F 
ATOM     84  F   UNL A   1      37.951  29.597  27.054  1.00  0.00    -0.200 F 
ATOM     85  C   UNL A   1      38.505  28.620  29.130  1.00  0.00     0.200 A 
ATOM     86  F   UNL A   1      39.117  27.662  31.200  1.00  0.00    -0.200 F 
ATOM     87  F   UNL A   1      37.238  28.747  29.546  1.00  0.00    -0.200 F 
ENDBRANCH  53  77
BRANCH  65  88
ATOM     88  C   UNL A   1      46.636  32.684  28.869  1.00  0.00     0.064 A 
ATOM     89  C   UNL A   1      47.076  32.877  30.186  1.00  0.00     0.173 A 
ATOM     90  C   UNL A   1      46.436  33.818  28.067  1.00  0.00     0.173 A 
ATOM     91  F   UNL A   1      47.269  31.826  30.995  1.00  0.00    -0.203 F 
ATOM     92  C   UNL A   1      47.303  34.159  30.680  1.00  0.00     0.198 A 
ATOM     93  C   UNL A   1      46.688  35.097  28.557  1.00  0.00     0.198 A 
ATOM     94  F   UNL A   1      46.022  33.684  26.798  1.00  0.00    -0.203 F 
ATOM     95  F   UNL A   1      47.700  34.325  31.950  1.00  0.00    -0.200 F 
ATOM     96  C   UNL A   1      47.119  35.266  29.864  1.00  0.00     0.200 A 
ATOM     97  F   UNL A   1      46.524  36.163  27.761  1.00  0.00    -0.200 F 
ATOM     98  F   UNL A   1      47.359  36.498  30.336  1.00  0.00    -0.200 F 
ENDBRANCH  65  88
ENDBRANCH  39  40
ENDBRANCH  32  34
ENDBRANCH  31  32
ENDBRANCH  30  31
ENDBRANCH  29  30
ENDBRANCH  28  29
ENDBRANCH  27  28
ENDBRANCH   1  27
TORSDOF 20
ENDMDL
