MODEL 1
REMARK VINA RESULT:     -11.5      0.000      0.000
REMARK SMILES O=C(OCCOCCOCCOC(=O)c1ccc(-c2c3nc(c(-c4c(F)c(F)c(F)c(F)c4F)c4ccc([nH]4)c(-c4c(F)c(F)c(F)c(F)c4F)c4nc(c(-c5c(F)c(F)c(F)c(F)c5F)c5ccc2[nH]5)C=C4)C=C3)cc1)C1=Cc2c(ccc(Cl)c2Cl)O[C@H]1C(F)(F)F
REMARK SMILES IDX 8 1 7 2 6 3 5 4 4 5 3 6 2 7 1 8 78 9 79 10 89 11 80 12 88 13
REMARK SMILES IDX 81 14 86 15 82 16 84 17 87 18 83 19 85 20 90 21 91 22 92 23
REMARK SMILES IDX 93 24 9 25 10 26 11 27 12 28 13 29 14 30 15 31 16 32 77 33
REMARK SMILES IDX 17 34 76 35 18 36 19 37 20 38 70 39 21 40 75 41 69 42 71 43
REMARK SMILES IDX 22 44 74 45 68 46 67 47 23 49 55 50 35 51 54 52 36 53 39 54
REMARK SMILES IDX 53 55 72 56 37 57 38 58 52 60 73 61 40 62 24 63 25 64 33 65
REMARK SMILES IDX 26 66 27 67 31 68 34 69 28 70 29 71 32 72 30 73 56 74 57 75
REMARK SMILES IDX 65 76 58 77 59 78 63 79 66 80 60 81 61 82 64 83 62 84 41 85
REMARK SMILES IDX 42 86 50 87 43 88 44 89 48 90 51 91 45 92 46 93 49 94 47 95
REMARK H PARENT 71 48 39 59
REMARK Flexibility Score: inf
ROOT
ATOM      1  C   UNL A   1      39.885  20.090  25.866  1.00  0.00     0.188 C 
ENDROOT
BRANCH   1   2
ATOM      2  C   UNL A   1      38.608  19.593  25.177  1.00  0.00     0.188 C 
BRANCH   2   3
ATOM      3  O   UNL A   1      37.647  20.624  25.012  1.00  0.00    -0.376 OA
BRANCH   3   4
ATOM      4  C   UNL A   1      38.033  21.787  25.738  1.00  0.00     0.202 C 
BRANCH   4   5
ATOM      5  C   UNL A   1      37.364  23.050  25.195  1.00  0.00     0.261 C 
BRANCH   5   6
ATOM      6  O   UNL A   1      36.355  23.588  26.088  1.00  0.00    -0.460 OA
BRANCH   6   7
ATOM      7  C   UNL A   1      35.033  23.320  26.183  1.00  0.00     0.338 C 
ATOM      8  O   UNL A   1      34.653  22.462  26.974  1.00  0.00    -0.246 OA
BRANCH   7   9
ATOM      9  C   UNL A   1      34.019  24.129  25.472  1.00  0.00     0.087 C 
ATOM     10  C   UNL A   1      34.141  25.434  25.238  1.00  0.00     0.029 C 
ATOM     11  C   UNL A   1      32.936  23.382  24.714  1.00  0.00     0.316 C 
ATOM     12  C   UNL A   1      32.969  26.231  24.950  1.00  0.00     0.037 A 
ATOM     13  O   UNL A   1      31.863  24.224  24.165  1.00  0.00    -0.475 OA
ATOM     14  C   UNL A   1      31.891  25.575  24.371  1.00  0.00     0.129 A 
ATOM     15  C   UNL A   1      32.864  27.597  25.303  1.00  0.00     0.070 A 
ATOM     16  C   UNL A   1      30.759  26.303  24.010  1.00  0.00     0.049 A 
ATOM     17  C   UNL A   1      31.716  28.315  24.962  1.00  0.00     0.060 A 
ATOM     18  Cl  UNL A   1      34.087  28.369  26.268  1.00  0.00    -0.082 Cl
ATOM     19  C   UNL A   1      30.677  27.671  24.292  1.00  0.00     0.026 A 
ATOM     20  Cl  UNL A   1      31.512  29.987  25.357  1.00  0.00    -0.083 Cl
BRANCH  11  21
ATOM     21  C   UNL A   1      33.589  22.614  23.526  1.00  0.00     0.430 C 
ATOM     22  F   UNL A   1      32.677  22.284  22.575  1.00  0.00    -0.167 F 
ATOM     23  F   UNL A   1      34.572  23.313  22.917  1.00  0.00    -0.167 F 
ATOM     24  F   UNL A   1      34.155  21.450  23.932  1.00  0.00    -0.167 F 
ENDBRANCH  11  21
ENDBRANCH   7   9
ENDBRANCH   6   7
ENDBRANCH   5   6
ENDBRANCH   4   5
ENDBRANCH   3   4
ENDBRANCH   2   3
ENDBRANCH   1   2
BRANCH   1  25
ATOM     25  O   UNL A   1      41.056  19.285  25.776  1.00  0.00    -0.376 OA
BRANCH  25  26
ATOM     26  C   UNL A   1      42.301  19.765  26.285  1.00  0.00     0.202 C 
BRANCH  26  27
ATOM     27  C   UNL A   1      42.967  21.020  25.708  1.00  0.00     0.261 C 
BRANCH  27  28
ATOM     28  O   UNL A   1      42.463  22.250  26.243  1.00  0.00    -0.460 OA
BRANCH  28  29
ATOM     29  C   UNL A   1      42.756  23.339  25.498  1.00  0.00     0.338 C 
ATOM     30  O   UNL A   1      43.397  23.392  24.463  1.00  0.00    -0.246 OA
BRANCH  29  31
ATOM     31  C   UNL A   1      42.149  24.533  26.087  1.00  0.00     0.060 A 
ATOM     32  C   UNL A   1      42.823  25.756  26.020  1.00  0.00     0.016 A 
ATOM     33  C   UNL A   1      41.031  24.365  26.905  1.00  0.00     0.016 A 
ATOM     34  C   UNL A   1      42.407  26.816  26.819  1.00  0.00     0.010 A 
ATOM     35  C   UNL A   1      40.620  25.421  27.710  1.00  0.00     0.010 A 
ATOM     36  C   UNL A   1      41.341  26.628  27.705  1.00  0.00    -0.014 A 
BRANCH  36  37
ATOM     37  C   UNL A   1      41.122  27.598  28.793  1.00  0.00     0.031 A 
ATOM     38  C   UNL A   1      42.008  27.519  30.001  1.00  0.00     0.074 A 
ATOM     39  C   UNL A   1      40.149  28.516  28.699  1.00  0.00     0.049 A 
ATOM     40  N   UNL A   1      41.939  28.174  31.130  1.00  0.00    -0.248 NA
ATOM     41  C   UNL A   1      43.126  26.562  29.928  1.00  0.00     0.031 C 
ATOM     42  C   UNL A   1      39.280  28.707  27.540  1.00  0.00     0.029 A 
ATOM     43  N   UNL A   1      39.719  29.445  29.608  1.00  0.00    -0.354 N 
ATOM     44  C   UNL A   1      42.990  27.700  31.903  1.00  0.00     0.074 A 
ATOM     45  C   UNL A   1      43.671  26.688  31.127  1.00  0.00     0.031 C 
ATOM     46  C   UNL A   1      38.396  29.680  27.820  1.00  0.00     0.029 A 
ATOM     47  C   UNL A   1      38.618  30.144  29.188  1.00  0.00     0.049 A 
ATOM     48  H   UNL A   1      40.159  29.596  30.476  1.00  0.00     0.167 HD
ATOM     49  C   UNL A   1      43.349  28.081  33.151  1.00  0.00     0.037 A 
ATOM     50  C   UNL A   1      37.859  31.031  29.858  1.00  0.00     0.037 A 
ATOM     51  C   UNL A   1      42.649  29.082  33.911  1.00  0.00     0.049 A 
ATOM     52  C   UNL A   1      38.229  31.380  31.276  1.00  0.00     0.074 A 
ATOM     53  C   UNL A   1      42.920  29.552  35.182  1.00  0.00     0.029 A 
ATOM     54  N   UNL A   1      41.522  29.761  33.463  1.00  0.00    -0.354 N 
ATOM     55  N   UNL A   1      39.227  30.940  32.006  1.00  0.00    -0.248 NA
ATOM     56  C   UNL A   1      37.369  32.352  31.963  1.00  0.00     0.031 C 
ATOM     57  C   UNL A   1      41.926  30.473  35.525  1.00  0.00     0.029 A 
ATOM     58  C   UNL A   1      41.071  30.626  34.444  1.00  0.00     0.049 A 
ATOM     59  H   UNL A   1      41.107  29.642  32.578  1.00  0.00     0.167 HD
ATOM     60  C   UNL A   1      39.136  31.603  33.223  1.00  0.00     0.074 A 
ATOM     61  C   UNL A   1      37.988  32.481  33.129  1.00  0.00     0.031 C 
ATOM     62  C   UNL A   1      39.930  31.500  34.318  1.00  0.00     0.037 A 
BRANCH  49  63
ATOM     63  C   UNL A   1      44.519  27.379  33.780  1.00  0.00     0.064 A 
ATOM     64  C   UNL A   1      45.828  27.871  33.667  1.00  0.00     0.173 A 
ATOM     65  C   UNL A   1      44.324  26.197  34.511  1.00  0.00     0.173 A 
ATOM     66  F   UNL A   1      46.072  28.987  32.965  1.00  0.00    -0.203 F 
ATOM     67  C   UNL A   1      46.902  27.189  34.236  1.00  0.00     0.198 A 
ATOM     68  C   UNL A   1      45.396  25.536  35.105  1.00  0.00     0.198 A 
ATOM     69  F   UNL A   1      43.093  25.681  34.650  1.00  0.00    -0.203 F 
ATOM     70  F   UNL A   1      48.149  27.649  34.069  1.00  0.00    -0.200 F 
ATOM     71  C   UNL A   1      46.684  26.026  34.959  1.00  0.00     0.200 A 
ATOM     72  F   UNL A   1      45.182  24.417  35.813  1.00  0.00    -0.200 F 
ATOM     73  F   UNL A   1      47.717  25.373  35.509  1.00  0.00    -0.200 F 
ENDBRANCH  49  63
BRANCH  50  74
ATOM     74  C   UNL A   1      36.672  31.632  29.199  1.00  0.00     0.064 A 
ATOM     75  C   UNL A   1      36.657  32.985  28.835  1.00  0.00     0.173 A 
ATOM     76  C   UNL A   1      35.529  30.867  28.916  1.00  0.00     0.173 A 
ATOM     77  F   UNL A   1      37.715  33.763  29.106  1.00  0.00    -0.203 F 
ATOM     78  C   UNL A   1      35.539  33.554  28.229  1.00  0.00     0.198 A 
ATOM     79  C   UNL A   1      34.424  31.430  28.283  1.00  0.00     0.198 A 
ATOM     80  F   UNL A   1      35.492  29.568  29.246  1.00  0.00    -0.203 F 
ATOM     81  F   UNL A   1      35.532  34.861  27.934  1.00  0.00    -0.200 F 
ATOM     82  C   UNL A   1      34.426  32.775  27.946  1.00  0.00     0.200 A 
ATOM     83  F   UNL A   1      33.355  30.672  28.004  1.00  0.00    -0.200 F 
ATOM     84  F   UNL A   1      33.353  33.323  27.361  1.00  0.00    -0.200 F 
ENDBRANCH  50  74
BRANCH  62  85
ATOM     85  C   UNL A   1      39.615  32.393  35.482  1.00  0.00     0.064 A 
ATOM     86  C   UNL A   1      40.125  33.696  35.574  1.00  0.00     0.173 A 
ATOM     87  C   UNL A   1      38.747  31.953  36.494  1.00  0.00     0.173 A 
ATOM     88  F   UNL A   1      40.968  34.160  34.640  1.00  0.00    -0.203 F 
ATOM     89  C   UNL A   1      39.798  34.516  36.651  1.00  0.00     0.198 A 
ATOM     90  C   UNL A   1      38.396  32.787  37.550  1.00  0.00     0.198 A 
ATOM     91  F   UNL A   1      38.225  30.717  36.447  1.00  0.00    -0.203 F 
ATOM     92  F   UNL A   1      40.334  35.740  36.744  1.00  0.00    -0.200 F 
ATOM     93  C   UNL A   1      38.927  34.064  37.633  1.00  0.00     0.200 A 
ATOM     94  F   UNL A   1      37.542  32.355  38.488  1.00  0.00    -0.200 F 
ATOM     95  F   UNL A   1      38.605  34.860  38.662  1.00  0.00    -0.200 F 
ENDBRANCH  62  85
ENDBRANCH  36  37
ENDBRANCH  29  31
ENDBRANCH  28  29
ENDBRANCH  27  28
ENDBRANCH  26  27
ENDBRANCH  25  26
ENDBRANCH   1  25
TORSDOF 18
ENDMDL
MODEL 2
REMARK VINA RESULT:     -11.2      4.986     10.311
REMARK SMILES O=C(OCCOCCOCCOC(=O)c1ccc(-c2c3nc(c(-c4c(F)c(F)c(F)c(F)c4F)c4ccc([nH]4)c(-c4c(F)c(F)c(F)c(F)c4F)c4nc(c(-c5c(F)c(F)c(F)c(F)c5F)c5ccc2[nH]5)C=C4)C=C3)cc1)C1=Cc2c(ccc(Cl)c2Cl)O[C@H]1C(F)(F)F
REMARK SMILES IDX 8 1 7 2 6 3 5 4 4 5 3 6 2 7 1 8 78 9 79 10 89 11 80 12 88 13
REMARK SMILES IDX 81 14 86 15 82 16 84 17 87 18 83 19 85 20 90 21 91 22 92 23
REMARK SMILES IDX 93 24 9 25 10 26 11 27 12 28 13 29 14 30 15 31 16 32 77 33
REMARK SMILES IDX 17 34 76 35 18 36 19 37 20 38 70 39 21 40 75 41 69 42 71 43
REMARK SMILES IDX 22 44 74 45 68 46 67 47 23 49 55 50 35 51 54 52 36 53 39 54
REMARK SMILES IDX 53 55 72 56 37 57 38 58 52 60 73 61 40 62 24 63 25 64 33 65
REMARK SMILES IDX 26 66 27 67 31 68 34 69 28 70 29 71 32 72 30 73 56 74 57 75
REMARK SMILES IDX 65 76 58 77 59 78 63 79 66 80 60 81 61 82 64 83 62 84 41 85
REMARK SMILES IDX 42 86 50 87 43 88 44 89 48 90 51 91 45 92 46 93 49 94 47 95
REMARK H PARENT 71 48 39 59
REMARK Flexibility Score: inf
ROOT
ATOM      1  C   UNL A   1      33.508  32.968  27.710  1.00  0.00     0.188 C 
ENDROOT
BRANCH   1   2
ATOM      2  C   UNL A   1      34.423  31.747  27.859  1.00  0.00     0.188 C 
BRANCH   2   3
ATOM      3  O   UNL A   1      33.721  30.524  27.708  1.00  0.00    -0.376 OA
BRANCH   3   4
ATOM      4  C   UNL A   1      33.126  30.445  26.416  1.00  0.00     0.202 C 
BRANCH   4   5
ATOM      5  C   UNL A   1      33.363  29.087  25.757  1.00  0.00     0.261 C 
BRANCH   5   6
ATOM      6  O   UNL A   1      32.872  29.022  24.393  1.00  0.00    -0.460 OA
BRANCH   6   7
ATOM      7  C   UNL A   1      33.112  28.121  23.414  1.00  0.00     0.338 C 
ATOM      8  O   UNL A   1      33.741  28.473  22.420  1.00  0.00    -0.246 OA
BRANCH   7   9
ATOM      9  C   UNL A   1      32.772  26.690  23.569  1.00  0.00     0.087 C 
ATOM     10  C   UNL A   1      33.402  25.862  24.400  1.00  0.00     0.029 C 
ATOM     11  C   UNL A   1      31.454  26.218  22.980  1.00  0.00     0.316 C 
ATOM     12  C   UNL A   1      33.330  24.433  24.193  1.00  0.00     0.037 A 
ATOM     13  O   UNL A   1      31.239  24.764  23.015  1.00  0.00    -0.475 OA
ATOM     14  C   UNL A   1      32.203  23.950  23.541  1.00  0.00     0.129 A 
ATOM     15  C   UNL A   1      34.377  23.551  24.551  1.00  0.00     0.070 A 
ATOM     16  C   UNL A   1      32.046  22.576  23.370  1.00  0.00     0.049 A 
ATOM     17  C   UNL A   1      34.224  22.178  24.353  1.00  0.00     0.060 A 
ATOM     18  Cl  UNL A   1      35.904  24.159  25.117  1.00  0.00    -0.082 Cl
ATOM     19  C   UNL A   1      33.046  21.692  23.787  1.00  0.00     0.026 A 
ATOM     20  Cl  UNL A   1      35.456  21.036  24.766  1.00  0.00    -0.083 Cl
BRANCH  11  21
ATOM     21  C   UNL A   1      30.283  26.889  23.760  1.00  0.00     0.430 C 
ATOM     22  F   UNL A   1      30.576  27.039  25.078  1.00  0.00    -0.167 F 
ATOM     23  F   UNL A   1      29.952  28.107  23.278  1.00  0.00    -0.167 F 
ATOM     24  F   UNL A   1      29.152  26.144  23.703  1.00  0.00    -0.167 F 
ENDBRANCH  11  21
ENDBRANCH   7   9
ENDBRANCH   6   7
ENDBRANCH   5   6
ENDBRANCH   4   5
ENDBRANCH   3   4
ENDBRANCH   2   3
ENDBRANCH   1   2
BRANCH   1  25
ATOM     25  O   UNL A   1      33.722  34.080  28.573  1.00  0.00    -0.376 OA
BRANCH  25  26
ATOM     26  C   UNL A   1      34.817  34.080  29.490  1.00  0.00     0.202 C 
BRANCH  26  27
ATOM     27  C   UNL A   1      34.620  33.722  30.968  1.00  0.00     0.261 C 
BRANCH  27  28
ATOM     28  O   UNL A   1      34.688  32.318  31.244  1.00  0.00    -0.460 OA
BRANCH  28  29
ATOM     29  C   UNL A   1      35.623  31.979  32.161  1.00  0.00     0.338 C 
ATOM     30  O   UNL A   1      35.726  32.372  33.310  1.00  0.00    -0.246 OA
BRANCH  29  31
ATOM     31  C   UNL A   1      36.545  30.991  31.602  1.00  0.00     0.060 A 
ATOM     32  C   UNL A   1      37.477  30.365  32.435  1.00  0.00     0.016 A 
ATOM     33  C   UNL A   1      36.625  30.880  30.213  1.00  0.00     0.016 A 
ATOM     34  C   UNL A   1      38.536  29.659  31.876  1.00  0.00     0.010 A 
ATOM     35  C   UNL A   1      37.688  30.181  29.654  1.00  0.00     0.010 A 
ATOM     36  C   UNL A   1      38.671  29.616  30.484  1.00  0.00    -0.014 A 
BRANCH  36  37
ATOM     37  C   UNL A   1      39.952  29.193  29.892  1.00  0.00     0.031 A 
ATOM     38  C   UNL A   1      41.050  30.210  29.776  1.00  0.00     0.074 A 
ATOM     39  C   UNL A   1      40.120  27.933  29.464  1.00  0.00     0.049 A 
ATOM     40  N   UNL A   1      42.214  30.117  29.189  1.00  0.00    -0.248 NA
ATOM     41  C   UNL A   1      40.795  31.517  30.405  1.00  0.00     0.031 C 
ATOM     42  C   UNL A   1      39.134  26.862  29.592  1.00  0.00     0.029 A 
ATOM     43  N   UNL A   1      41.178  27.352  28.817  1.00  0.00    -0.354 N 
ATOM     44  C   UNL A   1      42.821  31.352  29.365  1.00  0.00     0.074 A 
ATOM     45  C   UNL A   1      41.893  32.187  30.094  1.00  0.00     0.031 C 
ATOM     46  C   UNL A   1      39.624  25.753  29.012  1.00  0.00     0.029 A 
ATOM     47  C   UNL A   1      40.936  26.056  28.442  1.00  0.00     0.049 A 
ATOM     48  H   UNL A   1      42.026  27.819  28.641  1.00  0.00     0.167 HD
ATOM     49  C   UNL A   1      44.048  31.749  28.950  1.00  0.00     0.037 A 
ATOM     50  C   UNL A   1      41.684  25.228  27.690  1.00  0.00     0.037 A 
ATOM     51  C   UNL A   1      44.951  30.905  28.215  1.00  0.00     0.049 A 
ATOM     52  C   UNL A   1      43.011  25.718  27.170  1.00  0.00     0.074 A 
ATOM     53  C   UNL A   1      46.218  31.194  27.744  1.00  0.00     0.029 A 
ATOM     54  N   UNL A   1      44.668  29.599  27.833  1.00  0.00    -0.354 N 
ATOM     55  N   UNL A   1      43.591  26.883  27.342  1.00  0.00    -0.248 NA
ATOM     56  C   UNL A   1      43.789  24.778  26.354  1.00  0.00     0.031 C 
ATOM     57  C   UNL A   1      46.679  30.085  27.029  1.00  0.00     0.029 A 
ATOM     58  C   UNL A   1      45.727  29.079  27.109  1.00  0.00     0.049 A 
ATOM     59  H   UNL A   1      43.838  29.116  28.046  1.00  0.00     0.167 HD
ATOM     60  C   UNL A   1      44.813  26.804  26.686  1.00  0.00     0.074 A 
ATOM     61  C   UNL A   1      44.893  25.474  26.118  1.00  0.00     0.031 C 
ATOM     62  C   UNL A   1      45.784  27.744  26.566  1.00  0.00     0.037 A 
BRANCH  49  63
ATOM     63  C   UNL A   1      44.454  33.164  29.245  1.00  0.00     0.064 A 
ATOM     64  C   UNL A   1      45.044  33.528  30.466  1.00  0.00     0.173 A 
ATOM     65  C   UNL A   1      44.255  34.172  28.289  1.00  0.00     0.173 A 
ATOM     66  F   UNL A   1      45.241  32.608  31.422  1.00  0.00    -0.203 F 
ATOM     67  C   UNL A   1      45.389  34.852  30.729  1.00  0.00     0.198 A 
ATOM     68  C   UNL A   1      44.630  35.488  28.544  1.00  0.00     0.198 A 
ATOM     69  F   UNL A   1      43.694  33.880  27.105  1.00  0.00    -0.203 F 
ATOM     70  F   UNL A   1      45.900  35.185  31.922  1.00  0.00    -0.200 F 
ATOM     71  C   UNL A   1      45.187  35.829  29.766  1.00  0.00     0.200 A 
ATOM     72  F   UNL A   1      44.445  36.428  27.606  1.00  0.00    -0.200 F 
ATOM     73  F   UNL A   1      45.524  37.101  30.018  1.00  0.00    -0.200 F 
ENDBRANCH  49  63
BRANCH  50  74
ATOM     74  C   UNL A   1      41.186  23.865  27.374  1.00  0.00     0.064 A 
ATOM     75  C   UNL A   1      41.789  22.730  27.933  1.00  0.00     0.173 A 
ATOM     76  C   UNL A   1      40.096  23.668  26.513  1.00  0.00     0.173 A 
ATOM     77  F   UNL A   1      42.850  22.866  28.743  1.00  0.00    -0.203 F 
ATOM     78  C   UNL A   1      41.333  21.450  27.628  1.00  0.00     0.198 A 
ATOM     79  C   UNL A   1      39.622  22.389  26.232  1.00  0.00     0.198 A 
ATOM     80  F   UNL A   1      39.486  24.721  25.950  1.00  0.00    -0.203 F 
ATOM     81  F   UNL A   1      41.957  20.379  28.138  1.00  0.00    -0.200 F 
ATOM     82  C   UNL A   1      40.245  21.280  26.784  1.00  0.00     0.200 A 
ATOM     83  F   UNL A   1      38.565  22.231  25.424  1.00  0.00    -0.200 F 
ATOM     84  F   UNL A   1      39.805  20.049  26.494  1.00  0.00    -0.200 F 
ENDBRANCH  50  74
BRANCH  62  85
ATOM     85  C   UNL A   1      47.035  27.351  25.836  1.00  0.00     0.064 A 
ATOM     86  C   UNL A   1      48.074  26.654  26.470  1.00  0.00     0.173 A 
ATOM     87  C   UNL A   1      47.170  27.632  24.467  1.00  0.00     0.173 A 
ATOM     88  F   UNL A   1      47.999  26.372  27.779  1.00  0.00    -0.203 F 
ATOM     89  C   UNL A   1      49.214  26.277  25.765  1.00  0.00     0.198 A 
ATOM     90  C   UNL A   1      48.296  27.223  23.759  1.00  0.00     0.198 A 
ATOM     91  F   UNL A   1      46.200  28.288  23.811  1.00  0.00    -0.203 F 
ATOM     92  F   UNL A   1      50.216  25.654  26.401  1.00  0.00    -0.200 F 
ATOM     93  C   UNL A   1      49.320  26.553  24.410  1.00  0.00     0.200 A 
ATOM     94  F   UNL A   1      48.389  27.476  22.446  1.00  0.00    -0.200 F 
ATOM     95  F   UNL A   1      50.413  26.178  23.731  1.00  0.00    -0.200 F 
ENDBRANCH  62  85
ENDBRANCH  36  37
ENDBRANCH  29  31
ENDBRANCH  28  29
ENDBRANCH  27  28
ENDBRANCH  26  27
ENDBRANCH  25  26
ENDBRANCH   1  25
TORSDOF 18
ENDMDL
MODEL 3
REMARK VINA RESULT:     -11.2      3.487      8.692
REMARK SMILES O=C(OCCOCCOCCOC(=O)c1ccc(-c2c3nc(c(-c4c(F)c(F)c(F)c(F)c4F)c4ccc([nH]4)c(-c4c(F)c(F)c(F)c(F)c4F)c4nc(c(-c5c(F)c(F)c(F)c(F)c5F)c5ccc2[nH]5)C=C4)C=C3)cc1)C1=Cc2c(ccc(Cl)c2Cl)O[C@H]1C(F)(F)F
REMARK SMILES IDX 8 1 7 2 6 3 5 4 4 5 3 6 2 7 1 8 78 9 79 10 89 11 80 12 88 13
REMARK SMILES IDX 81 14 86 15 82 16 84 17 87 18 83 19 85 20 90 21 91 22 92 23
REMARK SMILES IDX 93 24 9 25 10 26 11 27 12 28 13 29 14 30 15 31 16 32 77 33
REMARK SMILES IDX 17 34 76 35 18 36 19 37 20 38 70 39 21 40 75 41 69 42 71 43
REMARK SMILES IDX 22 44 74 45 68 46 67 47 23 49 55 50 35 51 54 52 36 53 39 54
REMARK SMILES IDX 53 55 72 56 37 57 38 58 52 60 73 61 40 62 24 63 25 64 33 65
REMARK SMILES IDX 26 66 27 67 31 68 34 69 28 70 29 71 32 72 30 73 56 74 57 75
REMARK SMILES IDX 65 76 58 77 59 78 63 79 66 80 60 81 61 82 64 83 62 84 41 85
REMARK SMILES IDX 42 86 50 87 43 88 44 89 48 90 51 91 45 92 46 93 49 94 47 95
REMARK H PARENT 71 48 39 59
REMARK Flexibility Score: inf
ROOT
ATOM      1  C   UNL A   1      32.333  30.161  26.022  1.00  0.00     0.188 C 
ENDROOT
BRANCH   1   2
ATOM      2  C   UNL A   1      32.827  29.223  24.914  1.00  0.00     0.188 C 
BRANCH   2   3
ATOM      3  O   UNL A   1      31.836  28.981  23.928  1.00  0.00    -0.376 OA
BRANCH   3   4
ATOM      4  C   UNL A   1      32.435  28.815  22.647  1.00  0.00     0.202 C 
BRANCH   4   5
ATOM      5  C   UNL A   1      33.748  28.035  22.724  1.00  0.00     0.261 C 
BRANCH   5   6
ATOM      6  O   UNL A   1      33.813  26.935  21.780  1.00  0.00    -0.460 OA
BRANCH   6   7
ATOM      7  C   UNL A   1      33.017  25.851  21.639  1.00  0.00     0.338 C 
ATOM      8  O   UNL A   1      32.374  25.715  20.602  1.00  0.00    -0.246 OA
BRANCH   7   9
ATOM      9  C   UNL A   1      33.010  24.753  22.628  1.00  0.00     0.087 C 
ATOM     10  C   UNL A   1      34.082  24.367  23.318  1.00  0.00     0.029 C 
ATOM     11  C   UNL A   1      31.658  24.244  23.098  1.00  0.00     0.316 C 
ATOM     12  C   UNL A   1      34.125  23.051  23.916  1.00  0.00     0.037 A 
ATOM     13  O   UNL A   1      31.703  23.047  23.952  1.00  0.00    -0.475 OA
ATOM     14  C   UNL A   1      32.907  22.475  24.251  1.00  0.00     0.129 A 
ATOM     15  C   UNL A   1      35.327  22.325  24.088  1.00  0.00     0.070 A 
ATOM     16  C   UNL A   1      32.887  21.237  24.889  1.00  0.00     0.049 A 
ATOM     17  C   UNL A   1      35.297  21.073  24.705  1.00  0.00     0.060 A 
ATOM     18  Cl  UNL A   1      36.827  22.908  23.430  1.00  0.00    -0.082 Cl
ATOM     19  C   UNL A   1      34.079  20.544  25.128  1.00  0.00     0.026 A 
ATOM     20  Cl  UNL A   1      36.723  20.125  24.954  1.00  0.00    -0.083 Cl
BRANCH  11  21
ATOM     21  C   UNL A   1      30.946  25.373  23.902  1.00  0.00     0.430 C 
ATOM     22  F   UNL A   1      30.343  26.273  23.082  1.00  0.00    -0.167 F 
ATOM     23  F   UNL A   1      30.005  24.907  24.752  1.00  0.00    -0.167 F 
ATOM     24  F   UNL A   1      31.822  26.076  24.662  1.00  0.00    -0.167 F 
ENDBRANCH  11  21
ENDBRANCH   7   9
ENDBRANCH   6   7
ENDBRANCH   5   6
ENDBRANCH   4   5
ENDBRANCH   3   4
ENDBRANCH   2   3
ENDBRANCH   1   2
BRANCH   1  25
ATOM     25  O   UNL A   1      33.117  30.280  27.204  1.00  0.00    -0.376 OA
BRANCH  25  26
ATOM     26  C   UNL A   1      33.598  31.558  27.624  1.00  0.00     0.202 C 
BRANCH  26  27
ATOM     27  C   UNL A   1      32.689  32.794  27.614  1.00  0.00     0.261 C 
BRANCH  27  28
ATOM     28  O   UNL A   1      33.396  34.039  27.552  1.00  0.00    -0.460 OA
BRANCH  28  29
ATOM     29  C   UNL A   1      33.305  34.783  28.677  1.00  0.00     0.338 C 
ATOM     30  O   UNL A   1      32.424  35.563  28.993  1.00  0.00    -0.246 OA
BRANCH  29  31
ATOM     31  C   UNL A   1      34.439  34.506  29.559  1.00  0.00     0.060 A 
ATOM     32  C   UNL A   1      35.742  34.627  29.067  1.00  0.00     0.016 A 
ATOM     33  C   UNL A   1      34.182  33.901  30.789  1.00  0.00     0.016 A 
ATOM     34  C   UNL A   1      36.803  34.091  29.788  1.00  0.00     0.010 A 
ATOM     35  C   UNL A   1      35.242  33.357  31.507  1.00  0.00     0.010 A 
ATOM     36  C   UNL A   1      36.544  33.407  30.980  1.00  0.00    -0.014 A 
BRANCH  36  37
ATOM     37  C   UNL A   1      37.585  32.539  31.560  1.00  0.00     0.031 A 
ATOM     38  C   UNL A   1      38.105  32.873  32.928  1.00  0.00     0.074 A 
ATOM     39  C   UNL A   1      38.053  31.487  30.872  1.00  0.00     0.049 A 
ATOM     40  N   UNL A   1      39.093  32.341  33.597  1.00  0.00    -0.248 NA
ATOM     41  C   UNL A   1      37.416  33.966  33.637  1.00  0.00     0.031 C 
ATOM     42  C   UNL A   1      37.566  31.050  29.566  1.00  0.00     0.029 A 
ATOM     43  N   UNL A   1      39.060  30.610  31.176  1.00  0.00    -0.354 N 
ATOM     44  C   UNL A   1      39.154  33.040  34.794  1.00  0.00     0.074 A 
ATOM     45  C   UNL A   1      38.119  34.048  34.755  1.00  0.00     0.031 C 
ATOM     46  C   UNL A   1      38.298  29.997  29.163  1.00  0.00     0.029 A 
ATOM     47  C   UNL A   1      39.323  29.720  30.167  1.00  0.00     0.049 A 
ATOM     48  H   UNL A   1      39.544  30.618  32.033  1.00  0.00     0.167 HD
ATOM     49  C   UNL A   1      40.003  32.851  35.831  1.00  0.00     0.037 A 
ATOM     50  C   UNL A   1      40.311  28.812  30.062  1.00  0.00     0.037 A 
ATOM     51  C   UNL A   1      41.035  31.849  35.844  1.00  0.00     0.049 A 
ATOM     52  C   UNL A   1      41.295  28.674  31.194  1.00  0.00     0.074 A 
ATOM     53  C   UNL A   1      41.952  31.562  36.837  1.00  0.00     0.029 A 
ATOM     54  N   UNL A   1      41.289  30.972  34.796  1.00  0.00    -0.354 N 
ATOM     55  N   UNL A   1      41.350  29.328  32.331  1.00  0.00    -0.248 NA
ATOM     56  C   UNL A   1      42.354  27.671  31.031  1.00  0.00     0.031 C 
ATOM     57  C   UNL A   1      42.797  30.551  36.368  1.00  0.00     0.029 A 
ATOM     58  C   UNL A   1      42.367  30.162  35.108  1.00  0.00     0.049 A 
ATOM     59  H   UNL A   1      40.778  30.934  33.955  1.00  0.00     0.167 HD
ATOM     60  C   UNL A   1      42.425  28.794  33.031  1.00  0.00     0.074 A 
ATOM     61  C   UNL A   1      42.989  27.757  32.192  1.00  0.00     0.031 C 
ATOM     62  C   UNL A   1      42.900  29.127  34.257  1.00  0.00     0.037 A 
BRANCH  49  63
ATOM     63  C   UNL A   1      39.876  33.776  37.008  1.00  0.00     0.064 A 
ATOM     64  C   UNL A   1      39.024  33.493  38.087  1.00  0.00     0.173 A 
ATOM     65  C   UNL A   1      40.622  34.964  37.058  1.00  0.00     0.173 A 
ATOM     66  F   UNL A   1      38.275  32.380  38.081  1.00  0.00    -0.203 F 
ATOM     67  C   UNL A   1      38.901  34.378  39.155  1.00  0.00     0.198 A 
ATOM     68  C   UNL A   1      40.521  35.830  38.143  1.00  0.00     0.198 A 
ATOM     69  F   UNL A   1      41.452  35.285  36.053  1.00  0.00    -0.203 F 
ATOM     70  F   UNL A   1      38.041  34.112  40.148  1.00  0.00    -0.200 F 
ATOM     71  C   UNL A   1      39.654  35.542  39.185  1.00  0.00     0.200 A 
ATOM     72  F   UNL A   1      41.258  36.950  38.175  1.00  0.00    -0.200 F 
ATOM     73  F   UNL A   1      39.538  36.391  40.216  1.00  0.00    -0.200 F 
ENDBRANCH  49  63
BRANCH  50  74
ATOM     74  C   UNL A   1      40.422  27.981  28.837  1.00  0.00     0.064 A 
ATOM     75  C   UNL A   1      39.765  26.747  28.740  1.00  0.00     0.173 A 
ATOM     76  C   UNL A   1      41.182  28.403  27.735  1.00  0.00     0.173 A 
ATOM     77  F   UNL A   1      39.045  26.289  29.776  1.00  0.00    -0.203 F 
ATOM     78  C   UNL A   1      39.878  25.959  27.597  1.00  0.00     0.198 A 
ATOM     79  C   UNL A   1      41.271  27.628  26.581  1.00  0.00     0.198 A 
ATOM     80  F   UNL A   1      41.833  29.575  27.777  1.00  0.00    -0.203 F 
ATOM     81  F   UNL A   1      39.278  24.762  27.549  1.00  0.00    -0.200 F 
ATOM     82  C   UNL A   1      40.624  26.403  26.515  1.00  0.00     0.200 A 
ATOM     83  F   UNL A   1      41.985  28.066  25.536  1.00  0.00    -0.200 F 
ATOM     84  F   UNL A   1      40.731  25.646  25.415  1.00  0.00    -0.200 F 
ENDBRANCH  50  74
BRANCH  62  85
ATOM     85  C   UNL A   1      44.057  28.329  34.786  1.00  0.00     0.064 A 
ATOM     86  C   UNL A   1      45.384  28.749  34.617  1.00  0.00     0.173 A 
ATOM     87  C   UNL A   1      43.825  27.154  35.518  1.00  0.00     0.173 A 
ATOM     88  F   UNL A   1      45.659  29.858  33.916  1.00  0.00    -0.203 F 
ATOM     89  C   UNL A   1      46.439  28.005  35.140  1.00  0.00     0.198 A 
ATOM     90  C   UNL A   1      44.880  26.433  36.068  1.00  0.00     0.198 A 
ATOM     91  F   UNL A   1      42.572  26.715  35.716  1.00  0.00    -0.203 F 
ATOM     92  F   UNL A   1      47.702  28.398  34.926  1.00  0.00    -0.200 F 
ATOM     93  C   UNL A   1      46.186  26.854  35.872  1.00  0.00     0.200 A 
ATOM     94  F   UNL A   1      44.633  25.330  36.788  1.00  0.00    -0.200 F 
ATOM     95  F   UNL A   1      47.203  26.147  36.384  1.00  0.00    -0.200 F 
ENDBRANCH  62  85
ENDBRANCH  36  37
ENDBRANCH  29  31
ENDBRANCH  28  29
ENDBRANCH  27  28
ENDBRANCH  26  27
ENDBRANCH  25  26
ENDBRANCH   1  25
TORSDOF 18
ENDMDL
