MODEL 1
REMARK VINA RESULT:     -10.8      0.000      0.000
REMARK SMILES O=C(/C=C/c1cc(C(=O)NCCn2cccn2)cs1)OCCOCCOCCOC(=O)c1ccc(-c2c3nc(c(-c4c(F)c(F)c(F)c(F)c4F)c4ccc([nH]4)c(-c4c(F)c(F)c(F)c(F)c4F)c4nc(c(-c5c(F)c(F)c(F)c(F)c5F)c5ccc2[nH]5)C=C4)C=C3)cc1
REMARK SMILES IDX 23 1 22 2 21 3 20 4 2 5 1 6 3 7 4 8 5 9 6 10 19 11 7 12
REMARK SMILES IDX 18 13 8 14 9 15 10 16 11 18 12 19 13 20 14 21 17 22 15 23
REMARK SMILES IDX 16 24 24 25 25 26 26 27 27 28 28 29 29 30 30 31 31 32 32 33
REMARK SMILES IDX 33 34 94 35 34 36 93 37 35 38 36 39 37 40 87 41 38 42 92 43
REMARK SMILES IDX 86 44 88 45 39 46 91 47 85 48 84 49 40 51 72 52 52 53 71 54
REMARK SMILES IDX 53 55 56 56 70 57 89 58 54 59 55 60 69 62 90 63 57 64 41 65
REMARK SMILES IDX 42 66 50 67 43 68 44 69 48 70 51 71 45 72 46 73 49 74 47 75
REMARK SMILES IDX 73 76 74 77 82 78 75 79 76 80 80 81 83 82 77 83 78 84 81 85
REMARK SMILES IDX 79 86 58 87 59 88 67 89 60 90 61 91 65 92 68 93 62 94 63 95
REMARK SMILES IDX 66 96 64 97
REMARK H PARENT 10 17 88 50 56 61
REMARK Flexibility Score: inf
ROOT
ATOM      1  O   UNL A   1      31.203  29.056  24.457  1.00  0.00    -0.376 OA
ENDROOT
BRANCH   1   2
ATOM      2  C   UNL A   1      30.611  28.144  23.559  1.00  0.00     0.202 C 
BRANCH   2   3
ATOM      3  C   UNL A   1      30.221  26.715  23.967  1.00  0.00     0.261 C 
BRANCH   3   4
ATOM      4  O   UNL A   1      30.257  26.306  25.351  1.00  0.00    -0.460 OA
BRANCH   4   5
ATOM      5  C   UNL A   1      31.274  26.413  26.236  1.00  0.00     0.330 C 
ATOM      6  O   UNL A   1      31.264  27.250  27.130  1.00  0.00    -0.247 OA
BRANCH   5   7
ATOM      7  C   UNL A   1      32.550  25.792  25.864  1.00  0.00     0.095 C 
ATOM      8  C   UNL A   1      32.764  24.478  25.759  1.00  0.00     0.026 C 
BRANCH   8   9
ATOM      9  C   UNL A   1      33.979  23.971  25.224  1.00  0.00     0.028 A 
ATOM     10  C   UNL A   1      35.029  23.317  25.839  1.00  0.00     0.033 A 
ATOM     11  S   UNL A   1      34.379  24.209  23.565  1.00  0.00    -0.144 S 
ATOM     12  C   UNL A   1      35.683  22.461  24.907  1.00  0.00     0.051 A 
ATOM     13  C   UNL A   1      35.641  23.057  23.658  1.00  0.00     0.079 A 
BRANCH  12  14
ATOM     14  C   UNL A   1      36.360  21.189  25.135  1.00  0.00     0.252 C 
ATOM     15  O   UNL A   1      37.574  21.102  25.174  1.00  0.00    -0.269 OA
ATOM     16  N   UNL A   1      35.620  20.024  25.192  1.00  0.00    -0.350 N 
ATOM     17  H   UNL A   1      36.176  19.215  25.278  1.00  0.00     0.163 HD
BRANCH  16  18
ATOM     18  C   UNL A   1      34.185  19.735  25.151  1.00  0.00     0.140 C 
BRANCH  18  19
ATOM     19  C   UNL A   1      33.759  18.654  24.161  1.00  0.00     0.165 C 
BRANCH  19  20
ATOM     20  N   UNL A   1      33.520  17.338  24.720  1.00  0.00    -0.271 N 
ATOM     21  C   UNL A   1      32.365  16.812  25.221  1.00  0.00     0.108 A 
ATOM     22  N   UNL A   1      34.540  16.457  24.720  1.00  0.00    -0.181 NA
ATOM     23  C   UNL A   1      32.660  15.522  25.593  1.00  0.00     0.042 A 
ATOM     24  C   UNL A   1      34.012  15.355  25.257  1.00  0.00     0.135 A 
ENDBRANCH  19  20
ENDBRANCH  18  19
ENDBRANCH  16  18
ENDBRANCH  12  14
ENDBRANCH   8   9
ENDBRANCH   5   7
ENDBRANCH   4   5
ENDBRANCH   3   4
ENDBRANCH   2   3
ENDBRANCH   1   2
BRANCH   1  25
ATOM     25  C   UNL A   1      32.585  29.309  24.469  1.00  0.00     0.188 C 
BRANCH  25  26
ATOM     26  C   UNL A   1      33.138  29.896  25.777  1.00  0.00     0.188 C 
BRANCH  26  27
ATOM     27  O   UNL A   1      32.414  30.830  26.565  1.00  0.00    -0.376 OA
BRANCH  27  28
ATOM     28  C   UNL A   1      33.065  31.741  27.434  1.00  0.00     0.202 C 
BRANCH  28  29
ATOM     29  C   UNL A   1      34.255  31.293  28.284  1.00  0.00     0.261 C 
BRANCH  29  30
ATOM     30  O   UNL A   1      35.502  31.901  27.983  1.00  0.00    -0.460 OA
BRANCH  30  31
ATOM     31  C   UNL A   1      36.318  32.005  29.049  1.00  0.00     0.338 C 
ATOM     32  O   UNL A   1      36.120  32.627  30.077  1.00  0.00    -0.246 OA
BRANCH  31  33
ATOM     33  C   UNL A   1      37.626  31.431  28.713  1.00  0.00     0.060 A 
ATOM     34  C   UNL A   1      37.586  30.259  27.958  1.00  0.00     0.016 A 
ATOM     35  C   UNL A   1      38.750  31.796  29.470  1.00  0.00     0.016 A 
ATOM     36  C   UNL A   1      38.565  29.321  28.177  1.00  0.00     0.010 A 
ATOM     37  C   UNL A   1      39.720  30.850  29.700  1.00  0.00     0.010 A 
ATOM     38  C   UNL A   1      39.560  29.593  29.124  1.00  0.00    -0.014 A 
BRANCH  38  39
ATOM     39  C   UNL A   1      40.494  28.529  29.415  1.00  0.00     0.031 A 
ATOM     40  C   UNL A   1      40.746  28.390  30.861  1.00  0.00     0.074 A 
ATOM     41  C   UNL A   1      41.052  27.744  28.477  1.00  0.00     0.049 A 
ATOM     42  N   UNL A   1      41.818  28.715  31.498  1.00  0.00    -0.248 NA
ATOM     43  C   UNL A   1      39.611  28.023  31.719  1.00  0.00     0.031 C 
ATOM     44  C   UNL A   1      40.683  27.609  27.067  1.00  0.00     0.029 A 
ATOM     45  N   UNL A   1      42.041  26.822  28.629  1.00  0.00    -0.354 N 
ATOM     46  C   UNL A   1      41.562  28.413  32.828  1.00  0.00     0.074 A 
ATOM     47  C   UNL A   1      40.146  28.182  32.930  1.00  0.00     0.031 C 
ATOM     48  C   UNL A   1      41.287  26.509  26.557  1.00  0.00     0.029 A 
ATOM     49  C   UNL A   1      42.178  25.947  27.560  1.00  0.00     0.049 A 
ATOM     50  H   UNL A   1      42.612  26.779  29.429  1.00  0.00     0.167 HD
ATOM     51  C   UNL A   1      42.583  28.111  33.670  1.00  0.00     0.037 A 
ATOM     52  C   UNL A   1      42.919  24.812  27.551  1.00  0.00     0.037 A 
ATOM     53  C   UNL A   1      43.844  28.569  33.143  1.00  0.00     0.049 A 
ATOM     54  C   UNL A   1      43.907  24.913  28.655  1.00  0.00     0.074 A 
ATOM     55  C   UNL A   1      44.369  29.801  32.802  1.00  0.00     0.029 A 
ATOM     56  N   UNL A   1      44.656  27.636  32.547  1.00  0.00    -0.354 N 
ATOM     57  N   UNL A   1      44.929  25.722  28.650  1.00  0.00    -0.248 NA
ATOM     58  C   UNL A   1      43.527  24.401  29.964  1.00  0.00     0.031 C 
ATOM     59  C   UNL A   1      45.200  29.556  31.669  1.00  0.00     0.029 A 
ATOM     60  C   UNL A   1      45.181  28.186  31.409  1.00  0.00     0.049 A 
ATOM     61  H   UNL A   1      44.830  26.727  32.881  1.00  0.00     0.167 HD
ATOM     62  C   UNL A   1      45.025  26.169  29.958  1.00  0.00     0.074 A 
ATOM     63  C   UNL A   1      44.222  25.236  30.740  1.00  0.00     0.031 C 
ATOM     64  C   UNL A   1      45.507  27.418  30.230  1.00  0.00     0.037 A 
BRANCH  51  65
ATOM     65  C   UNL A   1      42.497  27.042  34.732  1.00  0.00     0.064 A 
ATOM     66  C   UNL A   1      42.854  25.723  34.390  1.00  0.00     0.173 A 
ATOM     67  C   UNL A   1      41.792  27.183  35.948  1.00  0.00     0.173 A 
ATOM     68  F   UNL A   1      43.511  25.467  33.248  1.00  0.00    -0.203 F 
ATOM     69  C   UNL A   1      42.450  24.627  35.155  1.00  0.00     0.198 A 
ATOM     70  C   UNL A   1      41.443  26.093  36.740  1.00  0.00     0.198 A 
ATOM     71  F   UNL A   1      41.305  28.356  36.368  1.00  0.00    -0.203 F 
ATOM     72  F   UNL A   1      42.689  23.386  34.714  1.00  0.00    -0.200 F 
ATOM     73  C   UNL A   1      41.739  24.813  36.326  1.00  0.00     0.200 A 
ATOM     74  F   UNL A   1      40.735  26.295  37.860  1.00  0.00    -0.200 F 
ATOM     75  F   UNL A   1      41.293  23.763  37.028  1.00  0.00    -0.200 F 
ENDBRANCH  51  65
BRANCH  52  76
ATOM     76  C   UNL A   1      42.664  23.527  26.856  1.00  0.00     0.064 A 
ATOM     77  C   UNL A   1      43.677  22.898  26.111  1.00  0.00     0.173 A 
ATOM     78  C   UNL A   1      41.528  22.747  27.147  1.00  0.00     0.173 A 
ATOM     79  F   UNL A   1      44.810  23.553  25.823  1.00  0.00    -0.203 F 
ATOM     80  C   UNL A   1      43.577  21.559  25.717  1.00  0.00     0.198 A 
ATOM     81  C   UNL A   1      41.425  21.415  26.746  1.00  0.00     0.198 A 
ATOM     82  F   UNL A   1      40.539  23.229  27.912  1.00  0.00    -0.203 F 
ATOM     83  F   UNL A   1      44.596  20.974  25.074  1.00  0.00    -0.200 F 
ATOM     84  C   UNL A   1      42.457  20.815  26.046  1.00  0.00     0.200 A 
ATOM     85  F   UNL A   1      40.352  20.695  27.101  1.00  0.00    -0.200 F 
ATOM     86  F   UNL A   1      42.389  19.514  25.731  1.00  0.00    -0.200 F 
ENDBRANCH  52  76
BRANCH  64  87
ATOM     87  C   UNL A   1      46.249  28.131  29.137  1.00  0.00     0.064 A 
ATOM     88  C   UNL A   1      45.639  28.887  28.120  1.00  0.00     0.173 A 
ATOM     89  C   UNL A   1      47.651  28.139  29.195  1.00  0.00     0.173 A 
ATOM     90  F   UNL A   1      44.307  29.012  28.055  1.00  0.00    -0.203 F 
ATOM     91  C   UNL A   1      46.404  29.574  27.178  1.00  0.00     0.198 A 
ATOM     92  C   UNL A   1      48.409  28.862  28.281  1.00  0.00     0.198 A 
ATOM     93  F   UNL A   1      48.287  27.476  30.175  1.00  0.00    -0.203 F 
ATOM     94  F   UNL A   1      45.802  30.269  26.202  1.00  0.00    -0.200 F 
ATOM     95  C   UNL A   1      47.787  29.567  27.264  1.00  0.00     0.200 A 
ATOM     96  F   UNL A   1      49.744  28.891  28.399  1.00  0.00    -0.200 F 
ATOM     97  F   UNL A   1      48.521  30.261  26.383  1.00  0.00    -0.200 F 
ENDBRANCH  64  87
ENDBRANCH  38  39
ENDBRANCH  31  33
ENDBRANCH  30  31
ENDBRANCH  29  30
ENDBRANCH  28  29
ENDBRANCH  27  28
ENDBRANCH  26  27
ENDBRANCH  25  26
ENDBRANCH   1  25
TORSDOF 22
ENDMDL
MODEL 2
REMARK VINA RESULT:     -10.8      1.752      2.265
REMARK SMILES O=C(/C=C/c1cc(C(=O)NCCn2cccn2)cs1)OCCOCCOCCOC(=O)c1ccc(-c2c3nc(c(-c4c(F)c(F)c(F)c(F)c4F)c4ccc([nH]4)c(-c4c(F)c(F)c(F)c(F)c4F)c4nc(c(-c5c(F)c(F)c(F)c(F)c5F)c5ccc2[nH]5)C=C4)C=C3)cc1
REMARK SMILES IDX 23 1 22 2 21 3 20 4 2 5 1 6 3 7 4 8 5 9 6 10 19 11 7 12
REMARK SMILES IDX 18 13 8 14 9 15 10 16 11 18 12 19 13 20 14 21 17 22 15 23
REMARK SMILES IDX 16 24 24 25 25 26 26 27 27 28 28 29 29 30 30 31 31 32 32 33
REMARK SMILES IDX 33 34 94 35 34 36 93 37 35 38 36 39 37 40 87 41 38 42 92 43
REMARK SMILES IDX 86 44 88 45 39 46 91 47 85 48 84 49 40 51 72 52 52 53 71 54
REMARK SMILES IDX 53 55 56 56 70 57 89 58 54 59 55 60 69 62 90 63 57 64 41 65
REMARK SMILES IDX 42 66 50 67 43 68 44 69 48 70 51 71 45 72 46 73 49 74 47 75
REMARK SMILES IDX 73 76 74 77 82 78 75 79 76 80 80 81 83 82 77 83 78 84 81 85
REMARK SMILES IDX 79 86 58 87 59 88 67 89 60 90 61 91 65 92 68 93 62 94 63 95
REMARK SMILES IDX 66 96 64 97
REMARK H PARENT 10 17 88 50 56 61
REMARK Flexibility Score: inf
ROOT
ATOM      1  O   UNL A   1      31.488  29.257  24.652  1.00  0.00    -0.376 OA
ENDROOT
BRANCH   1   2
ATOM      2  C   UNL A   1      30.752  28.506  23.712  1.00  0.00     0.202 C 
BRANCH   2   3
ATOM      3  C   UNL A   1      30.168  27.122  24.035  1.00  0.00     0.261 C 
BRANCH   3   4
ATOM      4  O   UNL A   1      30.070  26.661  25.399  1.00  0.00    -0.460 OA
BRANCH   4   5
ATOM      5  C   UNL A   1      31.044  26.579  26.333  1.00  0.00     0.330 C 
ATOM      6  O   UNL A   1      31.138  27.400  27.239  1.00  0.00    -0.247 OA
BRANCH   5   7
ATOM      7  C   UNL A   1      32.207  25.744  26.015  1.00  0.00     0.095 C 
ATOM      8  C   UNL A   1      32.264  24.851  25.023  1.00  0.00     0.026 C 
BRANCH   8   9
ATOM      9  C   UNL A   1      33.486  24.214  24.676  1.00  0.00     0.028 A 
ATOM     10  C   UNL A   1      34.412  23.556  25.462  1.00  0.00     0.033 A 
ATOM     11  S   UNL A   1      34.076  24.259  23.058  1.00  0.00    -0.144 S 
ATOM     12  C   UNL A   1      35.093  22.570  24.691  1.00  0.00     0.051 A 
ATOM     13  C   UNL A   1      35.229  23.041  23.397  1.00  0.00     0.079 A 
BRANCH  12  14
ATOM     14  C   UNL A   1      35.643  21.285  25.108  1.00  0.00     0.252 C 
ATOM     15  O   UNL A   1      36.824  21.019  24.985  1.00  0.00    -0.269 OA
ATOM     16  N   UNL A   1      34.791  20.290  25.547  1.00  0.00    -0.350 N 
ATOM     17  H   UNL A   1      35.252  19.441  25.737  1.00  0.00     0.163 HD
BRANCH  16  18
ATOM     18  C   UNL A   1      33.348  20.228  25.789  1.00  0.00     0.140 C 
BRANCH  18  19
ATOM     19  C   UNL A   1      32.550  19.385  24.798  1.00  0.00     0.165 C 
BRANCH  19  20
ATOM     20  N   UNL A   1      32.984  18.011  24.637  1.00  0.00    -0.271 N 
ATOM     21  C   UNL A   1      32.753  16.935  25.444  1.00  0.00     0.108 A 
ATOM     22  N   UNL A   1      33.674  17.693  23.524  1.00  0.00    -0.181 NA
ATOM     23  C   UNL A   1      33.351  15.860  24.831  1.00  0.00     0.042 A 
ATOM     24  C   UNL A   1      33.899  16.383  23.649  1.00  0.00     0.135 A 
ENDBRANCH  19  20
ENDBRANCH  18  19
ENDBRANCH  16  18
ENDBRANCH  12  14
ENDBRANCH   8   9
ENDBRANCH   5   7
ENDBRANCH   4   5
ENDBRANCH   3   4
ENDBRANCH   2   3
ENDBRANCH   1   2
BRANCH   1  25
ATOM     25  C   UNL A   1      32.892  29.318  24.631  1.00  0.00     0.188 C 
BRANCH  25  26
ATOM     26  C   UNL A   1      33.562  29.555  25.994  1.00  0.00     0.188 C 
BRANCH  26  27
ATOM     27  O   UNL A   1      33.151  30.584  26.883  1.00  0.00    -0.376 OA
BRANCH  27  28
ATOM     28  C   UNL A   1      34.077  31.293  27.687  1.00  0.00     0.202 C 
BRANCH  28  29
ATOM     29  C   UNL A   1      35.267  30.575  28.325  1.00  0.00     0.261 C 
BRANCH  29  30
ATOM     30  O   UNL A   1      36.554  31.022  27.927  1.00  0.00    -0.460 OA
BRANCH  30  31
ATOM     31  C   UNL A   1      37.435  31.091  28.943  1.00  0.00     0.338 C 
ATOM     32  O   UNL A   1      37.306  31.687  29.997  1.00  0.00    -0.246 OA
BRANCH  31  33
ATOM     33  C   UNL A   1      38.713  30.514  28.513  1.00  0.00     0.060 A 
ATOM     34  C   UNL A   1      38.615  29.366  27.727  1.00  0.00     0.016 A 
ATOM     35  C   UNL A   1      39.884  30.845  29.212  1.00  0.00     0.016 A 
ATOM     36  C   UNL A   1      39.594  28.412  27.859  1.00  0.00     0.010 A 
ATOM     37  C   UNL A   1      40.856  29.882  29.355  1.00  0.00     0.010 A 
ATOM     38  C   UNL A   1      40.647  28.645  28.753  1.00  0.00    -0.014 A 
BRANCH  38  39
ATOM     39  C   UNL A   1      41.583  27.563  28.956  1.00  0.00     0.031 A 
ATOM     40  C   UNL A   1      42.212  27.614  30.288  1.00  0.00     0.074 A 
ATOM     41  C   UNL A   1      41.836  26.610  28.042  1.00  0.00     0.049 A 
ATOM     42  N   UNL A   1      43.428  27.942  30.561  1.00  0.00    -0.248 NA
ATOM     43  C   UNL A   1      41.339  27.466  31.461  1.00  0.00     0.031 C 
ATOM     44  C   UNL A   1      41.094  26.303  26.818  1.00  0.00     0.029 A 
ATOM     45  N   UNL A   1      42.794  25.644  28.076  1.00  0.00    -0.354 N 
ATOM     46  C   UNL A   1      43.530  27.855  31.943  1.00  0.00     0.074 A 
ATOM     47  C   UNL A   1      42.187  27.754  32.448  1.00  0.00     0.031 C 
ATOM     48  C   UNL A   1      41.495  25.097  26.351  1.00  0.00     0.029 A 
ATOM     49  C   UNL A   1      42.602  24.616  27.163  1.00  0.00     0.049 A 
ATOM     50  H   UNL A   1      43.558  25.671  28.695  1.00  0.00     0.167 HD
ATOM     51  C   UNL A   1      44.730  27.598  32.526  1.00  0.00     0.037 A 
ATOM     52  C   UNL A   1      43.270  23.435  27.142  1.00  0.00     0.037 A 
ATOM     53  C   UNL A   1      45.817  27.874  31.620  1.00  0.00     0.049 A 
ATOM     54  C   UNL A   1      44.524  23.616  27.918  1.00  0.00     0.074 A 
ATOM     55  C   UNL A   1      46.276  28.998  30.961  1.00  0.00     0.029 A 
ATOM     56  N   UNL A   1      46.401  26.803  30.990  1.00  0.00    -0.354 N 
ATOM     57  N   UNL A   1      45.536  24.332  27.516  1.00  0.00    -0.248 NA
ATOM     58  C   UNL A   1      44.493  23.330  29.345  1.00  0.00     0.031 C 
ATOM     59  C   UNL A   1      46.759  28.527  29.705  1.00  0.00     0.029 A 
ATOM     60  C   UNL A   1      46.619  27.140  29.681  1.00  0.00     0.049 A 
ATOM     61  H   UNL A   1      46.625  25.940  31.408  1.00  0.00     0.167 HD
ATOM     62  C   UNL A   1      46.000  24.954  28.664  1.00  0.00     0.074 A 
ATOM     63  C   UNL A   1      45.403  24.210  29.768  1.00  0.00     0.031 C 
ATOM     64  C   UNL A   1      46.584  26.186  28.598  1.00  0.00     0.037 A 
BRANCH  51  65
ATOM     65  C   UNL A   1      44.894  26.703  33.730  1.00  0.00     0.064 A 
ATOM     66  C   UNL A   1      44.401  25.385  33.662  1.00  0.00     0.173 A 
ATOM     67  C   UNL A   1      45.214  27.163  35.026  1.00  0.00     0.173 A 
ATOM     68  F   UNL A   1      44.048  24.848  32.483  1.00  0.00    -0.203 F 
ATOM     69  C   UNL A   1      44.157  24.628  34.809  1.00  0.00     0.198 A 
ATOM     70  C   UNL A   1      45.025  26.384  36.164  1.00  0.00     0.198 A 
ATOM     71  F   UNL A   1      45.608  28.419  35.270  1.00  0.00    -0.203 F 
ATOM     72  F   UNL A   1      43.553  23.438  34.702  1.00  0.00    -0.200 F 
ATOM     73  C   UNL A   1      44.462  25.131  36.060  1.00  0.00     0.200 A 
ATOM     74  F   UNL A   1      45.309  26.900  37.368  1.00  0.00    -0.200 F 
ATOM     75  F   UNL A   1      44.168  24.436  37.166  1.00  0.00    -0.200 F 
ENDBRANCH  51  65
BRANCH  52  76
ATOM     76  C   UNL A   1      42.787  22.088  26.752  1.00  0.00     0.064 A 
ATOM     77  C   UNL A   1      43.415  21.369  25.720  1.00  0.00     0.173 A 
ATOM     78  C   UNL A   1      41.903  21.360  27.570  1.00  0.00     0.173 A 
ATOM     79  F   UNL A   1      44.303  21.974  24.918  1.00  0.00    -0.203 F 
ATOM     80  C   UNL A   1      43.201  19.998  25.543  1.00  0.00     0.198 A 
ATOM     81  C   UNL A   1      41.683  19.995  27.387  1.00  0.00     0.198 A 
ATOM     82  F   UNL A   1      41.310  21.935  28.626  1.00  0.00    -0.203 F 
ATOM     83  F   UNL A   1      43.876  19.333  24.595  1.00  0.00    -0.200 F 
ATOM     84  C   UNL A   1      42.345  19.310  26.385  1.00  0.00     0.200 A 
ATOM     85  F   UNL A   1      40.879  19.332  28.231  1.00  0.00    -0.200 F 
ATOM     86  F   UNL A   1      42.192  17.984  26.261  1.00  0.00    -0.200 F 
ENDBRANCH  52  76
BRANCH  64  87
ATOM     87  C   UNL A   1      47.029  26.673  27.249  1.00  0.00     0.064 A 
ATOM     88  C   UNL A   1      48.317  26.485  26.717  1.00  0.00     0.173 A 
ATOM     89  C   UNL A   1      46.064  27.255  26.413  1.00  0.00     0.173 A 
ATOM     90  F   UNL A   1      49.267  25.847  27.414  1.00  0.00    -0.203 F 
ATOM     91  C   UNL A   1      48.632  26.911  25.427  1.00  0.00     0.198 A 
ATOM     92  C   UNL A   1      46.370  27.638  25.112  1.00  0.00     0.198 A 
ATOM     93  F   UNL A   1      44.804  27.413  26.849  1.00  0.00    -0.203 F 
ATOM     94  F   UNL A   1      49.873  26.745  24.948  1.00  0.00    -0.200 F 
ATOM     95  C   UNL A   1      47.656  27.479  24.623  1.00  0.00     0.200 A 
ATOM     96  F   UNL A   1      45.410  28.141  24.323  1.00  0.00    -0.200 F 
ATOM     97  F   UNL A   1      47.948  27.851  23.370  1.00  0.00    -0.200 F 
ENDBRANCH  64  87
ENDBRANCH  38  39
ENDBRANCH  31  33
ENDBRANCH  30  31
ENDBRANCH  29  30
ENDBRANCH  28  29
ENDBRANCH  27  28
ENDBRANCH  26  27
ENDBRANCH  25  26
ENDBRANCH   1  25
TORSDOF 22
ENDMDL
MODEL 3
REMARK VINA RESULT:     -10.4      1.574      2.645
REMARK SMILES O=C(/C=C/c1cc(C(=O)NCCn2cccn2)cs1)OCCOCCOCCOC(=O)c1ccc(-c2c3nc(c(-c4c(F)c(F)c(F)c(F)c4F)c4ccc([nH]4)c(-c4c(F)c(F)c(F)c(F)c4F)c4nc(c(-c5c(F)c(F)c(F)c(F)c5F)c5ccc2[nH]5)C=C4)C=C3)cc1
REMARK SMILES IDX 23 1 22 2 21 3 20 4 2 5 1 6 3 7 4 8 5 9 6 10 19 11 7 12
REMARK SMILES IDX 18 13 8 14 9 15 10 16 11 18 12 19 13 20 14 21 17 22 15 23
REMARK SMILES IDX 16 24 24 25 25 26 26 27 27 28 28 29 29 30 30 31 31 32 32 33
REMARK SMILES IDX 33 34 94 35 34 36 93 37 35 38 36 39 37 40 87 41 38 42 92 43
REMARK SMILES IDX 86 44 88 45 39 46 91 47 85 48 84 49 40 51 72 52 52 53 71 54
REMARK SMILES IDX 53 55 56 56 70 57 89 58 54 59 55 60 69 62 90 63 57 64 41 65
REMARK SMILES IDX 42 66 50 67 43 68 44 69 48 70 51 71 45 72 46 73 49 74 47 75
REMARK SMILES IDX 73 76 74 77 82 78 75 79 76 80 80 81 83 82 77 83 78 84 81 85
REMARK SMILES IDX 79 86 58 87 59 88 67 89 60 90 61 91 65 92 68 93 62 94 63 95
REMARK SMILES IDX 66 96 64 97
REMARK H PARENT 10 17 88 50 56 61
REMARK Flexibility Score: inf
ROOT
ATOM      1  O   UNL A   1      32.597  29.220  23.799  1.00  0.00    -0.376 OA
ENDROOT
BRANCH   1   2
ATOM      2  C   UNL A   1      31.188  29.148  23.772  1.00  0.00     0.202 C 
BRANCH   2   3
ATOM      3  C   UNL A   1      30.401  28.847  22.488  1.00  0.00     0.261 C 
BRANCH   3   4
ATOM      4  O   UNL A   1      29.126  28.172  22.544  1.00  0.00    -0.460 OA
BRANCH   4   5
ATOM      5  C   UNL A   1      28.657  27.333  23.494  1.00  0.00     0.330 C 
ATOM      6  O   UNL A   1      27.485  27.354  23.851  1.00  0.00    -0.247 OA
BRANCH   5   7
ATOM      7  C   UNL A   1      29.647  26.688  24.364  1.00  0.00     0.095 C 
ATOM      8  C   UNL A   1      30.219  25.503  24.131  1.00  0.00     0.026 C 
BRANCH   8   9
ATOM      9  C   UNL A   1      31.295  25.035  24.932  1.00  0.00     0.028 A 
ATOM     10  C   UNL A   1      31.295  24.434  26.176  1.00  0.00     0.033 A 
ATOM     11  S   UNL A   1      32.929  25.261  24.434  1.00  0.00    -0.144 S 
ATOM     12  C   UNL A   1      32.434  23.588  26.308  1.00  0.00     0.051 A 
ATOM     13  C   UNL A   1      33.489  24.162  25.620  1.00  0.00     0.079 A 
BRANCH  12  14
ATOM     14  C   UNL A   1      32.585  22.348  27.062  1.00  0.00     0.252 C 
ATOM     15  O   UNL A   1      32.893  22.342  28.239  1.00  0.00    -0.269 OA
ATOM     16  N   UNL A   1      32.493  21.137  26.404  1.00  0.00    -0.350 N 
ATOM     17  H   UNL A   1      32.679  20.365  26.986  1.00  0.00     0.163 HD
BRANCH  16  18
ATOM     18  C   UNL A   1      32.180  20.756  25.025  1.00  0.00     0.140 C 
BRANCH  18  19
ATOM     19  C   UNL A   1      33.204  19.854  24.342  1.00  0.00     0.165 C 
BRANCH  19  20
ATOM     20  N   UNL A   1      33.083  18.435  24.612  1.00  0.00    -0.271 N 
ATOM     21  C   UNL A   1      33.440  17.376  23.830  1.00  0.00     0.108 A 
ATOM     22  N   UNL A   1      32.600  18.060  25.814  1.00  0.00    -0.181 NA
ATOM     23  C   UNL A   1      33.147  16.246  24.556  1.00  0.00     0.042 A 
ATOM     24  C   UNL A   1      32.637  16.726  25.772  1.00  0.00     0.135 A 
ENDBRANCH  19  20
ENDBRANCH  18  19
ENDBRANCH  16  18
ENDBRANCH  12  14
ENDBRANCH   8   9
ENDBRANCH   5   7
ENDBRANCH   4   5
ENDBRANCH   3   4
ENDBRANCH   2   3
ENDBRANCH   1   2
BRANCH   1  25
ATOM     25  C   UNL A   1      33.308  29.585  24.955  1.00  0.00     0.188 C 
BRANCH  25  26
ATOM     26  C   UNL A   1      32.451  30.094  26.125  1.00  0.00     0.188 C 
BRANCH  26  27
ATOM     27  O   UNL A   1      32.972  30.282  27.433  1.00  0.00    -0.376 OA
BRANCH  27  28
ATOM     28  C   UNL A   1      34.356  30.167  27.712  1.00  0.00     0.202 C 
BRANCH  28  29
ATOM     29  C   UNL A   1      35.099  31.285  28.445  1.00  0.00     0.261 C 
BRANCH  29  30
ATOM     30  O   UNL A   1      35.942  30.881  29.513  1.00  0.00    -0.460 OA
BRANCH  30  31
ATOM     31  C   UNL A   1      36.975  31.718  29.728  1.00  0.00     0.338 C 
ATOM     32  O   UNL A   1      36.923  32.894  30.039  1.00  0.00    -0.246 OA
BRANCH  31  33
ATOM     33  C   UNL A   1      38.220  31.064  29.311  1.00  0.00     0.060 A 
ATOM     34  C   UNL A   1      38.073  29.780  28.788  1.00  0.00     0.016 A 
ATOM     35  C   UNL A   1      39.442  31.531  29.819  1.00  0.00     0.016 A 
ATOM     36  C   UNL A   1      39.077  28.873  29.022  1.00  0.00     0.010 A 
ATOM     37  C   UNL A   1      40.440  30.617  30.066  1.00  0.00     0.010 A 
ATOM     38  C   UNL A   1      40.201  29.283  29.751  1.00  0.00    -0.014 A 
BRANCH  38  39
ATOM     39  C   UNL A   1      41.171  28.265  30.084  1.00  0.00     0.031 A 
ATOM     40  C   UNL A   1      41.466  28.230  31.527  1.00  0.00     0.074 A 
ATOM     41  C   UNL A   1      41.725  27.435  29.184  1.00  0.00     0.049 A 
ATOM     42  N   UNL A   1      42.546  28.625  32.109  1.00  0.00    -0.248 NA
ATOM     43  C   UNL A   1      40.366  27.892  32.441  1.00  0.00     0.031 C 
ATOM     44  C   UNL A   1      41.321  27.196  27.797  1.00  0.00     0.029 A 
ATOM     45  N   UNL A   1      42.742  26.550  29.367  1.00  0.00    -0.354 N 
ATOM     46  C   UNL A   1      42.335  28.406  33.464  1.00  0.00     0.074 A 
ATOM     47  C   UNL A   1      40.930  28.146  33.623  1.00  0.00     0.031 C 
ATOM     48  C   UNL A   1      41.940  26.080  27.344  1.00  0.00     0.029 A 
ATOM     49  C   UNL A   1      42.874  25.610  28.355  1.00  0.00     0.049 A 
ATOM     50  H   UNL A   1      43.337  26.576  30.152  1.00  0.00     0.167 HD
ATOM     51  C   UNL A   1      43.388  28.188  34.294  1.00  0.00     0.037 A 
ATOM     52  C   UNL A   1      43.646  24.495  28.400  1.00  0.00     0.037 A 
ATOM     53  C   UNL A   1      44.621  28.642  33.700  1.00  0.00     0.049 A 
ATOM     54  C   UNL A   1      44.661  24.696  29.465  1.00  0.00     0.074 A 
ATOM     55  C   UNL A   1      45.101  29.861  33.264  1.00  0.00     0.029 A 
ATOM     56  N   UNL A   1      45.441  27.692  33.144  1.00  0.00    -0.354 N 
ATOM     57  N   UNL A   1      45.659  25.529  29.377  1.00  0.00    -0.248 NA
ATOM     58  C   UNL A   1      44.331  24.264  30.816  1.00  0.00     0.031 C 
ATOM     59  C   UNL A   1      45.907  29.563  32.126  1.00  0.00     0.029 A 
ATOM     60  C   UNL A   1      45.919  28.178  31.957  1.00  0.00     0.049 A 
ATOM     61  H   UNL A   1      45.649  26.812  33.533  1.00  0.00     0.167 HD
ATOM     62  C   UNL A   1      45.779  26.065  30.649  1.00  0.00     0.074 A 
ATOM     63  C   UNL A   1      45.024  25.166  31.514  1.00  0.00     0.031 C 
ATOM     64  C   UNL A   1      46.234  27.341  30.824  1.00  0.00     0.037 A 
BRANCH  51  65
ATOM     65  C   UNL A   1      43.360  27.190  35.426  1.00  0.00     0.064 A 
ATOM     66  C   UNL A   1      43.746  27.619  36.711  1.00  0.00     0.173 A 
ATOM     67  C   UNL A   1      43.284  25.790  35.252  1.00  0.00     0.173 A 
ATOM     68  F   UNL A   1      43.868  28.927  36.987  1.00  0.00    -0.203 F 
ATOM     69  C   UNL A   1      44.120  26.717  37.709  1.00  0.00     0.198 A 
ATOM     70  C   UNL A   1      43.600  24.893  36.267  1.00  0.00     0.198 A 
ATOM     71  F   UNL A   1      43.019  25.223  34.069  1.00  0.00    -0.203 F 
ATOM     72  F   UNL A   1      44.617  27.174  38.865  1.00  0.00    -0.200 F 
ATOM     73  C   UNL A   1      44.054  25.354  37.484  1.00  0.00     0.200 A 
ATOM     74  F   UNL A   1      43.549  23.576  36.020  1.00  0.00    -0.200 F 
ATOM     75  F   UNL A   1      44.474  24.487  38.414  1.00  0.00    -0.200 F 
ENDBRANCH  51  65
BRANCH  52  76
ATOM     76  C   UNL A   1      43.407  23.161  27.799  1.00  0.00     0.064 A 
ATOM     77  C   UNL A   1      42.297  22.387  28.182  1.00  0.00     0.173 A 
ATOM     78  C   UNL A   1      44.084  22.747  26.636  1.00  0.00     0.173 A 
ATOM     79  F   UNL A   1      41.570  22.733  29.253  1.00  0.00    -0.203 F 
ATOM     80  C   UNL A   1      41.867  21.293  27.425  1.00  0.00     0.198 A 
ATOM     81  C   UNL A   1      43.660  21.649  25.886  1.00  0.00     0.198 A 
ATOM     82  F   UNL A   1      45.110  23.457  26.146  1.00  0.00    -0.203 F 
ATOM     83  F   UNL A   1      40.760  20.627  27.781  1.00  0.00    -0.200 F 
ATOM     84  C   UNL A   1      42.542  20.932  26.271  1.00  0.00     0.200 A 
ATOM     85  F   UNL A   1      44.300  21.332  24.752  1.00  0.00    -0.200 F 
ATOM     86  F   UNL A   1      42.091  19.928  25.506  1.00  0.00    -0.200 F 
ENDBRANCH  52  76
BRANCH  64  87
ATOM     87  C   UNL A   1      46.925  27.998  29.664  1.00  0.00     0.064 A 
ATOM     88  C   UNL A   1      48.300  27.889  29.388  1.00  0.00     0.173 A 
ATOM     89  C   UNL A   1      46.131  28.674  28.726  1.00  0.00     0.173 A 
ATOM     90  F   UNL A   1      49.111  27.175  30.182  1.00  0.00    -0.203 F 
ATOM     91  C   UNL A   1      48.855  28.476  28.252  1.00  0.00     0.198 A 
ATOM     92  C   UNL A   1      46.680  29.221  27.572  1.00  0.00     0.198 A 
ATOM     93  F   UNL A   1      44.804  28.766  28.911  1.00  0.00    -0.203 F 
ATOM     94  F   UNL A   1      50.172  28.382  28.021  1.00  0.00    -0.200 F 
ATOM     95  C   UNL A   1      48.043  29.135  27.342  1.00  0.00     0.200 A 
ATOM     96  F   UNL A   1      45.883  29.812  26.671  1.00  0.00    -0.200 F 
ATOM     97  F   UNL A   1      48.570  29.665  26.229  1.00  0.00    -0.200 F 
ENDBRANCH  64  87
ENDBRANCH  38  39
ENDBRANCH  31  33
ENDBRANCH  30  31
ENDBRANCH  29  30
ENDBRANCH  28  29
ENDBRANCH  27  28
ENDBRANCH  26  27
ENDBRANCH  25  26
ENDBRANCH   1  25
TORSDOF 22
ENDMDL
