MODEL 1
REMARK VINA RESULT:     -11.1      0.000      0.000
REMARK SMILES C[C@H](Oc1ccc(/C=C2/SC(=S)N(c3ccc(F)c(Cl)c3)C2=O)cc1)C(=O)OCCOCCOCCOC(=O)c1ccc(-c2c3nc(c(-c4c(F)c(F)c(F)c(F)c4F)c4ccc([nH]4)c(-c4c(F)c(F)c(F)c(F)c4F)c4nc(c(-c5c(F)c(F)c(F)c(F)c5F)c5ccc2[nH]5)C=C4)C=C3)cc1
REMARK SMILES IDX 32 1 31 2 30 3 29 4 28 5 26 6 27 7 2 8 1 9 3 10 4 11 5 12
REMARK SMILES IDX 25 13 6 14 24 15 7 16 8 17 9 18 10 19 22 20 11 21 13 22
REMARK SMILES IDX 23 23 12 24 14 25 15 26 21 27 16 28 19 29 17 30 20 31 18 32
REMARK SMILES IDX 33 33 34 34 35 35 36 36 37 37 38 38 39 39 40 40 41 41 102 42
REMARK SMILES IDX 42 43 101 44 43 45 44 46 45 47 95 48 46 49 100 50 94 51
REMARK SMILES IDX 96 52 47 53 99 54 93 55 92 56 48 58 80 59 60 60 79 61 61 62
REMARK SMILES IDX 64 63 78 64 97 65 62 66 63 67 77 69 98 70 65 71 49 72 50 73
REMARK SMILES IDX 58 74 51 75 52 76 56 77 59 78 53 79 54 80 57 81 55 82 81 83
REMARK SMILES IDX 82 84 90 85 83 86 84 87 88 88 91 89 85 90 86 91 89 92 87 93
REMARK SMILES IDX 66 94 67 95 75 96 68 97 69 98 73 99 76 100 70 101 71 102
REMARK SMILES IDX 74 103 72 104
REMARK H PARENT 96 57 64 68
REMARK Flexibility Score: inf
ROOT
ATOM      1  C   UNL A   1      39.952  20.752  26.387  1.00  0.00     0.188 C 
ENDROOT
BRANCH   1   2
ATOM      2  O   UNL A   1      39.085  21.846  26.159  1.00  0.00    -0.376 OA
BRANCH   2   3
ATOM      3  C   UNL A   1      38.016  21.710  25.235  1.00  0.00     0.202 C 
BRANCH   3   4
ATOM      4  C   UNL A   1      36.546  21.653  25.689  1.00  0.00     0.261 C 
BRANCH   4   5
ATOM      5  O   UNL A   1      35.708  22.761  25.310  1.00  0.00    -0.461 OA
BRANCH   5   6
ATOM      6  C   UNL A   1      34.409  22.461  25.037  1.00  0.00     0.347 C 
ATOM      7  O   UNL A   1      34.027  21.371  24.615  1.00  0.00    -0.248 OA
BRANCH   6   8
ATOM      8  C   UNL A   1      33.421  23.618  25.291  1.00  0.00     0.279 C 
ATOM      9  C   UNL A   1      32.025  23.044  25.056  1.00  0.00     0.066 C 
BRANCH   8  10
ATOM     10  O   UNL A   1      33.654  24.792  24.519  1.00  0.00    -0.479 OA
BRANCH  10  11
ATOM     11  C   UNL A   1      33.479  26.032  25.074  1.00  0.00     0.120 A 
ATOM     12  C   UNL A   1      32.973  26.303  26.342  1.00  0.00     0.047 A 
ATOM     13  C   UNL A   1      33.794  27.106  24.236  1.00  0.00     0.047 A 
ATOM     14  C   UNL A   1      32.597  27.607  26.691  1.00  0.00     0.012 A 
ATOM     15  C   UNL A   1      33.469  28.416  24.603  1.00  0.00     0.012 A 
ATOM     16  C   UNL A   1      32.773  28.659  25.791  1.00  0.00    -0.024 A 
BRANCH  16  17
ATOM     17  C   UNL A   1      32.166  29.966  26.082  1.00  0.00     0.029 C 
ATOM     18  C   UNL A   1      32.770  30.969  26.742  1.00  0.00     0.081 C 
ATOM     19  S   UNL A   1      31.994  32.471  27.072  1.00  0.00    -0.054 SA
ATOM     20  C   UNL A   1      34.146  30.979  27.328  1.00  0.00     0.270 C 
ATOM     21  C   UNL A   1      33.322  33.057  28.078  1.00  0.00     0.152 C 
ATOM     22  N   UNL A   1      34.321  32.099  28.141  1.00  0.00    -0.261 N 
ATOM     23  O   UNL A   1      34.971  30.099  27.127  1.00  0.00    -0.268 OA
ATOM     24  S   UNL A   1      33.293  34.606  28.711  1.00  0.00    -0.051 S 
BRANCH  22  25
ATOM     25  C   UNL A   1      35.471  32.162  28.995  1.00  0.00     0.052 A 
ATOM     26  C   UNL A   1      36.712  32.594  28.497  1.00  0.00     0.030 A 
ATOM     27  C   UNL A   1      35.413  31.669  30.309  1.00  0.00     0.050 A 
ATOM     28  C   UNL A   1      37.867  32.527  29.281  1.00  0.00     0.043 A 
ATOM     29  C   UNL A   1      36.573  31.592  31.088  1.00  0.00     0.078 A 
ATOM     30  C   UNL A   1      37.792  32.019  30.570  1.00  0.00     0.141 A 
ATOM     31  Cl  UNL A   1      36.483  30.919  32.670  1.00  0.00    -0.081 Cl
ATOM     32  F   UNL A   1      38.918  31.928  31.294  1.00  0.00    -0.205 F 
ENDBRANCH  22  25
ENDBRANCH  16  17
ENDBRANCH  10  11
ENDBRANCH   8  10
ENDBRANCH   6   8
ENDBRANCH   5   6
ENDBRANCH   4   5
ENDBRANCH   3   4
ENDBRANCH   2   3
ENDBRANCH   1   2
BRANCH   1  33
ATOM     33  C   UNL A   1      41.443  21.000  26.682  1.00  0.00     0.188 C 
BRANCH  33  34
ATOM     34  O   UNL A   1      42.139  20.011  27.393  1.00  0.00    -0.376 OA
BRANCH  34  35
ATOM     35  C   UNL A   1      42.597  18.840  26.741  1.00  0.00     0.202 C 
BRANCH  35  36
ATOM     36  C   UNL A   1      43.209  18.767  25.326  1.00  0.00     0.261 C 
BRANCH  36  37
ATOM     37  O   UNL A   1      44.612  18.540  25.198  1.00  0.00    -0.460 OA
BRANCH  37  38
ATOM     38  C   UNL A   1      45.241  19.263  24.236  1.00  0.00     0.338 C 
ATOM     39  O   UNL A   1      45.708  18.866  23.189  1.00  0.00    -0.246 OA
BRANCH  38  40
ATOM     40  C   UNL A   1      45.109  20.689  24.591  1.00  0.00     0.060 A 
ATOM     41  C   UNL A   1      44.710  21.613  23.612  1.00  0.00     0.016 A 
ATOM     42  C   UNL A   1      45.385  21.101  25.892  1.00  0.00     0.016 A 
ATOM     43  C   UNL A   1      44.585  22.964  23.937  1.00  0.00     0.010 A 
ATOM     44  C   UNL A   1      45.291  22.456  26.206  1.00  0.00     0.010 A 
ATOM     45  C   UNL A   1      44.911  23.393  25.228  1.00  0.00    -0.014 A 
BRANCH  45  46
ATOM     46  C   UNL A   1      45.056  24.833  25.542  1.00  0.00     0.031 A 
ATOM     47  C   UNL A   1      46.426  25.433  25.463  1.00  0.00     0.074 A 
ATOM     48  C   UNL A   1      44.015  25.562  25.976  1.00  0.00     0.049 A 
ATOM     49  N   UNL A   1      46.860  26.585  25.904  1.00  0.00    -0.248 NA
ATOM     50  C   UNL A   1      47.453  24.604  24.815  1.00  0.00     0.031 C 
ATOM     51  C   UNL A   1      42.634  25.100  26.054  1.00  0.00     0.029 A 
ATOM     52  N   UNL A   1      43.980  26.840  26.479  1.00  0.00    -0.354 N 
ATOM     53  C   UNL A   1      48.219  26.602  25.619  1.00  0.00     0.074 A 
ATOM     54  C   UNL A   1      48.538  25.343  24.984  1.00  0.00     0.031 C 
ATOM     55  C   UNL A   1      41.888  26.064  26.620  1.00  0.00     0.029 A 
ATOM     56  C   UNL A   1      42.754  27.186  26.988  1.00  0.00     0.049 A 
ATOM     57  H   UNL A   1      44.757  27.445  26.474  1.00  0.00     0.167 HD
ATOM     58  C   UNL A   1      49.118  27.582  25.875  1.00  0.00     0.037 A 
ATOM     59  C   UNL A   1      42.388  28.260  27.716  1.00  0.00     0.037 A 
ATOM     60  C   UNL A   1      48.787  28.825  26.520  1.00  0.00     0.049 A 
ATOM     61  C   UNL A   1      43.413  29.314  28.051  1.00  0.00     0.074 A 
ATOM     62  C   UNL A   1      49.611  29.900  26.795  1.00  0.00     0.029 A 
ATOM     63  N   UNL A   1      47.528  29.150  27.009  1.00  0.00    -0.354 N 
ATOM     64  N   UNL A   1      44.692  29.347  27.762  1.00  0.00    -0.248 NA
ATOM     65  C   UNL A   1      42.944  30.479  28.814  1.00  0.00     0.031 C 
ATOM     66  C   UNL A   1      48.871  30.843  27.516  1.00  0.00     0.029 A 
ATOM     67  C   UNL A   1      47.563  30.394  27.617  1.00  0.00     0.049 A 
ATOM     68  H   UNL A   1      46.729  28.579  26.935  1.00  0.00     0.167 HD
ATOM     69  C   UNL A   1      45.173  30.545  28.275  1.00  0.00     0.074 A 
ATOM     70  C   UNL A   1      44.047  31.212  28.896  1.00  0.00     0.031 C 
ATOM     71  C   UNL A   1      46.432  31.051  28.225  1.00  0.00     0.037 A 
BRANCH  58  72
ATOM     72  C   UNL A   1      50.551  27.311  25.512  1.00  0.00     0.064 A 
ATOM     73  C   UNL A   1      51.470  26.792  26.436  1.00  0.00     0.173 A 
ATOM     74  C   UNL A   1      51.014  27.595  24.218  1.00  0.00     0.173 A 
ATOM     75  F   UNL A   1      51.085  26.515  27.691  1.00  0.00    -0.203 F 
ATOM     76  C   UNL A   1      52.809  26.617  26.094  1.00  0.00     0.198 A 
ATOM     77  C   UNL A   1      52.344  27.381  23.867  1.00  0.00     0.198 A 
ATOM     78  F   UNL A   1      50.178  28.089  23.292  1.00  0.00    -0.203 F 
ATOM     79  F   UNL A   1      53.684  26.194  27.017  1.00  0.00    -0.200 F 
ATOM     80  C   UNL A   1      53.244  26.907  24.809  1.00  0.00     0.200 A 
ATOM     81  F   UNL A   1      52.757  27.647  22.621  1.00  0.00    -0.200 F 
ATOM     82  F   UNL A   1      54.533  26.742  24.483  1.00  0.00    -0.200 F 
ENDBRANCH  58  72
BRANCH  59  83
ATOM     83  C   UNL A   1      40.987  28.368  28.198  1.00  0.00     0.064 A 
ATOM     84  C   UNL A   1      40.623  27.916  29.472  1.00  0.00     0.173 A 
ATOM     85  C   UNL A   1      39.991  28.958  27.405  1.00  0.00     0.173 A 
ATOM     86  F   UNL A   1      41.534  27.321  30.257  1.00  0.00    -0.203 F 
ATOM     87  C   UNL A   1      39.315  28.048  29.936  1.00  0.00     0.198 A 
ATOM     88  C   UNL A   1      38.691  29.115  27.880  1.00  0.00     0.198 A 
ATOM     89  F   UNL A   1      40.287  29.405  26.176  1.00  0.00    -0.203 F 
ATOM     90  F   UNL A   1      38.987  27.579  31.148  1.00  0.00    -0.200 F 
ATOM     91  C   UNL A   1      38.353  28.657  29.144  1.00  0.00     0.200 A 
ATOM     92  F   UNL A   1      37.768  29.717  27.117  1.00  0.00    -0.200 F 
ATOM     93  F   UNL A   1      37.100  28.800  29.599  1.00  0.00    -0.200 F 
ENDBRANCH  59  83
BRANCH  71  94
ATOM     94  C   UNL A   1      46.662  32.418  28.806  1.00  0.00     0.064 A 
ATOM     95  C   UNL A   1      46.493  33.588  28.051  1.00  0.00     0.173 A 
ATOM     96  C   UNL A   1      46.979  32.557  30.168  1.00  0.00     0.173 A 
ATOM     97  F   UNL A   1      46.201  33.512  26.744  1.00  0.00    -0.203 F 
ATOM     98  C   UNL A   1      46.644  34.844  28.634  1.00  0.00     0.198 A 
ATOM     99  C   UNL A   1      47.098  33.814  30.754  1.00  0.00     0.198 A 
ATOM    100  F   UNL A   1      47.145  31.471  30.938  1.00  0.00    -0.203 F 
ATOM    101  F   UNL A   1      46.513  35.948  27.886  1.00  0.00    -0.200 F 
ATOM    102  C   UNL A   1      46.935  34.957  29.987  1.00  0.00     0.200 A 
ATOM    103  F   UNL A   1      47.358  33.918  32.064  1.00  0.00    -0.200 F 
ATOM    104  F   UNL A   1      47.059  36.166  30.550  1.00  0.00    -0.200 F 
ENDBRANCH  71  94
ENDBRANCH  45  46
ENDBRANCH  38  40
ENDBRANCH  37  38
ENDBRANCH  36  37
ENDBRANCH  35  36
ENDBRANCH  34  35
ENDBRANCH  33  34
ENDBRANCH   1  33
TORSDOF 21
ENDMDL
MODEL 2
REMARK VINA RESULT:     -10.7      6.082     12.794
REMARK SMILES C[C@H](Oc1ccc(/C=C2/SC(=S)N(c3ccc(F)c(Cl)c3)C2=O)cc1)C(=O)OCCOCCOCCOC(=O)c1ccc(-c2c3nc(c(-c4c(F)c(F)c(F)c(F)c4F)c4ccc([nH]4)c(-c4c(F)c(F)c(F)c(F)c4F)c4nc(c(-c5c(F)c(F)c(F)c(F)c5F)c5ccc2[nH]5)C=C4)C=C3)cc1
REMARK SMILES IDX 32 1 31 2 30 3 29 4 28 5 26 6 27 7 2 8 1 9 3 10 4 11 5 12
REMARK SMILES IDX 25 13 6 14 24 15 7 16 8 17 9 18 10 19 22 20 11 21 13 22
REMARK SMILES IDX 23 23 12 24 14 25 15 26 21 27 16 28 19 29 17 30 20 31 18 32
REMARK SMILES IDX 33 33 34 34 35 35 36 36 37 37 38 38 39 39 40 40 41 41 102 42
REMARK SMILES IDX 42 43 101 44 43 45 44 46 45 47 95 48 46 49 100 50 94 51
REMARK SMILES IDX 96 52 47 53 99 54 93 55 92 56 48 58 80 59 60 60 79 61 61 62
REMARK SMILES IDX 64 63 78 64 97 65 62 66 63 67 77 69 98 70 65 71 49 72 50 73
REMARK SMILES IDX 58 74 51 75 52 76 56 77 59 78 53 79 54 80 57 81 55 82 81 83
REMARK SMILES IDX 82 84 90 85 83 86 84 87 88 88 91 89 85 90 86 91 89 92 87 93
REMARK SMILES IDX 66 94 67 95 75 96 68 97 69 98 73 99 76 100 70 101 71 102
REMARK SMILES IDX 74 103 72 104
REMARK H PARENT 96 57 64 68
REMARK Flexibility Score: inf
ROOT
ATOM      1  C   UNL A   1      33.758  30.891  27.266  1.00  0.00     0.188 C 
ENDROOT
BRANCH   1   2
ATOM      2  O   UNL A   1      34.397  29.637  27.398  1.00  0.00    -0.376 OA
BRANCH   2   3
ATOM      3  C   UNL A   1      33.816  28.488  26.799  1.00  0.00     0.202 C 
BRANCH   3   4
ATOM      4  C   UNL A   1      33.841  28.261  25.276  1.00  0.00     0.261 C 
BRANCH   4   5
ATOM      5  O   UNL A   1      33.738  26.897  24.825  1.00  0.00    -0.461 OA
BRANCH   5   6
ATOM      6  C   UNL A   1      33.311  26.723  23.544  1.00  0.00     0.347 C 
ATOM      7  O   UNL A   1      32.720  27.581  22.892  1.00  0.00    -0.248 OA
BRANCH   6   8
ATOM      8  C   UNL A   1      33.618  25.331  22.954  1.00  0.00     0.279 C 
ATOM      9  C   UNL A   1      32.809  25.229  21.663  1.00  0.00     0.066 C 
BRANCH   8  10
ATOM     10  O   UNL A   1      33.369  24.235  23.829  1.00  0.00    -0.479 OA
BRANCH  10  11
ATOM     11  C   UNL A   1      34.366  23.343  24.122  1.00  0.00     0.120 A 
ATOM     12  C   UNL A   1      34.398  22.470  25.206  1.00  0.00     0.047 A 
ATOM     13  C   UNL A   1      35.468  23.382  23.263  1.00  0.00     0.047 A 
ATOM     14  C   UNL A   1      35.583  21.801  25.543  1.00  0.00     0.012 A 
ATOM     15  C   UNL A   1      36.636  22.674  23.567  1.00  0.00     0.012 A 
ATOM     16  C   UNL A   1      36.731  21.961  24.766  1.00  0.00    -0.024 A 
BRANCH  16  17
ATOM     17  C   UNL A   1      38.014  21.442  25.261  1.00  0.00     0.029 C 
ATOM     18  C   UNL A   1      38.872  22.121  26.043  1.00  0.00     0.081 C 
ATOM     19  S   UNL A   1      40.374  21.463  26.572  1.00  0.00    -0.054 SA
ATOM     20  C   UNL A   1      38.732  23.519  26.556  1.00  0.00     0.270 C 
ATOM     21  C   UNL A   1      40.904  22.982  27.300  1.00  0.00     0.152 C 
ATOM     22  N   UNL A   1      39.929  23.952  27.123  1.00  0.00    -0.261 N 
ATOM     23  O   UNL A   1      37.705  24.175  26.451  1.00  0.00    -0.268 OA
ATOM     24  S   UNL A   1      42.346  23.066  28.144  1.00  0.00    -0.051 S 
BRANCH  22  25
ATOM     25  C   UNL A   1      40.084  25.342  27.439  1.00  0.00     0.052 A 
ATOM     26  C   UNL A   1      39.492  25.886  28.592  1.00  0.00     0.030 A 
ATOM     27  C   UNL A   1      40.715  26.214  26.537  1.00  0.00     0.050 A 
ATOM     28  C   UNL A   1      39.518  27.261  28.836  1.00  0.00     0.043 A 
ATOM     29  C   UNL A   1      40.728  27.592  26.777  1.00  0.00     0.078 A 
ATOM     30  C   UNL A   1      40.129  28.109  27.923  1.00  0.00     0.141 A 
ATOM     31  Cl  UNL A   1      41.449  28.643  25.618  1.00  0.00    -0.081 Cl
ATOM     32  F   UNL A   1      40.112  29.429  28.155  1.00  0.00    -0.205 F 
ENDBRANCH  22  25
ENDBRANCH  16  17
ENDBRANCH  10  11
ENDBRANCH   8  10
ENDBRANCH   6   8
ENDBRANCH   5   6
ENDBRANCH   4   5
ENDBRANCH   3   4
ENDBRANCH   2   3
ENDBRANCH   1   2
BRANCH   1  33
ATOM     33  C   UNL A   1      34.071  32.024  28.260  1.00  0.00     0.188 C 
BRANCH  33  34
ATOM     34  O   UNL A   1      33.402  33.246  28.087  1.00  0.00    -0.376 OA
BRANCH  34  35
ATOM     35  C   UNL A   1      33.845  34.412  28.756  1.00  0.00     0.202 C 
BRANCH  35  36
ATOM     36  C   UNL A   1      32.963  35.388  29.564  1.00  0.00     0.261 C 
BRANCH  36  37
ATOM     37  O   UNL A   1      33.490  35.954  30.764  1.00  0.00    -0.460 OA
BRANCH  37  38
ATOM     38  C   UNL A   1      33.221  35.271  31.907  1.00  0.00     0.338 C 
ATOM     39  O   UNL A   1      32.149  35.136  32.460  1.00  0.00    -0.246 OA
BRANCH  38  40
ATOM     40  C   UNL A   1      34.445  34.544  32.292  1.00  0.00     0.060 A 
ATOM     41  C   UNL A   1      34.375  33.169  32.570  1.00  0.00     0.016 A 
ATOM     42  C   UNL A   1      35.653  35.230  32.378  1.00  0.00     0.016 A 
ATOM     43  C   UNL A   1      35.527  32.473  32.938  1.00  0.00     0.010 A 
ATOM     44  C   UNL A   1      36.796  34.540  32.777  1.00  0.00     0.010 A 
ATOM     45  C   UNL A   1      36.734  33.166  33.078  1.00  0.00    -0.014 A 
BRANCH  45  46
ATOM     46  C   UNL A   1      37.909  32.536  33.722  1.00  0.00     0.031 A 
ATOM     47  C   UNL A   1      38.139  32.804  35.178  1.00  0.00     0.074 A 
ATOM     48  C   UNL A   1      38.797  31.822  33.012  1.00  0.00     0.049 A 
ATOM     49  N   UNL A   1      39.195  32.574  35.913  1.00  0.00    -0.248 NA
ATOM     50  C   UNL A   1      37.025  33.444  35.895  1.00  0.00     0.031 C 
ATOM     51  C   UNL A   1      38.659  31.462  31.604  1.00  0.00     0.029 A 
ATOM     52  N   UNL A   1      40.020  31.315  33.378  1.00  0.00    -0.354 N 
ATOM     53  C   UNL A   1      38.886  33.074  37.171  1.00  0.00     0.074 A 
ATOM     54  C   UNL A   1      37.554  33.633  37.094  1.00  0.00     0.031 C 
ATOM     55  C   UNL A   1      39.778  30.830  31.209  1.00  0.00     0.029 A 
ATOM     56  C   UNL A   1      40.725  30.791  32.325  1.00  0.00     0.049 A 
ATOM     57  H   UNL A   1      40.355  31.327  34.304  1.00  0.00     0.167 HD
ATOM     58  C   UNL A   1      39.654  33.073  38.287  1.00  0.00     0.037 A 
ATOM     59  C   UNL A   1      42.007  30.381  32.257  1.00  0.00     0.037 A 
ATOM     60  C   UNL A   1      40.984  32.524  38.344  1.00  0.00     0.049 A 
ATOM     61  C   UNL A   1      42.873  30.444  33.490  1.00  0.00     0.074 A 
ATOM     62  C   UNL A   1      41.835  32.437  39.430  1.00  0.00     0.029 A 
ATOM     63  N   UNL A   1      41.662  31.985  37.259  1.00  0.00    -0.354 N 
ATOM     64  N   UNL A   1      42.578  30.891  34.687  1.00  0.00    -0.248 NA
ATOM     65  C   UNL A   1      44.250  29.945  33.363  1.00  0.00     0.031 C 
ATOM     66  C   UNL A   1      43.054  31.915  38.987  1.00  0.00     0.029 A 
ATOM     67  C   UNL A   1      42.936  31.598  37.643  1.00  0.00     0.049 A 
ATOM     68  H   UNL A   1      41.293  31.893  36.351  1.00  0.00     0.167 HD
ATOM     69  C   UNL A   1      43.715  30.699  35.462  1.00  0.00     0.074 A 
ATOM     70  C   UNL A   1      44.709  30.095  34.598  1.00  0.00     0.031 C 
ATOM     71  C   UNL A   1      43.913  30.988  36.773  1.00  0.00     0.037 A 
BRANCH  58  72
ATOM     72  C   UNL A   1      39.091  33.742  39.508  1.00  0.00     0.064 A 
ATOM     73  C   UNL A   1      39.396  35.071  39.840  1.00  0.00     0.173 A 
ATOM     74  C   UNL A   1      38.245  33.030  40.373  1.00  0.00     0.173 A 
ATOM     75  F   UNL A   1      40.210  35.793  39.056  1.00  0.00    -0.203 F 
ATOM     76  C   UNL A   1      38.917  35.644  41.015  1.00  0.00     0.198 A 
ATOM     77  C   UNL A   1      37.735  33.619  41.527  1.00  0.00     0.198 A 
ATOM     78  F   UNL A   1      37.916  31.758  40.104  1.00  0.00    -0.203 F 
ATOM     79  F   UNL A   1      39.286  36.889  41.350  1.00  0.00    -0.200 F 
ATOM     80  C   UNL A   1      38.084  34.920  41.855  1.00  0.00     0.200 A 
ATOM     81  F   UNL A   1      36.918  32.923  42.327  1.00  0.00    -0.200 F 
ATOM     82  F   UNL A   1      37.628  35.471  42.988  1.00  0.00    -0.200 F 
ENDBRANCH  58  72
BRANCH  59  83
ATOM     83  C   UNL A   1      42.549  29.899  30.960  1.00  0.00     0.064 A 
ATOM     84  C   UNL A   1      43.004  30.799  29.988  1.00  0.00     0.173 A 
ATOM     85  C   UNL A   1      42.653  28.529  30.680  1.00  0.00     0.173 A 
ATOM     86  F   UNL A   1      42.902  32.120  30.198  1.00  0.00    -0.203 F 
ATOM     87  C   UNL A   1      43.543  30.346  28.784  1.00  0.00     0.198 A 
ATOM     88  C   UNL A   1      43.217  28.076  29.490  1.00  0.00     0.198 A 
ATOM     89  F   UNL A   1      42.229  27.626  31.578  1.00  0.00    -0.203 F 
ATOM     90  F   UNL A   1      43.945  31.229  27.859  1.00  0.00    -0.200 F 
ATOM     91  C   UNL A   1      43.659  28.985  28.541  1.00  0.00     0.200 A 
ATOM     92  F   UNL A   1      43.340  26.761  29.265  1.00  0.00    -0.200 F 
ATOM     93  F   UNL A   1      44.194  28.551  27.392  1.00  0.00    -0.200 F 
ENDBRANCH  59  83
BRANCH  71  94
ATOM     94  C   UNL A   1      45.233  30.606  37.385  1.00  0.00     0.064 A 
ATOM     95  C   UNL A   1      45.481  29.316  37.876  1.00  0.00     0.173 A 
ATOM     96  C   UNL A   1      46.291  31.530  37.404  1.00  0.00     0.173 A 
ATOM     97  F   UNL A   1      44.503  28.399  37.892  1.00  0.00    -0.203 F 
ATOM     98  C   UNL A   1      46.736  28.970  38.373  1.00  0.00     0.198 A 
ATOM     99  C   UNL A   1      47.551  31.171  37.870  1.00  0.00     0.198 A 
ATOM    100  F   UNL A   1      46.108  32.776  36.939  1.00  0.00    -0.203 F 
ATOM    101  F   UNL A   1      46.943  27.742  38.870  1.00  0.00    -0.200 F 
ATOM    102  C   UNL A   1      47.773  29.892  38.359  1.00  0.00     0.200 A 
ATOM    103  F   UNL A   1      48.554  32.059  37.837  1.00  0.00    -0.200 F 
ATOM    104  F   UNL A   1      48.984  29.551  38.818  1.00  0.00    -0.200 F 
ENDBRANCH  71  94
ENDBRANCH  45  46
ENDBRANCH  38  40
ENDBRANCH  37  38
ENDBRANCH  36  37
ENDBRANCH  35  36
ENDBRANCH  34  35
ENDBRANCH  33  34
ENDBRANCH   1  33
TORSDOF 21
ENDMDL
MODEL 3
REMARK VINA RESULT:      -9.5      7.551     13.327
REMARK SMILES C[C@H](Oc1ccc(/C=C2/SC(=S)N(c3ccc(F)c(Cl)c3)C2=O)cc1)C(=O)OCCOCCOCCOC(=O)c1ccc(-c2c3nc(c(-c4c(F)c(F)c(F)c(F)c4F)c4ccc([nH]4)c(-c4c(F)c(F)c(F)c(F)c4F)c4nc(c(-c5c(F)c(F)c(F)c(F)c5F)c5ccc2[nH]5)C=C4)C=C3)cc1
REMARK SMILES IDX 32 1 31 2 30 3 29 4 28 5 26 6 27 7 2 8 1 9 3 10 4 11 5 12
REMARK SMILES IDX 25 13 6 14 24 15 7 16 8 17 9 18 10 19 22 20 11 21 13 22
REMARK SMILES IDX 23 23 12 24 14 25 15 26 21 27 16 28 19 29 17 30 20 31 18 32
REMARK SMILES IDX 33 33 34 34 35 35 36 36 37 37 38 38 39 39 40 40 41 41 102 42
REMARK SMILES IDX 42 43 101 44 43 45 44 46 45 47 95 48 46 49 100 50 94 51
REMARK SMILES IDX 96 52 47 53 99 54 93 55 92 56 48 58 80 59 60 60 79 61 61 62
REMARK SMILES IDX 64 63 78 64 97 65 62 66 63 67 77 69 98 70 65 71 49 72 50 73
REMARK SMILES IDX 58 74 51 75 52 76 56 77 59 78 53 79 54 80 57 81 55 82 81 83
REMARK SMILES IDX 82 84 90 85 83 86 84 87 88 88 91 89 85 90 86 91 89 92 87 93
REMARK SMILES IDX 66 94 67 95 75 96 68 97 69 98 73 99 76 100 70 101 71 102
REMARK SMILES IDX 74 103 72 104
REMARK H PARENT 96 57 64 68
REMARK Flexibility Score: inf
ROOT
ATOM      1  C   UNL A   1      33.788  30.448  27.273  1.00  0.00     0.188 C 
ENDROOT
BRANCH   1   2
ATOM      2  O   UNL A   1      34.408  29.186  27.119  1.00  0.00    -0.376 OA
BRANCH   2   3
ATOM      3  C   UNL A   1      33.749  28.166  26.384  1.00  0.00     0.202 C 
BRANCH   3   4
ATOM      4  C   UNL A   1      33.710  28.165  24.845  1.00  0.00     0.261 C 
BRANCH   4   5
ATOM      5  O   UNL A   1      33.131  27.007  24.215  1.00  0.00    -0.461 OA
BRANCH   5   6
ATOM      6  C   UNL A   1      33.460  26.811  22.908  1.00  0.00     0.347 C 
ATOM      7  O   UNL A   1      33.619  27.718  22.094  1.00  0.00    -0.248 OA
BRANCH   6   8
ATOM      8  C   UNL A   1      33.615  25.330  22.505  1.00  0.00     0.279 C 
ATOM      9  C   UNL A   1      32.675  25.112  21.321  1.00  0.00     0.066 C 
BRANCH   8  10
ATOM     10  O   UNL A   1      33.383  24.391  23.552  1.00  0.00    -0.479 OA
BRANCH  10  11
ATOM     11  C   UNL A   1      34.330  23.451  23.860  1.00  0.00     0.120 A 
ATOM     12  C   UNL A   1      34.270  22.535  24.906  1.00  0.00     0.047 A 
ATOM     13  C   UNL A   1      35.479  23.484  23.065  1.00  0.00     0.047 A 
ATOM     14  C   UNL A   1      35.410  21.809  25.278  1.00  0.00     0.012 A 
ATOM     15  C   UNL A   1      36.602  22.721  23.402  1.00  0.00     0.012 A 
ATOM     16  C   UNL A   1      36.606  21.957  24.573  1.00  0.00    -0.024 A 
BRANCH  16  17
ATOM     17  C   UNL A   1      37.840  21.371  25.114  1.00  0.00     0.029 C 
ATOM     18  C   UNL A   1      38.708  22.006  25.920  1.00  0.00     0.081 C 
ATOM     19  S   UNL A   1      40.152  21.270  26.504  1.00  0.00    -0.054 SA
ATOM     20  C   UNL A   1      38.630  23.414  26.419  1.00  0.00     0.270 C 
ATOM     21  C   UNL A   1      40.742  22.762  27.240  1.00  0.00     0.152 C 
ATOM     22  N   UNL A   1      39.831  23.784  27.024  1.00  0.00    -0.261 N 
ATOM     23  O   UNL A   1      37.647  24.127  26.275  1.00  0.00    -0.268 OA
ATOM     24  S   UNL A   1      42.158  22.772  28.132  1.00  0.00    -0.051 S 
BRANCH  22  25
ATOM     25  C   UNL A   1      40.053  25.166  27.335  1.00  0.00     0.052 A 
ATOM     26  C   UNL A   1      39.469  25.748  28.473  1.00  0.00     0.030 A 
ATOM     27  C   UNL A   1      40.747  25.997  26.441  1.00  0.00     0.050 A 
ATOM     28  C   UNL A   1      39.564  27.122  28.711  1.00  0.00     0.043 A 
ATOM     29  C   UNL A   1      40.830  27.374  26.675  1.00  0.00     0.078 A 
ATOM     30  C   UNL A   1      40.237  27.929  27.805  1.00  0.00     0.141 A 
ATOM     31  Cl  UNL A   1      41.629  28.377  25.525  1.00  0.00    -0.081 Cl
ATOM     32  F   UNL A   1      40.286  29.250  28.030  1.00  0.00    -0.205 F 
ENDBRANCH  22  25
ENDBRANCH  16  17
ENDBRANCH  10  11
ENDBRANCH   8  10
ENDBRANCH   6   8
ENDBRANCH   5   6
ENDBRANCH   4   5
ENDBRANCH   3   4
ENDBRANCH   2   3
ENDBRANCH   1   2
BRANCH   1  33
ATOM     33  C   UNL A   1      34.544  31.600  27.960  1.00  0.00     0.188 C 
BRANCH  33  34
ATOM     34  O   UNL A   1      33.783  32.652  28.492  1.00  0.00    -0.376 OA
BRANCH  34  35
ATOM     35  C   UNL A   1      34.401  33.684  29.239  1.00  0.00     0.202 C 
BRANCH  35  36
ATOM     36  C   UNL A   1      34.725  33.646  30.747  1.00  0.00     0.261 C 
BRANCH  36  37
ATOM     37  O   UNL A   1      35.835  34.404  31.228  1.00  0.00    -0.460 OA
BRANCH  37  38
ATOM     38  C   UNL A   1      35.721  34.878  32.495  1.00  0.00     0.338 C 
ATOM     39  O   UNL A   1      34.863  35.610  32.944  1.00  0.00    -0.246 OA
BRANCH  38  40
ATOM     40  C   UNL A   1      36.740  34.201  33.319  1.00  0.00     0.060 A 
ATOM     41  C   UNL A   1      36.337  33.367  34.374  1.00  0.00     0.016 A 
ATOM     42  C   UNL A   1      38.091  34.402  33.043  1.00  0.00     0.016 A 
ATOM     43  C   UNL A   1      37.294  32.724  35.161  1.00  0.00     0.010 A 
ATOM     44  C   UNL A   1      39.045  33.786  33.850  1.00  0.00     0.010 A 
ATOM     45  C   UNL A   1      38.651  32.963  34.922  1.00  0.00    -0.014 A 
BRANCH  45  46
ATOM     46  C   UNL A   1      39.686  32.527  35.888  1.00  0.00     0.031 A 
ATOM     47  C   UNL A   1      40.125  33.506  36.934  1.00  0.00     0.074 A 
ATOM     48  C   UNL A   1      40.284  31.330  35.780  1.00  0.00     0.049 A 
ATOM     49  N   UNL A   1      41.156  33.465  37.736  1.00  0.00    -0.248 NA
ATOM     50  C   UNL A   1      39.291  34.710  37.075  1.00  0.00     0.031 C 
ATOM     51  C   UNL A   1      39.915  30.284  34.833  1.00  0.00     0.029 A 
ATOM     52  N   UNL A   1      41.368  30.820  36.453  1.00  0.00    -0.354 N 
ATOM     53  C   UNL A   1      41.117  34.655  38.452  1.00  0.00     0.074 A 
ATOM     54  C   UNL A   1      39.971  35.400  37.978  1.00  0.00     0.031 C 
ATOM     55  C   UNL A   1      40.789  29.269  34.950  1.00  0.00     0.029 A 
ATOM     56  C   UNL A   1      41.804  29.623  35.944  1.00  0.00     0.049 A 
ATOM     57  H   UNL A   1      41.788  31.268  37.222  1.00  0.00     0.167 HD
ATOM     58  C   UNL A   1      41.969  35.086  39.411  1.00  0.00     0.037 A 
ATOM     59  C   UNL A   1      42.925  28.923  36.211  1.00  0.00     0.037 A 
ATOM     60  C   UNL A   1      43.113  34.338  39.863  1.00  0.00     0.049 A 
ATOM     61  C   UNL A   1      43.899  29.445  37.236  1.00  0.00     0.074 A 
ATOM     62  C   UNL A   1      44.020  34.663  40.854  1.00  0.00     0.029 A 
ATOM     63  N   UNL A   1      43.516  33.118  39.335  1.00  0.00    -0.354 N 
ATOM     64  N   UNL A   1      43.854  30.555  37.932  1.00  0.00    -0.248 NA
ATOM     65  C   UNL A   1      45.083  28.617  37.511  1.00  0.00     0.031 C 
ATOM     66  C   UNL A   1      45.013  33.679  40.875  1.00  0.00     0.029 A 
ATOM     67  C   UNL A   1      44.681  32.696  39.956  1.00  0.00     0.049 A 
ATOM     68  H   UNL A   1      43.044  32.626  38.625  1.00  0.00     0.167 HD
ATOM     69  C   UNL A   1      44.977  30.545  38.750  1.00  0.00     0.074 A 
ATOM     70  C   UNL A   1      45.689  29.317  38.461  1.00  0.00     0.031 C 
ATOM     71  C   UNL A   1      45.375  31.465  39.664  1.00  0.00     0.037 A 
BRANCH  58  72
ATOM     72  C   UNL A   1      41.724  36.453  39.983  1.00  0.00     0.064 A 
ATOM     73  C   UNL A   1      42.251  37.613  39.397  1.00  0.00     0.173 A 
ATOM     74  C   UNL A   1      40.961  36.601  41.152  1.00  0.00     0.173 A 
ATOM     75  F   UNL A   1      42.999  37.530  38.286  1.00  0.00    -0.203 F 
ATOM     76  C   UNL A   1      42.068  38.862  39.987  1.00  0.00     0.198 A 
ATOM     77  C   UNL A   1      40.745  37.855  41.717  1.00  0.00     0.198 A 
ATOM     78  F   UNL A   1      40.427  35.527  41.753  1.00  0.00    -0.203 F 
ATOM     79  F   UNL A   1      42.648  39.945  39.451  1.00  0.00    -0.200 F 
ATOM     80  C   UNL A   1      41.312  38.982  41.144  1.00  0.00     0.200 A 
ATOM     81  F   UNL A   1      40.001  37.969  42.824  1.00  0.00    -0.200 F 
ATOM     82  F   UNL A   1      41.140  40.183  41.712  1.00  0.00    -0.200 F 
ENDBRANCH  58  72
BRANCH  59  83
ATOM     83  C   UNL A   1      43.189  27.663  35.468  1.00  0.00     0.064 A 
ATOM     84  C   UNL A   1      43.961  27.662  34.299  1.00  0.00     0.173 A 
ATOM     85  C   UNL A   1      42.704  26.432  35.931  1.00  0.00     0.173 A 
ATOM     86  F   UNL A   1      44.425  28.818  33.801  1.00  0.00    -0.203 F 
ATOM     87  C   UNL A   1      44.236  26.475  33.620  1.00  0.00     0.198 A 
ATOM     88  C   UNL A   1      43.004  25.243  35.270  1.00  0.00     0.198 A 
ATOM     89  F   UNL A   1      41.959  26.380  37.046  1.00  0.00    -0.203 F 
ATOM     90  F   UNL A   1      44.952  26.506  32.488  1.00  0.00    -0.200 F 
ATOM     91  C   UNL A   1      43.767  25.266  34.113  1.00  0.00     0.200 A 
ATOM     92  F   UNL A   1      42.560  24.076  35.756  1.00  0.00    -0.200 F 
ATOM     93  F   UNL A   1      44.048  24.125  33.469  1.00  0.00    -0.200 F 
ENDBRANCH  59  83
BRANCH  71  94
ATOM     94  C   UNL A   1      46.609  31.166  40.471  1.00  0.00     0.064 A 
ATOM     95  C   UNL A   1      46.561  30.422  41.658  1.00  0.00     0.173 A 
ATOM     96  C   UNL A   1      47.870  31.565  39.997  1.00  0.00     0.173 A 
ATOM     97  F   UNL A   1      45.382  30.027  42.161  1.00  0.00    -0.203 F 
ATOM     98  C   UNL A   1      47.728  30.099  42.347  1.00  0.00     0.198 A 
ATOM     99  C   UNL A   1      49.035  31.212  40.670  1.00  0.00     0.198 A 
ATOM    100  F   UNL A   1      47.972  32.272  38.861  1.00  0.00    -0.203 F 
ATOM    101  F   UNL A   1      47.658  29.418  43.500  1.00  0.00    -0.200 F 
ATOM    102  C   UNL A   1      48.964  30.484  41.847  1.00  0.00     0.200 A 
ATOM    103  F   UNL A   1      50.228  31.568  40.173  1.00  0.00    -0.200 F 
ATOM    104  F   UNL A   1      50.086  30.154  42.501  1.00  0.00    -0.200 F 
ENDBRANCH  71  94
ENDBRANCH  45  46
ENDBRANCH  38  40
ENDBRANCH  37  38
ENDBRANCH  36  37
ENDBRANCH  35  36
ENDBRANCH  34  35
ENDBRANCH  33  34
ENDBRANCH   1  33
TORSDOF 21
ENDMDL
