MODEL 1
REMARK VINA RESULT:     -11.4      0.000      0.000
REMARK SMILES COc1ccc([C@@H](CC(=O)OCCOCCOCCOC(=O)c2ccc(-c3c4nc(c(-c5c(F)c(F)c(F)c(F)c5F)c5ccc([nH]5)c(-c5c(F)c(F)c(F)c(F)c5F)c5nc(c(-c6c(F)c(F)c(F)c(F)c6F)c6ccc3[nH]6)C=C5)C=C4)cc2)NC(=O)c2ccc(Cl)c([N+](=O)[O-])c2)cc1
REMARK SMILES IDX 15 1 14 2 13 3 12 4 11 5 9 6 10 7 8 8 7 9 6 10 3 11 4 12
REMARK SMILES IDX 100 13 5 14 99 15 2 16 1 17 86 18 87 19 88 21 89 22 90 23
REMARK SMILES IDX 98 24 91 25 94 26 92 27 93 28 95 29 96 30 97 31 16 32 17 33
REMARK SMILES IDX 18 34 19 35 20 36 21 37 22 38 23 39 24 40 85 41 25 42 84 43
REMARK SMILES IDX 26 44 27 45 28 46 78 47 29 48 83 49 77 50 79 51 30 52 82 53
REMARK SMILES IDX 76 54 75 55 31 57 63 58 43 59 62 60 44 61 47 62 61 63 80 64
REMARK SMILES IDX 45 65 46 66 60 68 81 69 48 70 32 71 33 72 41 73 34 74 35 75
REMARK SMILES IDX 39 76 42 77 36 78 37 79 40 80 38 81 64 82 65 83 73 84 66 85
REMARK SMILES IDX 67 86 71 87 74 88 68 89 69 90 72 91 70 92 49 93 50 94 58 95
REMARK SMILES IDX 51 96 52 97 56 98 59 99 53 100 54 101 57 102 55 103
REMARK H PARENT 86 20 79 56 47 67
REMARK Flexibility Score: inf
ROOT
ATOM      1  C   UNL A   1      34.530  32.950  29.347  1.00  0.00     0.188 C 
ENDROOT
BRANCH   1   2
ATOM      2  O   UNL A   1      34.574  31.820  28.499  1.00  0.00    -0.376 OA
BRANCH   2   3
ATOM      3  C   UNL A   1      33.496  31.636  27.578  1.00  0.00     0.202 C 
BRANCH   3   4
ATOM      4  C   UNL A   1      33.330  30.273  26.901  1.00  0.00     0.261 C 
BRANCH   4   5
ATOM      5  O   UNL A   1      32.022  29.728  27.193  1.00  0.00    -0.463 OA
BRANCH   5   6
ATOM      6  C   UNL A   1      31.974  28.389  27.323  1.00  0.00     0.308 C 
ATOM      7  O   UNL A   1      31.027  27.797  27.837  1.00  0.00    -0.252 OA
BRANCH   6   8
ATOM      8  C   UNL A   1      33.109  27.614  26.693  1.00  0.00     0.152 C 
BRANCH   8   9
ATOM      9  C   UNL A   1      32.996  26.618  25.526  1.00  0.00     0.123 C 
BRANCH   9  10
ATOM     10  C   UNL A   1      33.512  25.198  25.689  1.00  0.00    -0.025 A 
ATOM     11  C   UNL A   1      34.587  22.619  26.048  1.00  0.00     0.118 A 
ATOM     12  C   UNL A   1      33.352  22.940  26.594  1.00  0.00     0.047 A 
ATOM     13  C   UNL A   1      35.295  23.566  25.316  1.00  0.00     0.047 A 
ATOM     14  C   UNL A   1      32.839  24.230  26.446  1.00  0.00     0.010 A 
ATOM     15  C   UNL A   1      34.760  24.846  25.138  1.00  0.00     0.010 A 
BRANCH  11  16
ATOM     16  O   UNL A   1      35.040  21.340  26.214  1.00  0.00    -0.497 OA
ATOM     17  C   UNL A   1      34.842  20.562  25.034  1.00  0.00     0.278 C 
ENDBRANCH  11  16
ENDBRANCH   9  10
BRANCH   9  18
ATOM     18  N   UNL A   1      33.396  27.172  24.234  1.00  0.00    -0.345 N 
ATOM     19  C   UNL A   1      32.627  27.451  23.128  1.00  0.00     0.252 C 
ATOM     20  H   UNL A   1      34.355  27.373  24.141  1.00  0.00     0.164 HD
ATOM     21  O   UNL A   1      33.154  27.507  22.020  1.00  0.00    -0.269 OA
BRANCH  19  22
ATOM     22  C   UNL A   1      31.167  27.727  23.195  1.00  0.00     0.046 A 
ATOM     23  C   UNL A   1      30.340  26.749  23.762  1.00  0.00     0.016 A 
ATOM     24  C   UNL A   1      30.576  28.848  22.611  1.00  0.00     0.101 A 
ATOM     25  C   UNL A   1      28.953  26.924  23.807  1.00  0.00     0.028 A 
ATOM     26  C   UNL A   1      29.177  29.041  22.681  1.00  0.00     0.288 A 
ATOM     27  C   UNL A   1      28.358  28.082  23.289  1.00  0.00     0.118 A 
ATOM     28  Cl  UNL A   1      26.649  28.202  23.496  1.00  0.00    -0.077 Cl
BRANCH  26  29
ATOM     29  N   UNL A   1      28.652  30.285  22.107  1.00  0.00     0.064 N 
ATOM     30  O   UNL A   1      28.646  30.430  20.881  1.00  0.00    -0.258 OA
ATOM     31  O   UNL A   1      28.269  31.149  22.911  1.00  0.00    -0.258 OA
ENDBRANCH  26  29
ENDBRANCH  19  22
ENDBRANCH   9  18
ENDBRANCH   8   9
ENDBRANCH   6   8
ENDBRANCH   5   6
ENDBRANCH   4   5
ENDBRANCH   3   4
ENDBRANCH   2   3
ENDBRANCH   1   2
BRANCH   1  32
ATOM     32  C   UNL A   1      35.314  34.185  28.905  1.00  0.00     0.188 C 
BRANCH  32  33
ATOM     33  O   UNL A   1      34.655  35.359  28.457  1.00  0.00    -0.376 OA
BRANCH  33  34
ATOM     34  C   UNL A   1      33.284  35.566  28.794  1.00  0.00     0.202 C 
BRANCH  34  35
ATOM     35  C   UNL A   1      32.871  36.458  29.980  1.00  0.00     0.261 C 
BRANCH  35  36
ATOM     36  O   UNL A   1      32.254  35.778  31.067  1.00  0.00    -0.460 OA
BRANCH  36  37
ATOM     37  C   UNL A   1      32.697  36.127  32.298  1.00  0.00     0.338 C 
ATOM     38  O   UNL A   1      32.179  36.897  33.082  1.00  0.00    -0.246 OA
BRANCH  37  39
ATOM     39  C   UNL A   1      33.844  35.234  32.573  1.00  0.00     0.060 A 
ATOM     40  C   UNL A   1      33.594  33.889  32.868  1.00  0.00     0.016 A 
ATOM     41  C   UNL A   1      35.153  35.687  32.393  1.00  0.00     0.016 A 
ATOM     42  C   UNL A   1      34.651  32.988  32.994  1.00  0.00     0.010 A 
ATOM     43  C   UNL A   1      36.211  34.792  32.532  1.00  0.00     0.010 A 
ATOM     44  C   UNL A   1      35.964  33.444  32.851  1.00  0.00    -0.014 A 
BRANCH  44  45
ATOM     45  C   UNL A   1      37.105  32.582  33.227  1.00  0.00     0.031 A 
ATOM     46  C   UNL A   1      37.786  32.867  34.532  1.00  0.00     0.074 A 
ATOM     47  C   UNL A   1      37.546  31.602  32.420  1.00  0.00     0.049 A 
ATOM     48  N   UNL A   1      38.901  32.384  35.011  1.00  0.00    -0.248 NA
ATOM     49  C   UNL A   1      37.119  33.842  35.411  1.00  0.00     0.031 C 
ATOM     50  C   UNL A   1      36.926  31.193  31.161  1.00  0.00     0.029 A 
ATOM     51  N   UNL A   1      38.641  30.784  32.538  1.00  0.00    -0.354 N 
ATOM     52  C   UNL A   1      39.083  33.018  36.233  1.00  0.00     0.074 A 
ATOM     53  C   UNL A   1      37.972  33.923  36.420  1.00  0.00     0.031 C 
ATOM     54  C   UNL A   1      37.665  30.212  30.612  1.00  0.00     0.029 A 
ATOM     55  C   UNL A   1      38.832  29.961  31.455  1.00  0.00     0.049 A 
ATOM     56  H   UNL A   1      39.234  30.787  33.325  1.00  0.00     0.167 HD
ATOM     57  C   UNL A   1      40.093  32.857  37.117  1.00  0.00     0.037 A 
ATOM     58  C   UNL A   1      39.857  29.135  31.170  1.00  0.00     0.037 A 
ATOM     59  C   UNL A   1      41.188  31.946  36.929  1.00  0.00     0.049 A 
ATOM     60  C   UNL A   1      41.016  29.040  32.132  1.00  0.00     0.074 A 
ATOM     61  C   UNL A   1      42.246  31.683  37.778  1.00  0.00     0.029 A 
ATOM     62  N   UNL A   1      41.365  31.154  35.804  1.00  0.00    -0.354 N 
ATOM     63  N   UNL A   1      41.182  29.629  33.292  1.00  0.00    -0.248 NA
ATOM     64  C   UNL A   1      42.138  28.176  31.737  1.00  0.00     0.031 C 
ATOM     65  C   UNL A   1      43.092  30.767  37.146  1.00  0.00     0.029 A 
ATOM     66  C   UNL A   1      42.534  30.423  35.924  1.00  0.00     0.049 A 
ATOM     67  H   UNL A   1      40.750  31.116  35.037  1.00  0.00     0.167 HD
ATOM     68  C   UNL A   1      42.407  29.187  33.775  1.00  0.00     0.074 A 
ATOM     69  C   UNL A   1      42.940  28.273  32.787  1.00  0.00     0.031 C 
ATOM     70  C   UNL A   1      43.038  29.509  34.931  1.00  0.00     0.037 A 
BRANCH  57  71
ATOM     71  C   UNL A   1      40.078  33.714  38.344  1.00  0.00     0.064 A 
ATOM     72  C   UNL A   1      39.306  33.385  39.468  1.00  0.00     0.173 A 
ATOM     73  C   UNL A   1      40.865  34.874  38.402  1.00  0.00     0.173 A 
ATOM     74  F   UNL A   1      38.520  32.298  39.451  1.00  0.00    -0.203 F 
ATOM     75  C   UNL A   1      39.307  34.197  40.598  1.00  0.00     0.198 A 
ATOM     76  C   UNL A   1      40.884  35.669  39.543  1.00  0.00     0.198 A 
ATOM     77  F   UNL A   1      41.616  35.233  37.350  1.00  0.00    -0.203 F 
ATOM     78  F   UNL A   1      38.529  33.887  41.644  1.00  0.00    -0.200 F 
ATOM     79  C   UNL A   1      40.102  35.333  40.638  1.00  0.00     0.200 A 
ATOM     80  F   UNL A   1      41.657  36.763  39.582  1.00  0.00    -0.200 F 
ATOM     81  F   UNL A   1      40.107  36.110  41.730  1.00  0.00    -0.200 F 
ENDBRANCH  57  71
BRANCH  58  82
ATOM     82  C   UNL A   1      39.865  28.355  29.903  1.00  0.00     0.064 A 
ATOM     83  C   UNL A   1      39.313  27.068  29.846  1.00  0.00     0.173 A 
ATOM     84  C   UNL A   1      40.463  28.859  28.738  1.00  0.00     0.173 A 
ATOM     85  F   UNL A   1      38.758  26.529  30.942  1.00  0.00    -0.203 F 
ATOM     86  C   UNL A   1      39.376  26.307  28.680  1.00  0.00     0.198 A 
ATOM     87  C   UNL A   1      40.501  28.109  27.564  1.00  0.00     0.198 A 
ATOM     88  F   UNL A   1      41.015  30.081  28.741  1.00  0.00    -0.203 F 
ATOM     89  F   UNL A   1      38.888  25.060  28.669  1.00  0.00    -0.200 F 
ATOM     90  C   UNL A   1      39.965  26.830  27.539  1.00  0.00     0.200 A 
ATOM     91  F   UNL A   1      41.067  28.620  26.463  1.00  0.00    -0.200 F 
ATOM     92  F   UNL A   1      40.029  26.097  26.419  1.00  0.00    -0.200 F 
ENDBRANCH  58  82
BRANCH  70  93
ATOM     93  C   UNL A   1      44.353  28.844  35.212  1.00  0.00     0.064 A 
ATOM     94  C   UNL A   1      44.424  27.611  35.876  1.00  0.00     0.173 A 
ATOM     95  C   UNL A   1      45.548  29.413  34.748  1.00  0.00     0.173 A 
ATOM     96  F   UNL A   1      43.310  27.033  36.349  1.00  0.00    -0.203 F 
ATOM     97  C   UNL A   1      45.648  26.980  36.080  1.00  0.00     0.198 A 
ATOM     98  C   UNL A   1      46.767  28.767  34.930  1.00  0.00     0.198 A 
ATOM     99  F   UNL A   1      45.531  30.587  34.100  1.00  0.00    -0.203 F 
ATOM    100  F   UNL A   1      45.699  25.819  36.749  1.00  0.00    -0.200 F 
ATOM    101  C   UNL A   1      46.817  27.554  35.599  1.00  0.00     0.200 A 
ATOM    102  F   UNL A   1      47.892  29.314  34.450  1.00  0.00    -0.200 F 
ATOM    103  F   UNL A   1      47.992  26.937  35.783  1.00  0.00    -0.200 F 
ENDBRANCH  70  93
ENDBRANCH  44  45
ENDBRANCH  37  39
ENDBRANCH  36  37
ENDBRANCH  35  36
ENDBRANCH  34  35
ENDBRANCH  33  34
ENDBRANCH  32  33
ENDBRANCH   1  32
TORSDOF 23
ENDMDL
MODEL 2
REMARK VINA RESULT:     -11.4      4.725      7.153
REMARK SMILES COc1ccc([C@@H](CC(=O)OCCOCCOCCOC(=O)c2ccc(-c3c4nc(c(-c5c(F)c(F)c(F)c(F)c5F)c5ccc([nH]5)c(-c5c(F)c(F)c(F)c(F)c5F)c5nc(c(-c6c(F)c(F)c(F)c(F)c6F)c6ccc3[nH]6)C=C5)C=C4)cc2)NC(=O)c2ccc(Cl)c([N+](=O)[O-])c2)cc1
REMARK SMILES IDX 15 1 14 2 13 3 12 4 11 5 9 6 10 7 8 8 7 9 6 10 3 11 4 12
REMARK SMILES IDX 100 13 5 14 99 15 2 16 1 17 86 18 87 19 88 21 89 22 90 23
REMARK SMILES IDX 98 24 91 25 94 26 92 27 93 28 95 29 96 30 97 31 16 32 17 33
REMARK SMILES IDX 18 34 19 35 20 36 21 37 22 38 23 39 24 40 85 41 25 42 84 43
REMARK SMILES IDX 26 44 27 45 28 46 78 47 29 48 83 49 77 50 79 51 30 52 82 53
REMARK SMILES IDX 76 54 75 55 31 57 63 58 43 59 62 60 44 61 47 62 61 63 80 64
REMARK SMILES IDX 45 65 46 66 60 68 81 69 48 70 32 71 33 72 41 73 34 74 35 75
REMARK SMILES IDX 39 76 42 77 36 78 37 79 40 80 38 81 64 82 65 83 73 84 66 85
REMARK SMILES IDX 67 86 71 87 74 88 68 89 69 90 72 91 70 92 49 93 50 94 58 95
REMARK SMILES IDX 51 96 52 97 56 98 59 99 53 100 54 101 57 102 55 103
REMARK H PARENT 86 20 79 56 47 67
REMARK Flexibility Score: inf
ROOT
ATOM      1  C   UNL A   1      34.419  31.936  28.309  1.00  0.00     0.188 C 
ENDROOT
BRANCH   1   2
ATOM      2  O   UNL A   1      34.083  31.086  27.230  1.00  0.00    -0.376 OA
BRANCH   2   3
ATOM      3  C   UNL A   1      32.697  30.913  26.924  1.00  0.00     0.202 C 
BRANCH   3   4
ATOM      4  C   UNL A   1      32.311  30.062  25.712  1.00  0.00     0.261 C 
BRANCH   4   5
ATOM      5  O   UNL A   1      31.404  29.007  26.111  1.00  0.00    -0.463 OA
BRANCH   5   6
ATOM      6  C   UNL A   1      31.923  28.094  26.954  1.00  0.00     0.308 C 
ATOM      7  O   UNL A   1      31.406  27.806  28.031  1.00  0.00    -0.252 OA
BRANCH   6   8
ATOM      8  C   UNL A   1      33.134  27.337  26.459  1.00  0.00     0.152 C 
BRANCH   8   9
ATOM      9  C   UNL A   1      33.156  26.287  25.335  1.00  0.00     0.123 C 
BRANCH   9  10
ATOM     10  C   UNL A   1      33.797  24.931  25.579  1.00  0.00    -0.025 A 
ATOM     11  C   UNL A   1      34.865  22.355  25.989  1.00  0.00     0.118 A 
ATOM     12  C   UNL A   1      35.513  23.252  25.151  1.00  0.00     0.047 A 
ATOM     13  C   UNL A   1      33.690  22.726  26.634  1.00  0.00     0.047 A 
ATOM     14  C   UNL A   1      34.962  24.514  24.920  1.00  0.00     0.010 A 
ATOM     15  C   UNL A   1      33.162  24.005  26.431  1.00  0.00     0.010 A 
BRANCH  11  16
ATOM     16  O   UNL A   1      35.450  21.136  26.187  1.00  0.00    -0.497 OA
ATOM     17  C   UNL A   1      36.098  20.673  25.003  1.00  0.00     0.278 C 
ENDBRANCH  11  16
ENDBRANCH   9  10
BRANCH   9  18
ATOM     18  N   UNL A   1      33.548  26.820  24.033  1.00  0.00    -0.345 N 
ATOM     19  C   UNL A   1      32.764  27.142  22.950  1.00  0.00     0.252 C 
ATOM     20  H   UNL A   1      34.513  26.971  23.913  1.00  0.00     0.164 HD
ATOM     21  O   UNL A   1      33.261  27.172  21.827  1.00  0.00    -0.269 OA
BRANCH  19  22
ATOM     22  C   UNL A   1      31.323  27.496  23.058  1.00  0.00     0.046 A 
ATOM     23  C   UNL A   1      30.465  26.571  23.666  1.00  0.00     0.016 A 
ATOM     24  C   UNL A   1      30.773  28.640  22.477  1.00  0.00     0.101 A 
ATOM     25  C   UNL A   1      29.091  26.820  23.752  1.00  0.00     0.028 A 
ATOM     26  C   UNL A   1      29.389  28.907  22.588  1.00  0.00     0.288 A 
ATOM     27  C   UNL A   1      28.541  28.000  23.236  1.00  0.00     0.118 A 
ATOM     28  Cl  UNL A   1      26.848  28.214  23.496  1.00  0.00    -0.077 Cl
BRANCH  26  29
ATOM     29  N   UNL A   1      28.912  30.169  22.013  1.00  0.00     0.064 N 
ATOM     30  O   UNL A   1      29.087  31.221  22.634  1.00  0.00    -0.258 OA
ATOM     31  O   UNL A   1      28.316  30.095  20.926  1.00  0.00    -0.258 OA
ENDBRANCH  26  29
ENDBRANCH  19  22
ENDBRANCH   9  18
ENDBRANCH   8   9
ENDBRANCH   6   8
ENDBRANCH   5   6
ENDBRANCH   4   5
ENDBRANCH   3   4
ENDBRANCH   2   3
ENDBRANCH   1   2
BRANCH   1  32
ATOM     32  C   UNL A   1      34.853  33.361  27.965  1.00  0.00     0.188 C 
BRANCH  32  33
ATOM     33  O   UNL A   1      34.864  34.387  28.945  1.00  0.00    -0.376 OA
BRANCH  33  34
ATOM     34  C   UNL A   1      34.029  34.269  30.096  1.00  0.00     0.202 C 
BRANCH  34  35
ATOM     35  C   UNL A   1      34.602  33.880  31.472  1.00  0.00     0.261 C 
BRANCH  35  36
ATOM     36  O   UNL A   1      35.077  32.543  31.578  1.00  0.00    -0.460 OA
BRANCH  36  37
ATOM     37  C   UNL A   1      35.972  32.320  32.570  1.00  0.00     0.338 C 
ATOM     38  O   UNL A   1      35.802  32.450  33.765  1.00  0.00    -0.246 OA
BRANCH  37  39
ATOM     39  C   UNL A   1      37.144  31.704  31.911  1.00  0.00     0.060 A 
ATOM     40  C   UNL A   1      38.015  30.922  32.680  1.00  0.00     0.016 A 
ATOM     41  C   UNL A   1      37.296  31.775  30.525  1.00  0.00     0.016 A 
ATOM     42  C   UNL A   1      39.048  30.213  32.069  1.00  0.00     0.010 A 
ATOM     43  C   UNL A   1      38.336  31.079  29.914  1.00  0.00     0.010 A 
ATOM     44  C   UNL A   1      39.226  30.311  30.686  1.00  0.00    -0.014 A 
BRANCH  44  45
ATOM     45  C   UNL A   1      40.452  29.785  30.047  1.00  0.00     0.031 A 
ATOM     46  C   UNL A   1      41.585  30.743  29.834  1.00  0.00     0.074 A 
ATOM     47  C   UNL A   1      40.541  28.509  29.635  1.00  0.00     0.049 A 
ATOM     48  N   UNL A   1      42.687  30.589  29.149  1.00  0.00    -0.248 NA
ATOM     49  C   UNL A   1      41.448  32.062  30.474  1.00  0.00     0.031 C 
ATOM     50  C   UNL A   1      39.531  27.474  29.845  1.00  0.00     0.029 A 
ATOM     51  N   UNL A   1      41.534  27.875  28.930  1.00  0.00    -0.354 N 
ATOM     52  C   UNL A   1      43.359  31.799  29.253  1.00  0.00     0.074 A 
ATOM     53  C   UNL A   1      42.542  32.679  30.058  1.00  0.00     0.031 C 
ATOM     54  C   UNL A   1      39.948  26.336  29.261  1.00  0.00     0.029 A 
ATOM     55  C   UNL A   1      41.227  26.578  28.597  1.00  0.00     0.049 A 
ATOM     56  H   UNL A   1      42.383  28.308  28.687  1.00  0.00     0.167 HD
ATOM     57  C   UNL A   1      44.552  32.142  28.718  1.00  0.00     0.037 A 
ATOM     58  C   UNL A   1      41.893  25.709  27.812  1.00  0.00     0.037 A 
ATOM     59  C   UNL A   1      45.364  31.257  27.929  1.00  0.00     0.049 A 
ATOM     60  C   UNL A   1      43.179  26.147  27.155  1.00  0.00     0.074 A 
ATOM     61  C   UNL A   1      46.604  31.495  27.368  1.00  0.00     0.029 A 
ATOM     62  N   UNL A   1      45.006  29.962  27.585  1.00  0.00    -0.354 N 
ATOM     63  N   UNL A   1      43.821  27.286  27.263  1.00  0.00    -0.248 NA
ATOM     64  C   UNL A   1      43.827  25.182  26.253  1.00  0.00     0.031 C 
ATOM     65  C   UNL A   1      46.976  30.360  26.640  1.00  0.00     0.029 A 
ATOM     66  C   UNL A   1      45.988  29.399  26.790  1.00  0.00     0.049 A 
ATOM     67  H   UNL A   1      44.177  29.512  27.864  1.00  0.00     0.167 HD
ATOM     68  C   UNL A   1      44.955  27.165  26.470  1.00  0.00     0.074 A 
ATOM     69  C   UNL A   1      44.920  25.837  25.892  1.00  0.00     0.031 C 
ATOM     70  C   UNL A   1      45.937  28.070  26.237  1.00  0.00     0.037 A 
BRANCH  57  71
ATOM     71  C   UNL A   1      45.028  33.545  28.937  1.00  0.00     0.064 A 
ATOM     72  C   UNL A   1      45.846  33.888  30.023  1.00  0.00     0.173 A 
ATOM     73  C   UNL A   1      44.674  34.557  28.033  1.00  0.00     0.173 A 
ATOM     74  F   UNL A   1      46.193  32.959  30.928  1.00  0.00    -0.203 F 
ATOM     75  C   UNL A   1      46.276  35.198  30.208  1.00  0.00     0.198 A 
ATOM     76  C   UNL A   1      45.127  35.861  28.206  1.00  0.00     0.198 A 
ATOM     77  F   UNL A   1      43.889  34.279  26.982  1.00  0.00    -0.203 F 
ATOM     78  F   UNL A   1      47.022  35.513  31.276  1.00  0.00    -0.200 F 
ATOM     79  C   UNL A   1      45.923  36.182  29.295  1.00  0.00     0.200 A 
ATOM     80  F   UNL A   1      44.790  36.808  27.320  1.00  0.00    -0.200 F 
ATOM     81  F   UNL A   1      46.344  37.442  29.470  1.00  0.00    -0.200 F 
ENDBRANCH  57  71
BRANCH  58  82
ATOM     82  C   UNL A   1      41.347  24.348  27.563  1.00  0.00     0.064 A 
ATOM     83  C   UNL A   1      41.946  23.217  28.133  1.00  0.00     0.173 A 
ATOM     84  C   UNL A   1      40.246  24.145  26.717  1.00  0.00     0.173 A 
ATOM     85  F   UNL A   1      43.021  23.354  28.923  1.00  0.00    -0.203 F 
ATOM     86  C   UNL A   1      41.479  21.933  27.852  1.00  0.00     0.198 A 
ATOM     87  C   UNL A   1      39.762  22.864  26.458  1.00  0.00     0.198 A 
ATOM     88  F   UNL A   1      39.642  25.193  26.138  1.00  0.00    -0.203 F 
ATOM     89  F   UNL A   1      42.104  20.867  28.367  1.00  0.00    -0.200 F 
ATOM     90  C   UNL A   1      40.384  21.759  27.018  1.00  0.00     0.200 A 
ATOM     91  F   UNL A   1      38.700  22.701  25.656  1.00  0.00    -0.200 F 
ATOM     92  F   UNL A   1      39.937  20.526  26.745  1.00  0.00    -0.200 F 
ENDBRANCH  58  82
BRANCH  70  93
ATOM     93  C   UNL A   1      47.074  27.647  25.354  1.00  0.00     0.064 A 
ATOM     94  C   UNL A   1      48.153  26.904  25.851  1.00  0.00     0.173 A 
ATOM     95  C   UNL A   1      47.046  27.931  23.980  1.00  0.00     0.173 A 
ATOM     96  F   UNL A   1      48.231  26.619  27.160  1.00  0.00    -0.203 F 
ATOM     97  C   UNL A   1      49.172  26.472  25.007  1.00  0.00     0.198 A 
ATOM     98  C   UNL A   1      48.052  27.474  23.134  1.00  0.00     0.198 A 
ATOM     99  F   UNL A   1      46.030  28.631  23.454  1.00  0.00    -0.203 F 
ATOM    100  F   UNL A   1      50.213  25.793  25.509  1.00  0.00    -0.200 F 
ATOM    101  C   UNL A   1      49.116  26.750  23.649  1.00  0.00     0.200 A 
ATOM    102  F   UNL A   1      47.988  27.729  21.820  1.00  0.00    -0.200 F 
ATOM    103  F   UNL A   1      50.091  26.320  22.835  1.00  0.00    -0.200 F 
ENDBRANCH  70  93
ENDBRANCH  44  45
ENDBRANCH  37  39
ENDBRANCH  36  37
ENDBRANCH  35  36
ENDBRANCH  34  35
ENDBRANCH  33  34
ENDBRANCH  32  33
ENDBRANCH   1  32
TORSDOF 23
ENDMDL
MODEL 3
REMARK VINA RESULT:     -11.2      2.355      8.147
REMARK SMILES COc1ccc([C@@H](CC(=O)OCCOCCOCCOC(=O)c2ccc(-c3c4nc(c(-c5c(F)c(F)c(F)c(F)c5F)c5ccc([nH]5)c(-c5c(F)c(F)c(F)c(F)c5F)c5nc(c(-c6c(F)c(F)c(F)c(F)c6F)c6ccc3[nH]6)C=C5)C=C4)cc2)NC(=O)c2ccc(Cl)c([N+](=O)[O-])c2)cc1
REMARK SMILES IDX 15 1 14 2 13 3 12 4 11 5 9 6 10 7 8 8 7 9 6 10 3 11 4 12
REMARK SMILES IDX 100 13 5 14 99 15 2 16 1 17 86 18 87 19 88 21 89 22 90 23
REMARK SMILES IDX 98 24 91 25 94 26 92 27 93 28 95 29 96 30 97 31 16 32 17 33
REMARK SMILES IDX 18 34 19 35 20 36 21 37 22 38 23 39 24 40 85 41 25 42 84 43
REMARK SMILES IDX 26 44 27 45 28 46 78 47 29 48 83 49 77 50 79 51 30 52 82 53
REMARK SMILES IDX 76 54 75 55 31 57 63 58 43 59 62 60 44 61 47 62 61 63 80 64
REMARK SMILES IDX 45 65 46 66 60 68 81 69 48 70 32 71 33 72 41 73 34 74 35 75
REMARK SMILES IDX 39 76 42 77 36 78 37 79 40 80 38 81 64 82 65 83 73 84 66 85
REMARK SMILES IDX 67 86 71 87 74 88 68 89 69 90 72 91 70 92 49 93 50 94 58 95
REMARK SMILES IDX 51 96 52 97 56 98 59 99 53 100 54 101 57 102 55 103
REMARK H PARENT 86 20 79 56 47 67
REMARK Flexibility Score: inf
ROOT
ATOM      1  C   UNL A   1      32.807  27.873  26.446  1.00  0.00     0.188 C 
ENDROOT
BRANCH   1   2
ATOM      2  O   UNL A   1      33.843  27.854  25.485  1.00  0.00    -0.376 OA
BRANCH   2   3
ATOM      3  C   UNL A   1      33.499  28.149  24.128  1.00  0.00     0.202 C 
BRANCH   3   4
ATOM      4  C   UNL A   1      32.082  27.834  23.642  1.00  0.00     0.261 C 
BRANCH   4   5
ATOM      5  O   UNL A   1      31.916  26.406  23.482  1.00  0.00    -0.463 OA
BRANCH   5   6
ATOM      6  C   UNL A   1      32.663  25.847  22.512  1.00  0.00     0.308 C 
ATOM      7  O   UNL A   1      32.518  26.106  21.319  1.00  0.00    -0.252 OA
BRANCH   6   8
ATOM      8  C   UNL A   1      33.792  24.951  22.968  1.00  0.00     0.152 C 
BRANCH   8   9
ATOM      9  C   UNL A   1      34.210  24.681  24.424  1.00  0.00     0.123 C 
BRANCH   9  10
ATOM     10  C   UNL A   1      35.365  23.738  24.717  1.00  0.00    -0.025 A 
ATOM     11  C   UNL A   1      37.564  22.026  25.137  1.00  0.00     0.118 A 
ATOM     12  C   UNL A   1      37.260  23.009  26.069  1.00  0.00     0.047 A 
ATOM     13  C   UNL A   1      36.782  21.877  23.997  1.00  0.00     0.047 A 
ATOM     14  C   UNL A   1      36.192  23.880  25.840  1.00  0.00     0.010 A 
ATOM     15  C   UNL A   1      35.690  22.727  23.790  1.00  0.00     0.010 A 
BRANCH  11  16
ATOM     16  O   UNL A   1      38.613  21.194  25.413  1.00  0.00    -0.497 OA
ATOM     17  C   UNL A   1      39.606  21.855  26.197  1.00  0.00     0.278 C 
ENDBRANCH  11  16
ENDBRANCH   9  10
BRANCH   9  18
ATOM     18  N   UNL A   1      33.089  24.424  25.325  1.00  0.00    -0.345 N 
ATOM     19  C   UNL A   1      32.081  23.493  25.221  1.00  0.00     0.252 C 
ATOM     20  H   UNL A   1      33.048  25.002  26.120  1.00  0.00     0.164 HD
ATOM     21  O   UNL A   1      31.020  23.679  25.809  1.00  0.00    -0.269 OA
BRANCH  19  22
ATOM     22  C   UNL A   1      32.211  22.229  24.448  1.00  0.00     0.046 A 
ATOM     23  C   UNL A   1      31.810  22.237  23.106  1.00  0.00     0.016 A 
ATOM     24  C   UNL A   1      32.592  21.017  25.027  1.00  0.00     0.101 A 
ATOM     25  C   UNL A   1      31.857  21.067  22.339  1.00  0.00     0.028 A 
ATOM     26  C   UNL A   1      32.667  19.840  24.246  1.00  0.00     0.288 A 
ATOM     27  C   UNL A   1      32.308  19.863  22.894  1.00  0.00     0.118 A 
ATOM     28  Cl  UNL A   1      32.398  18.526  21.805  1.00  0.00    -0.077 Cl
BRANCH  26  29
ATOM     29  N   UNL A   1      33.149  18.630  24.921  1.00  0.00     0.064 N 
ATOM     30  O   UNL A   1      34.292  18.224  24.690  1.00  0.00    -0.258 OA
ATOM     31  O   UNL A   1      32.347  18.057  25.674  1.00  0.00    -0.258 OA
ENDBRANCH  26  29
ENDBRANCH  19  22
ENDBRANCH   9  18
ENDBRANCH   8   9
ENDBRANCH   6   8
ENDBRANCH   5   6
ENDBRANCH   4   5
ENDBRANCH   3   4
ENDBRANCH   2   3
ENDBRANCH   1   2
BRANCH   1  32
ATOM     32  C   UNL A   1      32.618  29.165  27.242  1.00  0.00     0.188 C 
BRANCH  32  33
ATOM     33  O   UNL A   1      31.624  30.113  26.888  1.00  0.00    -0.376 OA
BRANCH  33  34
ATOM     34  C   UNL A   1      31.990  31.480  26.707  1.00  0.00     0.202 C 
BRANCH  34  35
ATOM     35  C   UNL A   1      32.943  32.195  27.683  1.00  0.00     0.261 C 
BRANCH  35  36
ATOM     36  O   UNL A   1      33.201  33.564  27.390  1.00  0.00    -0.460 OA
BRANCH  36  37
ATOM     37  C   UNL A   1      33.283  34.384  28.465  1.00  0.00     0.338 C 
ATOM     38  O   UNL A   1      32.480  35.219  28.825  1.00  0.00    -0.246 OA
BRANCH  37  39
ATOM     39  C   UNL A   1      34.467  33.922  29.222  1.00  0.00     0.060 A 
ATOM     40  C   UNL A   1      35.742  34.228  28.731  1.00  0.00     0.016 A 
ATOM     41  C   UNL A   1      34.318  33.326  30.477  1.00  0.00     0.016 A 
ATOM     42  C   UNL A   1      36.876  33.932  29.486  1.00  0.00     0.010 A 
ATOM     43  C   UNL A   1      35.450  33.017  31.227  1.00  0.00     0.010 A 
ATOM     44  C   UNL A   1      36.733  33.303  30.726  1.00  0.00    -0.014 A 
BRANCH  44  45
ATOM     45  C   UNL A   1      37.911  32.749  31.428  1.00  0.00     0.031 A 
ATOM     46  C   UNL A   1      38.573  31.547  30.824  1.00  0.00     0.074 A 
ATOM     47  C   UNL A   1      38.354  33.272  32.584  1.00  0.00     0.049 A 
ATOM     48  N   UNL A   1      39.499  30.771  31.321  1.00  0.00    -0.248 NA
ATOM     49  C   UNL A   1      38.118  31.164  29.478  1.00  0.00     0.031 C 
ATOM     50  C   UNL A   1      37.829  34.473  33.231  1.00  0.00     0.029 A 
ATOM     51  N   UNL A   1      39.342  32.836  33.431  1.00  0.00    -0.354 N 
ATOM     52  C   UNL A   1      39.715  29.793  30.360  1.00  0.00     0.074 A 
ATOM     53  C   UNL A   1      38.823  30.066  29.256  1.00  0.00     0.031 C 
ATOM     54  C   UNL A   1      38.490  34.667  34.387  1.00  0.00     0.029 A 
ATOM     55  C   UNL A   1      39.445  33.578  34.582  1.00  0.00     0.049 A 
ATOM     56  H   UNL A   1      39.921  32.065  33.232  1.00  0.00     0.167 HD
ATOM     57  C   UNL A   1      40.583  28.756  30.401  1.00  0.00     0.037 A 
ATOM     58  C   UNL A   1      40.199  33.369  35.678  1.00  0.00     0.037 A 
ATOM     59  C   UNL A   1      41.476  28.498  31.496  1.00  0.00     0.049 A 
ATOM     60  C   UNL A   1      41.095  32.155  35.735  1.00  0.00     0.074 A 
ATOM     61  C   UNL A   1      42.417  27.494  31.623  1.00  0.00     0.029 A 
ATOM     62  N   UNL A   1      41.529  29.252  32.659  1.00  0.00    -0.354 N 
ATOM     63  N   UNL A   1      41.308  31.237  34.822  1.00  0.00    -0.248 NA
ATOM     64  C   UNL A   1      41.843  31.939  36.983  1.00  0.00     0.031 C 
ATOM     65  C   UNL A   1      43.006  27.609  32.886  1.00  0.00     0.029 A 
ATOM     66  C   UNL A   1      42.466  28.715  33.524  1.00  0.00     0.049 A 
ATOM     67  H   UNL A   1      40.982  30.049  32.841  1.00  0.00     0.167 HD
ATOM     68  C   UNL A   1      42.231  30.356  35.372  1.00  0.00     0.074 A 
ATOM     69  C   UNL A   1      42.545  30.852  36.696  1.00  0.00     0.031 C 
ATOM     70  C   UNL A   1      42.770  29.235  34.833  1.00  0.00     0.037 A 
BRANCH  57  71
ATOM     71  C   UNL A   1      40.575  27.805  29.244  1.00  0.00     0.064 A 
ATOM     72  C   UNL A   1      39.707  26.705  29.197  1.00  0.00     0.173 A 
ATOM     73  C   UNL A   1      41.440  28.010  28.159  1.00  0.00     0.173 A 
ATOM     74  F   UNL A   1      38.878  26.454  30.222  1.00  0.00    -0.203 F 
ATOM     75  C   UNL A   1      39.718  25.833  28.112  1.00  0.00     0.198 A 
ATOM     76  C   UNL A   1      41.430  27.152  27.064  1.00  0.00     0.198 A 
ATOM     77  F   UNL A   1      42.293  29.046  28.161  1.00  0.00    -0.203 F 
ATOM     78  F   UNL A   1      38.910  24.763  28.106  1.00  0.00    -0.200 F 
ATOM     79  C   UNL A   1      40.573  26.062  27.044  1.00  0.00     0.200 A 
ATOM     80  F   UNL A   1      42.252  27.378  26.031  1.00  0.00    -0.200 F 
ATOM     81  F   UNL A   1      40.577  25.225  25.997  1.00  0.00    -0.200 F 
ENDBRANCH  57  71
BRANCH  58  82
ATOM     82  C   UNL A   1      40.123  34.301  36.835  1.00  0.00     0.064 A 
ATOM     83  C   UNL A   1      40.969  35.414  36.921  1.00  0.00     0.173 A 
ATOM     84  C   UNL A   1      39.235  34.075  37.898  1.00  0.00     0.173 A 
ATOM     85  F   UNL A   1      41.858  35.655  35.946  1.00  0.00    -0.203 F 
ATOM     86  C   UNL A   1      40.947  36.255  38.033  1.00  0.00     0.198 A 
ATOM     87  C   UNL A   1      39.193  34.931  38.997  1.00  0.00     0.198 A 
ATOM     88  F   UNL A   1      38.409  33.019  37.871  1.00  0.00    -0.203 F 
ATOM     89  F   UNL A   1      41.805  37.280  38.113  1.00  0.00    -0.200 F 
ATOM     90  C   UNL A   1      40.055  36.015  39.068  1.00  0.00     0.200 A 
ATOM     91  F   UNL A   1      38.326  34.699  39.992  1.00  0.00    -0.200 F 
ATOM     92  F   UNL A   1      40.036  36.820  40.138  1.00  0.00    -0.200 F 
ENDBRANCH  58  82
BRANCH  70  93
ATOM     93  C   UNL A   1      43.781  28.489  35.652  1.00  0.00     0.064 A 
ATOM     94  C   UNL A   1      45.153  28.760  35.549  1.00  0.00     0.173 A 
ATOM     95  C   UNL A   1      43.365  27.543  36.601  1.00  0.00     0.173 A 
ATOM     96  F   UNL A   1      45.601  29.647  34.648  1.00  0.00    -0.203 F 
ATOM     97  C   UNL A   1      46.073  28.098  36.357  1.00  0.00     0.198 A 
ATOM     98  C   UNL A   1      44.285  26.903  37.425  1.00  0.00     0.198 A 
ATOM     99  F   UNL A   1      42.063  27.256  36.743  1.00  0.00    -0.203 F 
ATOM    100  F   UNL A   1      47.384  28.344  36.217  1.00  0.00    -0.200 F 
ATOM    101  C   UNL A   1      45.638  27.177  37.299  1.00  0.00     0.200 A 
ATOM    102  F   UNL A   1      43.861  26.026  38.346  1.00  0.00    -0.200 F 
ATOM    103  F   UNL A   1      46.525  26.551  38.086  1.00  0.00    -0.200 F 
ENDBRANCH  70  93
ENDBRANCH  44  45
ENDBRANCH  37  39
ENDBRANCH  36  37
ENDBRANCH  35  36
ENDBRANCH  34  35
ENDBRANCH  33  34
ENDBRANCH  32  33
ENDBRANCH   1  32
TORSDOF 23
ENDMDL
