MODEL 1
REMARK VINA RESULT:     -11.1      0.000      0.000
REMARK SMILES O=C(CCCNC(=O)[C@@H]1CCCN(S(=O)(=O)c2ccc(F)cc2)C1)OCCOCCOCCOC(=O)c1ccc(-c2c3nc(c(-c4c(F)c(F)c(F)c(F)c4F)c4ccc([nH]4)c(-c4c(F)c(F)c(F)c(F)c4F)c4nc(c(-c5c(F)c(F)c(F)c(F)c5F)c5ccc2[nH]5)C=C4)C=C3)cc1
REMARK SMILES IDX 27 1 26 2 25 3 2 4 1 5 3 6 4 7 5 8 6 9 7 10 8 12 9 13 10 14
REMARK SMILES IDX 24 15 11 16 13 17 12 18 14 19 15 20 16 21 17 22 18 23 23 24
REMARK SMILES IDX 19 25 22 26 20 27 21 28 28 29 29 30 30 31 31 32 32 33 33 34
REMARK SMILES IDX 34 35 35 36 36 37 37 38 38 39 99 40 39 41 98 42 40 43 41 44
REMARK SMILES IDX 42 45 92 46 43 47 97 48 91 49 93 50 44 51 96 52 90 53 89 54
REMARK SMILES IDX 45 56 77 57 57 58 76 59 58 60 61 61 75 62 94 63 59 64 60 65
REMARK SMILES IDX 74 67 95 68 62 69 46 70 47 71 55 72 48 73 49 74 53 75 56 76
REMARK SMILES IDX 50 77 51 78 54 79 52 80 78 81 79 82 87 83 80 84 81 85 85 86
REMARK SMILES IDX 88 87 82 88 83 89 86 90 84 91 63 92 64 93 72 94 65 95 66 96
REMARK SMILES IDX 70 97 73 98 67 99 68 100 71 101 69 102
REMARK H PARENT 6 11 93 55 61 66
REMARK Flexibility Score: inf
ROOT
ATOM      1  C   UNL A   1      42.168  19.574  26.268  1.00  0.00     0.202 C 
ENDROOT
BRANCH   1   2
ATOM      2  C   UNL A   1      40.661  19.789  26.257  1.00  0.00     0.261 C 
BRANCH   2   3
ATOM      3  O   UNL A   1      40.273  21.158  26.058  1.00  0.00    -0.463 OA
BRANCH   3   4
ATOM      4  C   UNL A   1      38.988  21.508  25.801  1.00  0.00     0.305 C 
ATOM      5  O   UNL A   1      38.527  22.557  26.244  1.00  0.00    -0.252 OA
BRANCH   4   6
ATOM      6  C   UNL A   1      38.072  20.479  25.168  1.00  0.00     0.124 C 
BRANCH   6   7
ATOM      7  C   UNL A   1      36.803  21.013  24.537  1.00  0.00     0.033 C 
BRANCH   7   8
ATOM      8  C   UNL A   1      35.503  20.408  25.054  1.00  0.00     0.116 C 
BRANCH   8   9
ATOM      9  N   UNL A   1      34.862  21.185  26.103  1.00  0.00    -0.356 N 
ATOM     10  C   UNL A   1      33.579  21.566  26.346  1.00  0.00     0.224 C 
ATOM     11  H   UNL A   1      35.494  21.505  26.787  1.00  0.00     0.163 HD
ATOM     12  O   UNL A   1      33.381  22.066  27.461  1.00  0.00    -0.275 OA
BRANCH  10  13
ATOM     13  C   UNL A   1      32.391  21.330  25.402  1.00  0.00     0.093 C 
ATOM     14  C   UNL A   1      32.611  21.201  23.905  1.00  0.00     0.016 C 
ATOM     15  C   UNL A   1      31.350  22.451  25.598  1.00  0.00     0.116 C 
ATOM     16  C   UNL A   1      33.228  22.484  23.373  1.00  0.00     0.018 C 
ATOM     17  N   UNL A   1      31.803  23.761  25.001  1.00  0.00    -0.197 NA
ATOM     18  C   UNL A   1      32.295  23.658  23.595  1.00  0.00     0.102 C 
BRANCH  17  19
ATOM     19  S   UNL A   1      30.592  24.990  25.209  1.00  0.00     0.243 S 
ATOM     20  O   UNL A   1      29.816  25.050  23.979  1.00  0.00    -0.207 OA
ATOM     21  O   UNL A   1      29.947  24.778  26.479  1.00  0.00    -0.207 OA
BRANCH  19  22
ATOM     22  C   UNL A   1      31.534  26.498  25.322  1.00  0.00     0.082 A 
ATOM     23  C   UNL A   1      31.365  27.356  26.417  1.00  0.00     0.025 A 
ATOM     24  C   UNL A   1      32.488  26.786  24.340  1.00  0.00     0.025 A 
ATOM     25  C   UNL A   1      32.078  28.552  26.476  1.00  0.00     0.040 A 
ATOM     26  C   UNL A   1      33.234  27.963  24.430  1.00  0.00     0.040 A 
ATOM     27  C   UNL A   1      33.007  28.843  25.484  1.00  0.00     0.123 A 
ATOM     28  F   UNL A   1      33.706  29.984  25.552  1.00  0.00    -0.207 F 
ENDBRANCH  19  22
ENDBRANCH  17  19
ENDBRANCH  10  13
ENDBRANCH   8   9
ENDBRANCH   7   8
ENDBRANCH   6   7
ENDBRANCH   4   6
ENDBRANCH   3   4
ENDBRANCH   2   3
ENDBRANCH   1   2
BRANCH   1  29
ATOM     29  O   UNL A   1      42.693  19.156  25.018  1.00  0.00    -0.376 OA
BRANCH  29  30
ATOM     30  C   UNL A   1      44.067  18.754  25.001  1.00  0.00     0.188 C 
BRANCH  30  31
ATOM     31  C   UNL A   1      45.111  19.741  24.475  1.00  0.00     0.188 C 
BRANCH  31  32
ATOM     32  O   UNL A   1      45.267  20.980  25.152  1.00  0.00    -0.376 OA
BRANCH  32  33
ATOM     33  C   UNL A   1      44.478  22.094  24.747  1.00  0.00     0.202 C 
BRANCH  33  34
ATOM     34  C   UNL A   1      43.493  22.615  25.793  1.00  0.00     0.261 C 
BRANCH  34  35
ATOM     35  O   UNL A   1      42.778  23.779  25.340  1.00  0.00    -0.460 OA
BRANCH  35  36
ATOM     36  C   UNL A   1      43.471  24.939  25.319  1.00  0.00     0.338 C 
ATOM     37  O   UNL A   1      44.381  25.253  24.572  1.00  0.00    -0.246 OA
BRANCH  36  38
ATOM     38  C   UNL A   1      42.880  25.872  26.295  1.00  0.00     0.060 A 
ATOM     39  C   UNL A   1      43.246  27.224  26.252  1.00  0.00     0.016 A 
ATOM     40  C   UNL A   1      42.028  25.397  27.293  1.00  0.00     0.016 A 
ATOM     41  C   UNL A   1      42.780  28.104  27.231  1.00  0.00     0.010 A 
ATOM     42  C   UNL A   1      41.573  26.275  28.277  1.00  0.00     0.010 A 
ATOM     43  C   UNL A   1      41.965  27.626  28.267  1.00  0.00    -0.014 A 
BRANCH  43  44
ATOM     44  C   UNL A   1      41.575  28.496  29.403  1.00  0.00     0.031 A 
ATOM     45  C   UNL A   1      42.308  28.365  30.709  1.00  0.00     0.074 A 
ATOM     46  C   UNL A   1      40.538  29.344  29.288  1.00  0.00     0.049 A 
ATOM     47  N   UNL A   1      42.022  28.886  31.873  1.00  0.00    -0.248 NA
ATOM     48  C   UNL A   1      43.522  27.530  30.704  1.00  0.00     0.031 C 
ATOM     49  C   UNL A   1      39.777  29.581  28.063  1.00  0.00     0.029 A 
ATOM     50  N   UNL A   1      39.923  30.138  30.226  1.00  0.00    -0.354 N 
ATOM     51  C   UNL A   1      43.006  28.431  32.741  1.00  0.00     0.074 A 
ATOM     52  C   UNL A   1      43.893  27.583  31.977  1.00  0.00     0.031 C 
ATOM     53  C   UNL A   1      38.775  30.433  28.332  1.00  0.00     0.029 A 
ATOM     54  C   UNL A   1      38.794  30.762  29.756  1.00  0.00     0.049 A 
ATOM     55  H   UNL A   1      40.259  30.247  31.145  1.00  0.00     0.167 HD
ATOM     56  C   UNL A   1      43.150  28.704  34.058  1.00  0.00     0.037 A 
ATOM     57  C   UNL A   1      37.856  31.477  30.411  1.00  0.00     0.037 A 
ATOM     58  C   UNL A   1      42.274  29.565  34.807  1.00  0.00     0.049 A 
ATOM     59  C   UNL A   1      38.001  31.704  31.895  1.00  0.00     0.074 A 
ATOM     60  C   UNL A   1      42.371  29.943  36.135  1.00  0.00     0.029 A 
ATOM     61  N   UNL A   1      41.136  30.174  34.298  1.00  0.00    -0.354 N 
ATOM     62  N   UNL A   1      38.954  31.304  32.702  1.00  0.00    -0.248 NA
ATOM     63  C   UNL A   1      36.941  32.475  32.564  1.00  0.00     0.031 C 
ATOM     64  C   UNL A   1      41.261  30.728  36.447  1.00  0.00     0.029 A 
ATOM     65  C   UNL A   1      40.504  30.892  35.298  1.00  0.00     0.049 A 
ATOM     66  H   UNL A   1      40.827  30.105  33.367  1.00  0.00     0.167 HD
ATOM     67  C   UNL A   1      38.621  31.790  33.960  1.00  0.00     0.074 A 
ATOM     68  C   UNL A   1      37.386  32.528  33.812  1.00  0.00     0.031 C 
ATOM     69  C   UNL A   1      39.281  31.635  35.133  1.00  0.00     0.037 A 
BRANCH  56  70
ATOM     70  C   UNL A   1      44.288  28.075  34.805  1.00  0.00     0.064 A 
ATOM     71  C   UNL A   1      44.125  26.817  35.405  1.00  0.00     0.173 A 
ATOM     72  C   UNL A   1      45.475  28.776  35.053  1.00  0.00     0.173 A 
ATOM     73  F   UNL A   1      43.002  26.112  35.203  1.00  0.00    -0.203 F 
ATOM     74  C   UNL A   1      45.097  26.299  36.256  1.00  0.00     0.198 A 
ATOM     75  C   UNL A   1      46.456  28.244  35.887  1.00  0.00     0.198 A 
ATOM     76  F   UNL A   1      45.678  29.980  34.497  1.00  0.00    -0.203 F 
ATOM     77  F   UNL A   1      44.897  25.121  36.862  1.00  0.00    -0.200 F 
ATOM     78  C   UNL A   1      46.259  27.015  36.499  1.00  0.00     0.200 A 
ATOM     79  F   UNL A   1      47.585  28.930  36.112  1.00  0.00    -0.200 F 
ATOM     80  F   UNL A   1      47.187  26.524  37.332  1.00  0.00    -0.200 F 
ENDBRANCH  56  70
BRANCH  57  81
ATOM     81  C   UNL A   1      36.675  31.999  29.673  1.00  0.00     0.064 A 
ATOM     82  C   UNL A   1      35.635  31.147  29.264  1.00  0.00     0.173 A 
ATOM     83  C   UNL A   1      36.560  33.359  29.358  1.00  0.00     0.173 A 
ATOM     84  F   UNL A   1      35.693  29.835  29.536  1.00  0.00    -0.203 F 
ATOM     85  C   UNL A   1      34.540  31.633  28.555  1.00  0.00     0.198 A 
ATOM     86  C   UNL A   1      35.447  33.851  28.678  1.00  0.00     0.198 A 
ATOM     87  F   UNL A   1      37.515  34.218  29.746  1.00  0.00    -0.203 F 
ATOM     88  F   UNL A   1      33.582  30.790  28.144  1.00  0.00    -0.200 F 
ATOM     89  C   UNL A   1      34.442  32.986  28.269  1.00  0.00     0.200 A 
ATOM     90  F   UNL A   1      35.343  35.163  28.428  1.00  0.00    -0.200 F 
ATOM     91  F   UNL A   1      33.380  33.458  27.603  1.00  0.00    -0.200 F 
ENDBRANCH  57  81
BRANCH  69  92
ATOM     92  C   UNL A   1      38.711  32.282  36.360  1.00  0.00     0.064 A 
ATOM     93  C   UNL A   1      39.037  33.610  36.679  1.00  0.00     0.173 A 
ATOM     94  C   UNL A   1      37.954  31.551  37.285  1.00  0.00     0.173 A 
ATOM     95  F   UNL A   1      39.769  34.348  35.830  1.00  0.00    -0.203 F 
ATOM     96  C   UNL A   1      38.653  34.170  37.893  1.00  0.00     0.198 A 
ATOM     97  C   UNL A   1      37.548  32.124  38.487  1.00  0.00     0.198 A 
ATOM     98  F   UNL A   1      37.607  30.282  37.022  1.00  0.00    -0.203 F 
ATOM     99  F   UNL A   1      39.023  35.422  38.200  1.00  0.00    -0.200 F 
ATOM    100  C   UNL A   1      37.910  33.426  38.798  1.00  0.00     0.200 A 
ATOM    101  F   UNL A   1      36.813  31.411  39.353  1.00  0.00    -0.200 F 
ATOM    102  F   UNL A   1      37.548  33.964  39.970  1.00  0.00    -0.200 F 
ENDBRANCH  69  92
ENDBRANCH  43  44
ENDBRANCH  36  38
ENDBRANCH  35  36
ENDBRANCH  34  35
ENDBRANCH  33  34
ENDBRANCH  32  33
ENDBRANCH  31  32
ENDBRANCH  30  31
ENDBRANCH  29  30
ENDBRANCH   1  29
TORSDOF 23
ENDMDL
MODEL 2
REMARK VINA RESULT:     -10.8      5.145      7.977
REMARK SMILES O=C(CCCNC(=O)[C@@H]1CCCN(S(=O)(=O)c2ccc(F)cc2)C1)OCCOCCOCCOC(=O)c1ccc(-c2c3nc(c(-c4c(F)c(F)c(F)c(F)c4F)c4ccc([nH]4)c(-c4c(F)c(F)c(F)c(F)c4F)c4nc(c(-c5c(F)c(F)c(F)c(F)c5F)c5ccc2[nH]5)C=C4)C=C3)cc1
REMARK SMILES IDX 27 1 26 2 25 3 2 4 1 5 3 6 4 7 5 8 6 9 7 10 8 12 9 13 10 14
REMARK SMILES IDX 24 15 11 16 13 17 12 18 14 19 15 20 16 21 17 22 18 23 23 24
REMARK SMILES IDX 19 25 22 26 20 27 21 28 28 29 29 30 30 31 31 32 32 33 33 34
REMARK SMILES IDX 34 35 35 36 36 37 37 38 38 39 99 40 39 41 98 42 40 43 41 44
REMARK SMILES IDX 42 45 92 46 43 47 97 48 91 49 93 50 44 51 96 52 90 53 89 54
REMARK SMILES IDX 45 56 77 57 57 58 76 59 58 60 61 61 75 62 94 63 59 64 60 65
REMARK SMILES IDX 74 67 95 68 62 69 46 70 47 71 55 72 48 73 49 74 53 75 56 76
REMARK SMILES IDX 50 77 51 78 54 79 52 80 78 81 79 82 87 83 80 84 81 85 85 86
REMARK SMILES IDX 88 87 82 88 83 89 86 90 84 91 63 92 64 93 72 94 65 95 66 96
REMARK SMILES IDX 70 97 73 98 67 99 68 100 71 101 69 102
REMARK H PARENT 6 11 93 55 61 66
REMARK Flexibility Score: inf
ROOT
ATOM      1  C   UNL A   1      38.756  23.502  26.498  1.00  0.00     0.202 C 
ENDROOT
BRANCH   1   2
ATOM      2  C   UNL A   1      37.847  22.767  25.523  1.00  0.00     0.261 C 
BRANCH   2   3
ATOM      3  O   UNL A   1      37.746  21.356  25.778  1.00  0.00    -0.463 OA
BRANCH   3   4
ATOM      4  C   UNL A   1      36.708  20.616  25.314  1.00  0.00     0.305 C 
ATOM      5  O   UNL A   1      36.914  19.597  24.659  1.00  0.00    -0.252 OA
BRANCH   4   6
ATOM      6  C   UNL A   1      35.310  21.194  25.408  1.00  0.00     0.124 C 
BRANCH   6   7
ATOM      7  C   UNL A   1      34.188  20.315  24.897  1.00  0.00     0.033 C 
BRANCH   7   8
ATOM      8  C   UNL A   1      32.804  20.618  25.456  1.00  0.00     0.116 C 
BRANCH   8   9
ATOM      9  N   UNL A   1      32.609  22.006  25.843  1.00  0.00    -0.356 N 
ATOM     10  C   UNL A   1      32.023  23.080  25.247  1.00  0.00     0.224 C 
ATOM     11  H   UNL A   1      32.984  22.216  26.729  1.00  0.00     0.163 HD
ATOM     12  O   UNL A   1      31.876  24.070  25.974  1.00  0.00    -0.275 OA
BRANCH  10  13
ATOM     13  C   UNL A   1      31.464  23.102  23.816  1.00  0.00     0.093 C 
ATOM     14  C   UNL A   1      32.191  22.383  22.694  1.00  0.00     0.016 C 
ATOM     15  C   UNL A   1      31.287  24.564  23.358  1.00  0.00     0.116 C 
ATOM     16  C   UNL A   1      33.581  22.974  22.532  1.00  0.00     0.018 C 
ATOM     17  N   UNL A   1      32.606  25.230  23.051  1.00  0.00    -0.197 NA
ATOM     18  C   UNL A   1      33.498  24.439  22.153  1.00  0.00     0.102 C 
BRANCH  17  19
ATOM     19  S   UNL A   1      32.366  26.862  22.506  1.00  0.00     0.243 S 
ATOM     20  O   UNL A   1      33.565  27.261  21.784  1.00  0.00    -0.207 OA
ATOM     21  O   UNL A   1      31.069  26.945  21.885  1.00  0.00    -0.207 OA
BRANCH  19  22
ATOM     22  C   UNL A   1      32.308  27.809  24.014  1.00  0.00     0.082 A 
ATOM     23  C   UNL A   1      33.060  27.410  25.127  1.00  0.00     0.025 A 
ATOM     24  C   UNL A   1      31.557  28.990  24.054  1.00  0.00     0.025 A 
ATOM     25  C   UNL A   1      32.978  28.137  26.314  1.00  0.00     0.040 A 
ATOM     26  C   UNL A   1      31.518  29.739  25.231  1.00  0.00     0.040 A 
ATOM     27  C   UNL A   1      32.210  29.296  26.354  1.00  0.00     0.123 A 
ATOM     28  F   UNL A   1      32.148  30.003  27.490  1.00  0.00    -0.207 F 
ENDBRANCH  19  22
ENDBRANCH  17  19
ENDBRANCH  10  13
ENDBRANCH   8   9
ENDBRANCH   7   8
ENDBRANCH   6   7
ENDBRANCH   4   6
ENDBRANCH   3   4
ENDBRANCH   2   3
ENDBRANCH   1   2
BRANCH   1  29
ATOM     29  O   UNL A   1      39.665  22.654  27.180  1.00  0.00    -0.376 OA
BRANCH  29  30
ATOM     30  C   UNL A   1      40.919  22.406  26.536  1.00  0.00     0.188 C 
BRANCH  30  31
ATOM     31  C   UNL A   1      41.936  21.505  27.238  1.00  0.00     0.188 C 
BRANCH  31  32
ATOM     32  O   UNL A   1      41.535  20.191  27.601  1.00  0.00    -0.376 OA
BRANCH  32  33
ATOM     33  C   UNL A   1      42.334  19.086  27.193  1.00  0.00     0.202 C 
BRANCH  33  34
ATOM     34  C   UNL A   1      42.703  19.056  25.710  1.00  0.00     0.261 C 
BRANCH  34  35
ATOM     35  O   UNL A   1      44.127  19.015  25.500  1.00  0.00    -0.460 OA
BRANCH  35  36
ATOM     36  C   UNL A   1      44.584  19.603  24.372  1.00  0.00     0.338 C 
ATOM     37  O   UNL A   1      44.616  19.138  23.247  1.00  0.00    -0.246 OA
BRANCH  36  38
ATOM     38  C   UNL A   1      44.956  20.997  24.673  1.00  0.00     0.060 A 
ATOM     39  C   UNL A   1      45.460  21.308  25.943  1.00  0.00     0.016 A 
ATOM     40  C   UNL A   1      44.735  22.002  23.730  1.00  0.00     0.016 A 
ATOM     41  C   UNL A   1      45.719  22.637  26.284  1.00  0.00     0.010 A 
ATOM     42  C   UNL A   1      44.983  23.331  24.077  1.00  0.00     0.010 A 
ATOM     43  C   UNL A   1      45.453  23.659  25.361  1.00  0.00    -0.014 A 
BRANCH  43  44
ATOM     44  C   UNL A   1      45.572  25.087  25.739  1.00  0.00     0.031 A 
ATOM     45  C   UNL A   1      46.923  25.744  25.699  1.00  0.00     0.074 A 
ATOM     46  C   UNL A   1      44.497  25.769  26.173  1.00  0.00     0.049 A 
ATOM     47  N   UNL A   1      47.288  26.915  26.153  1.00  0.00    -0.248 NA
ATOM     48  C   UNL A   1      48.011  24.977  25.069  1.00  0.00     0.031 C 
ATOM     49  C   UNL A   1      43.133  25.248  26.221  1.00  0.00     0.029 A 
ATOM     50  N   UNL A   1      44.393  27.038  26.691  1.00  0.00    -0.354 N 
ATOM     51  C   UNL A   1      48.646  27.018  25.882  1.00  0.00     0.074 A 
ATOM     52  C   UNL A   1      49.047  25.790  25.232  1.00  0.00     0.031 C 
ATOM     53  C   UNL A   1      42.333  26.175  26.772  1.00  0.00     0.029 A 
ATOM     54  C   UNL A   1      43.137  27.333  27.161  1.00  0.00     0.049 A 
ATOM     55  H   UNL A   1      45.145  27.673  26.722  1.00  0.00     0.167 HD
ATOM     56  C   UNL A   1      49.476  28.052  26.151  1.00  0.00     0.037 A 
ATOM     57  C   UNL A   1      42.697  28.394  27.868  1.00  0.00     0.037 A 
ATOM     58  C   UNL A   1      49.063  29.278  26.781  1.00  0.00     0.049 A 
ATOM     59  C   UNL A   1      43.661  29.499  28.222  1.00  0.00     0.074 A 
ATOM     60  C   UNL A   1      49.824  30.403  27.048  1.00  0.00     0.029 A 
ATOM     61  N   UNL A   1      47.784  29.536  27.249  1.00  0.00    -0.354 N 
ATOM     62  N   UNL A   1      44.934  29.609  27.927  1.00  0.00    -0.248 NA
ATOM     63  C   UNL A   1      43.134  30.625  29.009  1.00  0.00     0.031 C 
ATOM     64  C   UNL A   1      49.023  31.317  27.733  1.00  0.00     0.029 A 
ATOM     65  C   UNL A   1      47.747  30.788  27.838  1.00  0.00     0.049 A 
ATOM     66  H   UNL A   1      47.019  28.922  27.174  1.00  0.00     0.167 HD
ATOM     67  C   UNL A   1      45.351  30.817  28.471  1.00  0.00     0.074 A 
ATOM     68  C   UNL A   1      44.195  31.415  29.102  1.00  0.00     0.031 C 
ATOM     69  C   UNL A   1      46.584  31.378  28.450  1.00  0.00     0.037 A 
BRANCH  56  70
ATOM     70  C   UNL A   1      50.923  27.929  25.782  1.00  0.00     0.064 A 
ATOM     71  C   UNL A   1      51.326  28.096  24.448  1.00  0.00     0.173 A 
ATOM     72  C   UNL A   1      51.881  27.500  26.711  1.00  0.00     0.173 A 
ATOM     73  F   UNL A   1      50.443  28.497  23.521  1.00  0.00    -0.203 F 
ATOM     74  C   UNL A   1      52.627  27.804  24.051  1.00  0.00     0.198 A 
ATOM     75  C   UNL A   1      53.188  27.232  26.315  1.00  0.00     0.198 A 
ATOM     76  F   UNL A   1      51.545  27.332  27.999  1.00  0.00    -0.203 F 
ATOM     77  F   UNL A   1      52.975  27.917  22.762  1.00  0.00    -0.200 F 
ATOM     78  C   UNL A   1      53.556  27.368  24.984  1.00  0.00     0.200 A 
ATOM     79  F   UNL A   1      54.090  26.822  27.218  1.00  0.00    -0.200 F 
ATOM     80  F   UNL A   1      54.805  27.070  24.599  1.00  0.00    -0.200 F 
ENDBRANCH  56  70
BRANCH  57  81
ATOM     81  C   UNL A   1      41.281  28.445  28.322  1.00  0.00     0.064 A 
ATOM     82  C   UNL A   1      40.268  28.955  27.494  1.00  0.00     0.173 A 
ATOM     83  C   UNL A   1      40.911  27.987  29.593  1.00  0.00     0.173 A 
ATOM     84  F   UNL A   1      40.565  29.410  26.268  1.00  0.00    -0.203 F 
ATOM     85  C   UNL A   1      38.946  29.020  27.926  1.00  0.00     0.198 A 
ATOM     86  C   UNL A   1      39.582  28.021  30.013  1.00  0.00     0.198 A 
ATOM     87  F   UNL A   1      41.837  27.470  30.414  1.00  0.00    -0.203 F 
ATOM     88  F   UNL A   1      38.007  29.548  27.129  1.00  0.00    -0.200 F 
ATOM     89  C   UNL A   1      38.602  28.546  29.183  1.00  0.00     0.200 A 
ATOM     90  F   UNL A   1      39.249  27.537  31.218  1.00  0.00    -0.200 F 
ATOM     91  F   UNL A   1      37.328  28.593  29.594  1.00  0.00    -0.200 F 
ENDBRANCH  57  81
BRANCH  69  92
ATOM     92  C   UNL A   1      46.768  32.715  29.106  1.00  0.00     0.064 A 
ATOM     93  C   UNL A   1      47.080  32.797  30.473  1.00  0.00     0.173 A 
ATOM     94  C   UNL A   1      46.507  33.907  28.418  1.00  0.00     0.173 A 
ATOM     95  F   UNL A   1      47.328  31.682  31.178  1.00  0.00    -0.203 F 
ATOM     96  C   UNL A   1      47.091  34.023  31.132  1.00  0.00     0.198 A 
ATOM     97  C   UNL A   1      46.546  35.134  29.075  1.00  0.00     0.198 A 
ATOM     98  F   UNL A   1      46.216  33.881  27.108  1.00  0.00    -0.203 F 
ATOM     99  F   UNL A   1      47.337  34.072  32.449  1.00  0.00    -0.200 F 
ATOM    100  C   UNL A   1      46.822  35.190  30.433  1.00  0.00     0.200 A 
ATOM    101  F   UNL A   1      46.306  36.264  28.395  1.00  0.00    -0.200 F 
ATOM    102  F   UNL A   1      46.825  36.368  31.070  1.00  0.00    -0.200 F 
ENDBRANCH  69  92
ENDBRANCH  43  44
ENDBRANCH  36  38
ENDBRANCH  35  36
ENDBRANCH  34  35
ENDBRANCH  33  34
ENDBRANCH  32  33
ENDBRANCH  31  32
ENDBRANCH  30  31
ENDBRANCH  29  30
ENDBRANCH   1  29
TORSDOF 23
ENDMDL
MODEL 3
REMARK VINA RESULT:     -10.6      3.745      9.577
REMARK SMILES O=C(CCCNC(=O)[C@@H]1CCCN(S(=O)(=O)c2ccc(F)cc2)C1)OCCOCCOCCOC(=O)c1ccc(-c2c3nc(c(-c4c(F)c(F)c(F)c(F)c4F)c4ccc([nH]4)c(-c4c(F)c(F)c(F)c(F)c4F)c4nc(c(-c5c(F)c(F)c(F)c(F)c5F)c5ccc2[nH]5)C=C4)C=C3)cc1
REMARK SMILES IDX 27 1 26 2 25 3 2 4 1 5 3 6 4 7 5 8 6 9 7 10 8 12 9 13 10 14
REMARK SMILES IDX 24 15 11 16 13 17 12 18 14 19 15 20 16 21 17 22 18 23 23 24
REMARK SMILES IDX 19 25 22 26 20 27 21 28 28 29 29 30 30 31 31 32 32 33 33 34
REMARK SMILES IDX 34 35 35 36 36 37 37 38 38 39 99 40 39 41 98 42 40 43 41 44
REMARK SMILES IDX 42 45 92 46 43 47 97 48 91 49 93 50 44 51 96 52 90 53 89 54
REMARK SMILES IDX 45 56 77 57 57 58 76 59 58 60 61 61 75 62 94 63 59 64 60 65
REMARK SMILES IDX 74 67 95 68 62 69 46 70 47 71 55 72 48 73 49 74 53 75 56 76
REMARK SMILES IDX 50 77 51 78 54 79 52 80 78 81 79 82 87 83 80 84 81 85 85 86
REMARK SMILES IDX 88 87 82 88 83 89 86 90 84 91 63 92 64 93 72 94 65 95 66 96
REMARK SMILES IDX 70 97 73 98 67 99 68 100 71 101 69 102
REMARK H PARENT 6 11 93 55 61 66
REMARK Flexibility Score: inf
ROOT
ATOM      1  C   UNL A   1      35.484  31.066  28.116  1.00  0.00     0.202 C 
ENDROOT
BRANCH   1   2
ATOM      2  C   UNL A   1      34.731  29.886  27.517  1.00  0.00     0.261 C 
BRANCH   2   3
ATOM      3  O   UNL A   1      33.738  30.263  26.549  1.00  0.00    -0.463 OA
BRANCH   3   4
ATOM      4  C   UNL A   1      32.437  29.907  26.681  1.00  0.00     0.305 C 
ATOM      5  O   UNL A   1      31.547  30.748  26.585  1.00  0.00    -0.252 OA
BRANCH   4   6
ATOM      6  C   UNL A   1      32.117  28.512  27.185  1.00  0.00     0.124 C 
BRANCH   6   7
ATOM      7  C   UNL A   1      32.295  27.385  26.188  1.00  0.00     0.033 C 
BRANCH   7   8
ATOM      8  C   UNL A   1      31.538  26.101  26.501  1.00  0.00     0.116 C 
BRANCH   8   9
ATOM      9  N   UNL A   1      30.946  25.461  25.337  1.00  0.00    -0.356 N 
ATOM     10  C   UNL A   1      31.456  24.847  24.235  1.00  0.00     0.224 C 
ATOM     11  H   UNL A   1      29.961  25.474  25.349  1.00  0.00     0.163 HD
ATOM     12  O   UNL A   1      30.629  24.240  23.541  1.00  0.00    -0.275 OA
BRANCH  10  13
ATOM     13  C   UNL A   1      32.946  24.778  23.870  1.00  0.00     0.093 C 
ATOM     14  C   UNL A   1      33.380  24.325  22.488  1.00  0.00     0.016 C 
ATOM     15  C   UNL A   1      33.679  23.871  24.880  1.00  0.00     0.116 C 
ATOM     16  C   UNL A   1      32.898  22.904  22.247  1.00  0.00     0.018 C 
ATOM     17  N   UNL A   1      33.369  22.410  24.665  1.00  0.00    -0.197 NA
ATOM     18  C   UNL A   1      33.517  21.952  23.252  1.00  0.00     0.102 C 
BRANCH  17  19
ATOM     19  S   UNL A   1      34.238  21.418  25.796  1.00  0.00     0.243 S 
ATOM     20  O   UNL A   1      35.655  21.707  25.631  1.00  0.00    -0.207 OA
ATOM     21  O   UNL A   1      33.605  21.541  27.084  1.00  0.00    -0.207 OA
BRANCH  19  22
ATOM     22  C   UNL A   1      33.959  19.759  25.208  1.00  0.00     0.082 A 
ATOM     23  C   UNL A   1      35.030  18.986  24.740  1.00  0.00     0.025 A 
ATOM     24  C   UNL A   1      32.671  19.215  25.277  1.00  0.00     0.025 A 
ATOM     25  C   UNL A   1      34.795  17.704  24.247  1.00  0.00     0.040 A 
ATOM     26  C   UNL A   1      32.451  17.912  24.825  1.00  0.00     0.040 A 
ATOM     27  C   UNL A   1      33.508  17.178  24.296  1.00  0.00     0.123 A 
ATOM     28  F   UNL A   1      33.288  15.939  23.839  1.00  0.00    -0.207 F 
ENDBRANCH  19  22
ENDBRANCH  17  19
ENDBRANCH  10  13
ENDBRANCH   8   9
ENDBRANCH   7   8
ENDBRANCH   6   7
ENDBRANCH   4   6
ENDBRANCH   3   4
ENDBRANCH   2   3
ENDBRANCH   1   2
BRANCH   1  29
ATOM     29  O   UNL A   1      34.639  32.122  28.544  1.00  0.00    -0.376 OA
BRANCH  29  30
ATOM     30  C   UNL A   1      35.229  33.109  29.396  1.00  0.00     0.188 C 
BRANCH  30  31
ATOM     31  C   UNL A   1      35.388  34.534  28.863  1.00  0.00     0.188 C 
BRANCH  31  32
ATOM     32  O   UNL A   1      34.265  35.156  28.256  1.00  0.00    -0.376 OA
BRANCH  32  33
ATOM     33  C   UNL A   1      33.817  36.413  28.752  1.00  0.00     0.202 C 
BRANCH  33  34
ATOM     34  C   UNL A   1      32.536  36.372  29.583  1.00  0.00     0.261 C 
BRANCH  34  35
ATOM     35  O   UNL A   1      32.557  35.322  30.569  1.00  0.00    -0.460 OA
BRANCH  35  36
ATOM     36  C   UNL A   1      32.663  35.713  31.859  1.00  0.00     0.338 C 
ATOM     37  O   UNL A   1      31.911  36.439  32.485  1.00  0.00    -0.246 OA
BRANCH  36  38
ATOM     38  C   UNL A   1      33.805  35.020  32.479  1.00  0.00     0.060 A 
ATOM     39  C   UNL A   1      35.081  35.594  32.389  1.00  0.00     0.016 A 
ATOM     40  C   UNL A   1      33.629  33.773  33.079  1.00  0.00     0.016 A 
ATOM     41  C   UNL A   1      36.193  34.905  32.877  1.00  0.00     0.010 A 
ATOM     42  C   UNL A   1      34.743  33.079  33.556  1.00  0.00     0.010 A 
ATOM     43  C   UNL A   1      36.032  33.629  33.436  1.00  0.00    -0.014 A 
BRANCH  43  44
ATOM     44  C   UNL A   1      37.202  32.806  33.826  1.00  0.00     0.031 A 
ATOM     45  C   UNL A   1      37.921  33.118  35.108  1.00  0.00     0.074 A 
ATOM     46  C   UNL A   1      37.654  31.836  33.012  1.00  0.00     0.049 A 
ATOM     47  N   UNL A   1      39.060  32.654  35.552  1.00  0.00    -0.248 NA
ATOM     48  C   UNL A   1      37.273  34.087  36.009  1.00  0.00     0.031 C 
ATOM     49  C   UNL A   1      37.018  31.422  31.763  1.00  0.00     0.029 A 
ATOM     50  N   UNL A   1      38.776  31.047  33.098  1.00  0.00    -0.354 N 
ATOM     51  C   UNL A   1      39.275  33.285  36.770  1.00  0.00     0.074 A 
ATOM     52  C   UNL A   1      38.156  34.173  36.996  1.00  0.00     0.031 C 
ATOM     53  C   UNL A   1      37.778  30.479  31.181  1.00  0.00     0.029 A 
ATOM     54  C   UNL A   1      38.976  30.261  31.990  1.00  0.00     0.049 A 
ATOM     55  H   UNL A   1      39.377  31.046  33.878  1.00  0.00     0.167 HD
ATOM     56  C   UNL A   1      40.315  33.128  37.620  1.00  0.00     0.037 A 
ATOM     57  C   UNL A   1      40.029  29.492  31.645  1.00  0.00     0.037 A 
ATOM     58  C   UNL A   1      41.415  32.228  37.397  1.00  0.00     0.049 A 
ATOM     59  C   UNL A   1      41.211  29.393  32.577  1.00  0.00     0.074 A 
ATOM     60  C   UNL A   1      42.489  31.963  38.228  1.00  0.00     0.029 A 
ATOM     61  N   UNL A   1      41.586  31.454  36.259  1.00  0.00    -0.354 N 
ATOM     62  N   UNL A   1      41.390  29.960  33.745  1.00  0.00    -0.248 NA
ATOM     63  C   UNL A   1      42.339  28.554  32.144  1.00  0.00     0.031 C 
ATOM     64  C   UNL A   1      43.343  31.078  37.568  1.00  0.00     0.029 A 
ATOM     65  C   UNL A   1      42.770  30.742  36.352  1.00  0.00     0.049 A 
ATOM     66  H   UNL A   1      40.960  31.417  35.501  1.00  0.00     0.167 HD
ATOM     67  C   UNL A   1      42.633  29.533  34.193  1.00  0.00     0.074 A 
ATOM     68  C   UNL A   1      43.162  28.646  33.181  1.00  0.00     0.031 C 
ATOM     69  C   UNL A   1      43.278  29.850  35.342  1.00  0.00     0.037 A 
BRANCH  56  70
ATOM     70  C   UNL A   1      40.345  33.940  38.880  1.00  0.00     0.064 A 
ATOM     71  C   UNL A   1      41.085  35.132  38.932  1.00  0.00     0.173 A 
ATOM     72  C   UNL A   1      39.774  33.466  40.069  1.00  0.00     0.173 A 
ATOM     73  F   UNL A   1      41.657  35.620  37.822  1.00  0.00    -0.203 F 
ATOM     74  C   UNL A   1      41.280  35.801  40.137  1.00  0.00     0.198 A 
ATOM     75  C   UNL A   1      39.952  34.151  41.268  1.00  0.00     0.198 A 
ATOM     76  F   UNL A   1      39.054  32.335  40.068  1.00  0.00    -0.203 F 
ATOM     77  F   UNL A   1      42.036  36.906  40.173  1.00  0.00    -0.200 F 
ATOM     78  C   UNL A   1      40.717  35.308  41.304  1.00  0.00     0.200 A 
ATOM     79  F   UNL A   1      39.397  33.682  42.395  1.00  0.00    -0.200 F 
ATOM     80  F   UNL A   1      40.920  35.943  42.467  1.00  0.00    -0.200 F 
ENDBRANCH  56  70
BRANCH  57  81
ATOM     81  C   UNL A   1      40.029  28.781  30.338  1.00  0.00     0.064 A 
ATOM     82  C   UNL A   1      39.423  27.523  30.192  1.00  0.00     0.173 A 
ATOM     83  C   UNL A   1      40.635  29.344  29.207  1.00  0.00     0.173 A 
ATOM     84  F   UNL A   1      38.830  26.935  31.241  1.00  0.00    -0.203 F 
ATOM     85  C   UNL A   1      39.440  26.849  28.973  1.00  0.00     0.198 A 
ATOM     86  C   UNL A   1      40.622  28.685  27.979  1.00  0.00     0.198 A 
ATOM     87  F   UNL A   1      41.207  30.555  29.288  1.00  0.00    -0.203 F 
ATOM     88  F   UNL A   1      38.889  25.632  28.873  1.00  0.00    -0.200 F 
ATOM     89  C   UNL A   1      40.033  27.435  27.865  1.00  0.00     0.200 A 
ATOM     90  F   UNL A   1      41.173  29.266  26.903  1.00  0.00    -0.200 F 
ATOM     91  F   UNL A   1      40.035  26.795  26.687  1.00  0.00    -0.200 F 
ENDBRANCH  57  81
BRANCH  69  92
ATOM     92  C   UNL A   1      44.621  29.233  35.597  1.00  0.00     0.064 A 
ATOM     93  C   UNL A   1      44.725  28.036  36.324  1.00  0.00     0.173 A 
ATOM     94  C   UNL A   1      45.806  29.891  35.239  1.00  0.00     0.173 A 
ATOM     95  F   UNL A   1      43.619  27.375  36.698  1.00  0.00    -0.203 F 
ATOM     96  C   UNL A   1      45.966  27.539  36.711  1.00  0.00     0.198 A 
ATOM     97  C   UNL A   1      47.046  29.376  35.604  1.00  0.00     0.198 A 
ATOM     98  F   UNL A   1      45.759  31.032  34.534  1.00  0.00    -0.203 F 
ATOM     99  F   UNL A   1      46.039  26.425  37.452  1.00  0.00    -0.200 F 
ATOM    100  C   UNL A   1      47.126  28.210  36.352  1.00  0.00     0.200 A 
ATOM    101  F   UNL A   1      48.168  30.014  35.241  1.00  0.00    -0.200 F 
ATOM    102  F   UNL A   1      48.319  27.735  36.732  1.00  0.00    -0.200 F 
ENDBRANCH  69  92
ENDBRANCH  43  44
ENDBRANCH  36  38
ENDBRANCH  35  36
ENDBRANCH  34  35
ENDBRANCH  33  34
ENDBRANCH  32  33
ENDBRANCH  31  32
ENDBRANCH  30  31
ENDBRANCH  29  30
ENDBRANCH   1  29
TORSDOF 23
ENDMDL
