MODEL 1
REMARK VINA RESULT:     -10.7      0.000      0.000
REMARK SMILES Cc1cccc(C(=O)[C@H](C)[C@@H](C)C(=O)OCCOCCOCCOC(=O)c2ccc(-c3c4nc(c(-c5c(F)c(F)c(F)c(F)c5F)c5ccc([nH]5)c(-c5c(F)c(F)c(F)c(F)c5F)c5nc(c(-c6c(F)c(F)c(F)c(F)c6F)c6ccc3[nH]6)C=C5)C=C4)cc2)c1C
REMARK SMILES IDX 19 1 18 2 17 3 16 4 15 5 13 6 14 7 11 8 12 9 9 10 10 11 7 12
REMARK SMILES IDX 8 13 6 14 1 15 2 16 3 17 90 18 4 19 91 20 5 21 20 22 21 23
REMARK SMILES IDX 22 24 23 25 24 26 25 27 26 28 27 29 28 30 89 31 29 32 88 33
REMARK SMILES IDX 30 34 31 35 32 36 82 37 33 38 87 39 81 40 83 41 34 42 86 43
REMARK SMILES IDX 80 44 79 45 35 47 67 48 47 49 66 50 48 51 51 52 65 53 84 54
REMARK SMILES IDX 49 55 50 56 64 58 85 59 52 60 36 61 37 62 45 63 38 64 39 65
REMARK SMILES IDX 43 66 46 67 40 68 41 69 44 70 42 71 68 72 69 73 77 74 70 75
REMARK SMILES IDX 71 76 75 77 78 78 72 79 73 80 76 81 74 82 53 83 54 84 62 85
REMARK SMILES IDX 55 86 56 87 60 88 63 89 57 90 58 91 61 92 59 93
REMARK H PARENT 83 46 51 57
REMARK Flexibility Score: inf
ROOT
ATOM      1  C   UNL A   1      34.772  33.360  28.063  1.00  0.00     0.188 C 
ENDROOT
BRANCH   1   2
ATOM      2  O   UNL A   1      35.017  31.956  28.010  1.00  0.00    -0.376 OA
BRANCH   2   3
ATOM      3  C   UNL A   1      33.905  31.095  27.778  1.00  0.00     0.202 C 
BRANCH   3   4
ATOM      4  C   UNL A   1      34.162  29.938  26.811  1.00  0.00     0.261 C 
BRANCH   4   5
ATOM      5  O   UNL A   1      33.073  29.706  25.886  1.00  0.00    -0.463 OA
BRANCH   5   6
ATOM      6  C   UNL A   1      32.941  28.436  25.417  1.00  0.00     0.309 C 
ATOM      7  O   UNL A   1      33.768  27.871  24.713  1.00  0.00    -0.252 OA
BRANCH   6   8
ATOM      8  C   UNL A   1      31.570  27.833  25.698  1.00  0.00     0.106 C 
ATOM      9  C   UNL A   1      31.437  27.829  27.225  1.00  0.00     0.021 C 
BRANCH   8  10
ATOM     10  C   UNL A   1      31.292  26.441  25.054  1.00  0.00     0.072 C 
ATOM     11  C   UNL A   1      30.329  25.605  25.906  1.00  0.00     0.017 C 
BRANCH  10  12
ATOM     12  C   UNL A   1      30.628  26.580  23.670  1.00  0.00     0.166 C 
ATOM     13  O   UNL A   1      30.978  25.836  22.754  1.00  0.00    -0.294 OA
BRANCH  12  14
ATOM     14  C   UNL A   1      29.541  27.612  23.417  1.00  0.00     0.021 A 
ATOM     15  C   UNL A   1      28.837  30.857  21.435  1.00  0.00     0.044 C 
ATOM     16  C   UNL A   1      28.681  29.610  22.270  1.00  0.00    -0.047 A 
ATOM     17  C   UNL A   1      27.382  29.254  22.655  1.00  0.00     0.004 A 
ATOM     18  C   UNL A   1      29.784  28.813  22.684  1.00  0.00    -0.037 A 
ATOM     19  C   UNL A   1      27.157  28.127  23.432  1.00  0.00     0.001 A 
ATOM     20  C   UNL A   1      31.189  29.286  22.393  1.00  0.00     0.045 C 
ATOM     21  C   UNL A   1      28.223  27.312  23.803  1.00  0.00     0.012 A 
ENDBRANCH  12  14
ENDBRANCH  10  12
ENDBRANCH   8  10
ENDBRANCH   6   8
ENDBRANCH   5   6
ENDBRANCH   4   5
ENDBRANCH   3   4
ENDBRANCH   2   3
ENDBRANCH   1   2
BRANCH   1  22
ATOM     22  C   UNL A   1      33.303  33.782  28.023  1.00  0.00     0.188 C 
BRANCH  22  23
ATOM     23  O   UNL A   1      32.895  34.710  29.026  1.00  0.00    -0.376 OA
BRANCH  23  24
ATOM     24  C   UNL A   1      33.218  36.077  28.776  1.00  0.00     0.202 C 
BRANCH  24  25
ATOM     25  C   UNL A   1      33.109  36.951  30.021  1.00  0.00     0.261 C 
BRANCH  25  26
ATOM     26  O   UNL A   1      32.269  36.313  31.000  1.00  0.00    -0.460 OA
BRANCH  26  27
ATOM     27  C   UNL A   1      32.766  36.349  32.252  1.00  0.00     0.338 C 
ATOM     28  O   UNL A   1      32.495  37.144  33.142  1.00  0.00    -0.246 OA
BRANCH  27  29
ATOM     29  C   UNL A   1      33.772  35.299  32.428  1.00  0.00     0.060 A 
ATOM     30  C   UNL A   1      33.402  34.016  32.841  1.00  0.00     0.016 A 
ATOM     31  C   UNL A   1      35.112  35.668  32.357  1.00  0.00     0.016 A 
ATOM     32  C   UNL A   1      34.379  33.119  33.278  1.00  0.00     0.010 A 
ATOM     33  C   UNL A   1      36.088  34.757  32.747  1.00  0.00     0.010 A 
ATOM     34  C   UNL A   1      35.727  33.496  33.251  1.00  0.00    -0.014 A 
BRANCH  34  35
ATOM     35  C   UNL A   1      36.804  32.624  33.771  1.00  0.00     0.031 A 
ATOM     36  C   UNL A   1      37.425  32.940  35.099  1.00  0.00     0.074 A 
ATOM     37  C   UNL A   1      37.301  31.651  32.991  1.00  0.00     0.049 A 
ATOM     38  N   UNL A   1      38.574  32.558  35.592  1.00  0.00    -0.248 NA
ATOM     39  C   UNL A   1      36.651  33.825  35.984  1.00  0.00     0.031 C 
ATOM     40  C   UNL A   1      36.744  31.232  31.706  1.00  0.00     0.029 A 
ATOM     41  N   UNL A   1      38.423  30.878  33.145  1.00  0.00    -0.354 N 
ATOM     42  C   UNL A   1      38.683  33.188  36.825  1.00  0.00     0.074 A 
ATOM     43  C   UNL A   1      37.480  33.973  37.009  1.00  0.00     0.031 C 
ATOM     44  C   UNL A   1      37.551  30.308  31.163  1.00  0.00     0.029 A 
ATOM     45  C   UNL A   1      38.708  30.122  32.034  1.00  0.00     0.049 A 
ATOM     46  H   UNL A   1      38.967  30.866  33.965  1.00  0.00     0.167 HD
ATOM     47  C   UNL A   1      39.707  33.121  37.709  1.00  0.00     0.037 A 
ATOM     48  C   UNL A   1      39.809  29.414  31.727  1.00  0.00     0.037 A 
ATOM     49  C   UNL A   1      40.888  32.321  37.506  1.00  0.00     0.049 A 
ATOM     50  C   UNL A   1      40.952  29.385  32.702  1.00  0.00     0.074 A 
ATOM     51  C   UNL A   1      41.983  32.163  38.338  1.00  0.00     0.029 A 
ATOM     52  N   UNL A   1      41.122  31.538  36.383  1.00  0.00    -0.354 N 
ATOM     53  N   UNL A   1      41.073  30.003  33.852  1.00  0.00    -0.248 NA
ATOM     54  C   UNL A   1      42.113  28.565  32.334  1.00  0.00     0.031 C 
ATOM     55  C   UNL A   1      42.894  31.311  37.701  1.00  0.00     0.029 A 
ATOM     56  C   UNL A   1      42.349  30.904  36.495  1.00  0.00     0.049 A 
ATOM     57  H   UNL A   1      40.507  31.447  35.621  1.00  0.00     0.167 HD
ATOM     58  C   UNL A   1      42.311  29.634  34.356  1.00  0.00     0.074 A 
ATOM     59  C   UNL A   1      42.900  28.730  33.389  1.00  0.00     0.031 C 
ATOM     60  C   UNL A   1      42.906  30.006  35.516  1.00  0.00     0.037 A 
BRANCH  47  61
ATOM     61  C   UNL A   1      39.616  33.956  38.952  1.00  0.00     0.064 A 
ATOM     62  C   UNL A   1      40.162  35.245  39.021  1.00  0.00     0.173 A 
ATOM     63  C   UNL A   1      38.936  33.472  40.082  1.00  0.00     0.173 A 
ATOM     64  F   UNL A   1      40.832  35.751  37.974  1.00  0.00    -0.203 F 
ATOM     65  C   UNL A   1      40.049  36.011  40.179  1.00  0.00     0.198 A 
ATOM     66  C   UNL A   1      38.804  34.249  41.230  1.00  0.00     0.198 A 
ATOM     67  F   UNL A   1      38.391  32.246  40.069  1.00  0.00    -0.203 F 
ATOM     68  F   UNL A   1      40.612  37.227  40.235  1.00  0.00    -0.200 F 
ATOM     69  C   UNL A   1      39.366  35.516  41.280  1.00  0.00     0.200 A 
ATOM     70  F   UNL A   1      38.134  33.772  42.288  1.00  0.00    -0.200 F 
ATOM     71  F   UNL A   1      39.253  36.257  42.391  1.00  0.00    -0.200 F 
ENDBRANCH  47  61
BRANCH  48  72
ATOM     72  C   UNL A   1      39.881  28.709  30.424  1.00  0.00     0.064 A 
ATOM     73  C   UNL A   1      39.357  27.418  30.279  1.00  0.00     0.173 A 
ATOM     74  C   UNL A   1      40.427  29.326  29.289  1.00  0.00     0.173 A 
ATOM     75  F   UNL A   1      38.845  26.781  31.342  1.00  0.00    -0.203 F 
ATOM     76  C   UNL A   1      39.377  26.770  29.046  1.00  0.00     0.198 A 
ATOM     77  C   UNL A   1      40.425  28.687  28.052  1.00  0.00     0.198 A 
ATOM     78  F   UNL A   1      40.940  30.563  29.377  1.00  0.00    -0.203 F 
ATOM     79  F   UNL A   1      38.893  25.525  28.940  1.00  0.00    -0.200 F 
ATOM     80  C   UNL A   1      39.902  27.408  27.932  1.00  0.00     0.200 A 
ATOM     81  F   UNL A   1      40.921  29.311  26.975  1.00  0.00    -0.200 F 
ATOM     82  F   UNL A   1      39.907  26.789  26.744  1.00  0.00    -0.200 F 
ENDBRANCH  48  72
BRANCH  60  83
ATOM     83  C   UNL A   1      44.243  29.400  35.814  1.00  0.00     0.064 A 
ATOM     84  C   UNL A   1      45.436  30.025  35.424  1.00  0.00     0.173 A 
ATOM     85  C   UNL A   1      44.330  28.193  36.523  1.00  0.00     0.173 A 
ATOM     86  F   UNL A   1      45.401  31.172  34.729  1.00  0.00    -0.203 F 
ATOM     87  C   UNL A   1      46.670  29.452  35.716  1.00  0.00     0.198 A 
ATOM     88  C   UNL A   1      45.566  27.634  36.833  1.00  0.00     0.198 A 
ATOM     89  F   UNL A   1      43.215  27.561  36.921  1.00  0.00    -0.203 F 
ATOM     90  F   UNL A   1      47.797  30.043  35.299  1.00  0.00    -0.200 F 
ATOM     91  C   UNL A   1      46.734  28.260  36.425  1.00  0.00     0.200 A 
ATOM     92  F   UNL A   1      45.626  26.487  37.525  1.00  0.00    -0.200 F 
ATOM     93  F   UNL A   1      47.922  27.710  36.706  1.00  0.00    -0.200 F 
ENDBRANCH  60  83
ENDBRANCH  34  35
ENDBRANCH  27  29
ENDBRANCH  26  27
ENDBRANCH  25  26
ENDBRANCH  24  25
ENDBRANCH  23  24
ENDBRANCH  22  23
ENDBRANCH   1  22
TORSDOF 20
ENDMDL
MODEL 2
REMARK VINA RESULT:     -10.5      1.601      3.377
REMARK SMILES Cc1cccc(C(=O)[C@H](C)[C@@H](C)C(=O)OCCOCCOCCOC(=O)c2ccc(-c3c4nc(c(-c5c(F)c(F)c(F)c(F)c5F)c5ccc([nH]5)c(-c5c(F)c(F)c(F)c(F)c5F)c5nc(c(-c6c(F)c(F)c(F)c(F)c6F)c6ccc3[nH]6)C=C5)C=C4)cc2)c1C
REMARK SMILES IDX 19 1 18 2 17 3 16 4 15 5 13 6 14 7 11 8 12 9 9 10 10 11 7 12
REMARK SMILES IDX 8 13 6 14 1 15 2 16 3 17 90 18 4 19 91 20 5 21 20 22 21 23
REMARK SMILES IDX 22 24 23 25 24 26 25 27 26 28 27 29 28 30 89 31 29 32 88 33
REMARK SMILES IDX 30 34 31 35 32 36 82 37 33 38 87 39 81 40 83 41 34 42 86 43
REMARK SMILES IDX 80 44 79 45 35 47 67 48 47 49 66 50 48 51 51 52 65 53 84 54
REMARK SMILES IDX 49 55 50 56 64 58 85 59 52 60 36 61 37 62 45 63 38 64 39 65
REMARK SMILES IDX 43 66 46 67 40 68 41 69 44 70 42 71 68 72 69 73 77 74 70 75
REMARK SMILES IDX 71 76 75 77 78 78 72 79 73 80 76 81 74 82 53 83 54 84 62 85
REMARK SMILES IDX 55 86 56 87 60 88 63 89 57 90 58 91 61 92 59 93
REMARK H PARENT 83 46 51 57
REMARK Flexibility Score: inf
ROOT
ATOM      1  C   UNL A   1      34.294  33.150  28.634  1.00  0.00     0.188 C 
ENDROOT
BRANCH   1   2
ATOM      2  O   UNL A   1      34.405  31.735  28.783  1.00  0.00    -0.376 OA
BRANCH   2   3
ATOM      3  C   UNL A   1      34.732  30.968  27.626  1.00  0.00     0.202 C 
BRANCH   3   4
ATOM      4  C   UNL A   1      33.697  29.915  27.225  1.00  0.00     0.261 C 
BRANCH   4   5
ATOM      5  O   UNL A   1      34.099  29.116  26.087  1.00  0.00    -0.463 OA
BRANCH   5   6
ATOM      6  C   UNL A   1      33.159  28.924  25.123  1.00  0.00     0.309 C 
ATOM      7  O   UNL A   1      31.997  29.303  25.206  1.00  0.00    -0.252 OA
BRANCH   6   8
ATOM      8  C   UNL A   1      33.636  28.024  23.991  1.00  0.00     0.106 C 
ATOM      9  C   UNL A   1      33.777  28.946  22.774  1.00  0.00     0.021 C 
BRANCH   8  10
ATOM     10  C   UNL A   1      32.766  26.762  23.707  1.00  0.00     0.072 C 
ATOM     11  C   UNL A   1      31.694  27.040  22.648  1.00  0.00     0.017 C 
BRANCH  10  12
ATOM     12  C   UNL A   1      33.616  25.598  23.162  1.00  0.00     0.166 C 
ATOM     13  O   UNL A   1      34.028  25.640  22.004  1.00  0.00    -0.294 OA
BRANCH  12  14
ATOM     14  C   UNL A   1      33.965  24.402  24.034  1.00  0.00     0.021 A 
ATOM     15  C   UNL A   1      33.247  20.623  24.432  1.00  0.00     0.044 C 
ATOM     16  C   UNL A   1      33.839  22.005  24.566  1.00  0.00    -0.047 A 
ATOM     17  C   UNL A   1      34.955  22.147  25.401  1.00  0.00     0.004 A 
ATOM     18  C   UNL A   1      33.303  23.144  23.904  1.00  0.00    -0.037 A 
ATOM     19  C   UNL A   1      35.549  23.386  25.585  1.00  0.00     0.001 A 
ATOM     20  C   UNL A   1      32.013  23.010  23.128  1.00  0.00     0.045 C 
ATOM     21  C   UNL A   1      35.065  24.500  24.904  1.00  0.00     0.012 A 
ENDBRANCH  12  14
ENDBRANCH  10  12
ENDBRANCH   8  10
ENDBRANCH   6   8
ENDBRANCH   5   6
ENDBRANCH   4   5
ENDBRANCH   3   4
ENDBRANCH   2   3
ENDBRANCH   1   2
BRANCH   1  22
ATOM     22  C   UNL A   1      32.986  33.654  28.024  1.00  0.00     0.188 C 
BRANCH  22  23
ATOM     23  O   UNL A   1      32.549  34.939  28.462  1.00  0.00    -0.376 OA
BRANCH  23  24
ATOM     24  C   UNL A   1      33.521  35.724  29.152  1.00  0.00     0.202 C 
BRANCH  24  25
ATOM     25  C   UNL A   1      32.901  36.824  30.006  1.00  0.00     0.261 C 
BRANCH  25  26
ATOM     26  O   UNL A   1      32.176  36.245  31.106  1.00  0.00    -0.460 OA
BRANCH  26  27
ATOM     27  C   UNL A   1      32.808  36.349  32.292  1.00  0.00     0.338 C 
ATOM     28  O   UNL A   1      32.649  37.204  33.151  1.00  0.00    -0.246 OA
BRANCH  27  29
ATOM     29  C   UNL A   1      33.811  35.290  32.425  1.00  0.00     0.060 A 
ATOM     30  C   UNL A   1      33.438  33.993  32.789  1.00  0.00     0.016 A 
ATOM     31  C   UNL A   1      35.152  35.657  32.365  1.00  0.00     0.016 A 
ATOM     32  C   UNL A   1      34.412  33.077  33.189  1.00  0.00     0.010 A 
ATOM     33  C   UNL A   1      36.126  34.729  32.719  1.00  0.00     0.010 A 
ATOM     34  C   UNL A   1      35.762  33.450  33.174  1.00  0.00    -0.014 A 
BRANCH  34  35
ATOM     35  C   UNL A   1      36.837  32.556  33.657  1.00  0.00     0.031 A 
ATOM     36  C   UNL A   1      37.495  32.846  34.974  1.00  0.00     0.074 A 
ATOM     37  C   UNL A   1      37.301  31.585  32.855  1.00  0.00     0.049 A 
ATOM     38  N   UNL A   1      38.649  32.440  35.435  1.00  0.00    -0.248 NA
ATOM     39  C   UNL A   1      36.756  33.732  35.888  1.00  0.00     0.031 C 
ATOM     40  C   UNL A   1      36.707  31.190  31.579  1.00  0.00     0.029 A 
ATOM     41  N   UNL A   1      38.413  30.792  32.973  1.00  0.00    -0.354 N 
ATOM     42  C   UNL A   1      38.797  33.054  36.673  1.00  0.00     0.074 A 
ATOM     43  C   UNL A   1      37.611  33.855  36.894  1.00  0.00     0.031 C 
ATOM     44  C   UNL A   1      37.486  30.260  31.006  1.00  0.00     0.029 A 
ATOM     45  C   UNL A   1      38.660  30.046  31.847  1.00  0.00     0.049 A 
ATOM     46  H   UNL A   1      38.977  30.762  33.779  1.00  0.00     0.167 HD
ATOM     47  C   UNL A   1      39.840  32.960  37.531  1.00  0.00     0.037 A 
ATOM     48  C   UNL A   1      39.742  29.325  31.506  1.00  0.00     0.037 A 
ATOM     49  C   UNL A   1      41.004  32.145  37.291  1.00  0.00     0.049 A 
ATOM     50  C   UNL A   1      40.908  29.266  32.453  1.00  0.00     0.074 A 
ATOM     51  C   UNL A   1      42.115  31.960  38.094  1.00  0.00     0.029 A 
ATOM     52  N   UNL A   1      41.198  31.372  36.153  1.00  0.00    -0.354 N 
ATOM     53  N   UNL A   1      41.065  29.869  33.606  1.00  0.00    -0.248 NA
ATOM     54  C   UNL A   1      42.046  28.433  32.047  1.00  0.00     0.031 C 
ATOM     55  C   UNL A   1      42.998  31.102  37.426  1.00  0.00     0.029 A 
ATOM     56  C   UNL A   1      42.417  30.718  36.228  1.00  0.00     0.049 A 
ATOM     57  H   UNL A   1      40.564  31.300  35.405  1.00  0.00     0.167 HD
ATOM     58  C   UNL A   1      42.309  29.474  34.077  1.00  0.00     0.074 A 
ATOM     59  C   UNL A   1      42.861  28.574  33.085  1.00  0.00     0.031 C 
ATOM     60  C   UNL A   1      42.937  29.823  35.226  1.00  0.00     0.037 A 
BRANCH  47  61
ATOM     61  C   UNL A   1      39.791  33.782  38.785  1.00  0.00     0.064 A 
ATOM     62  C   UNL A   1      39.153  33.325  39.947  1.00  0.00     0.173 A 
ATOM     63  C   UNL A   1      40.428  35.033  38.837  1.00  0.00     0.173 A 
ATOM     64  F   UNL A   1      38.520  32.142  39.948  1.00  0.00    -0.203 F 
ATOM     65  C   UNL A   1      39.136  34.097  41.107  1.00  0.00     0.198 A 
ATOM     66  C   UNL A   1      40.429  35.791  40.005  1.00  0.00     0.198 A 
ATOM     67  F   UNL A   1      41.056  35.517  37.755  1.00  0.00    -0.203 F 
ATOM     68  F   UNL A   1      38.487  33.655  42.194  1.00  0.00    -0.200 F 
ATOM     69  C   UNL A   1      39.779  35.325  41.138  1.00  0.00     0.200 A 
ATOM     70  F   UNL A   1      41.060  36.974  40.035  1.00  0.00    -0.200 F 
ATOM     71  F   UNL A   1      39.766  36.063  42.257  1.00  0.00    -0.200 F 
ENDBRANCH  47  61
BRANCH  48  72
ATOM     72  C   UNL A   1      39.772  28.634  30.193  1.00  0.00     0.064 A 
ATOM     73  C   UNL A   1      40.353  29.246  29.075  1.00  0.00     0.173 A 
ATOM     74  C   UNL A   1      39.267  27.334  30.041  1.00  0.00     0.173 A 
ATOM     75  F   UNL A   1      40.828  30.497  29.169  1.00  0.00    -0.203 F 
ATOM     76  C   UNL A   1      40.427  28.583  27.852  1.00  0.00     0.198 A 
ATOM     77  C   UNL A   1      39.364  26.663  28.824  1.00  0.00     0.198 A 
ATOM     78  F   UNL A   1      38.703  26.705  31.083  1.00  0.00    -0.203 F 
ATOM     79  F   UNL A   1      40.965  29.201  26.791  1.00  0.00    -0.200 F 
ATOM     80  C   UNL A   1      39.942  27.290  27.730  1.00  0.00     0.200 A 
ATOM     81  F   UNL A   1      38.906  25.409  28.713  1.00  0.00    -0.200 F 
ATOM     82  F   UNL A   1      40.028  26.648  26.557  1.00  0.00    -0.200 F 
ENDBRANCH  48  72
BRANCH  60  83
ATOM     83  C   UNL A   1      44.271  29.193  35.485  1.00  0.00     0.064 A 
ATOM     84  C   UNL A   1      44.388  27.970  36.161  1.00  0.00     0.173 A 
ATOM     85  C   UNL A   1      45.444  29.810  35.025  1.00  0.00     0.173 A 
ATOM     86  F   UNL A   1      43.294  27.354  36.633  1.00  0.00    -0.203 F 
ATOM     87  C   UNL A   1      45.635  27.397  36.386  1.00  0.00     0.198 A 
ATOM     88  C   UNL A   1      46.689  29.221  35.232  1.00  0.00     0.198 A 
ATOM     89  F   UNL A   1      45.382  30.979  34.369  1.00  0.00    -0.203 F 
ATOM     90  F   UNL A   1      45.729  26.249  37.070  1.00  0.00    -0.200 F 
ATOM     91  C   UNL A   1      46.783  28.019  35.917  1.00  0.00     0.200 A 
ATOM     92  F   UNL A   1      47.795  29.820  34.771  1.00  0.00    -0.200 F 
ATOM     93  F   UNL A   1      47.984  27.465  36.134  1.00  0.00    -0.200 F 
ENDBRANCH  60  83
ENDBRANCH  34  35
ENDBRANCH  27  29
ENDBRANCH  26  27
ENDBRANCH  25  26
ENDBRANCH  24  25
ENDBRANCH  23  24
ENDBRANCH  22  23
ENDBRANCH   1  22
TORSDOF 20
ENDMDL
MODEL 3
REMARK VINA RESULT:     -10.3      7.491     12.876
REMARK SMILES Cc1cccc(C(=O)[C@H](C)[C@@H](C)C(=O)OCCOCCOCCOC(=O)c2ccc(-c3c4nc(c(-c5c(F)c(F)c(F)c(F)c5F)c5ccc([nH]5)c(-c5c(F)c(F)c(F)c(F)c5F)c5nc(c(-c6c(F)c(F)c(F)c(F)c6F)c6ccc3[nH]6)C=C5)C=C4)cc2)c1C
REMARK SMILES IDX 19 1 18 2 17 3 16 4 15 5 13 6 14 7 11 8 12 9 9 10 10 11 7 12
REMARK SMILES IDX 8 13 6 14 1 15 2 16 3 17 90 18 4 19 91 20 5 21 20 22 21 23
REMARK SMILES IDX 22 24 23 25 24 26 25 27 26 28 27 29 28 30 89 31 29 32 88 33
REMARK SMILES IDX 30 34 31 35 32 36 82 37 33 38 87 39 81 40 83 41 34 42 86 43
REMARK SMILES IDX 80 44 79 45 35 47 67 48 47 49 66 50 48 51 51 52 65 53 84 54
REMARK SMILES IDX 49 55 50 56 64 58 85 59 52 60 36 61 37 62 45 63 38 64 39 65
REMARK SMILES IDX 43 66 46 67 40 68 41 69 44 70 42 71 68 72 69 73 77 74 70 75
REMARK SMILES IDX 71 76 75 77 78 78 72 79 73 80 76 81 74 82 53 83 54 84 62 85
REMARK SMILES IDX 55 86 56 87 60 88 63 89 57 90 58 91 61 92 59 93
REMARK H PARENT 83 46 51 57
REMARK Flexibility Score: inf
ROOT
ATOM      1  C   UNL A   1      40.837  22.027  26.404  1.00  0.00     0.188 C 
ENDROOT
BRANCH   1   2
ATOM      2  O   UNL A   1      39.507  22.502  26.200  1.00  0.00    -0.376 OA
BRANCH   2   3
ATOM      3  C   UNL A   1      38.535  21.575  25.722  1.00  0.00     0.202 C 
BRANCH   3   4
ATOM      4  C   UNL A   1      37.324  22.198  25.026  1.00  0.00     0.261 C 
BRANCH   4   5
ATOM      5  O   UNL A   1      36.091  22.049  25.770  1.00  0.00    -0.463 OA
BRANCH   5   6
ATOM      6  C   UNL A   1      35.125  21.287  25.190  1.00  0.00     0.309 C 
ATOM      7  O   UNL A   1      35.261  20.106  24.894  1.00  0.00    -0.252 OA
BRANCH   6   8
ATOM      8  C   UNL A   1      33.900  22.089  24.770  1.00  0.00     0.106 C 
ATOM      9  C   UNL A   1      32.710  21.385  25.431  1.00  0.00     0.021 C 
BRANCH   8  10
ATOM     10  C   UNL A   1      33.715  22.300  23.237  1.00  0.00     0.072 C 
ATOM     11  C   UNL A   1      32.490  21.547  22.705  1.00  0.00     0.017 C 
BRANCH  10  12
ATOM     12  C   UNL A   1      33.488  23.785  22.892  1.00  0.00     0.166 C 
ATOM     13  O   UNL A   1      33.667  24.173  21.738  1.00  0.00    -0.294 OA
BRANCH  12  14
ATOM     14  C   UNL A   1      33.033  24.779  23.950  1.00  0.00     0.021 A 
ATOM     15  C   UNL A   1      29.920  25.831  25.989  1.00  0.00     0.044 C 
ATOM     16  C   UNL A   1      31.333  25.680  25.480  1.00  0.00    -0.047 A 
ATOM     17  C   UNL A   1      32.344  26.341  26.190  1.00  0.00     0.004 A 
ATOM     18  C   UNL A   1      31.662  24.923  24.322  1.00  0.00    -0.037 A 
ATOM     19  C   UNL A   1      33.667  26.261  25.780  1.00  0.00     0.001 A 
ATOM     20  C   UNL A   1      30.553  24.340  23.478  1.00  0.00     0.045 C 
ATOM     21  C   UNL A   1      34.008  25.483  24.677  1.00  0.00     0.012 A 
ENDBRANCH  12  14
ENDBRANCH  10  12
ENDBRANCH   8  10
ENDBRANCH   6   8
ENDBRANCH   5   6
ENDBRANCH   4   5
ENDBRANCH   3   4
ENDBRANCH   2   3
ENDBRANCH   1   2
BRANCH   1  22
ATOM     22  C   UNL A   1      41.041  21.123  27.620  1.00  0.00     0.188 C 
BRANCH  22  23
ATOM     23  O   UNL A   1      41.901  20.002  27.425  1.00  0.00    -0.376 OA
BRANCH  23  24
ATOM     24  C   UNL A   1      41.918  19.453  26.109  1.00  0.00     0.202 C 
BRANCH  24  25
ATOM     25  C   UNL A   1      42.963  18.357  25.933  1.00  0.00     0.261 C 
BRANCH  25  26
ATOM     26  O   UNL A   1      44.269  18.942  25.774  1.00  0.00    -0.460 OA
BRANCH  26  27
ATOM     27  C   UNL A   1      44.442  19.581  24.600  1.00  0.00     0.338 C 
ATOM     28  O   UNL A   1      44.284  19.131  23.474  1.00  0.00    -0.246 OA
BRANCH  27  29
ATOM     29  C   UNL A   1      44.925  20.944  24.832  1.00  0.00     0.060 A 
ATOM     30  C   UNL A   1      45.333  21.351  26.105  1.00  0.00     0.016 A 
ATOM     31  C   UNL A   1      44.784  21.865  23.799  1.00  0.00     0.016 A 
ATOM     32  C   UNL A   1      45.514  22.708  26.375  1.00  0.00     0.010 A 
ATOM     33  C   UNL A   1      45.011  23.213  24.056  1.00  0.00     0.010 A 
ATOM     34  C   UNL A   1      45.333  23.648  25.353  1.00  0.00    -0.014 A 
BRANCH  34  35
ATOM     35  C   UNL A   1      45.433  25.106  25.589  1.00  0.00     0.031 A 
ATOM     36  C   UNL A   1      46.774  25.771  25.499  1.00  0.00     0.074 A 
ATOM     37  C   UNL A   1      44.354  25.783  26.011  1.00  0.00     0.049 A 
ATOM     38  N   UNL A   1      47.168  26.918  25.987  1.00  0.00    -0.248 NA
ATOM     39  C   UNL A   1      47.821  25.029  24.777  1.00  0.00     0.031 C 
ATOM     40  C   UNL A   1      42.997  25.246  26.089  1.00  0.00     0.029 A 
ATOM     41  N   UNL A   1      44.245  27.057  26.506  1.00  0.00    -0.354 N 
ATOM     42  C   UNL A   1      48.517  27.020  25.669  1.00  0.00     0.074 A 
ATOM     43  C   UNL A   1      48.873  25.820  24.942  1.00  0.00     0.031 C 
ATOM     44  C   UNL A   1      42.195  26.167  26.645  1.00  0.00     0.029 A 
ATOM     45  C   UNL A   1      42.999  27.327  27.017  1.00  0.00     0.049 A 
ATOM     46  H   UNL A   1      44.982  27.710  26.498  1.00  0.00     0.167 HD
ATOM     47  C   UNL A   1      49.373  28.023  25.977  1.00  0.00     0.037 A 
ATOM     48  C   UNL A   1      42.574  28.365  27.758  1.00  0.00     0.037 A 
ATOM     49  C   UNL A   1      48.989  29.213  26.693  1.00  0.00     0.049 A 
ATOM     50  C   UNL A   1      43.549  29.448  28.125  1.00  0.00     0.074 A 
ATOM     51  C   UNL A   1      49.765  30.301  27.048  1.00  0.00     0.029 A 
ATOM     52  N   UNL A   1      47.706  29.466  27.160  1.00  0.00    -0.354 N 
ATOM     53  N   UNL A   1      44.828  29.533  27.855  1.00  0.00    -0.248 NA
ATOM     54  C   UNL A   1      43.021  30.576  28.902  1.00  0.00     0.031 C 
ATOM     55  C   UNL A   1      48.959  31.198  27.759  1.00  0.00     0.029 A 
ATOM     56  C   UNL A   1      47.672  30.689  27.810  1.00  0.00     0.049 A 
ATOM     57  H   UNL A   1      46.934  28.866  27.046  1.00  0.00     0.167 HD
ATOM     58  C   UNL A   1      45.258  30.729  28.410  1.00  0.00     0.074 A 
ATOM     59  C   UNL A   1      44.098  31.341  29.026  1.00  0.00     0.031 C 
ATOM     60  C   UNL A   1      46.499  31.274  28.409  1.00  0.00     0.037 A 
BRANCH  47  61
ATOM     61  C   UNL A   1      50.811  27.864  25.577  1.00  0.00     0.064 A 
ATOM     62  C   UNL A   1      51.256  28.154  24.280  1.00  0.00     0.173 A 
ATOM     63  C   UNL A   1      51.766  27.450  26.520  1.00  0.00     0.173 A 
ATOM     64  F   UNL A   1      50.383  28.541  23.338  1.00  0.00    -0.203 F 
ATOM     65  C   UNL A   1      52.599  28.017  23.935  1.00  0.00     0.198 A 
ATOM     66  C   UNL A   1      53.111  27.337  26.178  1.00  0.00     0.198 A 
ATOM     67  F   UNL A   1      51.395  27.162  27.777  1.00  0.00    -0.203 F 
ATOM     68  F   UNL A   1      52.995  28.264  22.678  1.00  0.00    -0.200 F 
ATOM     69  C   UNL A   1      53.526  27.615  24.885  1.00  0.00     0.200 A 
ATOM     70  F   UNL A   1      54.007  26.959  27.101  1.00  0.00    -0.200 F 
ATOM     71  F   UNL A   1      54.819  27.490  24.552  1.00  0.00    -0.200 F 
ENDBRANCH  47  61
BRANCH  48  72
ATOM     72  C   UNL A   1      41.165  28.398  28.223  1.00  0.00     0.064 A 
ATOM     73  C   UNL A   1      40.816  27.907  29.488  1.00  0.00     0.173 A 
ATOM     74  C   UNL A   1      40.150  28.963  27.436  1.00  0.00     0.173 A 
ATOM     75  F   UNL A   1      41.750  27.338  30.265  1.00  0.00    -0.203 F 
ATOM     76  C   UNL A   1      39.504  27.980  29.948  1.00  0.00     0.198 A 
ATOM     77  C   UNL A   1      38.843  29.057  27.908  1.00  0.00     0.198 A 
ATOM     78  F   UNL A   1      40.434  29.448  26.218  1.00  0.00    -0.203 F 
ATOM     79  F   UNL A   1      39.192  27.480  31.152  1.00  0.00    -0.200 F 
ATOM     80  C   UNL A   1      38.520  28.563  29.163  1.00  0.00     0.200 A 
ATOM     81  F   UNL A   1      37.898  29.632  27.152  1.00  0.00    -0.200 F 
ATOM     82  F   UNL A   1      37.262  28.645  29.614  1.00  0.00    -0.200 F 
ENDBRANCH  48  72
BRANCH  60  83
ATOM     83  C   UNL A   1      46.649  32.615  29.058  1.00  0.00     0.064 A 
ATOM     84  C   UNL A   1      46.446  33.804  28.344  1.00  0.00     0.173 A 
ATOM     85  C   UNL A   1      46.972  32.709  30.420  1.00  0.00     0.173 A 
ATOM     86  F   UNL A   1      46.153  33.763  27.035  1.00  0.00    -0.203 F 
ATOM     87  C   UNL A   1      46.583  35.042  28.965  1.00  0.00     0.198 A 
ATOM     88  C   UNL A   1      47.085  33.947  31.044  1.00  0.00     0.198 A 
ATOM     89  F   UNL A   1      47.170  31.597  31.146  1.00  0.00    -0.203 F 
ATOM     90  F   UNL A   1      46.427  36.167  28.256  1.00  0.00    -0.200 F 
ATOM     91  C   UNL A   1      46.896  35.112  30.315  1.00  0.00     0.200 A 
ATOM     92  F   UNL A   1      47.379  34.013  32.350  1.00  0.00    -0.200 F 
ATOM     93  F   UNL A   1      47.026  36.304  30.913  1.00  0.00    -0.200 F 
ENDBRANCH  60  83
ENDBRANCH  34  35
ENDBRANCH  27  29
ENDBRANCH  26  27
ENDBRANCH  25  26
ENDBRANCH  24  25
ENDBRANCH  23  24
ENDBRANCH  22  23
ENDBRANCH   1  22
TORSDOF 20
ENDMDL
