MODEL 1
REMARK VINA RESULT:     -10.5      0.000      0.000
REMARK SMILES COCC1CCN(C(=O)NC[C@H]2CC[C@H](C(=O)OCCOCCOCCOC(=O)c3ccc(-c4c5nc(c(-c6c(F)c(F)c(F)c(F)c6F)c6ccc([nH]6)c(-c6c(F)c(F)c(F)c(F)c6F)c6nc(c(-c7c(F)c(F)c(F)c(F)c7F)c7ccc4[nH]7)C=C6)C=C5)cc3)O2)CC1
REMARK SMILES IDX 22 1 21 2 20 3 19 4 18 5 16 6 17 7 15 8 12 9 13 10 93 11
REMARK SMILES IDX 14 12 11 13 10 14 4 15 5 16 95 17 6 18 94 19 7 20 8 21 9 22
REMARK SMILES IDX 3 24 2 25 1 26 23 27 24 28 25 29 26 30 27 31 28 32 29 33
REMARK SMILES IDX 30 34 31 35 92 36 32 37 91 38 33 39 34 40 35 41 85 42 36 43
REMARK SMILES IDX 90 44 84 45 86 46 37 47 89 48 83 49 82 50 38 52 70 53 50 54
REMARK SMILES IDX 69 55 51 56 54 57 68 58 87 59 52 60 53 61 67 63 88 64 55 65
REMARK SMILES IDX 39 66 40 67 48 68 41 69 42 70 46 71 49 72 43 73 44 74 47 75
REMARK SMILES IDX 45 76 71 77 72 78 80 79 73 80 74 81 78 82 81 83 75 84 76 85
REMARK SMILES IDX 79 86 77 87 56 88 57 89 65 90 58 91 59 92 63 93 66 94 60 95
REMARK SMILES IDX 61 96 64 97 62 98
REMARK H PARENT 10 23 86 51 54 62
REMARK Flexibility Score: inf
ROOT
ATOM      1  C   UNL A   1      45.803  19.620  36.131  1.00  0.00     0.188 C 
ENDROOT
BRANCH   1   2
ATOM      2  O   UNL A   1      45.255  18.844  37.187  1.00  0.00    -0.376 OA
BRANCH   2   3
ATOM      3  C   UNL A   1      46.027  18.637  38.369  1.00  0.00     0.202 C 
BRANCH   3   4
ATOM      4  C   UNL A   1      45.797  17.369  39.210  1.00  0.00     0.261 C 
BRANCH   4   5
ATOM      5  O   UNL A   1      45.735  17.594  40.632  1.00  0.00    -0.461 OA
BRANCH   5   6
ATOM      6  C   UNL A   1      46.280  16.625  41.411  1.00  0.00     0.335 C 
ATOM      7  O   UNL A   1      47.456  16.276  41.347  1.00  0.00    -0.249 OA
BRANCH   6   8
ATOM      8  C   UNL A   1      45.318  16.050  42.457  1.00  0.00     0.228 C 
ATOM      9  C   UNL A   1      42.998  16.422  42.319  1.00  0.00     0.138 C 
ATOM     10  C   UNL A   1      43.570  17.419  43.314  1.00  0.00     0.037 C 
ATOM     11  O   UNL A   1      44.113  15.706  41.757  1.00  0.00    -0.361 OA
ATOM     12  C   UNL A   1      44.911  16.853  43.679  1.00  0.00     0.047 C 
BRANCH   9  13
ATOM     13  C   UNL A   1      42.023  15.355  42.840  1.00  0.00     0.149 C 
BRANCH  13  14
ATOM     14  N   UNL A   1      41.842  14.270  41.886  1.00  0.00    -0.335 N 
ATOM     15  C   UNL A   1      43.469  10.724  45.254  1.00  0.00     0.018 C 
ATOM     16  C   UNL A   1      42.661  10.078  44.115  1.00  0.00     0.027 C 
ATOM     17  C   UNL A   1      43.361  12.248  45.206  1.00  0.00     0.027 C 
ATOM     18  C   UNL A   1      42.654  10.801  42.767  1.00  0.00     0.121 C 
ATOM     19  C   UNL A   1      43.622  12.786  43.810  1.00  0.00     0.121 C 
ATOM     20  N   UNL A   1      42.652  12.259  42.865  1.00  0.00    -0.325 N 
ATOM     21  C   UNL A   1      42.019  12.941  41.865  1.00  0.00     0.317 C 
ATOM     22  O   UNL A   1      41.564  12.368  40.869  1.00  0.00    -0.249 OA
ATOM     23  H   UNL A   1      41.496  14.600  41.026  1.00  0.00     0.165 HD
BRANCH  15  24
ATOM     24  C   UNL A   1      44.921  10.221  45.383  1.00  0.00     0.163 C 
BRANCH  24  25
ATOM     25  O   UNL A   1      45.655  10.205  44.166  1.00  0.00    -0.384 OA
ATOM     26  C   UNL A   1      46.735  11.125  44.127  1.00  0.00     0.194 C 
ENDBRANCH  24  25
ENDBRANCH  15  24
ENDBRANCH  13  14
ENDBRANCH   9  13
ENDBRANCH   6   8
ENDBRANCH   5   6
ENDBRANCH   4   5
ENDBRANCH   3   4
ENDBRANCH   2   3
ENDBRANCH   1   2
BRANCH   1  27
ATOM     27  C   UNL A   1      45.627  21.144  36.160  1.00  0.00     0.188 C 
BRANCH  27  28
ATOM     28  O   UNL A   1      46.756  21.862  36.597  1.00  0.00    -0.376 OA
BRANCH  28  29
ATOM     29  C   UNL A   1      46.782  22.358  37.928  1.00  0.00     0.202 C 
BRANCH  29  30
ATOM     30  C   UNL A   1      46.713  23.879  38.186  1.00  0.00     0.261 C 
BRANCH  30  31
ATOM     31  O   UNL A   1      46.501  24.731  37.046  1.00  0.00    -0.460 OA
BRANCH  31  32
ATOM     32  C   UNL A   1      46.539  26.074  37.250  1.00  0.00     0.338 C 
ATOM     33  O   UNL A   1      47.367  26.694  37.878  1.00  0.00    -0.246 OA
BRANCH  32  34
ATOM     34  C   UNL A   1      45.544  26.679  36.319  1.00  0.00     0.060 A 
ATOM     35  C   UNL A   1      45.907  27.828  35.596  1.00  0.00     0.016 A 
ATOM     36  C   UNL A   1      44.307  26.076  36.095  1.00  0.00     0.016 A 
ATOM     37  C   UNL A   1      45.034  28.371  34.647  1.00  0.00     0.010 A 
ATOM     38  C   UNL A   1      43.420  26.641  35.169  1.00  0.00     0.010 A 
ATOM     39  C   UNL A   1      43.772  27.798  34.447  1.00  0.00    -0.014 A 
BRANCH  39  40
ATOM     40  C   UNL A   1      42.757  28.480  33.604  1.00  0.00     0.031 A 
ATOM     41  C   UNL A   1      41.842  29.483  34.251  1.00  0.00     0.074 A 
ATOM     42  C   UNL A   1      42.630  28.208  32.291  1.00  0.00     0.049 A 
ATOM     43  N   UNL A   1      40.812  30.117  33.752  1.00  0.00    -0.248 NA
ATOM     44  C   UNL A   1      42.127  29.811  35.657  1.00  0.00     0.031 C 
ATOM     45  C   UNL A   1      43.481  27.299  31.528  1.00  0.00     0.029 A 
ATOM     46  N   UNL A   1      41.716  28.664  31.370  1.00  0.00    -0.354 N 
ATOM     47  C   UNL A   1      40.318  30.904  34.783  1.00  0.00     0.074 A 
ATOM     48  C   UNL A   1      41.149  30.658  35.941  1.00  0.00     0.031 C 
ATOM     49  C   UNL A   1      43.038  27.249  30.258  1.00  0.00     0.029 A 
ATOM     50  C   UNL A   1      41.846  28.087  30.130  1.00  0.00     0.049 A 
ATOM     51  H   UNL A   1      41.032  29.341  31.580  1.00  0.00     0.167 HD
ATOM     52  C   UNL A   1      39.265  31.756  34.764  1.00  0.00     0.037 A 
ATOM     53  C   UNL A   1      41.071  28.197  29.031  1.00  0.00     0.037 A 
ATOM     54  C   UNL A   1      38.444  32.010  33.609  1.00  0.00     0.049 A 
ATOM     55  C   UNL A   1      39.848  29.086  29.070  1.00  0.00     0.074 A 
ATOM     56  C   UNL A   1      37.381  32.889  33.487  1.00  0.00     0.029 A 
ATOM     57  N   UNL A   1      38.586  31.379  32.384  1.00  0.00    -0.354 N 
ATOM     58  N   UNL A   1      39.409  29.855  30.035  1.00  0.00    -0.248 NA
ATOM     59  C   UNL A   1      39.009  29.114  27.860  1.00  0.00     0.031 C 
ATOM     60  C   UNL A   1      36.835  32.738  32.210  1.00  0.00     0.029 A 
ATOM     61  C   UNL A   1      37.600  31.817  31.512  1.00  0.00     0.049 A 
ATOM     62  H   UNL A   1      39.282  30.719  32.164  1.00  0.00     0.167 HD
ATOM     63  C   UNL A   1      38.271  30.482  29.540  1.00  0.00     0.074 A 
ATOM     64  C   UNL A   1      38.096  30.018  28.182  1.00  0.00     0.031 C 
ATOM     65  C   UNL A   1      37.440  31.360  30.157  1.00  0.00     0.037 A 
BRANCH  52  66
ATOM     66  C   UNL A   1      38.907  32.460  36.040  1.00  0.00     0.064 A 
ATOM     67  C   UNL A   1      38.186  31.825  37.061  1.00  0.00     0.173 A 
ATOM     68  C   UNL A   1      39.366  33.767  36.272  1.00  0.00     0.173 A 
ATOM     69  F   UNL A   1      37.714  30.583  36.883  1.00  0.00    -0.203 F 
ATOM     70  C   UNL A   1      37.928  32.476  38.264  1.00  0.00     0.198 A 
ATOM     71  C   UNL A   1      39.132  34.403  37.488  1.00  0.00     0.198 A 
ATOM     72  F   UNL A   1      40.063  34.417  35.329  1.00  0.00    -0.203 F 
ATOM     73  F   UNL A   1      37.209  31.863  39.215  1.00  0.00    -0.200 F 
ATOM     74  C   UNL A   1      38.411  33.758  38.481  1.00  0.00     0.200 A 
ATOM     75  F   UNL A   1      39.613  35.635  37.700  1.00  0.00    -0.200 F 
ATOM     76  F   UNL A   1      38.179  34.375  39.649  1.00  0.00    -0.200 F 
ENDBRANCH  52  66
BRANCH  53  77
ATOM     77  C   UNL A   1      41.385  27.420  27.799  1.00  0.00     0.064 A 
ATOM     78  C   UNL A   1      41.027  26.068  27.685  1.00  0.00     0.173 A 
ATOM     79  C   UNL A   1      42.115  27.989  26.744  1.00  0.00     0.173 A 
ATOM     80  F   UNL A   1      40.361  25.466  28.680  1.00  0.00    -0.203 F 
ATOM     81  C   UNL A   1      41.418  25.308  26.583  1.00  0.00     0.198 A 
ATOM     82  C   UNL A   1      42.473  27.237  25.625  1.00  0.00     0.198 A 
ATOM     83  F   UNL A   1      42.494  29.273  26.804  1.00  0.00    -0.203 F 
ATOM     84  F   UNL A   1      41.130  24.000  26.539  1.00  0.00    -0.200 F 
ATOM     85  C   UNL A   1      42.136  25.895  25.553  1.00  0.00     0.200 A 
ATOM     86  F   UNL A   1      43.162  27.810  24.629  1.00  0.00    -0.200 F 
ATOM     87  F   UNL A   1      42.523  25.160  24.500  1.00  0.00    -0.200 F 
ENDBRANCH  53  77
BRANCH  65  88
ATOM     88  C   UNL A   1      36.289  31.909  29.361  1.00  0.00     0.064 A 
ATOM     89  C   UNL A   1      35.206  31.106  28.976  1.00  0.00     0.173 A 
ATOM     90  C   UNL A   1      36.248  33.271  29.019  1.00  0.00     0.173 A 
ATOM     91  F   UNL A   1      35.200  29.796  29.267  1.00  0.00    -0.203 F 
ATOM     92  C   UNL A   1      34.140  31.637  28.253  1.00  0.00     0.198 A 
ATOM     93  C   UNL A   1      35.164  33.806  28.328  1.00  0.00     0.198 A 
ATOM     94  F   UNL A   1      37.252  34.088  29.371  1.00  0.00    -0.203 F 
ATOM     95  F   UNL A   1      33.143  30.838  27.851  1.00  0.00    -0.200 F 
ATOM     96  C   UNL A   1      34.116  32.987  27.938  1.00  0.00     0.200 A 
ATOM     97  F   UNL A   1      35.134  35.115  28.042  1.00  0.00    -0.200 F 
ATOM     98  F   UNL A   1      33.084  33.498  27.251  1.00  0.00    -0.200 F 
ENDBRANCH  65  88
ENDBRANCH  39  40
ENDBRANCH  32  34
ENDBRANCH  31  32
ENDBRANCH  30  31
ENDBRANCH  29  30
ENDBRANCH  28  29
ENDBRANCH  27  28
ENDBRANCH   1  27
TORSDOF 21
ENDMDL
MODEL 2
REMARK VINA RESULT:     -10.1     10.098     15.369
REMARK SMILES COCC1CCN(C(=O)NC[C@H]2CC[C@H](C(=O)OCCOCCOCCOC(=O)c3ccc(-c4c5nc(c(-c6c(F)c(F)c(F)c(F)c6F)c6ccc([nH]6)c(-c6c(F)c(F)c(F)c(F)c6F)c6nc(c(-c7c(F)c(F)c(F)c(F)c7F)c7ccc4[nH]7)C=C6)C=C5)cc3)O2)CC1
REMARK SMILES IDX 22 1 21 2 20 3 19 4 18 5 16 6 17 7 15 8 12 9 13 10 93 11
REMARK SMILES IDX 14 12 11 13 10 14 4 15 5 16 95 17 6 18 94 19 7 20 8 21 9 22
REMARK SMILES IDX 3 24 2 25 1 26 23 27 24 28 25 29 26 30 27 31 28 32 29 33
REMARK SMILES IDX 30 34 31 35 92 36 32 37 91 38 33 39 34 40 35 41 85 42 36 43
REMARK SMILES IDX 90 44 84 45 86 46 37 47 89 48 83 49 82 50 38 52 70 53 50 54
REMARK SMILES IDX 69 55 51 56 54 57 68 58 87 59 52 60 53 61 67 63 88 64 55 65
REMARK SMILES IDX 39 66 40 67 48 68 41 69 42 70 46 71 49 72 43 73 44 74 47 75
REMARK SMILES IDX 45 76 71 77 72 78 80 79 73 80 74 81 78 82 81 83 75 84 76 85
REMARK SMILES IDX 79 86 77 87 56 88 57 89 65 90 58 91 59 92 63 93 66 94 60 95
REMARK SMILES IDX 61 96 64 97 62 98
REMARK H PARENT 10 23 86 51 54 62
REMARK Flexibility Score: inf
ROOT
ATOM      1  C   UNL A   1      34.958  20.544  25.414  1.00  0.00     0.188 C 
ENDROOT
BRANCH   1   2
ATOM      2  O   UNL A   1      34.676  21.167  26.659  1.00  0.00    -0.376 OA
BRANCH   2   3
ATOM      3  C   UNL A   1      34.083  22.466  26.667  1.00  0.00     0.202 C 
BRANCH   3   4
ATOM      4  C   UNL A   1      32.616  22.626  27.101  1.00  0.00     0.261 C 
BRANCH   4   5
ATOM      5  O   UNL A   1      31.650  22.382  26.058  1.00  0.00    -0.461 OA
BRANCH   5   6
ATOM      6  C   UNL A   1      32.111  22.492  24.786  1.00  0.00     0.335 C 
ATOM      7  O   UNL A   1      32.149  21.559  23.989  1.00  0.00    -0.249 OA
BRANCH   6   8
ATOM      8  C   UNL A   1      32.505  23.918  24.386  1.00  0.00     0.228 C 
ATOM      9  C   UNL A   1      32.738  24.534  22.126  1.00  0.00     0.138 C 
ATOM     10  C   UNL A   1      34.126  24.248  22.675  1.00  0.00     0.037 C 
ATOM     11  O   UNL A   1      31.801  24.209  23.169  1.00  0.00    -0.361 OA
ATOM     12  C   UNL A   1      33.956  24.304  24.165  1.00  0.00     0.047 C 
BRANCH   9  13
ATOM     13  C   UNL A   1      32.412  25.971  21.690  1.00  0.00     0.149 C 
BRANCH  13  14
ATOM     14  N   UNL A   1      31.103  26.399  22.160  1.00  0.00    -0.335 N 
ATOM     15  C   UNL A   1      33.135  29.854  25.399  1.00  0.00     0.018 C 
ATOM     16  C   UNL A   1      31.658  30.169  25.108  1.00  0.00     0.027 C 
ATOM     17  C   UNL A   1      33.656  28.759  24.468  1.00  0.00     0.027 C 
ATOM     18  C   UNL A   1      30.754  28.992  24.732  1.00  0.00     0.121 C 
ATOM     19  C   UNL A   1      32.714  27.569  24.420  1.00  0.00     0.121 C 
ATOM     20  N   UNL A   1      31.407  27.966  23.923  1.00  0.00    -0.325 N 
ATOM     21  C   UNL A   1      30.617  27.284  23.042  1.00  0.00     0.317 C 
ATOM     22  O   UNL A   1      29.393  27.445  23.001  1.00  0.00    -0.249 OA
ATOM     23  H   UNL A   1      30.380  25.908  21.708  1.00  0.00     0.165 HD
BRANCH  15  24
ATOM     24  C   UNL A   1      33.462  29.596  26.884  1.00  0.00     0.163 C 
BRANCH  24  25
ATOM     25  O   UNL A   1      33.146  30.672  27.758  1.00  0.00    -0.384 OA
ATOM     26  C   UNL A   1      34.105  31.718  27.761  1.00  0.00     0.194 C 
ENDBRANCH  24  25
ENDBRANCH  15  24
ENDBRANCH  13  14
ENDBRANCH   9  13
ENDBRANCH   6   8
ENDBRANCH   5   6
ENDBRANCH   4   5
ENDBRANCH   3   4
ENDBRANCH   2   3
ENDBRANCH   1   2
BRANCH   1  27
ATOM     27  C   UNL A   1      36.402  20.539  24.897  1.00  0.00     0.188 C 
BRANCH  27  28
ATOM     28  O   UNL A   1      37.166  21.664  25.261  1.00  0.00    -0.376 OA
BRANCH  28  29
ATOM     29  C   UNL A   1      38.541  21.489  25.574  1.00  0.00     0.202 C 
BRANCH  29  30
ATOM     30  C   UNL A   1      39.182  20.088  25.471  1.00  0.00     0.261 C 
BRANCH  30  31
ATOM     31  O   UNL A   1      40.132  19.723  26.489  1.00  0.00    -0.460 OA
BRANCH  31  32
ATOM     32  C   UNL A   1      41.446  19.700  26.143  1.00  0.00     0.338 C 
ATOM     33  O   UNL A   1      41.999  18.890  25.434  1.00  0.00    -0.246 OA
BRANCH  32  34
ATOM     34  C   UNL A   1      42.022  21.013  26.550  1.00  0.00     0.060 A 
ATOM     35  C   UNL A   1      42.287  21.241  27.910  1.00  0.00     0.016 A 
ATOM     36  C   UNL A   1      42.376  21.971  25.600  1.00  0.00     0.016 A 
ATOM     37  C   UNL A   1      42.910  22.425  28.320  1.00  0.00     0.010 A 
ATOM     38  C   UNL A   1      42.968  23.170  26.016  1.00  0.00     0.010 A 
ATOM     39  C   UNL A   1      43.229  23.411  27.378  1.00  0.00    -0.014 A 
BRANCH  39  40
ATOM     40  C   UNL A   1      43.694  24.753  27.815  1.00  0.00     0.031 A 
ATOM     41  C   UNL A   1      42.663  25.792  28.164  1.00  0.00     0.074 A 
ATOM     42  C   UNL A   1      45.003  25.059  27.888  1.00  0.00     0.049 A 
ATOM     43  N   UNL A   1      42.820  27.057  28.458  1.00  0.00    -0.248 NA
ATOM     44  C   UNL A   1      41.262  25.339  28.176  1.00  0.00     0.031 C 
ATOM     45  C   UNL A   1      46.105  24.136  27.629  1.00  0.00     0.029 A 
ATOM     46  N   UNL A   1      45.625  26.249  28.187  1.00  0.00    -0.354 N 
ATOM     47  C   UNL A   1      41.542  27.554  28.675  1.00  0.00     0.074 A 
ATOM     48  C   UNL A   1      40.618  26.461  28.463  1.00  0.00     0.031 C 
ATOM     49  C   UNL A   1      47.269  24.798  27.763  1.00  0.00     0.029 A 
ATOM     50  C   UNL A   1      46.994  26.200  28.072  1.00  0.00     0.049 A 
ATOM     51  H   UNL A   1      45.136  27.059  28.459  1.00  0.00     0.167 HD
ATOM     52  C   UNL A   1      41.173  28.811  29.020  1.00  0.00     0.037 A 
ATOM     53  C   UNL A   1      47.912  27.184  28.170  1.00  0.00     0.037 A 
ATOM     54  C   UNL A   1      42.091  29.896  29.242  1.00  0.00     0.049 A 
ATOM     55  C   UNL A   1      47.461  28.596  28.466  1.00  0.00     0.074 A 
ATOM     56  C   UNL A   1      41.809  31.194  29.635  1.00  0.00     0.029 A 
ATOM     57  N   UNL A   1      43.465  29.817  29.080  1.00  0.00    -0.354 N 
ATOM     58  N   UNL A   1      46.256  29.051  28.706  1.00  0.00    -0.248 NA
ATOM     59  C   UNL A   1      48.505  29.634  28.497  1.00  0.00     0.031 C 
ATOM     60  C   UNL A   1      43.004  31.917  29.642  1.00  0.00     0.029 A 
ATOM     61  C   UNL A   1      44.040  31.055  29.322  1.00  0.00     0.049 A 
ATOM     62  H   UNL A   1      43.959  29.003  28.830  1.00  0.00     0.167 HD
ATOM     63  C   UNL A   1      46.400  30.413  28.951  1.00  0.00     0.074 A 
ATOM     64  C   UNL A   1      47.813  30.707  28.848  1.00  0.00     0.031 C 
ATOM     65  C   UNL A   1      45.448  31.338  29.230  1.00  0.00     0.037 A 
BRANCH  52  66
ATOM     66  C   UNL A   1      39.707  29.103  29.149  1.00  0.00     0.064 A 
ATOM     67  C   UNL A   1      38.908  29.400  28.036  1.00  0.00     0.173 A 
ATOM     68  C   UNL A   1      39.079  29.003  30.401  1.00  0.00     0.173 A 
ATOM     69  F   UNL A   1      39.461  29.520  26.820  1.00  0.00    -0.203 F 
ATOM     70  C   UNL A   1      37.537  29.598  28.173  1.00  0.00     0.198 A 
ATOM     71  C   UNL A   1      37.703  29.172  30.529  1.00  0.00     0.198 A 
ATOM     72  F   UNL A   1      39.797  28.718  31.497  1.00  0.00    -0.203 F 
ATOM     73  F   UNL A   1      36.796  29.912  27.100  1.00  0.00    -0.200 F 
ATOM     74  C   UNL A   1      36.934  29.471  29.416  1.00  0.00     0.200 A 
ATOM     75  F   UNL A   1      37.122  29.034  31.729  1.00  0.00    -0.200 F 
ATOM     76  F   UNL A   1      35.611  29.640  29.541  1.00  0.00    -0.200 F 
ENDBRANCH  52  66
BRANCH  53  77
ATOM     77  C   UNL A   1      49.358  26.898  27.947  1.00  0.00     0.064 A 
ATOM     78  C   UNL A   1      49.895  26.846  26.652  1.00  0.00     0.173 A 
ATOM     79  C   UNL A   1      50.215  26.595  29.017  1.00  0.00     0.173 A 
ATOM     80  F   UNL A   1      49.110  27.090  25.592  1.00  0.00    -0.203 F 
ATOM     81  C   UNL A   1      51.219  26.468  26.434  1.00  0.00     0.198 A 
ATOM     82  C   UNL A   1      51.549  26.254  28.799  1.00  0.00     0.198 A 
ATOM     83  F   UNL A   1      49.753  26.617  30.275  1.00  0.00    -0.203 F 
ATOM     84  F   UNL A   1      51.682  26.351  25.181  1.00  0.00    -0.200 F 
ATOM     85  C   UNL A   1      52.045  26.177  27.508  1.00  0.00     0.200 A 
ATOM     86  F   UNL A   1      52.346  25.979  29.841  1.00  0.00    -0.200 F 
ATOM     87  F   UNL A   1      53.315  25.801  27.296  1.00  0.00    -0.200 F 
ENDBRANCH  53  77
BRANCH  65  88
ATOM     88  C   UNL A   1      45.900  32.749  29.485  1.00  0.00     0.064 A 
ATOM     89  C   UNL A   1      46.340  33.167  30.749  1.00  0.00     0.173 A 
ATOM     90  C   UNL A   1      45.935  33.684  28.438  1.00  0.00     0.173 A 
ATOM     91  F   UNL A   1      46.317  32.318  31.787  1.00  0.00    -0.203 F 
ATOM     92  C   UNL A   1      46.771  34.475  30.963  1.00  0.00     0.198 A 
ATOM     93  C   UNL A   1      46.400  34.980  28.646  1.00  0.00     0.198 A 
ATOM     94  F   UNL A   1      45.536  33.336  27.205  1.00  0.00    -0.203 F 
ATOM     95  F   UNL A   1      47.137  34.865  32.191  1.00  0.00    -0.200 F 
ATOM     96  C   UNL A   1      46.809  35.377  29.909  1.00  0.00     0.200 A 
ATOM     97  F   UNL A   1      46.455  35.843  27.623  1.00  0.00    -0.200 F 
ATOM     98  F   UNL A   1      47.234  36.631  30.115  1.00  0.00    -0.200 F 
ENDBRANCH  65  88
ENDBRANCH  39  40
ENDBRANCH  32  34
ENDBRANCH  31  32
ENDBRANCH  30  31
ENDBRANCH  29  30
ENDBRANCH  28  29
ENDBRANCH  27  28
ENDBRANCH   1  27
TORSDOF 21
ENDMDL
MODEL 3
REMARK VINA RESULT:     -10.0     10.131     16.155
REMARK SMILES COCC1CCN(C(=O)NC[C@H]2CC[C@H](C(=O)OCCOCCOCCOC(=O)c3ccc(-c4c5nc(c(-c6c(F)c(F)c(F)c(F)c6F)c6ccc([nH]6)c(-c6c(F)c(F)c(F)c(F)c6F)c6nc(c(-c7c(F)c(F)c(F)c(F)c7F)c7ccc4[nH]7)C=C6)C=C5)cc3)O2)CC1
REMARK SMILES IDX 22 1 21 2 20 3 19 4 18 5 16 6 17 7 15 8 12 9 13 10 93 11
REMARK SMILES IDX 14 12 11 13 10 14 4 15 5 16 95 17 6 18 94 19 7 20 8 21 9 22
REMARK SMILES IDX 3 24 2 25 1 26 23 27 24 28 25 29 26 30 27 31 28 32 29 33
REMARK SMILES IDX 30 34 31 35 92 36 32 37 91 38 33 39 34 40 35 41 85 42 36 43
REMARK SMILES IDX 90 44 84 45 86 46 37 47 89 48 83 49 82 50 38 52 70 53 50 54
REMARK SMILES IDX 69 55 51 56 54 57 68 58 87 59 52 60 53 61 67 63 88 64 55 65
REMARK SMILES IDX 39 66 40 67 48 68 41 69 42 70 46 71 49 72 43 73 44 74 47 75
REMARK SMILES IDX 45 76 71 77 72 78 80 79 73 80 74 81 78 82 81 83 75 84 76 85
REMARK SMILES IDX 79 86 77 87 56 88 57 89 65 90 58 91 59 92 63 93 66 94 60 95
REMARK SMILES IDX 61 96 64 97 62 98
REMARK H PARENT 10 23 86 51 54 62
REMARK Flexibility Score: inf
ROOT
ATOM      1  C   UNL A   1      34.885  20.538  25.268  1.00  0.00     0.188 C 
ENDROOT
BRANCH   1   2
ATOM      2  O   UNL A   1      34.452  21.054  26.518  1.00  0.00    -0.376 OA
BRANCH   2   3
ATOM      3  C   UNL A   1      33.985  22.401  26.589  1.00  0.00     0.202 C 
BRANCH   3   4
ATOM      4  C   UNL A   1      32.545  22.680  27.053  1.00  0.00     0.261 C 
BRANCH   4   5
ATOM      5  O   UNL A   1      31.566  22.705  25.995  1.00  0.00    -0.461 OA
BRANCH   5   6
ATOM      6  C   UNL A   1      32.059  22.677  24.731  1.00  0.00     0.335 C 
ATOM      7  O   UNL A   1      31.954  21.714  23.976  1.00  0.00    -0.249 OA
BRANCH   6   8
ATOM      8  C   UNL A   1      32.691  23.998  24.278  1.00  0.00     0.228 C 
ATOM      9  C   UNL A   1      32.819  24.574  21.999  1.00  0.00     0.138 C 
ATOM     10  C   UNL A   1      34.169  24.008  22.412  1.00  0.00     0.037 C 
ATOM     11  O   UNL A   1      31.944  24.436  23.134  1.00  0.00    -0.361 OA
ATOM     12  C   UNL A   1      34.162  24.083  23.911  1.00  0.00     0.047 C 
BRANCH   9  13
ATOM     13  C   UNL A   1      32.749  26.051  21.582  1.00  0.00     0.149 C 
BRANCH  13  14
ATOM     14  N   UNL A   1      31.426  26.617  21.799  1.00  0.00    -0.335 N 
ATOM     15  C   UNL A   1      33.103  29.703  25.570  1.00  0.00     0.018 C 
ATOM     16  C   UNL A   1      31.762  30.199  25.003  1.00  0.00     0.027 C 
ATOM     17  C   UNL A   1      33.684  28.583  24.705  1.00  0.00     0.027 C 
ATOM     18  C   UNL A   1      30.834  29.150  24.387  1.00  0.00     0.121 C 
ATOM     19  C   UNL A   1      32.649  27.515  24.401  1.00  0.00     0.121 C 
ATOM     20  N   UNL A   1      31.525  28.080  23.671  1.00  0.00    -0.325 N 
ATOM     21  C   UNL A   1      30.866  27.525  22.612  1.00  0.00     0.317 C 
ATOM     22  O   UNL A   1      29.702  27.831  22.332  1.00  0.00    -0.249 OA
ATOM     23  H   UNL A   1      30.763  26.229  21.183  1.00  0.00     0.165 HD
BRANCH  15  24
ATOM     24  C   UNL A   1      33.083  29.361  27.073  1.00  0.00     0.163 C 
BRANCH  24  25
ATOM     25  O   UNL A   1      31.785  29.176  27.624  1.00  0.00    -0.384 OA
ATOM     26  C   UNL A   1      31.404  27.817  27.768  1.00  0.00     0.194 C 
ENDBRANCH  24  25
ENDBRANCH  15  24
ENDBRANCH  13  14
ENDBRANCH   9  13
ENDBRANCH   6   8
ENDBRANCH   5   6
ENDBRANCH   4   5
ENDBRANCH   3   4
ENDBRANCH   2   3
ENDBRANCH   1   2
BRANCH   1  27
ATOM     27  C   UNL A   1      36.390  20.407  25.001  1.00  0.00     0.188 C 
BRANCH  27  28
ATOM     28  O   UNL A   1      37.155  21.535  25.354  1.00  0.00    -0.376 OA
BRANCH  28  29
ATOM     29  C   UNL A   1      38.529  21.362  25.671  1.00  0.00     0.202 C 
BRANCH  29  30
ATOM     30  C   UNL A   1      39.213  20.001  25.415  1.00  0.00     0.261 C 
BRANCH  30  31
ATOM     31  O   UNL A   1      40.077  19.495  26.449  1.00  0.00    -0.460 OA
BRANCH  31  32
ATOM     32  C   UNL A   1      41.418  19.564  26.236  1.00  0.00     0.338 C 
ATOM     33  O   UNL A   1      42.123  18.712  25.745  1.00  0.00    -0.246 OA
BRANCH  32  34
ATOM     34  C   UNL A   1      41.815  20.986  26.443  1.00  0.00     0.060 A 
ATOM     35  C   UNL A   1      41.842  21.495  27.752  1.00  0.00     0.016 A 
ATOM     36  C   UNL A   1      42.236  21.780  25.377  1.00  0.00     0.016 A 
ATOM     37  C   UNL A   1      42.294  22.797  27.994  1.00  0.00     0.010 A 
ATOM     38  C   UNL A   1      42.656  23.094  25.617  1.00  0.00     0.010 A 
ATOM     39  C   UNL A   1      42.678  23.616  26.925  1.00  0.00    -0.014 A 
BRANCH  39  40
ATOM     40  C   UNL A   1      42.957  25.059  27.139  1.00  0.00     0.031 A 
ATOM     41  C   UNL A   1      44.318  25.589  26.778  1.00  0.00     0.074 A 
ATOM     42  C   UNL A   1      42.033  25.889  27.660  1.00  0.00     0.049 A 
ATOM     43  N   UNL A   1      44.832  26.775  26.977  1.00  0.00    -0.248 NA
ATOM     44  C   UNL A   1      45.224  24.646  26.102  1.00  0.00     0.031 C 
ATOM     45  C   UNL A   1      40.663  25.521  28.006  1.00  0.00     0.029 A 
ATOM     46  N   UNL A   1      42.122  27.217  28.006  1.00  0.00    -0.354 N 
ATOM     47  C   UNL A   1      46.122  26.718  26.469  1.00  0.00     0.074 A 
ATOM     48  C   UNL A   1      46.321  25.376  25.965  1.00  0.00     0.031 C 
ATOM     49  C   UNL A   1      40.043  26.593  28.532  1.00  0.00     0.029 A 
ATOM     50  C   UNL A   1      40.985  27.709  28.602  1.00  0.00     0.049 A 
ATOM     51  H   UNL A   1      42.924  27.764  27.842  1.00  0.00     0.167 HD
ATOM     52  C   UNL A   1      47.057  27.697  26.426  1.00  0.00     0.037 A 
ATOM     53  C   UNL A   1      40.748  28.911  29.168  1.00  0.00     0.037 A 
ATOM     54  C   UNL A   1      46.856  29.035  26.916  1.00  0.00     0.049 A 
ATOM     55  C   UNL A   1      41.843  29.953  29.186  1.00  0.00     0.074 A 
ATOM     56  C   UNL A   1      47.734  30.106  26.876  1.00  0.00     0.029 A 
ATOM     57  N   UNL A   1      45.706  29.484  27.545  1.00  0.00    -0.354 N 
ATOM     58  N   UNL A   1      43.046  29.905  28.671  1.00  0.00    -0.248 NA
ATOM     59  C   UNL A   1      41.543  31.220  29.875  1.00  0.00     0.031 C 
ATOM     60  C   UNL A   1      47.141  31.181  27.544  1.00  0.00     0.029 A 
ATOM     61  C   UNL A   1      45.868  30.803  27.938  1.00  0.00     0.049 A 
ATOM     62  H   UNL A   1      44.894  28.946  27.691  1.00  0.00     0.167 HD
ATOM     63  C   UNL A   1      43.630  31.138  28.940  1.00  0.00     0.074 A 
ATOM     64  C   UNL A   1      42.643  31.921  29.649  1.00  0.00     0.031 C 
ATOM     65  C   UNL A   1      44.875  31.580  28.632  1.00  0.00     0.037 A 
BRANCH  52  66
ATOM     66  C   UNL A   1      48.404  27.359  25.858  1.00  0.00     0.064 A 
ATOM     67  C   UNL A   1      48.676  27.453  24.486  1.00  0.00     0.173 A 
ATOM     68  C   UNL A   1      49.460  27.011  26.716  1.00  0.00     0.173 A 
ATOM     69  F   UNL A   1      47.698  27.768  23.623  1.00  0.00    -0.203 F 
ATOM     70  C   UNL A   1      49.953  27.202  23.992  1.00  0.00     0.198 A 
ATOM     71  C   UNL A   1      50.742  26.790  26.221  1.00  0.00     0.198 A 
ATOM     72  F   UNL A   1      49.253  26.910  28.037  1.00  0.00    -0.203 F 
ATOM     73  F   UNL A   1      50.184  27.268  22.673  1.00  0.00    -0.200 F 
ATOM     74  C   UNL A   1      50.987  26.884  24.860  1.00  0.00     0.200 A 
ATOM     75  F   UNL A   1      51.741  26.497  27.064  1.00  0.00    -0.200 F 
ATOM     76  F   UNL A   1      52.220  26.663  24.384  1.00  0.00    -0.200 F 
ENDBRANCH  52  66
BRANCH  53  77
ATOM     77  C   UNL A   1      39.436  29.201  29.812  1.00  0.00     0.064 A 
ATOM     78  C   UNL A   1      38.391  29.796  29.088  1.00  0.00     0.173 A 
ATOM     79  C   UNL A   1      39.225  28.963  31.179  1.00  0.00     0.173 A 
ATOM     80  F   UNL A   1      38.554  30.079  27.788  1.00  0.00    -0.203 F 
ATOM     81  C   UNL A   1      37.203  30.172  29.713  1.00  0.00     0.198 A 
ATOM     82  C   UNL A   1      38.022  29.306  31.794  1.00  0.00     0.198 A 
ATOM     83  F   UNL A   1      40.192  28.409  31.922  1.00  0.00    -0.203 F 
ATOM     84  F   UNL A   1      36.254  30.810  29.014  1.00  0.00    -0.200 F 
ATOM     85  C   UNL A   1      37.018  29.923  31.065  1.00  0.00     0.200 A 
ATOM     86  F   UNL A   1      37.845  29.058  33.099  1.00  0.00    -0.200 F 
ATOM     87  F   UNL A   1      35.881  30.297  31.667  1.00  0.00    -0.200 F 
ENDBRANCH  53  77
BRANCH  65  88
ATOM     88  C   UNL A   1      45.232  32.988  29.022  1.00  0.00     0.064 A 
ATOM     89  C   UNL A   1      44.969  34.078  28.180  1.00  0.00     0.173 A 
ATOM     90  C   UNL A   1      45.802  33.255  30.278  1.00  0.00     0.173 A 
ATOM     91  F   UNL A   1      44.436  33.879  26.965  1.00  0.00    -0.203 F 
ATOM     92  C   UNL A   1      45.292  35.378  28.565  1.00  0.00     0.198 A 
ATOM     93  C   UNL A   1      46.090  34.558  30.675  1.00  0.00     0.198 A 
ATOM     94  F   UNL A   1      46.065  32.252  31.129  1.00  0.00    -0.203 F 
ATOM     95  F   UNL A   1      45.080  36.396  27.721  1.00  0.00    -0.200 F 
ATOM     96  C   UNL A   1      45.842  35.617  29.816  1.00  0.00     0.200 A 
ATOM     97  F   UNL A   1      46.603  34.789  31.891  1.00  0.00    -0.200 F 
ATOM     98  F   UNL A   1      46.142  36.869  30.188  1.00  0.00    -0.200 F 
ENDBRANCH  65  88
ENDBRANCH  39  40
ENDBRANCH  32  34
ENDBRANCH  31  32
ENDBRANCH  30  31
ENDBRANCH  29  30
ENDBRANCH  28  29
ENDBRANCH  27  28
ENDBRANCH   1  27
TORSDOF 21
ENDMDL
