MODEL 1
REMARK VINA RESULT:     -10.1      0.000      0.000
REMARK SMILES N#Cc1ccc2c(c1)C=C(C(=O)OCCOCCOCCOC(=O)c1ccc(-c3c4nc(c(-c5c(F)c(F)c(F)c(F)c5F)c5ccc([nH]5)c(-c5c(F)c(F)c(F)c(F)c5F)c5nc(c(-c6c(F)c(F)c(F)c(F)c6F)c6ccc3[nH]6)C=C5)C=C4)cc1)[C@@H](C(F)(F)F)O2
REMARK SMILES IDX 18 1 17 2 16 3 15 4 14 5 13 6 11 7 12 8 10 9 3 10 4 11 8 12
REMARK SMILES IDX 5 13 7 14 6 15 9 16 93 17 88 18 2 19 1 20 89 21 90 22 91 23
REMARK SMILES IDX 92 24 19 25 20 26 21 27 22 28 23 29 24 30 25 31 26 32 87 33
REMARK SMILES IDX 27 34 86 35 28 36 29 37 30 38 80 39 31 40 85 41 79 42 81 43
REMARK SMILES IDX 32 44 84 45 78 46 77 47 33 49 65 50 45 51 64 52 46 53 49 54
REMARK SMILES IDX 63 55 82 56 47 57 48 58 62 60 83 61 50 62 34 63 35 64 43 65
REMARK SMILES IDX 36 66 37 67 41 68 44 69 38 70 39 71 42 72 40 73 66 74 67 75
REMARK SMILES IDX 75 76 68 77 69 78 73 79 76 80 70 81 71 82 74 83 72 84 51 85
REMARK SMILES IDX 52 86 60 87 53 88 54 89 58 90 61 91 55 92 56 93 59 94 57 95
REMARK H PARENT 81 48 49 59
REMARK Flexibility Score: inf
ROOT
ATOM      1  C   UNL A   1      33.288  36.000  29.539  1.00  0.00     0.188 C 
ENDROOT
BRANCH   1   2
ATOM      2  C   UNL A   1      32.564  36.503  30.805  1.00  0.00     0.188 C 
BRANCH   2   3
ATOM      3  O   UNL A   1      32.919  37.761  31.324  1.00  0.00    -0.376 OA
BRANCH   3   4
ATOM      4  C   UNL A   1      33.791  37.873  32.435  1.00  0.00     0.202 C 
BRANCH   4   5
ATOM      5  C   UNL A   1      34.019  36.790  33.510  1.00  0.00     0.261 C 
BRANCH   5   6
ATOM      6  O   UNL A   1      35.001  35.785  33.244  1.00  0.00    -0.460 OA
BRANCH   6   7
ATOM      7  C   UNL A   1      34.560  34.505  33.286  1.00  0.00     0.338 C 
ATOM      8  O   UNL A   1      33.473  34.096  32.914  1.00  0.00    -0.246 OA
BRANCH   7   9
ATOM      9  C   UNL A   1      35.674  33.614  33.680  1.00  0.00     0.087 C 
ATOM     10  C   UNL A   1      39.120  32.492  36.847  1.00  0.00     0.053 A 
ATOM     11  C   UNL A   1      39.680  31.618  35.912  1.00  0.00     0.023 A 
ATOM     12  C   UNL A   1      37.924  33.156  36.547  1.00  0.00     0.031 A 
ATOM     13  C   UNL A   1      39.035  31.390  34.694  1.00  0.00     0.048 A 
ATOM     14  C   UNL A   1      37.307  32.969  35.304  1.00  0.00     0.019 A 
ATOM     15  C   UNL A   1      37.851  32.064  34.390  1.00  0.00     0.128 A 
ATOM     16  C   UNL A   1      36.155  33.767  34.922  1.00  0.00     0.027 C 
ATOM     17  O   UNL A   1      37.299  31.787  33.174  1.00  0.00    -0.475 OA
ATOM     18  C   UNL A   1      36.189  32.596  32.697  1.00  0.00     0.316 C 
BRANCH  10  19
ATOM     19  C   UNL A   1      39.785  32.736  38.095  1.00  0.00     0.099 C 
ATOM     20  N   UNL A   1      40.316  32.925  39.106  1.00  0.00    -0.192 NA
ENDBRANCH  10  19
BRANCH  18  21
ATOM     21  C   UNL A   1      36.595  33.241  31.367  1.00  0.00     0.430 C 
ATOM     22  F   UNL A   1      37.381  34.326  31.564  1.00  0.00    -0.167 F 
ATOM     23  F   UNL A   1      37.298  32.385  30.590  1.00  0.00    -0.167 F 
ATOM     24  F   UNL A   1      35.517  33.641  30.656  1.00  0.00    -0.167 F 
ENDBRANCH  18  21
ENDBRANCH   7   9
ENDBRANCH   6   7
ENDBRANCH   5   6
ENDBRANCH   4   5
ENDBRANCH   3   4
ENDBRANCH   2   3
ENDBRANCH   1   2
BRANCH   1  25
ATOM     25  O   UNL A   1      32.690  34.979  28.777  1.00  0.00    -0.376 OA
BRANCH  25  26
ATOM     26  C   UNL A   1      33.502  34.132  27.979  1.00  0.00     0.202 C 
BRANCH  26  27
ATOM     27  C   UNL A   1      33.434  32.587  27.951  1.00  0.00     0.261 C 
BRANCH  27  28
ATOM     28  O   UNL A   1      34.577  31.843  28.390  1.00  0.00    -0.460 OA
BRANCH  28  29
ATOM     29  C   UNL A   1      34.690  30.574  27.917  1.00  0.00     0.338 C 
ATOM     30  O   UNL A   1      33.930  29.996  27.162  1.00  0.00    -0.246 OA
BRANCH  29  31
ATOM     31  C   UNL A   1      36.026  30.060  28.292  1.00  0.00     0.060 A 
ATOM     32  C   UNL A   1      37.069  30.084  27.369  1.00  0.00     0.016 A 
ATOM     33  C   UNL A   1      36.224  29.513  29.571  1.00  0.00     0.016 A 
ATOM     34  C   UNL A   1      38.316  29.567  27.731  1.00  0.00     0.010 A 
ATOM     35  C   UNL A   1      37.468  28.978  29.923  1.00  0.00     0.010 A 
ATOM     36  C   UNL A   1      38.531  29.020  29.011  1.00  0.00    -0.014 A 
BRANCH  36  37
ATOM     37  C   UNL A   1      39.909  28.652  29.428  1.00  0.00     0.031 A 
ATOM     38  C   UNL A   1      40.595  27.413  28.933  1.00  0.00     0.074 A 
ATOM     39  C   UNL A   1      40.554  29.481  30.269  1.00  0.00     0.049 A 
ATOM     40  N   UNL A   1      41.832  27.026  29.131  1.00  0.00    -0.248 NA
ATOM     41  C   UNL A   1      39.797  26.486  28.121  1.00  0.00     0.031 C 
ATOM     42  C   UNL A   1      39.976  30.696  30.844  1.00  0.00     0.029 A 
ATOM     43  N   UNL A   1      41.831  29.448  30.770  1.00  0.00    -0.354 N 
ATOM     44  C   UNL A   1      41.972  25.825  28.447  1.00  0.00     0.074 A 
ATOM     45  C   UNL A   1      40.674  25.520  27.877  1.00  0.00     0.031 C 
ATOM     46  C   UNL A   1      40.908  31.317  31.582  1.00  0.00     0.029 A 
ATOM     47  C   UNL A   1      42.136  30.528  31.563  1.00  0.00     0.049 A 
ATOM     48  H   UNL A   1      42.467  28.721  30.580  1.00  0.00     0.167 HD
ATOM     49  C   UNL A   1      43.087  25.070  28.291  1.00  0.00     0.037 A 
ATOM     50  C   UNL A   1      43.277  30.852  32.202  1.00  0.00     0.037 A 
ATOM     51  C   UNL A   1      44.371  25.375  28.876  1.00  0.00     0.049 A 
ATOM     52  C   UNL A   1      44.481  29.965  32.057  1.00  0.00     0.074 A 
ATOM     53  C   UNL A   1      45.565  24.684  28.743  1.00  0.00     0.029 A 
ATOM     54  N   UNL A   1      44.630  26.448  29.717  1.00  0.00    -0.354 N 
ATOM     55  N   UNL A   1      44.626  28.879  31.337  1.00  0.00    -0.248 NA
ATOM     56  C   UNL A   1      45.683  30.351  32.809  1.00  0.00     0.031 C 
ATOM     57  C   UNL A   1      46.522  25.296  29.555  1.00  0.00     0.029 A 
ATOM     58  C   UNL A   1      45.951  26.415  30.140  1.00  0.00     0.049 A 
ATOM     59  H   UNL A   1      43.972  27.133  29.978  1.00  0.00     0.167 HD
ATOM     60  C   UNL A   1      45.937  28.464  31.531  1.00  0.00     0.074 A 
ATOM     61  C   UNL A   1      46.553  29.429  32.417  1.00  0.00     0.031 C 
ATOM     62  C   UNL A   1      46.566  27.376  31.023  1.00  0.00     0.037 A 
BRANCH  49  63
ATOM     63  C   UNL A   1      42.986  23.829  27.444  1.00  0.00     0.064 A 
ATOM     64  C   UNL A   1      43.385  23.829  26.099  1.00  0.00     0.173 A 
ATOM     65  C   UNL A   1      42.580  22.607  28.004  1.00  0.00     0.173 A 
ATOM     66  F   UNL A   1      43.785  24.968  25.513  1.00  0.00    -0.203 F 
ATOM     67  C   UNL A   1      43.358  22.660  25.340  1.00  0.00     0.198 A 
ATOM     68  C   UNL A   1      42.588  21.434  27.253  1.00  0.00     0.198 A 
ATOM     69  F   UNL A   1      42.206  22.543  29.290  1.00  0.00    -0.203 F 
ATOM     70  F   UNL A   1      43.709  22.695  24.048  1.00  0.00    -0.200 F 
ATOM     71  C   UNL A   1      42.970  21.462  25.920  1.00  0.00     0.200 A 
ATOM     72  F   UNL A   1      42.235  20.272  27.822  1.00  0.00    -0.200 F 
ATOM     73  F   UNL A   1      42.965  20.335  25.195  1.00  0.00    -0.200 F 
ENDBRANCH  49  63
BRANCH  50  74
ATOM     74  C   UNL A   1      43.333  32.102  33.004  1.00  0.00     0.064 A 
ATOM     75  C   UNL A   1      43.070  32.090  34.380  1.00  0.00     0.173 A 
ATOM     76  C   UNL A   1      43.686  33.328  32.418  1.00  0.00     0.173 A 
ATOM     77  F   UNL A   1      42.711  30.947  34.983  1.00  0.00    -0.203 F 
ATOM     78  C   UNL A   1      43.150  33.255  35.139  1.00  0.00     0.198 A 
ATOM     79  C   UNL A   1      43.798  34.486  33.184  1.00  0.00     0.198 A 
ATOM     80  F   UNL A   1      43.953  33.394  31.105  1.00  0.00    -0.203 F 
ATOM     81  F   UNL A   1      42.859  33.222  36.447  1.00  0.00    -0.200 F 
ATOM     82  C   UNL A   1      43.525  34.450  34.542  1.00  0.00     0.200 A 
ATOM     83  F   UNL A   1      44.182  35.633  32.608  1.00  0.00    -0.200 F 
ATOM     84  F   UNL A   1      43.621  35.566  35.276  1.00  0.00    -0.200 F 
ENDBRANCH  50  74
BRANCH  62  85
ATOM     85  C   UNL A   1      48.008  27.162  31.396  1.00  0.00     0.064 A 
ATOM     86  C   UNL A   1      48.376  26.336  32.470  1.00  0.00     0.173 A 
ATOM     87  C   UNL A   1      49.036  27.729  30.628  1.00  0.00     0.173 A 
ATOM     88  F   UNL A   1      47.435  25.779  33.247  1.00  0.00    -0.203 F 
ATOM     89  C   UNL A   1      49.716  26.101  32.769  1.00  0.00     0.198 A 
ATOM     90  C   UNL A   1      50.375  27.462  30.907  1.00  0.00     0.198 A 
ATOM     91  F   UNL A   1      48.745  28.522  29.586  1.00  0.00    -0.203 F 
ATOM     92  F   UNL A   1      50.042  25.343  33.824  1.00  0.00    -0.200 F 
ATOM     93  C   UNL A   1      50.713  26.653  31.979  1.00  0.00     0.200 A 
ATOM     94  F   UNL A   1      51.336  27.981  30.130  1.00  0.00    -0.200 F 
ATOM     95  F   UNL A   1      52.002  26.407  32.255  1.00  0.00    -0.200 F 
ENDBRANCH  62  85
ENDBRANCH  36  37
ENDBRANCH  29  31
ENDBRANCH  28  29
ENDBRANCH  27  28
ENDBRANCH  26  27
ENDBRANCH  25  26
ENDBRANCH   1  25
TORSDOF 19
ENDMDL
MODEL 2
REMARK VINA RESULT:     -10.0      0.438      7.080
REMARK SMILES N#Cc1ccc2c(c1)C=C(C(=O)OCCOCCOCCOC(=O)c1ccc(-c3c4nc(c(-c5c(F)c(F)c(F)c(F)c5F)c5ccc([nH]5)c(-c5c(F)c(F)c(F)c(F)c5F)c5nc(c(-c6c(F)c(F)c(F)c(F)c6F)c6ccc3[nH]6)C=C5)C=C4)cc1)[C@@H](C(F)(F)F)O2
REMARK SMILES IDX 18 1 17 2 16 3 15 4 14 5 13 6 11 7 12 8 10 9 3 10 4 11 8 12
REMARK SMILES IDX 5 13 7 14 6 15 9 16 93 17 88 18 2 19 1 20 89 21 90 22 91 23
REMARK SMILES IDX 92 24 19 25 20 26 21 27 22 28 23 29 24 30 25 31 26 32 87 33
REMARK SMILES IDX 27 34 86 35 28 36 29 37 30 38 80 39 31 40 85 41 79 42 81 43
REMARK SMILES IDX 32 44 84 45 78 46 77 47 33 49 65 50 45 51 64 52 46 53 49 54
REMARK SMILES IDX 63 55 82 56 47 57 48 58 62 60 83 61 50 62 34 63 35 64 43 65
REMARK SMILES IDX 36 66 37 67 41 68 44 69 38 70 39 71 42 72 40 73 66 74 67 75
REMARK SMILES IDX 75 76 68 77 69 78 73 79 76 80 70 81 71 82 74 83 72 84 51 85
REMARK SMILES IDX 52 86 60 87 53 88 54 89 58 90 61 91 55 92 56 93 59 94 57 95
REMARK H PARENT 81 48 49 59
REMARK Flexibility Score: inf
ROOT
ATOM      1  C   UNL A   1      33.250  35.454  29.936  1.00  0.00     0.188 C 
ENDROOT
BRANCH   1   2
ATOM      2  C   UNL A   1      32.400  36.333  30.877  1.00  0.00     0.188 C 
BRANCH   2   3
ATOM      3  O   UNL A   1      32.915  37.580  31.276  1.00  0.00    -0.376 OA
BRANCH   3   4
ATOM      4  C   UNL A   1      33.873  37.677  32.314  1.00  0.00     0.202 C 
BRANCH   4   5
ATOM      5  C   UNL A   1      34.000  36.712  33.512  1.00  0.00     0.261 C 
BRANCH   5   6
ATOM      6  O   UNL A   1      35.015  35.706  33.451  1.00  0.00    -0.460 OA
BRANCH   6   7
ATOM      7  C   UNL A   1      34.580  34.425  33.515  1.00  0.00     0.338 C 
ATOM      8  O   UNL A   1      33.507  33.999  33.123  1.00  0.00    -0.246 OA
BRANCH   7   9
ATOM      9  C   UNL A   1      35.688  33.553  33.965  1.00  0.00     0.087 C 
ATOM     10  C   UNL A   1      39.246  32.707  37.094  1.00  0.00     0.053 A 
ATOM     11  C   UNL A   1      39.739  31.711  36.248  1.00  0.00     0.023 A 
ATOM     12  C   UNL A   1      38.055  33.369  36.768  1.00  0.00     0.031 A 
ATOM     13  C   UNL A   1      39.032  31.360  35.095  1.00  0.00     0.048 A 
ATOM     14  C   UNL A   1      37.377  33.054  35.584  1.00  0.00     0.019 A 
ATOM     15  C   UNL A   1      37.854  32.030  34.763  1.00  0.00     0.128 A 
ATOM     16  C   UNL A   1      36.230  33.837  35.158  1.00  0.00     0.027 C 
ATOM     17  O   UNL A   1      37.239  31.628  33.614  1.00  0.00    -0.475 OA
ATOM     18  C   UNL A   1      36.130  32.410  33.091  1.00  0.00     0.316 C 
BRANCH  10  19
ATOM     19  C   UNL A   1      39.974  33.077  38.274  1.00  0.00     0.099 C 
ATOM     20  N   UNL A   1      40.553  33.374  39.231  1.00  0.00    -0.192 NA
ENDBRANCH  10  19
BRANCH  18  21
ATOM     21  C   UNL A   1      36.491  32.878  31.677  1.00  0.00     0.430 C 
ATOM     22  F   UNL A   1      35.389  32.999  30.899  1.00  0.00    -0.167 F 
ATOM     23  F   UNL A   1      37.095  34.089  31.690  1.00  0.00    -0.167 F 
ATOM     24  F   UNL A   1      37.331  32.014  31.063  1.00  0.00    -0.167 F 
ENDBRANCH  18  21
ENDBRANCH   7   9
ENDBRANCH   6   7
ENDBRANCH   5   6
ENDBRANCH   4   5
ENDBRANCH   3   4
ENDBRANCH   2   3
ENDBRANCH   1   2
BRANCH   1  25
ATOM     25  O   UNL A   1      32.604  34.740  28.910  1.00  0.00    -0.376 OA
BRANCH  25  26
ATOM     26  C   UNL A   1      33.374  33.967  28.002  1.00  0.00     0.202 C 
BRANCH  26  27
ATOM     27  C   UNL A   1      33.342  32.425  27.882  1.00  0.00     0.261 C 
BRANCH  27  28
ATOM     28  O   UNL A   1      34.407  31.670  28.474  1.00  0.00    -0.460 OA
BRANCH  28  29
ATOM     29  C   UNL A   1      34.565  30.397  28.027  1.00  0.00     0.338 C 
ATOM     30  O   UNL A   1      33.787  29.748  27.352  1.00  0.00    -0.246 OA
BRANCH  29  31
ATOM     31  C   UNL A   1      35.957  29.981  28.306  1.00  0.00     0.060 A 
ATOM     32  C   UNL A   1      36.940  30.127  27.330  1.00  0.00     0.016 A 
ATOM     33  C   UNL A   1      36.272  29.403  29.547  1.00  0.00     0.016 A 
ATOM     34  C   UNL A   1      38.244  29.702  27.601  1.00  0.00     0.010 A 
ATOM     35  C   UNL A   1      37.573  28.958  29.807  1.00  0.00     0.010 A 
ATOM     36  C   UNL A   1      38.575  29.124  28.842  1.00  0.00    -0.014 A 
BRANCH  36  37
ATOM     37  C   UNL A   1      40.000  28.855  29.167  1.00  0.00     0.031 A 
ATOM     38  C   UNL A   1      40.822  29.784  30.009  1.00  0.00     0.074 A 
ATOM     39  C   UNL A   1      40.550  27.721  28.693  1.00  0.00     0.049 A 
ATOM     40  N   UNL A   1      42.042  29.621  30.460  1.00  0.00    -0.248 NA
ATOM     41  C   UNL A   1      40.206  31.061  30.391  1.00  0.00     0.031 C 
ATOM     42  C   UNL A   1      39.859  26.759  27.834  1.00  0.00     0.029 A 
ATOM     43  N   UNL A   1      41.795  27.175  28.874  1.00  0.00    -0.354 N 
ATOM     44  C   UNL A   1      42.334  30.759  31.200  1.00  0.00     0.074 A 
ATOM     45  C   UNL A   1      41.182  31.631  31.089  1.00  0.00     0.031 C 
ATOM     46  C   UNL A   1      40.671  25.719  27.601  1.00  0.00     0.029 A 
ATOM     47  C   UNL A   1      41.953  25.956  28.262  1.00  0.00     0.049 A 
ATOM     48  H   UNL A   1      42.507  27.614  29.394  1.00  0.00     0.167 HD
ATOM     49  C   UNL A   1      43.448  31.031  31.923  1.00  0.00     0.037 A 
ATOM     50  C   UNL A   1      43.006  25.117  28.234  1.00  0.00     0.037 A 
ATOM     51  C   UNL A   1      44.598  30.161  32.013  1.00  0.00     0.049 A 
ATOM     52  C   UNL A   1      44.251  25.472  28.999  1.00  0.00     0.074 A 
ATOM     53  C   UNL A   1      45.757  30.341  32.751  1.00  0.00     0.029 A 
ATOM     54  N   UNL A   1      44.744  28.959  31.336  1.00  0.00    -0.354 N 
ATOM     55  N   UNL A   1      44.482  26.510  29.766  1.00  0.00    -0.248 NA
ATOM     56  C   UNL A   1      45.380  24.537  28.899  1.00  0.00     0.031 C 
ATOM     57  C   UNL A   1      46.629  29.287  32.466  1.00  0.00     0.029 A 
ATOM     58  C   UNL A   1      45.988  28.407  31.608  1.00  0.00     0.049 A 
ATOM     59  H   UNL A   1      44.065  28.556  30.747  1.00  0.00     0.167 HD
ATOM     60  C   UNL A   1      45.770  26.343  30.257  1.00  0.00     0.074 A 
ATOM     61  C   UNL A   1      46.262  25.091  29.720  1.00  0.00     0.031 C 
ATOM     62  C   UNL A   1      46.479  27.160  31.074  1.00  0.00     0.037 A 
BRANCH  49  63
ATOM     63  C   UNL A   1      43.493  32.324  32.692  1.00  0.00     0.064 A 
ATOM     64  C   UNL A   1      43.945  33.512  32.099  1.00  0.00     0.173 A 
ATOM     65  C   UNL A   1      42.989  32.399  34.001  1.00  0.00     0.173 A 
ATOM     66  F   UNL A   1      44.434  33.500  30.850  1.00  0.00    -0.203 F 
ATOM     67  C   UNL A   1      43.915  34.720  32.794  1.00  0.00     0.198 A 
ATOM     68  C   UNL A   1      42.928  33.613  34.680  1.00  0.00     0.198 A 
ATOM     69  F   UNL A   1      42.525  31.299  34.612  1.00  0.00    -0.203 F 
ATOM     70  F   UNL A   1      44.388  35.833  32.218  1.00  0.00    -0.200 F 
ATOM     71  C   UNL A   1      43.397  34.772  34.079  1.00  0.00     0.200 A 
ATOM     72  F   UNL A   1      42.404  33.666  35.913  1.00  0.00    -0.200 F 
ATOM     73  F   UNL A   1      43.350  35.938  34.738  1.00  0.00    -0.200 F 
ENDBRANCH  49  63
BRANCH  50  74
ATOM     74  C   UNL A   1      42.903  23.840  27.482  1.00  0.00     0.064 A 
ATOM     75  C   UNL A   1      42.410  22.679  28.093  1.00  0.00     0.173 A 
ATOM     76  C   UNL A   1      43.259  23.762  26.126  1.00  0.00     0.173 A 
ATOM     77  F   UNL A   1      42.073  22.698  29.392  1.00  0.00    -0.203 F 
ATOM     78  C   UNL A   1      42.285  21.488  27.382  1.00  0.00     0.198 A 
ATOM     79  C   UNL A   1      43.103  22.580  25.408  1.00  0.00     0.198 A 
ATOM     80  F   UNL A   1      43.731  24.846  25.492  1.00  0.00    -0.203 F 
ATOM     81  F   UNL A   1      41.845  20.384  28.001  1.00  0.00    -0.200 F 
ATOM     82  C   UNL A   1      42.621  21.442  26.037  1.00  0.00     0.200 A 
ATOM     83  F   UNL A   1      43.407  22.546  24.104  1.00  0.00    -0.200 F 
ATOM     84  F   UNL A   1      42.482  20.302  25.349  1.00  0.00    -0.200 F 
ENDBRANCH  50  74
BRANCH  62  85
ATOM     85  C   UNL A   1      47.870  26.733  31.458  1.00  0.00     0.064 A 
ATOM     86  C   UNL A   1      48.101  25.842  32.518  1.00  0.00     0.173 A 
ATOM     87  C   UNL A   1      48.979  27.162  30.712  1.00  0.00     0.173 A 
ATOM     88  F   UNL A   1      47.079  25.412  33.272  1.00  0.00    -0.203 F 
ATOM     89  C   UNL A   1      49.389  25.411  32.826  1.00  0.00     0.198 A 
ATOM     90  C   UNL A   1      50.262  26.699  31.000  1.00  0.00     0.198 A 
ATOM     91  F   UNL A   1      48.819  28.009  29.685  1.00  0.00    -0.203 F 
ATOM     92  F   UNL A   1      49.588  24.593  33.868  1.00  0.00    -0.200 F 
ATOM     93  C   UNL A   1      50.466  25.829  32.059  1.00  0.00     0.200 A 
ATOM     94  F   UNL A   1      51.298  27.089  30.244  1.00  0.00    -0.200 F 
ATOM     95  F   UNL A   1      51.702  25.395  32.343  1.00  0.00    -0.200 F 
ENDBRANCH  62  85
ENDBRANCH  36  37
ENDBRANCH  29  31
ENDBRANCH  28  29
ENDBRANCH  27  28
ENDBRANCH  26  27
ENDBRANCH  25  26
ENDBRANCH   1  25
TORSDOF 19
ENDMDL
MODEL 3
REMARK VINA RESULT:      -9.9      4.836     11.451
REMARK SMILES N#Cc1ccc2c(c1)C=C(C(=O)OCCOCCOCCOC(=O)c1ccc(-c3c4nc(c(-c5c(F)c(F)c(F)c(F)c5F)c5ccc([nH]5)c(-c5c(F)c(F)c(F)c(F)c5F)c5nc(c(-c6c(F)c(F)c(F)c(F)c6F)c6ccc3[nH]6)C=C5)C=C4)cc1)[C@@H](C(F)(F)F)O2
REMARK SMILES IDX 18 1 17 2 16 3 15 4 14 5 13 6 11 7 12 8 10 9 3 10 4 11 8 12
REMARK SMILES IDX 5 13 7 14 6 15 9 16 93 17 88 18 2 19 1 20 89 21 90 22 91 23
REMARK SMILES IDX 92 24 19 25 20 26 21 27 22 28 23 29 24 30 25 31 26 32 87 33
REMARK SMILES IDX 27 34 86 35 28 36 29 37 30 38 80 39 31 40 85 41 79 42 81 43
REMARK SMILES IDX 32 44 84 45 78 46 77 47 33 49 65 50 45 51 64 52 46 53 49 54
REMARK SMILES IDX 63 55 82 56 47 57 48 58 62 60 83 61 50 62 34 63 35 64 43 65
REMARK SMILES IDX 36 66 37 67 41 68 44 69 38 70 39 71 42 72 40 73 66 74 67 75
REMARK SMILES IDX 75 76 68 77 69 78 73 79 76 80 70 81 71 82 74 83 72 84 51 85
REMARK SMILES IDX 52 86 60 87 53 88 54 89 58 90 61 91 55 92 56 93 59 94 57 95
REMARK H PARENT 81 48 49 59
REMARK Flexibility Score: inf
ROOT
ATOM      1  C   UNL A   1      41.524  20.505  27.165  1.00  0.00     0.188 C 
ENDROOT
BRANCH   1   2
ATOM      2  C   UNL A   1      40.351  21.506  27.155  1.00  0.00     0.188 C 
BRANCH   2   3
ATOM      3  O   UNL A   1      39.288  21.282  26.260  1.00  0.00    -0.376 OA
BRANCH   3   4
ATOM      4  C   UNL A   1      38.521  22.359  25.753  1.00  0.00     0.202 C 
BRANCH   4   5
ATOM      5  C   UNL A   1      36.991  22.355  25.551  1.00  0.00     0.261 C 
BRANCH   5   6
ATOM      6  O   UNL A   1      36.236  23.406  26.160  1.00  0.00    -0.460 OA
BRANCH   6   7
ATOM      7  C   UNL A   1      34.892  23.328  26.013  1.00  0.00     0.338 C 
ATOM      8  O   UNL A   1      34.133  22.593  26.623  1.00  0.00    -0.246 OA
BRANCH   7   9
ATOM      9  C   UNL A   1      34.432  24.417  25.123  1.00  0.00     0.087 C 
ATOM     10  C   UNL A   1      32.353  28.731  24.638  1.00  0.00     0.053 A 
ATOM     11  C   UNL A   1      32.235  28.508  23.263  1.00  0.00     0.023 A 
ATOM     12  C   UNL A   1      33.007  27.788  25.441  1.00  0.00     0.031 A 
ATOM     13  C   UNL A   1      32.792  27.362  22.692  1.00  0.00     0.048 A 
ATOM     14  C   UNL A   1      33.516  26.613  24.875  1.00  0.00     0.019 A 
ATOM     15  C   UNL A   1      33.430  26.416  23.495  1.00  0.00     0.128 A 
ATOM     16  C   UNL A   1      34.057  25.560  25.717  1.00  0.00     0.027 C 
ATOM     17  O   UNL A   1      33.933  25.324  22.851  1.00  0.00    -0.475 OA
ATOM     18  C   UNL A   1      34.423  24.200  23.634  1.00  0.00     0.316 C 
BRANCH  10  19
ATOM     19  C   UNL A   1      31.774  29.903  25.231  1.00  0.00     0.099 C 
ATOM     20  N   UNL A   1      31.308  30.844  25.717  1.00  0.00    -0.192 NA
ENDBRANCH  10  19
BRANCH  18  21
ATOM     21  C   UNL A   1      33.624  22.952  23.243  1.00  0.00     0.430 C 
ATOM     22  F   UNL A   1      33.309  22.958  21.926  1.00  0.00    -0.167 F 
ATOM     23  F   UNL A   1      34.325  21.817  23.473  1.00  0.00    -0.167 F 
ATOM     24  F   UNL A   1      32.468  22.860  23.939  1.00  0.00    -0.167 F 
ENDBRANCH  18  21
ENDBRANCH   7   9
ENDBRANCH   6   7
ENDBRANCH   5   6
ENDBRANCH   4   5
ENDBRANCH   3   4
ENDBRANCH   2   3
ENDBRANCH   1   2
BRANCH   1  25
ATOM     25  O   UNL A   1      42.028  20.040  25.936  1.00  0.00    -0.376 OA
BRANCH  25  26
ATOM     26  C   UNL A   1      43.398  20.241  25.618  1.00  0.00     0.202 C 
BRANCH  26  27
ATOM     27  C   UNL A   1      44.082  21.614  25.421  1.00  0.00     0.261 C 
BRANCH  27  28
ATOM     28  O   UNL A   1      43.256  22.777  25.282  1.00  0.00    -0.460 OA
BRANCH  28  29
ATOM     29  C   UNL A   1      43.902  23.965  25.147  1.00  0.00     0.338 C 
ATOM     30  O   UNL A   1      44.657  24.298  24.251  1.00  0.00    -0.246 OA
BRANCH  29  31
ATOM     31  C   UNL A   1      43.366  24.900  26.160  1.00  0.00     0.060 A 
ATOM     32  C   UNL A   1      42.433  24.457  27.096  1.00  0.00     0.016 A 
ATOM     33  C   UNL A   1      43.775  26.243  26.148  1.00  0.00     0.016 A 
ATOM     34  C   UNL A   1      41.916  25.361  28.028  1.00  0.00     0.010 A 
ATOM     35  C   UNL A   1      43.238  27.151  27.069  1.00  0.00     0.010 A 
ATOM     36  C   UNL A   1      42.319  26.711  28.030  1.00  0.00    -0.014 A 
BRANCH  36  37
ATOM     37  C   UNL A   1      41.896  27.600  29.144  1.00  0.00     0.031 A 
ATOM     38  C   UNL A   1      40.681  28.475  29.056  1.00  0.00     0.074 A 
ATOM     39  C   UNL A   1      42.633  27.591  30.270  1.00  0.00     0.049 A 
ATOM     40  N   UNL A   1      40.136  29.218  29.989  1.00  0.00    -0.248 NA
ATOM     41  C   UNL A   1      39.993  28.535  27.761  1.00  0.00     0.031 C 
ATOM     42  C   UNL A   1      43.854  26.808  30.457  1.00  0.00     0.029 A 
ATOM     43  N   UNL A   1      42.462  28.237  31.468  1.00  0.00    -0.354 N 
ATOM     44  C   UNL A   1      39.026  29.813  29.405  1.00  0.00     0.074 A 
ATOM     45  C   UNL A   1      39.009  29.389  28.019  1.00  0.00     0.031 C 
ATOM     46  C   UNL A   1      44.297  26.981  31.711  1.00  0.00     0.029 A 
ATOM     47  C   UNL A   1      43.414  27.917  32.404  1.00  0.00     0.049 A 
ATOM     48  H   UNL A   1      41.726  28.870  31.640  1.00  0.00     0.167 HD
ATOM     49  C   UNL A   1      38.098  30.615  29.984  1.00  0.00     0.037 A 
ATOM     50  C   UNL A   1      43.562  28.323  33.680  1.00  0.00     0.037 A 
ATOM     51  C   UNL A   1      38.133  31.044  31.363  1.00  0.00     0.049 A 
ATOM     52  C   UNL A   1      42.548  29.257  34.278  1.00  0.00     0.074 A 
ATOM     53  C   UNL A   1      37.215  31.828  32.043  1.00  0.00     0.029 A 
ATOM     54  N   UNL A   1      39.141  30.743  32.267  1.00  0.00    -0.354 N 
ATOM     55  N   UNL A   1      41.455  29.744  33.743  1.00  0.00    -0.248 NA
ATOM     56  C   UNL A   1      42.785  29.695  35.661  1.00  0.00     0.031 C 
ATOM     57  C   UNL A   1      37.702  32.058  33.333  1.00  0.00     0.029 A 
ATOM     58  C   UNL A   1      38.887  31.357  33.485  1.00  0.00     0.049 A 
ATOM     59  H   UNL A   1      39.924  30.177  32.072  1.00  0.00     0.167 HD
ATOM     60  C   UNL A   1      40.864  30.526  34.726  1.00  0.00     0.074 A 
ATOM     61  C   UNL A   1      41.706  30.429  35.899  1.00  0.00     0.031 C 
ATOM     62  C   UNL A   1      39.727  31.261  34.655  1.00  0.00     0.037 A 
BRANCH  49  63
ATOM     63  C   UNL A   1      36.945  31.086  29.138  1.00  0.00     0.064 A 
ATOM     64  C   UNL A   1      35.869  30.239  28.834  1.00  0.00     0.173 A 
ATOM     65  C   UNL A   1      36.867  32.421  28.709  1.00  0.00     0.173 A 
ATOM     66  F   UNL A   1      35.888  28.955  29.222  1.00  0.00    -0.203 F 
ATOM     67  C   UNL A   1      34.770  30.703  28.112  1.00  0.00     0.198 A 
ATOM     68  C   UNL A   1      35.752  32.890  28.018  1.00  0.00     0.198 A 
ATOM     69  F   UNL A   1      37.858  33.281  28.986  1.00  0.00    -0.203 F 
ATOM     70  F   UNL A   1      33.773  29.864  27.803  1.00  0.00    -0.200 F 
ATOM     71  C   UNL A   1      34.708  32.029  27.714  1.00  0.00     0.200 A 
ATOM     72  F   UNL A   1      35.683  34.179  27.655  1.00  0.00    -0.200 F 
ATOM     73  F   UNL A   1      33.641  32.479  27.038  1.00  0.00    -0.200 F 
ENDBRANCH  49  63
BRANCH  50  74
ATOM     74  C   UNL A   1      44.702  27.807  34.482  1.00  0.00     0.064 A 
ATOM     75  C   UNL A   1      45.922  28.496  34.530  1.00  0.00     0.173 A 
ATOM     76  C   UNL A   1      44.585  26.635  35.244  1.00  0.00     0.173 A 
ATOM     77  F   UNL A   1      46.089  29.612  33.805  1.00  0.00    -0.203 F 
ATOM     78  C   UNL A   1      46.982  28.030  35.304  1.00  0.00     0.198 A 
ATOM     79  C   UNL A   1      45.634  26.188  36.043  1.00  0.00     0.198 A 
ATOM     80  F   UNL A   1      43.437  25.940  35.237  1.00  0.00    -0.203 F 
ATOM     81  F   UNL A   1      48.149  28.689  35.304  1.00  0.00    -0.200 F 
ATOM     82  C   UNL A   1      46.833  26.882  36.069  1.00  0.00     0.200 A 
ATOM     83  F   UNL A   1      45.479  25.091  36.798  1.00  0.00    -0.200 F 
ATOM     84  F   UNL A   1      47.847  26.445  36.828  1.00  0.00    -0.200 F 
ENDBRANCH  50  74
BRANCH  62  85
ATOM     85  C   UNL A   1      39.306  32.022  35.883  1.00  0.00     0.064 A 
ATOM     86  C   UNL A   1      39.743  33.333  36.123  1.00  0.00     0.173 A 
ATOM     87  C   UNL A   1      38.397  31.460  36.794  1.00  0.00     0.173 A 
ATOM     88  F   UNL A   1      40.622  33.915  35.294  1.00  0.00    -0.203 F 
ATOM     89  C   UNL A   1      39.300  34.046  37.235  1.00  0.00     0.198 A 
ATOM     90  C   UNL A   1      37.927  32.189  37.884  1.00  0.00     0.198 A 
ATOM     91  F   UNL A   1      37.941  30.211  36.612  1.00  0.00    -0.203 F 
ATOM     92  F   UNL A   1      39.763  35.282  37.465  1.00  0.00    -0.200 F 
ATOM     93  C   UNL A   1      38.382  33.478  38.107  1.00  0.00     0.200 A 
ATOM     94  F   UNL A   1      37.026  31.645  38.713  1.00  0.00    -0.200 F 
ATOM     95  F   UNL A   1      37.939  34.174  39.164  1.00  0.00    -0.200 F 
ENDBRANCH  62  85
ENDBRANCH  36  37
ENDBRANCH  29  31
ENDBRANCH  28  29
ENDBRANCH  27  28
ENDBRANCH  26  27
ENDBRANCH  25  26
ENDBRANCH   1  25
TORSDOF 19
ENDMDL
