MODEL 1
REMARK VINA RESULT:     -11.3      0.000      0.000
REMARK SMILES Cc1ccccc1CCNc1ccc(C(=O)OCCOCCOCCOC(=O)c2ccc(-c3c4nc(c(-c5c(F)c(F)c(F)c(F)c5F)c5ccc([nH]5)c(-c5c(F)c(F)c(F)c(F)c5F)c5nc(c(-c6c(F)c(F)c(F)c(F)c6F)c6ccc3[nH]6)C=C5)C=C4)cc2)cc1N
REMARK SMILES IDX 21 1 20 2 19 3 18 4 17 5 15 6 16 7 14 8 11 9 12 10 93 11
REMARK SMILES IDX 13 12 92 13 10 14 9 16 8 17 7 18 1 19 2 20 3 21 4 22 6 23
REMARK SMILES IDX 5 24 94 25 22 28 23 29 24 30 25 31 26 32 27 33 28 34 29 35
REMARK SMILES IDX 30 36 91 37 31 38 90 39 32 40 33 41 34 42 84 43 35 44 89 45
REMARK SMILES IDX 83 46 85 47 36 48 88 49 82 50 81 51 37 53 69 54 49 55 68 56
REMARK SMILES IDX 50 57 53 58 67 59 86 60 51 61 52 62 66 64 87 65 54 66 38 67
REMARK SMILES IDX 39 68 47 69 40 70 41 71 45 72 48 73 42 74 43 75 46 76 44 77
REMARK SMILES IDX 70 78 71 79 79 80 72 81 73 82 77 83 80 84 74 85 75 86 78 87
REMARK SMILES IDX 76 88 55 89 56 90 64 91 57 92 58 93 62 94 65 95 59 96 60 97
REMARK SMILES IDX 63 98 61 99
REMARK H PARENT 10 15 94 26 94 27 85 52 53 63
REMARK Flexibility Score: inf
ROOT
ATOM      1  C   UNL A   1      34.085  36.092  28.227  1.00  0.00     0.188 C 
ENDROOT
BRANCH   1   2
ATOM      2  O   UNL A   1      34.471  34.761  28.574  1.00  0.00    -0.376 OA
BRANCH   2   3
ATOM      3  C   UNL A   1      33.756  33.638  28.041  1.00  0.00     0.202 C 
BRANCH   3   4
ATOM      4  C   UNL A   1      34.097  32.129  28.398  1.00  0.00     0.261 C 
BRANCH   4   5
ATOM      5  O   UNL A   1      34.507  31.088  27.385  1.00  0.00    -0.460 OA
BRANCH   5   6
ATOM      6  C   UNL A   1      34.863  29.695  27.460  1.00  0.00     0.338 C 
ATOM      7  O   UNL A   1      35.928  29.358  27.960  1.00  0.00    -0.246 OA
BRANCH   6   8
ATOM      8  C   UNL A   1      33.744  28.522  26.889  1.00  0.00     0.062 A 
ATOM      9  C   UNL A   1      31.684  26.537  26.178  1.00  0.00     0.057 A 
ATOM     10  C   UNL A   1      31.426  27.682  26.953  1.00  0.00     0.029 A 
ATOM     11  C   UNL A   1      32.974  26.379  25.709  1.00  0.00     0.056 A 
ATOM     12  C   UNL A   1      32.431  28.636  27.323  1.00  0.00     0.018 A 
ATOM     13  C   UNL A   1      33.900  27.409  25.993  1.00  0.00     0.043 A 
BRANCH   9  14
ATOM     14  N   UNL A   1      30.714  25.581  25.906  1.00  0.00    -0.383 N 
ATOM     15  H   UNL A   1      30.844  24.657  26.219  1.00  0.00     0.160 HD
BRANCH  14  16
ATOM     16  C   UNL A   1      29.507  25.925  25.165  1.00  0.00     0.117 C 
BRANCH  16  17
ATOM     17  C   UNL A   1      29.794  26.422  23.732  1.00  0.00     0.057 C 
BRANCH  17  18
ATOM     18  C   UNL A   1      29.261  27.816  23.449  1.00  0.00    -0.043 A 
ATOM     19  C   UNL A   1      31.588  28.934  23.394  1.00  0.00     0.044 C 
ATOM     20  C   UNL A   1      30.083  28.961  23.345  1.00  0.00    -0.048 A 
ATOM     21  C   UNL A   1      29.483  30.219  23.144  1.00  0.00     0.004 A 
ATOM     22  C   UNL A   1      28.099  30.354  23.049  1.00  0.00     0.000 A 
ATOM     23  C   UNL A   1      27.868  27.971  23.317  1.00  0.00     0.004 A 
ATOM     24  C   UNL A   1      27.292  29.227  23.127  1.00  0.00     0.000 A 
ENDBRANCH  17  18
ENDBRANCH  16  17
ENDBRANCH  14  16
ENDBRANCH   9  14
BRANCH  11  25
ATOM     25  N   UNL A   1      33.322  25.318  24.865  1.00  0.00    -0.397 N 
ATOM     26  H   UNL A   1      33.925  24.610  25.187  1.00  0.00     0.156 HD
ATOM     27  H   UNL A   1      32.964  25.280  23.949  1.00  0.00     0.156 HD
ENDBRANCH  11  25
ENDBRANCH   6   8
ENDBRANCH   5   6
ENDBRANCH   4   5
ENDBRANCH   3   4
ENDBRANCH   2   3
ENDBRANCH   1   2
BRANCH   1  28
ATOM     28  C   UNL A   1      33.105  36.856  29.063  1.00  0.00     0.188 C 
BRANCH  28  29
ATOM     29  O   UNL A   1      32.751  36.004  30.139  1.00  0.00    -0.376 OA
BRANCH  29  30
ATOM     30  C   UNL A   1      33.119  36.502  31.407  1.00  0.00     0.202 C 
BRANCH  30  31
ATOM     31  C   UNL A   1      33.101  35.399  32.474  1.00  0.00     0.261 C 
BRANCH  31  32
ATOM     32  O   UNL A   1      33.940  34.284  32.076  1.00  0.00    -0.460 OA
BRANCH  32  33
ATOM     33  C   UNL A   1      35.309  34.404  32.255  1.00  0.00     0.338 C 
ATOM     34  O   UNL A   1      35.841  35.269  32.882  1.00  0.00    -0.246 OA
BRANCH  33  35
ATOM     35  C   UNL A   1      36.016  33.355  31.433  1.00  0.00     0.060 A 
ATOM     36  C   UNL A   1      36.040  31.975  31.655  1.00  0.00     0.016 A 
ATOM     37  C   UNL A   1      36.901  33.800  30.523  1.00  0.00     0.016 A 
ATOM     38  C   UNL A   1      37.165  31.141  31.223  1.00  0.00     0.010 A 
ATOM     39  C   UNL A   1      38.014  32.999  30.268  1.00  0.00     0.010 A 
ATOM     40  C   UNL A   1      38.333  31.666  30.657  1.00  0.00    -0.014 A 
BRANCH  40  41
ATOM     41  C   UNL A   1      39.842  30.856  30.630  1.00  0.00     0.031 A 
ATOM     42  C   UNL A   1      40.356  29.356  30.030  1.00  0.00     0.074 A 
ATOM     43  C   UNL A   1      40.885  31.463  31.234  1.00  0.00     0.049 A 
ATOM     44  N   UNL A   1      40.814  28.313  30.711  1.00  0.00    -0.248 NA
ATOM     45  C   UNL A   1      40.301  28.871  28.618  1.00  0.00     0.031 C 
ATOM     46  C   UNL A   1      42.297  31.103  31.153  1.00  0.00     0.029 A 
ATOM     47  N   UNL A   1      40.890  32.566  32.095  1.00  0.00    -0.354 N 
ATOM     48  C   UNL A   1      41.042  27.317  29.712  1.00  0.00     0.074 A 
ATOM     49  C   UNL A   1      40.036  27.575  28.769  1.00  0.00     0.031 C 
ATOM     50  C   UNL A   1      42.954  31.714  32.155  1.00  0.00     0.029 A 
ATOM     51  C   UNL A   1      41.954  32.374  32.978  1.00  0.00     0.049 A 
ATOM     52  H   UNL A   1      40.265  33.327  32.080  1.00  0.00     0.167 HD
ATOM     53  C   UNL A   1      42.280  26.859  29.280  1.00  0.00     0.037 A 
ATOM     54  C   UNL A   1      41.710  32.221  34.306  1.00  0.00     0.037 A 
ATOM     55  C   UNL A   1      43.272  27.334  30.205  1.00  0.00     0.049 A 
ATOM     56  C   UNL A   1      42.222  30.872  34.717  1.00  0.00     0.074 A 
ATOM     57  C   UNL A   1      44.309  28.239  30.126  1.00  0.00     0.029 A 
ATOM     58  N   UNL A   1      43.041  27.086  31.538  1.00  0.00    -0.354 N 
ATOM     59  N   UNL A   1      42.355  29.884  33.870  1.00  0.00    -0.248 NA
ATOM     60  C   UNL A   1      42.776  30.565  36.028  1.00  0.00     0.031 C 
ATOM     61  C   UNL A   1      44.594  28.648  31.465  1.00  0.00     0.029 A 
ATOM     62  C   UNL A   1      43.757  27.949  32.324  1.00  0.00     0.049 A 
ATOM     63  H   UNL A   1      42.441  26.385  31.882  1.00  0.00     0.167 HD
ATOM     64  C   UNL A   1      43.115  28.909  34.439  1.00  0.00     0.074 A 
ATOM     65  C   UNL A   1      43.301  29.346  35.809  1.00  0.00     0.031 C 
ATOM     66  C   UNL A   1      43.593  27.835  33.758  1.00  0.00     0.037 A 
BRANCH  53  67
ATOM     67  C   UNL A   1      42.674  26.234  27.878  1.00  0.00     0.064 A 
ATOM     68  C   UNL A   1      42.325  24.886  27.607  1.00  0.00     0.173 A 
ATOM     69  C   UNL A   1      43.412  26.817  26.804  1.00  0.00     0.173 A 
ATOM     70  F   UNL A   1      41.645  24.163  28.506  1.00  0.00    -0.203 F 
ATOM     71  C   UNL A   1      42.664  24.215  26.411  1.00  0.00     0.198 A 
ATOM     72  C   UNL A   1      43.694  26.168  25.588  1.00  0.00     0.198 A 
ATOM     73  F   UNL A   1      43.989  28.017  26.863  1.00  0.00    -0.203 F 
ATOM     74  F   UNL A   1      42.344  22.923  26.256  1.00  0.00    -0.200 F 
ATOM     75  C   UNL A   1      43.331  24.861  25.393  1.00  0.00     0.200 A 
ATOM     76  F   UNL A   1      44.360  26.825  24.624  1.00  0.00    -0.200 F 
ATOM     77  F   UNL A   1      43.643  24.231  24.251  1.00  0.00    -0.200 F 
ENDBRANCH  53  67
BRANCH  54  78
ATOM     78  C   UNL A   1      40.547  33.043  34.773  1.00  0.00     0.064 A 
ATOM     79  C   UNL A   1      39.319  32.344  34.933  1.00  0.00     0.173 A 
ATOM     80  C   UNL A   1      40.646  34.275  35.430  1.00  0.00     0.173 A 
ATOM     81  F   UNL A   1      39.148  31.155  34.331  1.00  0.00    -0.203 F 
ATOM     82  C   UNL A   1      38.330  32.762  35.823  1.00  0.00     0.198 A 
ATOM     83  C   UNL A   1      39.616  34.725  36.280  1.00  0.00     0.198 A 
ATOM     84  F   UNL A   1      41.790  34.973  35.396  1.00  0.00    -0.203 F 
ATOM     85  F   UNL A   1      37.288  31.962  36.091  1.00  0.00    -0.200 F 
ATOM     86  C   UNL A   1      38.484  33.949  36.505  1.00  0.00     0.200 A 
ATOM     87  F   UNL A   1      39.798  35.831  37.019  1.00  0.00    -0.200 F 
ATOM     88  F   UNL A   1      37.594  34.298  37.448  1.00  0.00    -0.200 F 
ENDBRANCH  54  78
BRANCH  66  89
ATOM     89  C   UNL A   1      43.863  26.503  34.400  1.00  0.00     0.064 A 
ATOM     90  C   UNL A   1      45.163  26.067  34.698  1.00  0.00     0.173 A 
ATOM     91  C   UNL A   1      42.809  25.755  34.981  1.00  0.00     0.173 A 
ATOM     92  F   UNL A   1      46.241  26.769  34.321  1.00  0.00    -0.203 F 
ATOM     93  C   UNL A   1      45.395  24.927  35.460  1.00  0.00     0.198 A 
ATOM     94  C   UNL A   1      43.049  24.669  35.815  1.00  0.00     0.198 A 
ATOM     95  F   UNL A   1      41.523  26.096  34.806  1.00  0.00    -0.203 F 
ATOM     96  F   UNL A   1      46.654  24.523  35.672  1.00  0.00    -0.200 F 
ATOM     97  C   UNL A   1      44.342  24.240  36.035  1.00  0.00     0.200 A 
ATOM     98  F   UNL A   1      42.025  24.065  36.433  1.00  0.00    -0.200 F 
ATOM     99  F   UNL A   1      44.576  23.180  36.816  1.00  0.00    -0.200 F 
ENDBRANCH  66  89
ENDBRANCH  40  41
ENDBRANCH  33  35
ENDBRANCH  32  33
ENDBRANCH  31  32
ENDBRANCH  30  31
ENDBRANCH  29  30
ENDBRANCH  28  29
ENDBRANCH   1  28
TORSDOF 22
ENDMDL
MODEL 2
REMARK VINA RESULT:     -11.2      1.536      2.772
REMARK SMILES Cc1ccccc1CCNc1ccc(C(=O)OCCOCCOCCOC(=O)c2ccc(-c3c4nc(c(-c5c(F)c(F)c(F)c(F)c5F)c5ccc([nH]5)c(-c5c(F)c(F)c(F)c(F)c5F)c5nc(c(-c6c(F)c(F)c(F)c(F)c6F)c6ccc3[nH]6)C=C5)C=C4)cc2)cc1N
REMARK SMILES IDX 21 1 20 2 19 3 18 4 17 5 15 6 16 7 14 8 11 9 12 10 93 11
REMARK SMILES IDX 13 12 92 13 10 14 9 16 8 17 7 18 1 19 2 20 3 21 4 22 6 23
REMARK SMILES IDX 5 24 94 25 22 28 23 29 24 30 25 31 26 32 27 33 28 34 29 35
REMARK SMILES IDX 30 36 91 37 31 38 90 39 32 40 33 41 34 42 84 43 35 44 89 45
REMARK SMILES IDX 83 46 85 47 36 48 88 49 82 50 81 51 37 53 69 54 49 55 68 56
REMARK SMILES IDX 50 57 53 58 67 59 86 60 51 61 52 62 66 64 87 65 54 66 38 67
REMARK SMILES IDX 39 68 47 69 40 70 41 71 45 72 48 73 42 74 43 75 46 76 44 77
REMARK SMILES IDX 70 78 71 79 79 80 72 81 73 82 77 83 80 84 74 85 75 86 78 87
REMARK SMILES IDX 76 88 55 89 56 90 64 91 57 92 58 93 62 94 65 95 59 96 60 97
REMARK SMILES IDX 63 98 61 99
REMARK H PARENT 10 15 94 26 94 27 85 52 53 63
REMARK Flexibility Score: inf
ROOT
ATOM      1  C   UNL A   1      33.260  36.049  29.701  1.00  0.00     0.188 C 
ENDROOT
BRANCH   1   2
ATOM      2  O   UNL A   1      32.651  34.836  29.255  1.00  0.00    -0.376 OA
BRANCH   2   3
ATOM      3  C   UNL A   1      33.041  34.246  28.007  1.00  0.00     0.202 C 
BRANCH   3   4
ATOM      4  C   UNL A   1      33.844  32.881  27.893  1.00  0.00     0.261 C 
BRANCH   4   5
ATOM      5  O   UNL A   1      33.224  31.562  27.501  1.00  0.00    -0.460 OA
BRANCH   5   6
ATOM      6  C   UNL A   1      33.748  30.266  27.158  1.00  0.00     0.338 C 
ATOM      7  O   UNL A   1      34.934  30.016  27.328  1.00  0.00    -0.246 OA
BRANCH   6   8
ATOM      8  C   UNL A   1      32.669  29.068  26.561  1.00  0.00     0.062 A 
ATOM      9  C   UNL A   1      30.918  26.835  25.761  1.00  0.00     0.057 A 
ATOM     10  C   UNL A   1      31.221  27.146  27.099  1.00  0.00     0.029 A 
ATOM     11  C   UNL A   1      31.457  27.660  24.793  1.00  0.00     0.056 A 
ATOM     12  C   UNL A   1      32.093  28.215  27.491  1.00  0.00     0.018 A 
ATOM     13  C   UNL A   1      32.206  28.776  25.231  1.00  0.00     0.043 A 
BRANCH   9  14
ATOM     14  N   UNL A   1      30.142  25.740  25.402  1.00  0.00    -0.383 N 
ATOM     15  H   UNL A   1      29.234  25.885  25.053  1.00  0.00     0.160 HD
BRANCH  14  16
ATOM     16  C   UNL A   1      30.653  24.382  25.535  1.00  0.00     0.117 C 
BRANCH  16  17
ATOM     17  C   UNL A   1      31.061  23.751  24.186  1.00  0.00     0.057 C 
BRANCH  17  18
ATOM     18  C   UNL A   1      32.528  23.362  24.111  1.00  0.00    -0.043 A 
ATOM     19  C   UNL A   1      32.152  20.936  24.909  1.00  0.00     0.044 C 
ATOM     20  C   UNL A   1      33.019  22.093  24.489  1.00  0.00    -0.048 A 
ATOM     21  C   UNL A   1      34.407  21.854  24.442  1.00  0.00     0.004 A 
ATOM     22  C   UNL A   1      35.298  22.845  24.034  1.00  0.00     0.000 A 
ATOM     23  C   UNL A   1      33.443  24.338  23.672  1.00  0.00     0.004 A 
ATOM     24  C   UNL A   1      34.814  24.084  23.641  1.00  0.00     0.000 A 
ENDBRANCH  17  18
ENDBRANCH  16  17
ENDBRANCH  14  16
ENDBRANCH   9  14
BRANCH  11  25
ATOM     25  N   UNL A   1      31.158  27.490  23.435  1.00  0.00    -0.397 N 
ATOM     26  H   UNL A   1      31.877  27.291  22.794  1.00  0.00     0.156 HD
ATOM     27  H   UNL A   1      30.228  27.568  23.123  1.00  0.00     0.156 HD
ENDBRANCH  11  25
ENDBRANCH   6   8
ENDBRANCH   5   6
ENDBRANCH   4   5
ENDBRANCH   3   4
ENDBRANCH   2   3
ENDBRANCH   1   2
BRANCH   1  28
ATOM     28  C   UNL A   1      32.849  36.692  30.989  1.00  0.00     0.188 C 
BRANCH  28  29
ATOM     29  O   UNL A   1      34.018  36.762  31.789  1.00  0.00    -0.376 OA
BRANCH  29  30
ATOM     30  C   UNL A   1      33.930  36.032  32.995  1.00  0.00     0.202 C 
BRANCH  30  31
ATOM     31  C   UNL A   1      35.139  35.106  33.183  1.00  0.00     0.261 C 
BRANCH  31  32
ATOM     32  O   UNL A   1      35.633  34.637  31.902  1.00  0.00    -0.460 OA
BRANCH  32  33
ATOM     33  C   UNL A   1      35.128  33.445  31.408  1.00  0.00     0.338 C 
ATOM     34  O   UNL A   1      34.082  32.965  31.723  1.00  0.00    -0.246 OA
BRANCH  33  35
ATOM     35  C   UNL A   1      36.159  32.794  30.518  1.00  0.00     0.060 A 
ATOM     36  C   UNL A   1      36.228  31.451  30.138  1.00  0.00     0.016 A 
ATOM     37  C   UNL A   1      37.255  33.523  30.237  1.00  0.00     0.016 A 
ATOM     38  C   UNL A   1      37.501  30.804  29.809  1.00  0.00     0.010 A 
ATOM     39  C   UNL A   1      38.455  32.831  30.066  1.00  0.00     0.010 A 
ATOM     40  C   UNL A   1      38.740  31.441  29.947  1.00  0.00    -0.014 A 
BRANCH  40  41
ATOM     41  C   UNL A   1      40.236  30.620  30.099  1.00  0.00     0.031 A 
ATOM     42  C   UNL A   1      40.804  29.112  29.573  1.00  0.00     0.074 A 
ATOM     43  C   UNL A   1      41.207  31.225  30.813  1.00  0.00     0.049 A 
ATOM     44  N   UNL A   1      41.173  28.072  30.311  1.00  0.00    -0.248 NA
ATOM     45  C   UNL A   1      40.907  28.615  28.168  1.00  0.00     0.031 C 
ATOM     46  C   UNL A   1      42.617  30.855  30.897  1.00  0.00     0.029 A 
ATOM     47  N   UNL A   1      41.122  32.336  31.660  1.00  0.00    -0.354 N 
ATOM     48  C   UNL A   1      41.506  27.066  29.351  1.00  0.00     0.074 A 
ATOM     49  C   UNL A   1      40.617  27.322  28.298  1.00  0.00     0.031 C 
ATOM     50  C   UNL A   1      43.159  31.470  31.963  1.00  0.00     0.029 A 
ATOM     51  C   UNL A   1      42.077  32.144  32.661  1.00  0.00     0.049 A 
ATOM     52  H   UNL A   1      40.510  33.101  31.568  1.00  0.00     0.167 HD
ATOM     53  C   UNL A   1      42.781  26.595  29.068  1.00  0.00     0.037 A 
ATOM     54  C   UNL A   1      41.682  32.004  33.953  1.00  0.00     0.037 A 
ATOM     55  C   UNL A   1      43.665  27.072  30.096  1.00  0.00     0.049 A 
ATOM     56  C   UNL A   1      42.132  30.655  34.431  1.00  0.00     0.074 A 
ATOM     57  C   UNL A   1      44.711  27.969  30.130  1.00  0.00     0.029 A 
ATOM     58  N   UNL A   1      43.281  26.837  31.396  1.00  0.00    -0.354 N 
ATOM     59  N   UNL A   1      42.355  29.659  33.612  1.00  0.00    -0.248 NA
ATOM     60  C   UNL A   1      42.530  30.356  35.799  1.00  0.00     0.031 C 
ATOM     61  C   UNL A   1      44.844  28.388  31.489  1.00  0.00     0.029 A 
ATOM     62  C   UNL A   1      43.909  27.702  32.252  1.00  0.00     0.049 A 
ATOM     63  H   UNL A   1      42.641  26.143  31.674  1.00  0.00     0.167 HD
ATOM     64  C   UNL A   1      43.036  28.684  34.273  1.00  0.00     0.074 A 
ATOM     65  C   UNL A   1      43.068  29.131  35.651  1.00  0.00     0.031 C 
ATOM     66  C   UNL A   1      43.581  27.601  33.659  1.00  0.00     0.037 A 
BRANCH  53  67
ATOM     67  C   UNL A   1      43.328  25.956  27.725  1.00  0.00     0.064 A 
ATOM     68  C   UNL A   1      43.060  24.589  27.459  1.00  0.00     0.173 A 
ATOM     69  C   UNL A   1      44.139  26.545  26.709  1.00  0.00     0.173 A 
ATOM     70  F   UNL A   1      42.327  23.859  28.310  1.00  0.00    -0.203 F 
ATOM     71  C   UNL A   1      43.534  23.906  26.316  1.00  0.00     0.198 A 
ATOM     72  C   UNL A   1      44.559  25.880  25.541  1.00  0.00     0.198 A 
ATOM     73  F   UNL A   1      44.661  27.769  26.789  1.00  0.00    -0.203 F 
ATOM     74  F   UNL A   1      43.281  22.598  26.167  1.00  0.00    -0.200 F 
ATOM     75  C   UNL A   1      44.267  24.556  25.348  1.00  0.00     0.200 A 
ATOM     76  F   UNL A   1      45.285  26.543  24.625  1.00  0.00    -0.200 F 
ATOM     77  F   UNL A   1      44.708  23.914  24.257  1.00  0.00    -0.200 F 
ENDBRANCH  53  67
BRANCH  54  78
ATOM     78  C   UNL A   1      40.479  32.838  34.279  1.00  0.00     0.064 A 
ATOM     79  C   UNL A   1      39.221  32.188  34.147  1.00  0.00     0.173 A 
ATOM     80  C   UNL A   1      40.495  34.001  35.056  1.00  0.00     0.173 A 
ATOM     81  F   UNL A   1      39.126  31.066  33.414  1.00  0.00    -0.203 F 
ATOM     82  C   UNL A   1      38.099  32.574  34.878  1.00  0.00     0.198 A 
ATOM     83  C   UNL A   1      39.340  34.426  35.744  1.00  0.00     0.198 A 
ATOM     84  F   UNL A   1      41.646  34.643  35.296  1.00  0.00    -0.203 F 
ATOM     85  F   UNL A   1      37.000  31.806  34.876  1.00  0.00    -0.200 F 
ATOM     86  C   UNL A   1      38.161  33.689  35.686  1.00  0.00     0.200 A 
ATOM     87  F   UNL A   1      39.418  35.453  36.605  1.00  0.00    -0.200 F 
ATOM     88  F   UNL A   1      37.125  33.997  36.481  1.00  0.00    -0.200 F 
ENDBRANCH  54  78
BRANCH  66  89
ATOM     89  C   UNL A   1      43.765  26.272  34.338  1.00  0.00     0.064 A 
ATOM     90  C   UNL A   1      42.682  25.528  34.829  1.00  0.00     0.173 A 
ATOM     91  C   UNL A   1      45.005  25.591  34.266  1.00  0.00     0.173 A 
ATOM     92  F   UNL A   1      41.434  26.017  34.817  1.00  0.00    -0.203 F 
ATOM     93  C   UNL A   1      42.837  24.222  35.281  1.00  0.00     0.198 A 
ATOM     94  C   UNL A   1      45.135  24.257  34.637  1.00  0.00     0.198 A 
ATOM     95  F   UNL A   1      46.106  26.181  33.776  1.00  0.00    -0.203 F 
ATOM     96  F   UNL A   1      41.782  23.572  35.790  1.00  0.00    -0.200 F 
ATOM     97  C   UNL A   1      44.056  23.581  35.168  1.00  0.00     0.200 A 
ATOM     98  F   UNL A   1      46.299  23.622  34.443  1.00  0.00    -0.200 F 
ATOM     99  F   UNL A   1      44.183  22.305  35.550  1.00  0.00    -0.200 F 
ENDBRANCH  66  89
ENDBRANCH  40  41
ENDBRANCH  33  35
ENDBRANCH  32  33
ENDBRANCH  31  32
ENDBRANCH  30  31
ENDBRANCH  29  30
ENDBRANCH  28  29
ENDBRANCH   1  28
TORSDOF 22
ENDMDL
MODEL 3
REMARK VINA RESULT:     -11.0      4.404      9.036
REMARK SMILES Cc1ccccc1CCNc1ccc(C(=O)OCCOCCOCCOC(=O)c2ccc(-c3c4nc(c(-c5c(F)c(F)c(F)c(F)c5F)c5ccc([nH]5)c(-c5c(F)c(F)c(F)c(F)c5F)c5nc(c(-c6c(F)c(F)c(F)c(F)c6F)c6ccc3[nH]6)C=C5)C=C4)cc2)cc1N
REMARK SMILES IDX 21 1 20 2 19 3 18 4 17 5 15 6 16 7 14 8 11 9 12 10 93 11
REMARK SMILES IDX 13 12 92 13 10 14 9 16 8 17 7 18 1 19 2 20 3 21 4 22 6 23
REMARK SMILES IDX 5 24 94 25 22 28 23 29 24 30 25 31 26 32 27 33 28 34 29 35
REMARK SMILES IDX 30 36 91 37 31 38 90 39 32 40 33 41 34 42 84 43 35 44 89 45
REMARK SMILES IDX 83 46 85 47 36 48 88 49 82 50 81 51 37 53 69 54 49 55 68 56
REMARK SMILES IDX 50 57 53 58 67 59 86 60 51 61 52 62 66 64 87 65 54 66 38 67
REMARK SMILES IDX 39 68 47 69 40 70 41 71 45 72 48 73 42 74 43 75 46 76 44 77
REMARK SMILES IDX 70 78 71 79 79 80 72 81 73 82 77 83 80 84 74 85 75 86 78 87
REMARK SMILES IDX 76 88 55 89 56 90 64 91 57 92 58 93 62 94 65 95 59 96 60 97
REMARK SMILES IDX 63 98 61 99
REMARK H PARENT 10 15 94 26 94 27 85 52 53 63
REMARK Flexibility Score: inf
ROOT
ATOM      1  C   UNL A   1      38.004  23.664  26.004  1.00  0.00     0.188 C 
ENDROOT
BRANCH   1   2
ATOM      2  O   UNL A   1      36.612  23.373  26.129  1.00  0.00    -0.376 OA
BRANCH   2   3
ATOM      3  C   UNL A   1      35.918  22.687  25.077  1.00  0.00     0.202 C 
BRANCH   3   4
ATOM      4  C   UNL A   1      35.900  21.107  24.921  1.00  0.00     0.261 C 
BRANCH   4   5
ATOM      5  O   UNL A   1      34.676  20.247  25.126  1.00  0.00    -0.460 OA
BRANCH   5   6
ATOM      6  C   UNL A   1      33.389  20.162  24.487  1.00  0.00     0.338 C 
ATOM      7  O   UNL A   1      33.067  19.148  23.881  1.00  0.00    -0.246 OA
BRANCH   6   8
ATOM      8  C   UNL A   1      32.298  21.482  24.642  1.00  0.00     0.062 A 
ATOM      9  C   UNL A   1      30.622  23.905  24.735  1.00  0.00     0.057 A 
ATOM     10  C   UNL A   1      31.356  23.510  23.601  1.00  0.00     0.029 A 
ATOM     11  C   UNL A   1      30.682  23.075  25.837  1.00  0.00     0.056 A 
ATOM     12  C   UNL A   1      32.193  22.346  23.562  1.00  0.00     0.018 A 
ATOM     13  C   UNL A   1      31.418  21.875  25.709  1.00  0.00     0.043 A 
BRANCH   9  14
ATOM     14  N   UNL A   1      29.888  25.084  24.779  1.00  0.00    -0.383 N 
ATOM     15  H   UNL A   1      29.394  25.315  25.598  1.00  0.00     0.160 HD
BRANCH  14  16
ATOM     16  C   UNL A   1      29.838  25.981  23.632  1.00  0.00     0.117 C 
BRANCH  16  17
ATOM     17  C   UNL A   1      30.066  27.461  24.007  1.00  0.00     0.057 C 
BRANCH  17  18
ATOM     18  C   UNL A   1      31.527  27.823  24.210  1.00  0.00    -0.043 A 
ATOM     19  C   UNL A   1      31.482  27.491  26.770  1.00  0.00     0.044 C 
ATOM     20  C   UNL A   1      32.150  27.880  25.477  1.00  0.00    -0.048 A 
ATOM     21  C   UNL A   1      33.495  28.288  25.561  1.00  0.00     0.004 A 
ATOM     22  C   UNL A   1      34.218  28.638  24.422  1.00  0.00     0.000 A 
ATOM     23  C   UNL A   1      32.286  28.149  23.069  1.00  0.00     0.004 A 
ATOM     24  C   UNL A   1      33.615  28.559  23.175  1.00  0.00     0.000 A 
ENDBRANCH  17  18
ENDBRANCH  16  17
ENDBRANCH  14  16
ENDBRANCH   9  14
BRANCH  11  25
ATOM     25  N   UNL A   1      29.930  23.332  26.990  1.00  0.00    -0.397 N 
ATOM     26  H   UNL A   1      29.086  22.849  27.145  1.00  0.00     0.156 HD
ATOM     27  H   UNL A   1      30.245  23.994  27.645  1.00  0.00     0.156 HD
ENDBRANCH  11  25
ENDBRANCH   6   8
ENDBRANCH   5   6
ENDBRANCH   4   5
ENDBRANCH   3   4
ENDBRANCH   2   3
ENDBRANCH   1   2
BRANCH   1  28
ATOM     28  C   UNL A   1      39.042  22.653  26.381  1.00  0.00     0.188 C 
BRANCH  28  29
ATOM     29  O   UNL A   1      39.660  23.139  27.562  1.00  0.00    -0.376 OA
BRANCH  29  30
ATOM     30  C   UNL A   1      41.069  23.176  27.496  1.00  0.00     0.202 C 
BRANCH  30  31
ATOM     31  C   UNL A   1      41.621  24.523  27.981  1.00  0.00     0.261 C 
BRANCH  31  32
ATOM     32  O   UNL A   1      40.541  25.431  28.319  1.00  0.00    -0.460 OA
BRANCH  32  33
ATOM     33  C   UNL A   1      40.238  26.443  27.423  1.00  0.00     0.338 C 
ATOM     34  O   UNL A   1      40.512  26.429  26.262  1.00  0.00    -0.246 OA
BRANCH  33  35
ATOM     35  C   UNL A   1      39.627  27.605  28.166  1.00  0.00     0.060 A 
ATOM     36  C   UNL A   1      39.677  28.958  27.817  1.00  0.00     0.016 A 
ATOM     37  C   UNL A   1      39.179  27.354  29.409  1.00  0.00     0.016 A 
ATOM     38  C   UNL A   1      39.609  30.020  28.824  1.00  0.00     0.010 A 
ATOM     39  C   UNL A   1      39.272  28.387  30.343  1.00  0.00     0.010 A 
ATOM     40  C   UNL A   1      39.593  29.768  30.201  1.00  0.00    -0.014 A 
BRANCH  40  41
ATOM     41  C   UNL A   1      40.043  30.908  31.398  1.00  0.00     0.031 A 
ATOM     42  C   UNL A   1      41.057  30.843  32.755  1.00  0.00     0.074 A 
ATOM     43  C   UNL A   1      39.479  32.131  31.335  1.00  0.00     0.049 A 
ATOM     44  N   UNL A   1      40.723  30.965  34.034  1.00  0.00    -0.248 NA
ATOM     45  C   UNL A   1      42.518  30.536  32.790  1.00  0.00     0.031 C 
ATOM     46  C   UNL A   1      39.857  33.330  32.077  1.00  0.00     0.029 A 
ATOM     47  N   UNL A   1      38.390  32.565  30.571  1.00  0.00    -0.354 N 
ATOM     48  C   UNL A   1      41.954  30.776  34.735  1.00  0.00     0.074 A 
ATOM     49  C   UNL A   1      42.643  29.858  33.929  1.00  0.00     0.031 C 
ATOM     50  C   UNL A   1      38.851  34.218  32.001  1.00  0.00     0.029 A 
ATOM     51  C   UNL A   1      37.751  33.556  31.319  1.00  0.00     0.049 A 
ATOM     52  H   UNL A   1      38.126  32.236  29.681  1.00  0.00     0.167 HD
ATOM     53  C   UNL A   1      42.667  31.754  35.415  1.00  0.00     0.037 A 
ATOM     54  C   UNL A   1      36.477  33.362  31.750  1.00  0.00     0.037 A 
ATOM     55  C   UNL A   1      41.818  32.907  35.546  1.00  0.00     0.049 A 
ATOM     56  C   UNL A   1      36.484  33.412  33.249  1.00  0.00     0.074 A 
ATOM     57  C   UNL A   1      41.835  34.182  35.021  1.00  0.00     0.029 A 
ATOM     58  N   UNL A   1      40.564  32.692  36.068  1.00  0.00    -0.354 N 
ATOM     59  N   UNL A   1      37.553  33.148  33.955  1.00  0.00    -0.248 NA
ATOM     60  C   UNL A   1      35.385  33.913  34.062  1.00  0.00     0.031 C 
ATOM     61  C   UNL A   1      40.497  34.674  35.107  1.00  0.00     0.029 A 
ATOM     62  C   UNL A   1      39.713  33.708  35.722  1.00  0.00     0.049 A 
ATOM     63  H   UNL A   1      40.311  31.914  36.616  1.00  0.00     0.167 HD
ATOM     64  C   UNL A   1      37.357  33.567  35.234  1.00  0.00     0.074 A 
ATOM     65  C   UNL A   1      35.967  33.979  35.274  1.00  0.00     0.031 C 
ATOM     66  C   UNL A   1      38.340  33.608  36.172  1.00  0.00     0.037 A 
BRANCH  53  67
ATOM     67  C   UNL A   1      44.221  31.822  35.718  1.00  0.00     0.064 A 
ATOM     68  C   UNL A   1      45.080  32.420  34.761  1.00  0.00     0.173 A 
ATOM     69  C   UNL A   1      44.948  31.302  36.832  1.00  0.00     0.173 A 
ATOM     70  F   UNL A   1      44.584  32.950  33.636  1.00  0.00    -0.203 F 
ATOM     71  C   UNL A   1      46.483  32.496  34.907  1.00  0.00     0.198 A 
ATOM     72  C   UNL A   1      46.338  31.434  37.005  1.00  0.00     0.198 A 
ATOM     73  F   UNL A   1      44.403  30.560  37.796  1.00  0.00    -0.203 F 
ATOM     74  F   UNL A   1      47.229  33.029  33.929  1.00  0.00    -0.200 F 
ATOM     75  C   UNL A   1      47.111  32.020  36.038  1.00  0.00     0.200 A 
ATOM     76  F   UNL A   1      46.918  30.944  38.114  1.00  0.00    -0.200 F 
ATOM     77  F   UNL A   1      48.441  32.102  36.185  1.00  0.00    -0.200 F 
ENDBRANCH  53  67
BRANCH  54  78
ATOM     78  C   UNL A   1      35.654  32.579  30.771  1.00  0.00     0.064 A 
ATOM     79  C   UNL A   1      34.941  33.345  29.809  1.00  0.00     0.173 A 
ATOM     80  C   UNL A   1      35.839  31.225  30.469  1.00  0.00     0.173 A 
ATOM     81  F   UNL A   1      34.723  34.652  30.029  1.00  0.00    -0.203 F 
ATOM     82  C   UNL A   1      34.590  32.837  28.559  1.00  0.00     0.198 A 
ATOM     83  C   UNL A   1      35.425  30.699  29.229  1.00  0.00     0.198 A 
ATOM     84  F   UNL A   1      36.560  30.439  31.281  1.00  0.00    -0.203 F 
ATOM     85  F   UNL A   1      34.108  33.656  27.613  1.00  0.00    -0.200 F 
ATOM     86  C   UNL A   1      34.842  31.514  28.265  1.00  0.00     0.200 A 
ATOM     87  F   UNL A   1      35.750  29.439  28.898  1.00  0.00    -0.200 F 
ATOM     88  F   UNL A   1      34.615  31.050  27.026  1.00  0.00    -0.200 F 
ENDBRANCH  54  78
BRANCH  66  89
ATOM     89  C   UNL A   1      38.084  33.451  37.645  1.00  0.00     0.064 A 
ATOM     90  C   UNL A   1      37.658  32.237  38.203  1.00  0.00     0.173 A 
ATOM     91  C   UNL A   1      38.525  34.437  38.562  1.00  0.00     0.173 A 
ATOM     92  F   UNL A   1      37.349  31.183  37.436  1.00  0.00    -0.203 F 
ATOM     93  C   UNL A   1      37.608  32.044  39.580  1.00  0.00     0.198 A 
ATOM     94  C   UNL A   1      38.555  34.205  39.933  1.00  0.00     0.198 A 
ATOM     95  F   UNL A   1      38.995  35.624  38.150  1.00  0.00    -0.203 F 
ATOM     96  F   UNL A   1      37.143  30.884  40.065  1.00  0.00    -0.200 F 
ATOM     97  C   UNL A   1      38.073  33.018  40.443  1.00  0.00     0.200 A 
ATOM     98  F   UNL A   1      39.088  35.123  40.751  1.00  0.00    -0.200 F 
ATOM     99  F   UNL A   1      38.077  32.801  41.763  1.00  0.00    -0.200 F 
ENDBRANCH  66  89
ENDBRANCH  40  41
ENDBRANCH  33  35
ENDBRANCH  32  33
ENDBRANCH  31  32
ENDBRANCH  30  31
ENDBRANCH  29  30
ENDBRANCH  28  29
ENDBRANCH   1  28
TORSDOF 22
ENDMDL
