MODEL 1
REMARK VINA RESULT:     -10.6      0.000      0.000
REMARK SMILES CCOC(=O)c1nc(Nc2cccc(C(=O)OCCOCCOCCOC(=O)c3ccc(-c4c5nc(c(-c6c(F)c(F)c(F)c(F)c6F)c6ccc([nH]6)c(-c6c(F)c(F)c(F)c(F)c6F)c6nc(c(-c7c(F)c(F)c(F)c(F)c7F)c7ccc4[nH]7)C=C6)C=C5)cc3)c2)c2ccccc2n1
REMARK SMILES IDX 20 1 19 2 18 3 17 4 15 5 16 6 14 7 10 8 11 9 92 10 12 11
REMARK SMILES IDX 13 12 9 13 8 15 6 16 7 17 99 18 98 19 93 20 97 21 94 22
REMARK SMILES IDX 96 23 95 24 4 25 5 26 3 27 2 28 1 29 21 30 22 31 23 32 24 33
REMARK SMILES IDX 25 34 26 35 27 36 28 37 29 38 30 39 91 40 31 41 90 42 32 43
REMARK SMILES IDX 33 44 34 45 84 46 35 47 89 48 83 49 85 50 36 51 88 52 82 53
REMARK SMILES IDX 81 54 37 56 69 57 49 58 68 59 50 60 53 61 67 62 86 63 51 64
REMARK SMILES IDX 52 65 66 67 87 68 54 69 38 70 39 71 47 72 40 73 41 74 45 75
REMARK SMILES IDX 48 76 42 77 43 78 46 79 44 80 70 81 71 82 79 83 72 84 73 85
REMARK SMILES IDX 77 86 80 87 74 88 75 89 78 90 76 91 55 92 56 93 64 94 57 95
REMARK SMILES IDX 58 96 62 97 65 98 59 99 60 100 63 101 61 102
REMARK H PARENT 9 14 85 55 53 66
REMARK Flexibility Score: inf
ROOT
ATOM      1  O   UNL A   1      37.637  21.845  25.323  1.00  0.00    -0.376 OA
ENDROOT
BRANCH   1   2
ATOM      2  C   UNL A   1      36.498  21.096  24.929  1.00  0.00     0.202 C 
BRANCH   2   3
ATOM      3  C   UNL A   1      35.145  21.752  24.611  1.00  0.00     0.261 C 
BRANCH   3   4
ATOM      4  O   UNL A   1      33.993  20.958  24.918  1.00  0.00    -0.460 OA
BRANCH   4   5
ATOM      5  C   UNL A   1      32.888  21.217  24.171  1.00  0.00     0.338 C 
ATOM      6  O   UNL A   1      32.496  20.592  23.201  1.00  0.00    -0.246 OA
BRANCH   5   7
ATOM      7  C   UNL A   1      32.071  22.246  24.855  1.00  0.00     0.062 A 
ATOM      8  C   UNL A   1      30.746  24.285  24.815  1.00  0.00     0.040 A 
ATOM      9  C   UNL A   1      30.588  24.183  26.204  1.00  0.00     0.026 A 
ATOM     10  C   UNL A   1      31.544  23.334  24.161  1.00  0.00     0.041 A 
ATOM     11  C   UNL A   1      31.149  23.115  26.911  1.00  0.00     0.003 A 
ATOM     12  C   UNL A   1      31.866  22.130  26.233  1.00  0.00     0.016 A 
BRANCH   8  13
ATOM     13  N   UNL A   1      29.992  25.233  24.087  1.00  0.00    -0.340 N 
ATOM     14  H   UNL A   1      29.133  24.936  23.704  1.00  0.00     0.168 HD
BRANCH  13  15
ATOM     15  C   UNL A   1      30.378  26.574  23.868  1.00  0.00     0.142 A 
ATOM     16  C   UNL A   1      32.085  28.109  23.818  1.00  0.00     0.241 A 
ATOM     17  N   UNL A   1      31.690  26.840  23.941  1.00  0.00    -0.204 NA
ATOM     18  N   UNL A   1      31.280  29.157  23.587  1.00  0.00    -0.222 NA
ATOM     19  C   UNL A   1      29.980  28.879  23.460  1.00  0.00     0.077 A 
ATOM     20  C   UNL A   1      29.440  27.588  23.613  1.00  0.00     0.043 A 
ATOM     21  C   UNL A   1      29.119  29.925  23.155  1.00  0.00     0.029 A 
ATOM     22  C   UNL A   1      28.038  27.399  23.492  1.00  0.00     0.014 A 
ATOM     23  C   UNL A   1      27.745  29.733  23.003  1.00  0.00     0.002 A 
ATOM     24  C   UNL A   1      27.201  28.469  23.180  1.00  0.00     0.001 A 
BRANCH  16  25
ATOM     25  C   UNL A   1      33.551  28.330  23.965  1.00  0.00     0.376 C 
ATOM     26  O   UNL A   1      34.234  28.978  23.184  1.00  0.00    -0.242 OA
BRANCH  25  27
ATOM     27  O   UNL A   1      34.010  27.605  25.020  1.00  0.00    -0.460 OA
BRANCH  27  28
ATOM     28  C   UNL A   1      33.652  28.120  26.311  1.00  0.00     0.230 C 
ATOM     29  C   UNL A   1      33.844  29.627  26.379  1.00  0.00     0.049 C 
ENDBRANCH  27  28
ENDBRANCH  25  27
ENDBRANCH  16  25
ENDBRANCH  13  15
ENDBRANCH   8  13
ENDBRANCH   5   7
ENDBRANCH   4   5
ENDBRANCH   3   4
ENDBRANCH   2   3
ENDBRANCH   1   2
BRANCH   1  30
ATOM     30  C   UNL A   1      38.807  21.187  25.770  1.00  0.00     0.188 C 
BRANCH  30  31
ATOM     31  C   UNL A   1      39.996  21.988  26.340  1.00  0.00     0.188 C 
BRANCH  31  32
ATOM     32  O   UNL A   1      41.300  21.490  26.172  1.00  0.00    -0.376 OA
BRANCH  32  33
ATOM     33  C   UNL A   1      41.623  20.163  26.544  1.00  0.00     0.202 C 
BRANCH  33  34
ATOM     34  C   UNL A   1      42.353  19.131  25.662  1.00  0.00     0.261 C 
BRANCH  34  35
ATOM     35  O   UNL A   1      43.782  19.136  25.661  1.00  0.00    -0.460 OA
BRANCH  35  36
ATOM     36  C   UNL A   1      44.359  19.690  24.566  1.00  0.00     0.338 C 
ATOM     37  O   UNL A   1      44.446  19.216  23.449  1.00  0.00    -0.246 OA
BRANCH  36  38
ATOM     38  C   UNL A   1      44.742  21.079  24.880  1.00  0.00     0.060 A 
ATOM     39  C   UNL A   1      45.252  21.365  26.153  1.00  0.00     0.016 A 
ATOM     40  C   UNL A   1      44.553  22.095  23.944  1.00  0.00     0.016 A 
ATOM     41  C   UNL A   1      45.559  22.680  26.502  1.00  0.00     0.010 A 
ATOM     42  C   UNL A   1      44.841  23.415  24.303  1.00  0.00     0.010 A 
ATOM     43  C   UNL A   1      45.318  23.717  25.591  1.00  0.00    -0.014 A 
BRANCH  43  44
ATOM     44  C   UNL A   1      45.406  25.129  26.036  1.00  0.00     0.031 A 
ATOM     45  C   UNL A   1      46.739  25.822  25.976  1.00  0.00     0.074 A 
ATOM     46  C   UNL A   1      44.324  25.788  26.484  1.00  0.00     0.049 A 
ATOM     47  N   UNL A   1      47.074  27.022  26.376  1.00  0.00    -0.248 NA
ATOM     48  C   UNL A   1      47.846  25.051  25.389  1.00  0.00     0.031 C 
ATOM     49  C   UNL A   1      42.971  25.240  26.555  1.00  0.00     0.029 A 
ATOM     50  N   UNL A   1      44.200  27.062  26.980  1.00  0.00    -0.354 N 
ATOM     51  C   UNL A   1      48.429  27.145  26.100  1.00  0.00     0.074 A 
ATOM     52  C   UNL A   1      48.862  25.890  25.525  1.00  0.00     0.031 C 
ATOM     53  C   UNL A   1      42.156  26.167  27.087  1.00  0.00     0.029 A 
ATOM     54  C   UNL A   1      42.935  27.357  27.425  1.00  0.00     0.049 A 
ATOM     55  H   UNL A   1      44.947  27.703  27.015  1.00  0.00     0.167 HD
ATOM     56  C   UNL A   1      49.239  28.213  26.302  1.00  0.00     0.037 A 
ATOM     57  C   UNL A   1      42.472  28.451  28.062  1.00  0.00     0.037 A 
ATOM     58  C   UNL A   1      48.807  29.459  26.879  1.00  0.00     0.049 A 
ATOM     59  C   UNL A   1      43.409  29.599  28.345  1.00  0.00     0.074 A 
ATOM     60  C   UNL A   1      49.544  30.607  27.101  1.00  0.00     0.029 A 
ATOM     61  N   UNL A   1      47.523  29.713  27.338  1.00  0.00    -0.354 N 
ATOM     62  N   UNL A   1      44.681  29.725  28.050  1.00  0.00    -0.248 NA
ATOM     63  C   UNL A   1      42.843  30.759  29.048  1.00  0.00     0.031 C 
ATOM     64  C   UNL A   1      48.724  31.535  27.754  1.00  0.00     0.029 A 
ATOM     65  C   UNL A   1      47.456  30.990  27.875  1.00  0.00     0.049 A 
ATOM     66  H   UNL A   1      46.770  29.080  27.292  1.00  0.00     0.167 HD
ATOM     67  C   UNL A   1      45.057  30.985  28.501  1.00  0.00     0.074 A 
ATOM     68  C   UNL A   1      43.876  31.590  29.078  1.00  0.00     0.031 C 
ATOM     69  C   UNL A   1      46.272  31.586  28.440  1.00  0.00     0.037 A 
BRANCH  56  70
ATOM     70  C   UNL A   1      50.685  28.065  25.928  1.00  0.00     0.064 A 
ATOM     71  C   UNL A   1      51.129  28.223  24.605  1.00  0.00     0.173 A 
ATOM     72  C   UNL A   1      51.646  27.785  26.912  1.00  0.00     0.173 A 
ATOM     73  F   UNL A   1      50.251  28.477  23.623  1.00  0.00    -0.203 F 
ATOM     74  C   UNL A   1      52.475  28.074  24.280  1.00  0.00     0.198 A 
ATOM     75  C   UNL A   1      52.994  27.670  26.587  1.00  0.00     0.198 A 
ATOM     76  F   UNL A   1      51.277  27.628  28.193  1.00  0.00    -0.203 F 
ATOM     77  F   UNL A   1      52.868  28.175  23.001  1.00  0.00    -0.200 F 
ATOM     78  C   UNL A   1      53.407  27.805  25.270  1.00  0.00     0.200 A 
ATOM     79  F   UNL A   1      53.896  27.426  27.549  1.00  0.00    -0.200 F 
ATOM     80  F   UNL A   1      54.702  27.669  24.956  1.00  0.00    -0.200 F 
ENDBRANCH  56  70
BRANCH  57  81
ATOM     81  C   UNL A   1      41.050  28.511  28.495  1.00  0.00     0.064 A 
ATOM     82  C   UNL A   1      40.048  28.979  27.634  1.00  0.00     0.173 A 
ATOM     83  C   UNL A   1      40.669  28.124  29.790  1.00  0.00     0.173 A 
ATOM     84  F   UNL A   1      40.366  29.389  26.398  1.00  0.00    -0.203 F 
ATOM     85  C   UNL A   1      38.724  29.079  28.058  1.00  0.00     0.198 A 
ATOM     86  C   UNL A   1      39.340  28.194  30.201  1.00  0.00     0.198 A 
ATOM     87  F   UNL A   1      41.589  27.675  30.655  1.00  0.00    -0.203 F 
ATOM     88  F   UNL A   1      37.795  29.582  27.233  1.00  0.00    -0.200 F 
ATOM     89  C   UNL A   1      38.369  28.679  29.338  1.00  0.00     0.200 A 
ATOM     90  F   UNL A   1      39.001  27.799  31.436  1.00  0.00    -0.200 F 
ATOM     91  F   UNL A   1      37.095  28.775  29.744  1.00  0.00    -0.200 F 
ENDBRANCH  57  81
BRANCH  69  92
ATOM     92  C   UNL A   1      46.380  32.988  28.970  1.00  0.00     0.064 A 
ATOM     93  C   UNL A   1      46.146  34.109  28.160  1.00  0.00     0.173 A 
ATOM     94  C   UNL A   1      46.679  33.212  30.325  1.00  0.00     0.173 A 
ATOM     95  F   UNL A   1      45.869  33.952  26.856  1.00  0.00    -0.203 F 
ATOM     96  C   UNL A   1      46.234  35.399  28.677  1.00  0.00     0.198 A 
ATOM     97  C   UNL A   1      46.732  34.502  30.845  1.00  0.00     0.198 A 
ATOM     98  F   UNL A   1      46.903  32.177  31.148  1.00  0.00    -0.203 F 
ATOM     99  F   UNL A   1      46.056  36.455  27.871  1.00  0.00    -0.200 F 
ATOM    100  C   UNL A   1      46.519  35.594  30.020  1.00  0.00     0.200 A 
ATOM    101  F   UNL A   1      46.989  34.687  32.148  1.00  0.00    -0.200 F 
ATOM    102  F   UNL A   1      46.592  36.837  30.517  1.00  0.00    -0.200 F 
ENDBRANCH  69  92
ENDBRANCH  43  44
ENDBRANCH  36  38
ENDBRANCH  35  36
ENDBRANCH  34  35
ENDBRANCH  33  34
ENDBRANCH  32  33
ENDBRANCH  31  32
ENDBRANCH  30  31
ENDBRANCH   1  30
TORSDOF 22
ENDMDL
MODEL 2
REMARK VINA RESULT:     -10.6      1.291      2.169
REMARK SMILES CCOC(=O)c1nc(Nc2cccc(C(=O)OCCOCCOCCOC(=O)c3ccc(-c4c5nc(c(-c6c(F)c(F)c(F)c(F)c6F)c6ccc([nH]6)c(-c6c(F)c(F)c(F)c(F)c6F)c6nc(c(-c7c(F)c(F)c(F)c(F)c7F)c7ccc4[nH]7)C=C6)C=C5)cc3)c2)c2ccccc2n1
REMARK SMILES IDX 20 1 19 2 18 3 17 4 15 5 16 6 14 7 10 8 11 9 92 10 12 11
REMARK SMILES IDX 13 12 9 13 8 15 6 16 7 17 99 18 98 19 93 20 97 21 94 22
REMARK SMILES IDX 96 23 95 24 4 25 5 26 3 27 2 28 1 29 21 30 22 31 23 32 24 33
REMARK SMILES IDX 25 34 26 35 27 36 28 37 29 38 30 39 91 40 31 41 90 42 32 43
REMARK SMILES IDX 33 44 34 45 84 46 35 47 89 48 83 49 85 50 36 51 88 52 82 53
REMARK SMILES IDX 81 54 37 56 69 57 49 58 68 59 50 60 53 61 67 62 86 63 51 64
REMARK SMILES IDX 52 65 66 67 87 68 54 69 38 70 39 71 47 72 40 73 41 74 45 75
REMARK SMILES IDX 48 76 42 77 43 78 46 79 44 80 70 81 71 82 79 83 72 84 73 85
REMARK SMILES IDX 77 86 80 87 74 88 75 89 78 90 76 91 55 92 56 93 64 94 57 95
REMARK SMILES IDX 58 96 62 97 65 98 59 99 60 100 63 101 61 102
REMARK H PARENT 9 14 85 55 53 66
REMARK Flexibility Score: inf
ROOT
ATOM      1  O   UNL A   1      39.394  22.788  26.120  1.00  0.00    -0.376 OA
ENDROOT
BRANCH   1   2
ATOM      2  C   UNL A   1      38.224  22.664  25.327  1.00  0.00     0.202 C 
BRANCH   2   3
ATOM      3  C   UNL A   1      37.301  21.438  25.399  1.00  0.00     0.261 C 
BRANCH   3   4
ATOM      4  O   UNL A   1      36.274  21.386  24.402  1.00  0.00    -0.460 OA
BRANCH   4   5
ATOM      5  C   UNL A   1      35.986  22.567  23.794  1.00  0.00     0.338 C 
ATOM      6  O   UNL A   1      36.413  22.961  22.723  1.00  0.00    -0.246 OA
BRANCH   5   7
ATOM      7  C   UNL A   1      34.871  23.223  24.513  1.00  0.00     0.062 A 
ATOM      8  C   UNL A   1      33.923  25.135  25.681  1.00  0.00     0.040 A 
ATOM      9  C   UNL A   1      32.758  24.389  25.908  1.00  0.00     0.026 A 
ATOM     10  C   UNL A   1      34.999  24.512  25.028  1.00  0.00     0.041 A 
ATOM     11  C   UNL A   1      32.641  23.081  25.429  1.00  0.00     0.003 A 
ATOM     12  C   UNL A   1      33.686  22.508  24.705  1.00  0.00     0.016 A 
BRANCH   8  13
ATOM     13  N   UNL A   1      33.942  26.518  25.968  1.00  0.00    -0.340 N 
ATOM     14  H   UNL A   1      34.648  26.849  26.571  1.00  0.00     0.168 HD
BRANCH  13  15
ATOM     15  C   UNL A   1      33.025  27.462  25.454  1.00  0.00     0.142 A 
ATOM     16  C   UNL A   1      31.479  27.969  23.834  1.00  0.00     0.241 A 
ATOM     17  N   UNL A   1      32.298  27.077  24.396  1.00  0.00    -0.204 NA
ATOM     18  N   UNL A   1      31.284  29.226  24.261  1.00  0.00    -0.222 NA
ATOM     19  C   UNL A   1      31.971  29.587  25.348  1.00  0.00     0.077 A 
ATOM     20  C   UNL A   1      32.896  28.749  26.001  1.00  0.00     0.043 A 
ATOM     21  C   UNL A   1      31.750  30.857  25.863  1.00  0.00     0.029 A 
ATOM     22  C   UNL A   1      33.601  29.237  27.132  1.00  0.00     0.014 A 
ATOM     23  C   UNL A   1      32.419  31.324  26.995  1.00  0.00     0.002 A 
ATOM     24  C   UNL A   1      33.353  30.516  27.627  1.00  0.00     0.001 A 
BRANCH  16  25
ATOM     25  C   UNL A   1      30.747  27.482  22.631  1.00  0.00     0.376 C 
ATOM     26  O   UNL A   1      29.913  28.134  22.019  1.00  0.00    -0.242 OA
BRANCH  25  27
ATOM     27  O   UNL A   1      31.065  26.178  22.409  1.00  0.00    -0.460 OA
BRANCH  27  28
ATOM     28  C   UNL A   1      31.977  25.953  21.324  1.00  0.00     0.230 C 
ATOM     29  C   UNL A   1      33.017  24.904  21.682  1.00  0.00     0.049 C 
ENDBRANCH  27  28
ENDBRANCH  25  27
ENDBRANCH  16  25
ENDBRANCH  13  15
ENDBRANCH   8  13
ENDBRANCH   5   7
ENDBRANCH   4   5
ENDBRANCH   3   4
ENDBRANCH   2   3
ENDBRANCH   1   2
BRANCH   1  30
ATOM     30  C   UNL A   1      39.982  21.646  26.713  1.00  0.00     0.188 C 
BRANCH  30  31
ATOM     31  C   UNL A   1      41.172  21.784  27.685  1.00  0.00     0.188 C 
BRANCH  31  32
ATOM     32  O   UNL A   1      42.265  20.909  27.557  1.00  0.00    -0.376 OA
BRANCH  32  33
ATOM     33  C   UNL A   1      42.086  19.592  27.070  1.00  0.00     0.202 C 
BRANCH  33  34
ATOM     34  C   UNL A   1      42.650  19.033  25.749  1.00  0.00     0.261 C 
BRANCH  34  35
ATOM     35  O   UNL A   1      44.069  19.000  25.582  1.00  0.00    -0.460 OA
BRANCH  35  36
ATOM     36  C   UNL A   1      44.535  19.617  24.467  1.00  0.00     0.338 C 
ATOM     37  O   UNL A   1      44.531  19.196  23.325  1.00  0.00    -0.246 OA
BRANCH  36  38
ATOM     38  C   UNL A   1      44.919  20.999  24.811  1.00  0.00     0.060 A 
ATOM     39  C   UNL A   1      45.299  21.284  26.129  1.00  0.00     0.016 A 
ATOM     40  C   UNL A   1      44.855  22.011  23.853  1.00  0.00     0.016 A 
ATOM     41  C   UNL A   1      45.600  22.594  26.499  1.00  0.00     0.010 A 
ATOM     42  C   UNL A   1      45.137  23.326  24.232  1.00  0.00     0.010 A 
ATOM     43  C   UNL A   1      45.483  23.628  25.562  1.00  0.00    -0.014 A 
BRANCH  43  44
ATOM     44  C   UNL A   1      45.560  25.042  26.005  1.00  0.00     0.031 A 
ATOM     45  C   UNL A   1      46.889  25.743  25.951  1.00  0.00     0.074 A 
ATOM     46  C   UNL A   1      44.471  25.695  26.445  1.00  0.00     0.049 A 
ATOM     47  N   UNL A   1      47.214  26.946  26.350  1.00  0.00    -0.248 NA
ATOM     48  C   UNL A   1      48.003  24.977  25.372  1.00  0.00     0.031 C 
ATOM     49  C   UNL A   1      43.121  25.138  26.509  1.00  0.00     0.029 A 
ATOM     50  N   UNL A   1      44.336  26.969  26.937  1.00  0.00    -0.354 N 
ATOM     51  C   UNL A   1      48.570  27.077  26.082  1.00  0.00     0.074 A 
ATOM     52  C   UNL A   1      49.013  25.823  25.511  1.00  0.00     0.031 C 
ATOM     53  C   UNL A   1      42.297  26.061  27.034  1.00  0.00     0.029 A 
ATOM     54  C   UNL A   1      43.067  27.257  27.374  1.00  0.00     0.049 A 
ATOM     55  H   UNL A   1      45.079  27.614  26.975  1.00  0.00     0.167 HD
ATOM     56  C   UNL A   1      49.371  28.150  26.286  1.00  0.00     0.037 A 
ATOM     57  C   UNL A   1      42.592  28.349  28.006  1.00  0.00     0.037 A 
ATOM     58  C   UNL A   1      48.928  29.394  26.858  1.00  0.00     0.049 A 
ATOM     59  C   UNL A   1      43.521  29.503  28.292  1.00  0.00     0.074 A 
ATOM     60  C   UNL A   1      49.657  30.548  27.083  1.00  0.00     0.029 A 
ATOM     61  N   UNL A   1      47.640  29.641  27.310  1.00  0.00    -0.354 N 
ATOM     62  N   UNL A   1      44.794  29.637  28.005  1.00  0.00    -0.248 NA
ATOM     63  C   UNL A   1      42.943  30.661  28.990  1.00  0.00     0.031 C 
ATOM     64  C   UNL A   1      48.827  31.472  27.728  1.00  0.00     0.029 A 
ATOM     65  C   UNL A   1      47.562  30.919  27.843  1.00  0.00     0.049 A 
ATOM     66  H   UNL A   1      46.891  29.004  27.260  1.00  0.00     0.167 HD
ATOM     67  C   UNL A   1      45.159  30.900  28.455  1.00  0.00     0.074 A 
ATOM     68  C   UNL A   1      43.971  31.498  29.024  1.00  0.00     0.031 C 
ATOM     69  C   UNL A   1      46.370  31.508  28.400  1.00  0.00     0.037 A 
BRANCH  56  70
ATOM     70  C   UNL A   1      50.821  28.011  25.921  1.00  0.00     0.064 A 
ATOM     71  C   UNL A   1      51.270  28.158  24.599  1.00  0.00     0.173 A 
ATOM     72  C   UNL A   1      51.779  27.750  26.913  1.00  0.00     0.173 A 
ATOM     73  F   UNL A   1      50.394  28.393  23.610  1.00  0.00    -0.203 F 
ATOM     74  C   UNL A   1      52.619  28.017  24.282  1.00  0.00     0.198 A 
ATOM     75  C   UNL A   1      53.130  27.644  26.596  1.00  0.00     0.198 A 
ATOM     76  F   UNL A   1      51.405  27.604  28.193  1.00  0.00    -0.203 F 
ATOM     77  F   UNL A   1      53.017  28.108  23.004  1.00  0.00    -0.200 F 
ATOM     78  C   UNL A   1      53.548  27.767  25.280  1.00  0.00     0.200 A 
ATOM     79  F   UNL A   1      54.028  27.418  27.565  1.00  0.00    -0.200 F 
ATOM     80  F   UNL A   1      54.846  27.639  24.973  1.00  0.00    -0.200 F 
ENDBRANCH  56  70
BRANCH  57  81
ATOM     81  C   UNL A   1      41.168  28.400  28.431  1.00  0.00     0.064 A 
ATOM     82  C   UNL A   1      40.172  28.888  27.574  1.00  0.00     0.173 A 
ATOM     83  C   UNL A   1      40.778  27.987  29.714  1.00  0.00     0.173 A 
ATOM     84  F   UNL A   1      40.498  29.323  26.348  1.00  0.00    -0.203 F 
ATOM     85  C   UNL A   1      38.845  28.979  27.991  1.00  0.00     0.198 A 
ATOM     86  C   UNL A   1      39.446  28.049  30.119  1.00  0.00     0.198 A 
ATOM     87  F   UNL A   1      41.692  27.519  30.577  1.00  0.00    -0.203 F 
ATOM     88  F   UNL A   1      37.922  29.500  27.170  1.00  0.00    -0.200 F 
ATOM     89  C   UNL A   1      38.482  28.553  29.259  1.00  0.00     0.200 A 
ATOM     90  F   UNL A   1      39.099  27.628  31.342  1.00  0.00    -0.200 F 
ATOM     91  F   UNL A   1      37.205  28.641  29.658  1.00  0.00    -0.200 F 
ENDBRANCH  57  81
BRANCH  69  92
ATOM     92  C   UNL A   1      46.467  32.913  28.929  1.00  0.00     0.064 A 
ATOM     93  C   UNL A   1      46.212  34.029  28.119  1.00  0.00     0.173 A 
ATOM     94  C   UNL A   1      46.776  33.141  30.280  1.00  0.00     0.173 A 
ATOM     95  F   UNL A   1      45.925  33.869  26.818  1.00  0.00    -0.203 F 
ATOM     96  C   UNL A   1      46.289  35.321  28.634  1.00  0.00     0.198 A 
ATOM     97  C   UNL A   1      46.818  34.432  30.799  1.00  0.00     0.198 A 
ATOM     98  F   UNL A   1      47.020  32.109  31.102  1.00  0.00    -0.203 F 
ATOM     99  F   UNL A   1      46.091  36.374  27.830  1.00  0.00    -0.200 F 
ATOM    100  C   UNL A   1      46.584  35.521  29.975  1.00  0.00     0.200 A 
ATOM    101  F   UNL A   1      47.085  34.621  32.099  1.00  0.00    -0.200 F 
ATOM    102  F   UNL A   1      46.647  36.765  30.470  1.00  0.00    -0.200 F 
ENDBRANCH  69  92
ENDBRANCH  43  44
ENDBRANCH  36  38
ENDBRANCH  35  36
ENDBRANCH  34  35
ENDBRANCH  33  34
ENDBRANCH  32  33
ENDBRANCH  31  32
ENDBRANCH  30  31
ENDBRANCH   1  30
TORSDOF 22
ENDMDL
MODEL 3
REMARK VINA RESULT:     -10.3      3.521      8.194
REMARK SMILES CCOC(=O)c1nc(Nc2cccc(C(=O)OCCOCCOCCOC(=O)c3ccc(-c4c5nc(c(-c6c(F)c(F)c(F)c(F)c6F)c6ccc([nH]6)c(-c6c(F)c(F)c(F)c(F)c6F)c6nc(c(-c7c(F)c(F)c(F)c(F)c7F)c7ccc4[nH]7)C=C6)C=C5)cc3)c2)c2ccccc2n1
REMARK SMILES IDX 20 1 19 2 18 3 17 4 15 5 16 6 14 7 10 8 11 9 92 10 12 11
REMARK SMILES IDX 13 12 9 13 8 15 6 16 7 17 99 18 98 19 93 20 97 21 94 22
REMARK SMILES IDX 96 23 95 24 4 25 5 26 3 27 2 28 1 29 21 30 22 31 23 32 24 33
REMARK SMILES IDX 25 34 26 35 27 36 28 37 29 38 30 39 91 40 31 41 90 42 32 43
REMARK SMILES IDX 33 44 34 45 84 46 35 47 89 48 83 49 85 50 36 51 88 52 82 53
REMARK SMILES IDX 81 54 37 56 69 57 49 58 68 59 50 60 53 61 67 62 86 63 51 64
REMARK SMILES IDX 52 65 66 67 87 68 54 69 38 70 39 71 47 72 40 73 41 74 45 75
REMARK SMILES IDX 48 76 42 77 43 78 46 79 44 80 70 81 71 82 79 83 72 84 73 85
REMARK SMILES IDX 77 86 80 87 74 88 75 89 78 90 76 91 55 92 56 93 64 94 57 95
REMARK SMILES IDX 58 96 62 97 65 98 59 99 60 100 63 101 61 102
REMARK H PARENT 9 14 85 55 53 66
REMARK Flexibility Score: inf
ROOT
ATOM      1  O   UNL A   1      36.581  23.753  25.424  1.00  0.00    -0.376 OA
ENDROOT
BRANCH   1   2
ATOM      2  C   UNL A   1      36.463  22.388  25.794  1.00  0.00     0.202 C 
BRANCH   2   3
ATOM      3  C   UNL A   1      35.647  21.375  24.976  1.00  0.00     0.261 C 
BRANCH   3   4
ATOM      4  O   UNL A   1      34.624  20.684  25.702  1.00  0.00    -0.460 OA
BRANCH   4   5
ATOM      5  C   UNL A   1      33.649  21.469  26.232  1.00  0.00     0.338 C 
ATOM      6  O   UNL A   1      33.590  21.892  27.373  1.00  0.00    -0.246 OA
BRANCH   5   7
ATOM      7  C   UNL A   1      32.769  21.950  25.143  1.00  0.00     0.062 A 
ATOM      8  C   UNL A   1      31.006  23.408  24.317  1.00  0.00     0.040 A 
ATOM      9  C   UNL A   1      31.100  22.778  23.069  1.00  0.00     0.026 A 
ATOM     10  C   UNL A   1      31.813  22.939  25.366  1.00  0.00     0.041 A 
ATOM     11  C   UNL A   1      32.030  21.758  22.851  1.00  0.00     0.003 A 
ATOM     12  C   UNL A   1      32.886  21.363  23.879  1.00  0.00     0.016 A 
BRANCH   8  13
ATOM     13  N   UNL A   1      30.229  24.580  24.459  1.00  0.00    -0.340 N 
ATOM     14  H   UNL A   1      29.488  24.561  25.108  1.00  0.00     0.168 HD
BRANCH  13  15
ATOM     15  C   UNL A   1      30.437  25.778  23.738  1.00  0.00     0.142 A 
ATOM     16  C   UNL A   1      31.917  27.122  22.611  1.00  0.00     0.241 A 
ATOM     17  N   UNL A   1      31.662  25.967  23.229  1.00  0.00    -0.204 NA
ATOM     18  N   UNL A   1      31.036  28.114  22.416  1.00  0.00    -0.222 NA
ATOM     19  C   UNL A   1      29.801  27.897  22.878  1.00  0.00     0.077 A 
ATOM     20  C   UNL A   1      29.424  26.739  23.583  1.00  0.00     0.043 A 
ATOM     21  C   UNL A   1      28.840  28.870  22.639  1.00  0.00     0.029 A 
ATOM     22  C   UNL A   1      28.094  26.616  24.063  1.00  0.00     0.014 A 
ATOM     23  C   UNL A   1      27.523  28.734  23.082  1.00  0.00     0.002 A 
ATOM     24  C   UNL A   1      27.150  27.608  23.803  1.00  0.00     0.001 A 
BRANCH  16  25
ATOM     25  C   UNL A   1      33.316  27.278  22.121  1.00  0.00     0.376 C 
ATOM     26  O   UNL A   1      33.959  28.317  22.184  1.00  0.00    -0.242 OA
BRANCH  25  27
ATOM     27  O   UNL A   1      33.703  26.134  21.494  1.00  0.00    -0.460 OA
BRANCH  27  28
ATOM     28  C   UNL A   1      32.805  25.667  20.476  1.00  0.00     0.230 C 
ATOM     29  C   UNL A   1      33.022  24.192  20.179  1.00  0.00     0.049 C 
ENDBRANCH  27  28
ENDBRANCH  25  27
ENDBRANCH  16  25
ENDBRANCH  13  15
ENDBRANCH   8  13
ENDBRANCH   5   7
ENDBRANCH   4   5
ENDBRANCH   3   4
ENDBRANCH   2   3
ENDBRANCH   1   2
BRANCH   1  30
ATOM     30  C   UNL A   1      35.472  24.449  24.889  1.00  0.00     0.188 C 
BRANCH  30  31
ATOM     31  C   UNL A   1      34.428  25.106  25.817  1.00  0.00     0.188 C 
BRANCH  31  32
ATOM     32  O   UNL A   1      33.896  26.359  25.468  1.00  0.00    -0.376 OA
BRANCH  32  33
ATOM     33  C   UNL A   1      32.976  27.019  26.318  1.00  0.00     0.202 C 
BRANCH  33  34
ATOM     34  C   UNL A   1      33.214  28.362  27.036  1.00  0.00     0.261 C 
BRANCH  34  35
ATOM     35  O   UNL A   1      34.469  29.017  26.843  1.00  0.00    -0.460 OA
BRANCH  35  36
ATOM     36  C   UNL A   1      34.755  29.996  27.737  1.00  0.00     0.338 C 
ATOM     37  O   UNL A   1      33.993  30.817  28.213  1.00  0.00    -0.246 OA
BRANCH  36  38
ATOM     38  C   UNL A   1      36.143  29.825  28.205  1.00  0.00     0.060 A 
ATOM     39  C   UNL A   1      37.191  30.083  27.311  1.00  0.00     0.016 A 
ATOM     40  C   UNL A   1      36.405  29.366  29.496  1.00  0.00     0.016 A 
ATOM     41  C   UNL A   1      38.511  29.864  27.703  1.00  0.00     0.010 A 
ATOM     42  C   UNL A   1      37.728  29.127  29.879  1.00  0.00     0.010 A 
ATOM     43  C   UNL A   1      38.784  29.348  28.977  1.00  0.00    -0.014 A 
BRANCH  43  44
ATOM     44  C   UNL A   1      40.153  28.883  29.310  1.00  0.00     0.031 A 
ATOM     45  C   UNL A   1      41.048  29.790  30.107  1.00  0.00     0.074 A 
ATOM     46  C   UNL A   1      40.594  27.677  28.915  1.00  0.00     0.049 A 
ATOM     47  N   UNL A   1      42.300  29.632  30.455  1.00  0.00    -0.248 NA
ATOM     48  C   UNL A   1      40.448  31.050  30.571  1.00  0.00     0.031 C 
ATOM     49  C   UNL A   1      39.812  26.693  28.171  1.00  0.00     0.029 A 
ATOM     50  N   UNL A   1      41.822  27.083  29.075  1.00  0.00    -0.354 N 
ATOM     51  C   UNL A   1      42.640  30.774  31.166  1.00  0.00     0.074 A 
ATOM     52  C   UNL A   1      41.473  31.630  31.178  1.00  0.00     0.031 C 
ATOM     53  C   UNL A   1      40.586  25.624  27.919  1.00  0.00     0.029 A 
ATOM     54  C   UNL A   1      41.927  25.864  28.452  1.00  0.00     0.049 A 
ATOM     55  H   UNL A   1      42.558  27.493  29.585  1.00  0.00     0.167 HD
ATOM     56  C   UNL A   1      43.818  31.079  31.762  1.00  0.00     0.037 A 
ATOM     57  C   UNL A   1      42.993  25.054  28.303  1.00  0.00     0.037 A 
ATOM     58  C   UNL A   1      44.978  30.228  31.744  1.00  0.00     0.049 A 
ATOM     59  C   UNL A   1      44.317  25.449  28.910  1.00  0.00     0.074 A 
ATOM     60  C   UNL A   1      46.209  30.435  32.339  1.00  0.00     0.029 A 
ATOM     61  N   UNL A   1      45.054  29.010  31.084  1.00  0.00    -0.354 N 
ATOM     62  N   UNL A   1      44.624  26.514  29.612  1.00  0.00    -0.248 NA
ATOM     63  C   UNL A   1      45.442  24.525  28.706  1.00  0.00     0.031 C 
ATOM     64  C   UNL A   1      47.051  29.375  31.986  1.00  0.00     0.029 A 
ATOM     65  C   UNL A   1      46.323  28.471  31.229  1.00  0.00     0.049 A 
ATOM     66  H   UNL A   1      44.316  28.590  30.585  1.00  0.00     0.167 HD
ATOM     67  C   UNL A   1      45.962  26.373  29.959  1.00  0.00     0.074 A 
ATOM     68  C   UNL A   1      46.406  25.113  29.401  1.00  0.00     0.031 C 
ATOM     69  C   UNL A   1      46.752  27.211  30.676  1.00  0.00     0.037 A 
BRANCH  56  70
ATOM     70  C   UNL A   1      43.920  32.408  32.453  1.00  0.00     0.064 A 
ATOM     71  C   UNL A   1      43.775  32.533  33.844  1.00  0.00     0.173 A 
ATOM     72  C   UNL A   1      44.191  33.570  31.716  1.00  0.00     0.173 A 
ATOM     73  F   UNL A   1      43.501  31.455  34.595  1.00  0.00    -0.203 F 
ATOM     74  C   UNL A   1      43.866  33.777  34.464  1.00  0.00     0.198 A 
ATOM     75  C   UNL A   1      44.315  34.806  32.343  1.00  0.00     0.198 A 
ATOM     76  F   UNL A   1      44.343  33.508  30.384  1.00  0.00    -0.203 F 
ATOM     77  F   UNL A   1      43.671  33.880  35.787  1.00  0.00    -0.200 F 
ATOM     78  C   UNL A   1      44.143  34.911  33.716  1.00  0.00     0.200 A 
ATOM     79  F   UNL A   1      44.598  35.899  31.620  1.00  0.00    -0.200 F 
ATOM     80  F   UNL A   1      44.238  36.105  34.315  1.00  0.00    -0.200 F 
ENDBRANCH  56  70
BRANCH  57  81
ATOM     81  C   UNL A   1      42.864  23.790  27.528  1.00  0.00     0.064 A 
ATOM     82  C   UNL A   1      43.247  23.723  26.181  1.00  0.00     0.173 A 
ATOM     83  C   UNL A   1      42.329  22.632  28.113  1.00  0.00     0.173 A 
ATOM     84  F   UNL A   1      43.735  24.811  25.569  1.00  0.00    -0.203 F 
ATOM     85  C   UNL A   1      43.081  22.551  25.444  1.00  0.00     0.198 A 
ATOM     86  C   UNL A   1      42.194  21.453  27.383  1.00  0.00     0.198 A 
ATOM     87  F   UNL A   1      41.940  22.645  29.396  1.00  0.00    -0.203 F 
ATOM     88  F   UNL A   1      43.405  22.530  24.144  1.00  0.00    -0.200 F 
ATOM     89  C   UNL A   1      42.562  21.416  26.047  1.00  0.00     0.200 A 
ATOM     90  F   UNL A   1      41.699  20.356  27.972  1.00  0.00    -0.200 F 
ATOM     91  F   UNL A   1      42.403  20.290  25.337  1.00  0.00    -0.200 F 
ENDBRANCH  57  81
BRANCH  69  92
ATOM     92  C   UNL A   1      48.167  26.777  30.941  1.00  0.00     0.064 A 
ATOM     93  C   UNL A   1      48.506  25.991  32.052  1.00  0.00     0.173 A 
ATOM     94  C   UNL A   1      49.191  27.117  30.042  1.00  0.00     0.173 A 
ATOM     95  F   UNL A   1      47.568  25.648  32.948  1.00  0.00    -0.203 F 
ATOM     96  C   UNL A   1      49.821  25.584  32.268  1.00  0.00     0.198 A 
ATOM     97  C   UNL A   1      50.498  26.679  30.244  1.00  0.00     0.198 A 
ATOM     98  F   UNL A   1      48.922  27.860  28.959  1.00  0.00    -0.203 F 
ATOM     99  F   UNL A   1      50.130  24.876  33.363  1.00  0.00    -0.200 F 
ATOM    100  C   UNL A   1      50.813  25.922  31.360  1.00  0.00     0.200 A 
ATOM    101  F   UNL A   1      51.451  26.992  29.355  1.00  0.00    -0.200 F 
ATOM    102  F   UNL A   1      52.075  25.520  31.565  1.00  0.00    -0.200 F 
ENDBRANCH  69  92
ENDBRANCH  43  44
ENDBRANCH  36  38
ENDBRANCH  35  36
ENDBRANCH  34  35
ENDBRANCH  33  34
ENDBRANCH  32  33
ENDBRANCH  31  32
ENDBRANCH  30  31
ENDBRANCH   1  30
TORSDOF 22
ENDMDL
