MODEL 1
REMARK VINA RESULT:     -11.7      0.000      0.000
REMARK SMILES Cc1c(CC(=O)OCCOCCOCCOC(=O)c2ccc(-c3c4nc(c(-c5c(F)c(F)c(F)c(F)c5F)c5ccc([nH]5)c(-c5c(F)c(F)c(F)c(F)c5F)c5nc(c(-c6c(F)c(F)c(F)c(F)c6F)c6ccc3[nH]6)C=C5)C=C4)cc2)cc(-c2ccc(S(C)(=O)=O)cc2)n1-c1ccccc1
REMARK SMILES IDX 11 1 10 2 9 3 8 4 7 5 5 6 6 7 4 8 3 9 1 10 2 11 94 12 82 13
REMARK SMILES IDX 83 14 95 15 96 16 100 17 97 18 99 19 98 20 84 21 85 22 93 23
REMARK SMILES IDX 86 24 92 25 87 26 88 27 89 28 90 29 91 30 12 31 13 32 14 33
REMARK SMILES IDX 15 34 16 35 17 36 18 37 19 38 20 39 81 40 21 41 80 42 22 43
REMARK SMILES IDX 23 44 24 45 74 46 25 47 79 48 73 49 75 50 26 51 78 52 72 53
REMARK SMILES IDX 71 54 27 56 59 57 39 58 58 59 40 60 43 61 57 62 76 63 41 64
REMARK SMILES IDX 42 65 56 67 77 68 44 69 28 70 29 71 37 72 30 73 31 74 35 75
REMARK SMILES IDX 38 76 32 77 33 78 36 79 34 80 60 81 61 82 69 83 62 84 63 85
REMARK SMILES IDX 67 86 70 87 64 88 65 89 68 90 66 91 45 92 46 93 54 94 47 95
REMARK SMILES IDX 48 96 52 97 55 98 49 99 50 100 53 101 51 102
REMARK H PARENT 75 55 43 66
REMARK Flexibility Score: inf
ROOT
ATOM      1  C   UNL A   1      34.961  20.731  25.352  1.00  0.00     0.188 C 
ENDROOT
BRANCH   1   2
ATOM      2  O   UNL A   1      35.057  19.432  24.786  1.00  0.00    -0.376 OA
BRANCH   2   3
ATOM      3  C   UNL A   1      33.883  18.790  24.307  1.00  0.00     0.202 C 
BRANCH   3   4
ATOM      4  C   UNL A   1      32.680  19.668  23.942  1.00  0.00     0.261 C 
BRANCH   4   5
ATOM      5  O   UNL A   1      31.888  20.057  25.083  1.00  0.00    -0.463 OA
BRANCH   5   6
ATOM      6  C   UNL A   1      31.431  21.335  25.075  1.00  0.00     0.310 C 
ATOM      7  O   UNL A   1      30.529  21.742  25.805  1.00  0.00    -0.252 OA
BRANCH   6   8
ATOM      8  C   UNL A   1      32.138  22.288  24.133  1.00  0.00     0.160 C 
BRANCH   8   9
ATOM      9  C   UNL A   1      31.999  23.773  24.323  1.00  0.00    -0.015 A 
ATOM     10  C   UNL A   1      32.822  24.091  26.786  1.00  0.00     0.065 C 
ATOM     11  C   UNL A   1      32.329  24.530  25.446  1.00  0.00     0.024 A 
ATOM     12  N   UNL A   1      32.036  25.858  25.168  1.00  0.00    -0.314 N 
ATOM     13  C   UNL A   1      31.276  24.652  23.463  1.00  0.00     0.033 A 
ATOM     14  C   UNL A   1      31.203  25.901  24.061  1.00  0.00     0.053 A 
BRANCH  12  15
ATOM     15  C   UNL A   1      32.521  26.986  25.870  1.00  0.00     0.046 A 
ATOM     16  C   UNL A   1      31.729  27.616  26.832  1.00  0.00     0.026 A 
ATOM     17  C   UNL A   1      33.755  27.526  25.486  1.00  0.00     0.026 A 
ATOM     18  C   UNL A   1      32.187  28.795  27.422  1.00  0.00     0.002 A 
ATOM     19  C   UNL A   1      34.193  28.715  26.067  1.00  0.00     0.002 A 
ATOM     20  C   UNL A   1      33.411  29.347  27.035  1.00  0.00     0.000 A 
ENDBRANCH  12  15
BRANCH  14  21
ATOM     21  C   UNL A   1      30.416  27.068  23.668  1.00  0.00    -0.001 A 
ATOM     22  C   UNL A   1      29.018  27.063  23.718  1.00  0.00     0.011 A 
ATOM     23  C   UNL A   1      31.085  28.199  23.177  1.00  0.00     0.011 A 
ATOM     24  C   UNL A   1      28.292  28.171  23.272  1.00  0.00     0.021 A 
ATOM     25  C   UNL A   1      30.368  29.306  22.724  1.00  0.00     0.021 A 
ATOM     26  C   UNL A   1      28.973  29.283  22.767  1.00  0.00     0.067 A 
BRANCH  26  27
ATOM     27  S   UNL A   1      28.053  30.703  22.224  1.00  0.00     0.175 S 
ATOM     28  C   UNL A   1      29.198  32.049  22.359  1.00  0.00     0.163 C 
ATOM     29  O   UNL A   1      27.760  30.497  20.811  1.00  0.00    -0.224 OA
ATOM     30  O   UNL A   1      26.990  30.937  23.175  1.00  0.00    -0.224 OA
ENDBRANCH  26  27
ENDBRANCH  14  21
ENDBRANCH   8   9
ENDBRANCH   6   8
ENDBRANCH   5   6
ENDBRANCH   4   5
ENDBRANCH   3   4
ENDBRANCH   2   3
ENDBRANCH   1   2
BRANCH   1  31
ATOM     31  C   UNL A   1      36.225  21.484  25.787  1.00  0.00     0.188 C 
BRANCH  31  32
ATOM     32  O   UNL A   1      37.470  21.194  25.190  1.00  0.00    -0.376 OA
BRANCH  32  33
ATOM     33  C   UNL A   1      38.596  22.000  25.516  1.00  0.00     0.202 C 
BRANCH  33  34
ATOM     34  C   UNL A   1      39.769  21.321  26.277  1.00  0.00     0.261 C 
BRANCH  34  35
ATOM     35  O   UNL A   1      41.023  21.037  25.549  1.00  0.00    -0.460 OA
BRANCH  35  36
ATOM     36  C   UNL A   1      42.181  21.483  26.143  1.00  0.00     0.338 C 
ATOM     37  O   UNL A   1      43.116  20.731  26.407  1.00  0.00    -0.246 OA
BRANCH  36  38
ATOM     38  C   UNL A   1      42.330  22.991  26.443  1.00  0.00     0.060 A 
ATOM     39  C   UNL A   1      42.099  23.397  27.745  1.00  0.00     0.016 A 
ATOM     40  C   UNL A   1      42.450  24.071  25.536  1.00  0.00     0.016 A 
ATOM     41  C   UNL A   1      42.038  24.791  28.103  1.00  0.00     0.010 A 
ATOM     42  C   UNL A   1      42.312  25.521  25.918  1.00  0.00     0.010 A 
ATOM     43  C   UNL A   1      42.079  25.958  27.234  1.00  0.00    -0.014 A 
BRANCH  43  44
ATOM     44  C   UNL A   1      41.699  27.476  27.915  1.00  0.00     0.031 A 
ATOM     45  C   UNL A   1      43.023  28.149  27.919  1.00  0.00     0.074 A 
ATOM     46  C   UNL A   1      40.783  28.286  28.642  1.00  0.00     0.049 A 
ATOM     47  N   UNL A   1      43.968  27.583  28.614  1.00  0.00    -0.248 NA
ATOM     48  C   UNL A   1      43.487  29.132  26.942  1.00  0.00     0.031 C 
ATOM     49  C   UNL A   1      39.497  27.903  29.262  1.00  0.00     0.029 A 
ATOM     50  N   UNL A   1      40.801  29.690  29.069  1.00  0.00    -0.354 N 
ATOM     51  C   UNL A   1      45.113  28.289  28.377  1.00  0.00     0.074 A 
ATOM     52  C   UNL A   1      44.800  29.121  27.222  1.00  0.00     0.031 C 
ATOM     53  C   UNL A   1      38.825  28.972  29.802  1.00  0.00     0.029 A 
ATOM     54  C   UNL A   1      39.581  30.224  29.679  1.00  0.00     0.049 A 
ATOM     55  H   UNL A   1      41.601  30.251  28.949  1.00  0.00     0.167 HD
ATOM     56  C   UNL A   1      45.836  28.550  29.501  1.00  0.00     0.037 A 
ATOM     57  C   UNL A   1      39.227  31.507  30.156  1.00  0.00     0.037 A 
ATOM     58  C   UNL A   1      45.595  29.886  29.962  1.00  0.00     0.049 A 
ATOM     59  C   UNL A   1      40.466  32.078  30.689  1.00  0.00     0.074 A 
ATOM     60  C   UNL A   1      45.463  31.088  29.296  1.00  0.00     0.029 A 
ATOM     61  N   UNL A   1      44.977  30.037  31.182  1.00  0.00    -0.354 N 
ATOM     62  N   UNL A   1      40.889  31.704  31.857  1.00  0.00    -0.248 NA
ATOM     63  C   UNL A   1      41.162  33.219  30.111  1.00  0.00     0.031 C 
ATOM     64  C   UNL A   1      44.354  31.707  29.900  1.00  0.00     0.029 A 
ATOM     65  C   UNL A   1      44.101  31.094  31.121  1.00  0.00     0.049 A 
ATOM     66  H   UNL A   1      45.139  29.477  31.976  1.00  0.00     0.167 HD
ATOM     67  C   UNL A   1      42.152  32.180  31.911  1.00  0.00     0.074 A 
ATOM     68  C   UNL A   1      42.172  33.297  30.983  1.00  0.00     0.031 C 
ATOM     69  C   UNL A   1      43.073  31.211  32.123  1.00  0.00     0.037 A 
BRANCH  56  70
ATOM     70  C   UNL A   1      45.946  27.319  30.375  1.00  0.00     0.064 A 
ATOM     71  C   UNL A   1      44.868  26.994  31.204  1.00  0.00     0.173 A 
ATOM     72  C   UNL A   1      47.167  26.647  30.611  1.00  0.00     0.173 A 
ATOM     73  F   UNL A   1      43.670  27.562  31.001  1.00  0.00    -0.203 F 
ATOM     74  C   UNL A   1      45.024  26.108  32.270  1.00  0.00     0.198 A 
ATOM     75  C   UNL A   1      47.340  25.826  31.719  1.00  0.00     0.198 A 
ATOM     76  F   UNL A   1      48.221  26.836  29.796  1.00  0.00    -0.203 F 
ATOM     77  F   UNL A   1      43.974  25.805  33.045  1.00  0.00    -0.200 F 
ATOM     78  C   UNL A   1      46.269  25.562  32.554  1.00  0.00     0.200 A 
ATOM     79  F   UNL A   1      48.549  25.314  31.992  1.00  0.00    -0.200 F 
ATOM     80  F   UNL A   1      46.433  24.776  33.627  1.00  0.00    -0.200 F 
ENDBRANCH  56  70
BRANCH  57  81
ATOM     81  C   UNL A   1      38.064  32.485  30.669  1.00  0.00     0.064 A 
ATOM     82  C   UNL A   1      37.352  33.381  29.773  1.00  0.00     0.173 A 
ATOM     83  C   UNL A   1      37.337  32.238  31.846  1.00  0.00     0.173 A 
ATOM     84  F   UNL A   1      37.890  33.808  28.623  1.00  0.00    -0.203 F 
ATOM     85  C   UNL A   1      36.032  33.840  29.968  1.00  0.00     0.198 A 
ATOM     86  C   UNL A   1      36.019  32.745  32.062  1.00  0.00     0.198 A 
ATOM     87  F   UNL A   1      37.845  31.428  32.782  1.00  0.00    -0.203 F 
ATOM     88  F   UNL A   1      35.411  34.547  29.008  1.00  0.00    -0.200 F 
ATOM     89  C   UNL A   1      35.354  33.504  31.109  1.00  0.00     0.200 A 
ATOM     90  F   UNL A   1      35.358  32.431  33.187  1.00  0.00    -0.200 F 
ATOM     91  F   UNL A   1      34.076  33.881  31.278  1.00  0.00    -0.200 F 
ENDBRANCH  57  81
BRANCH  69  92
ATOM     92  C   UNL A   1      42.798  30.247  33.274  1.00  0.00     0.064 A 
ATOM     93  C   UNL A   1      42.046  29.041  33.243  1.00  0.00     0.173 A 
ATOM     94  C   UNL A   1      43.248  30.641  34.542  1.00  0.00     0.173 A 
ATOM     95  F   UNL A   1      41.672  28.445  32.102  1.00  0.00    -0.203 F 
ATOM     96  C   UNL A   1      41.676  28.368  34.412  1.00  0.00     0.198 A 
ATOM     97  C   UNL A   1      42.935  29.929  35.699  1.00  0.00     0.198 A 
ATOM     98  F   UNL A   1      44.015  31.735  34.670  1.00  0.00    -0.203 F 
ATOM     99  F   UNL A   1      40.891  27.281  34.343  1.00  0.00    -0.200 F 
ATOM    100  C   UNL A   1      42.120  28.814  35.640  1.00  0.00     0.200 A 
ATOM    101  F   UNL A   1      43.424  30.338  36.878  1.00  0.00    -0.200 F 
ATOM    102  F   UNL A   1      41.781  28.162  36.762  1.00  0.00    -0.200 F 
ENDBRANCH  69  92
ENDBRANCH  43  44
ENDBRANCH  36  38
ENDBRANCH  35  36
ENDBRANCH  34  35
ENDBRANCH  33  34
ENDBRANCH  32  33
ENDBRANCH  31  32
ENDBRANCH   1  31
TORSDOF 21
ENDMDL
MODEL 2
REMARK VINA RESULT:     -11.6      3.949      9.434
REMARK SMILES Cc1c(CC(=O)OCCOCCOCCOC(=O)c2ccc(-c3c4nc(c(-c5c(F)c(F)c(F)c(F)c5F)c5ccc([nH]5)c(-c5c(F)c(F)c(F)c(F)c5F)c5nc(c(-c6c(F)c(F)c(F)c(F)c6F)c6ccc3[nH]6)C=C5)C=C4)cc2)cc(-c2ccc(S(C)(=O)=O)cc2)n1-c1ccccc1
REMARK SMILES IDX 11 1 10 2 9 3 8 4 7 5 5 6 6 7 4 8 3 9 1 10 2 11 94 12 82 13
REMARK SMILES IDX 83 14 95 15 96 16 100 17 97 18 99 19 98 20 84 21 85 22 93 23
REMARK SMILES IDX 86 24 92 25 87 26 88 27 89 28 90 29 91 30 12 31 13 32 14 33
REMARK SMILES IDX 15 34 16 35 17 36 18 37 19 38 20 39 81 40 21 41 80 42 22 43
REMARK SMILES IDX 23 44 24 45 74 46 25 47 79 48 73 49 75 50 26 51 78 52 72 53
REMARK SMILES IDX 71 54 27 56 59 57 39 58 58 59 40 60 43 61 57 62 76 63 41 64
REMARK SMILES IDX 42 65 56 67 77 68 44 69 28 70 29 71 37 72 30 73 31 74 35 75
REMARK SMILES IDX 38 76 32 77 33 78 36 79 34 80 60 81 61 82 69 83 62 84 63 85
REMARK SMILES IDX 67 86 70 87 64 88 65 89 68 90 66 91 45 92 46 93 54 94 47 95
REMARK SMILES IDX 48 96 52 97 55 98 49 99 50 100 53 101 51 102
REMARK H PARENT 75 55 43 66
REMARK Flexibility Score: inf
ROOT
ATOM      1  C   UNL A   1      34.225  34.419  28.374  1.00  0.00     0.188 C 
ENDROOT
BRANCH   1   2
ATOM      2  O   UNL A   1      35.585  34.478  28.778  1.00  0.00    -0.376 OA
BRANCH   2   3
ATOM      3  C   UNL A   1      36.562  33.744  28.052  1.00  0.00     0.202 C 
BRANCH   3   4
ATOM      4  C   UNL A   1      37.324  32.637  28.787  1.00  0.00     0.261 C 
BRANCH   4   5
ATOM      5  O   UNL A   1      36.499  31.504  29.130  1.00  0.00    -0.463 OA
BRANCH   5   6
ATOM      6  C   UNL A   1      36.029  30.779  28.083  1.00  0.00     0.310 C 
ATOM      7  O   UNL A   1      36.748  30.128  27.326  1.00  0.00    -0.252 OA
BRANCH   6   8
ATOM      8  C   UNL A   1      34.524  30.760  27.909  1.00  0.00     0.160 C 
BRANCH   8   9
ATOM      9  C   UNL A   1      33.886  29.751  26.994  1.00  0.00    -0.015 A 
ATOM     10  C   UNL A   1      31.487  30.745  26.671  1.00  0.00     0.065 C 
ATOM     11  C   UNL A   1      32.604  29.779  26.448  1.00  0.00     0.024 A 
ATOM     12  N   UNL A   1      32.451  28.645  25.660  1.00  0.00    -0.314 N 
ATOM     13  C   UNL A   1      34.400  28.452  26.709  1.00  0.00     0.033 A 
ATOM     14  C   UNL A   1      33.449  27.743  25.993  1.00  0.00     0.053 A 
BRANCH  12  15
ATOM     15  C   UNL A   1      31.465  28.445  24.666  1.00  0.00     0.046 A 
ATOM     16  C   UNL A   1      30.535  27.410  24.790  1.00  0.00     0.026 A 
ATOM     17  C   UNL A   1      31.527  29.223  23.504  1.00  0.00     0.026 A 
ATOM     18  C   UNL A   1      29.650  27.164  23.739  1.00  0.00     0.002 A 
ATOM     19  C   UNL A   1      30.653  28.953  22.452  1.00  0.00     0.002 A 
ATOM     20  C   UNL A   1      29.715  27.927  22.570  1.00  0.00     0.000 A 
ENDBRANCH  12  15
BRANCH  14  21
ATOM     21  C   UNL A   1      33.429  26.326  25.635  1.00  0.00    -0.001 A 
ATOM     22  C   UNL A   1      34.079  25.848  24.491  1.00  0.00     0.011 A 
ATOM     23  C   UNL A   1      32.693  25.438  26.432  1.00  0.00     0.011 A 
ATOM     24  C   UNL A   1      33.985  24.498  24.139  1.00  0.00     0.021 A 
ATOM     25  C   UNL A   1      32.589  24.091  26.085  1.00  0.00     0.021 A 
ATOM     26  C   UNL A   1      33.231  23.629  24.934  1.00  0.00     0.067 A 
BRANCH  26  27
ATOM     27  S   UNL A   1      33.132  21.909  24.503  1.00  0.00     0.175 S 
ATOM     28  C   UNL A   1      34.786  21.306  24.711  1.00  0.00     0.163 C 
ATOM     29  O   UNL A   1      32.288  21.273  25.507  1.00  0.00    -0.224 OA
ATOM     30  O   UNL A   1      32.808  21.819  23.098  1.00  0.00    -0.224 OA
ENDBRANCH  26  27
ENDBRANCH  14  21
ENDBRANCH   8   9
ENDBRANCH   6   8
ENDBRANCH   5   6
ENDBRANCH   4   5
ENDBRANCH   3   4
ENDBRANCH   2   3
ENDBRANCH   1   2
BRANCH   1  31
ATOM     31  C   UNL A   1      33.191  35.377  28.980  1.00  0.00     0.188 C 
BRANCH  31  32
ATOM     32  O   UNL A   1      32.568  35.070  30.209  1.00  0.00    -0.376 OA
BRANCH  32  33
ATOM     33  C   UNL A   1      32.900  35.838  31.360  1.00  0.00     0.202 C 
BRANCH  33  34
ATOM     34  C   UNL A   1      33.940  35.238  32.347  1.00  0.00     0.261 C 
BRANCH  34  35
ATOM     35  O   UNL A   1      35.121  34.537  31.800  1.00  0.00    -0.460 OA
BRANCH  35  36
ATOM     36  C   UNL A   1      36.142  34.290  32.689  1.00  0.00     0.338 C 
ATOM     37  O   UNL A   1      36.461  35.093  33.562  1.00  0.00    -0.246 OA
BRANCH  36  38
ATOM     38  C   UNL A   1      36.879  32.935  32.617  1.00  0.00     0.060 A 
ATOM     39  C   UNL A   1      38.178  32.952  32.143  1.00  0.00     0.016 A 
ATOM     40  C   UNL A   1      36.354  31.628  32.751  1.00  0.00     0.016 A 
ATOM     41  C   UNL A   1      38.901  31.737  31.869  1.00  0.00     0.010 A 
ATOM     42  C   UNL A   1      37.099  30.371  32.391  1.00  0.00     0.010 A 
ATOM     43  C   UNL A   1      38.421  30.363  31.910  1.00  0.00    -0.014 A 
BRANCH  43  44
ATOM     44  C   UNL A   1      39.424  29.145  31.259  1.00  0.00     0.031 A 
ATOM     45  C   UNL A   1      40.442  28.984  32.327  1.00  0.00     0.074 A 
ATOM     46  C   UNL A   1      39.842  28.394  30.126  1.00  0.00     0.049 A 
ATOM     47  N   UNL A   1      41.159  30.031  32.620  1.00  0.00    -0.248 NA
ATOM     48  C   UNL A   1      40.463  27.927  33.337  1.00  0.00     0.031 C 
ATOM     49  C   UNL A   1      39.422  28.531  28.715  1.00  0.00     0.029 A 
ATOM     50  N   UNL A   1      40.820  27.316  29.939  1.00  0.00    -0.354 N 
ATOM     51  C   UNL A   1      41.929  29.698  33.698  1.00  0.00     0.074 A 
ATOM     52  C   UNL A   1      41.345  28.460  34.198  1.00  0.00     0.031 C 
ATOM     53  C   UNL A   1      39.959  27.565  27.901  1.00  0.00     0.029 A 
ATOM     54  C   UNL A   1      40.865  26.666  28.626  1.00  0.00     0.049 A 
ATOM     55  H   UNL A   1      41.423  27.039  30.667  1.00  0.00     0.167 HD
ATOM     56  C   UNL A   1      43.226  30.097  33.588  1.00  0.00     0.037 A 
ATOM     57  C   UNL A   1      41.626  25.592  28.110  1.00  0.00     0.037 A 
ATOM     58  C   UNL A   1      44.060  29.008  33.173  1.00  0.00     0.049 A 
ATOM     59  C   UNL A   1      42.925  25.679  28.783  1.00  0.00     0.074 A 
ATOM     60  C   UNL A   1      44.092  27.675  33.532  1.00  0.00     0.029 A 
ATOM     61  N   UNL A   1      44.669  29.104  31.943  1.00  0.00    -0.354 N 
ATOM     62  N   UNL A   1      43.793  26.554  28.381  1.00  0.00    -0.248 NA
ATOM     63  C   UNL A   1      43.424  24.698  29.736  1.00  0.00     0.031 C 
ATOM     64  C   UNL A   1      44.231  26.985  32.313  1.00  0.00     0.029 A 
ATOM     65  C   UNL A   1      44.669  27.871  31.337  1.00  0.00     0.049 A 
ATOM     66  H   UNL A   1      45.048  29.928  31.558  1.00  0.00     0.167 HD
ATOM     67  C   UNL A   1      44.720  26.564  29.363  1.00  0.00     0.074 A 
ATOM     68  C   UNL A   1      44.607  25.263  30.000  1.00  0.00     0.031 C 
ATOM     69  C   UNL A   1      44.892  27.788  29.916  1.00  0.00     0.037 A 
BRANCH  56  70
ATOM     70  C   UNL A   1      43.314  31.521  33.083  1.00  0.00     0.064 A 
ATOM     71  C   UNL A   1      43.497  32.548  34.015  1.00  0.00     0.173 A 
ATOM     72  C   UNL A   1      42.943  31.899  31.772  1.00  0.00     0.173 A 
ATOM     73  F   UNL A   1      43.895  32.257  35.263  1.00  0.00    -0.203 F 
ATOM     74  C   UNL A   1      43.238  33.877  33.679  1.00  0.00     0.198 A 
ATOM     75  C   UNL A   1      42.610  33.213  31.463  1.00  0.00     0.198 A 
ATOM     76  F   UNL A   1      42.841  30.978  30.797  1.00  0.00    -0.203 F 
ATOM     77  F   UNL A   1      43.429  34.844  34.587  1.00  0.00    -0.200 F 
ATOM     78  C   UNL A   1      42.751  34.202  32.420  1.00  0.00     0.200 A 
ATOM     79  F   UNL A   1      42.129  33.515  30.248  1.00  0.00    -0.200 F 
ATOM     80  F   UNL A   1      42.425  35.469  32.128  1.00  0.00    -0.200 F 
ENDBRANCH  56  70
BRANCH  57  81
ATOM     81  C   UNL A   1      41.843  24.538  26.922  1.00  0.00     0.064 A 
ATOM     82  C   UNL A   1      42.791  24.766  25.845  1.00  0.00     0.173 A 
ATOM     83  C   UNL A   1      41.523  23.176  27.057  1.00  0.00     0.173 A 
ATOM     84  F   UNL A   1      43.181  25.998  25.493  1.00  0.00    -0.203 F 
ATOM     85  C   UNL A   1      43.439  23.752  25.109  1.00  0.00     0.198 A 
ATOM     86  C   UNL A   1      42.146  22.154  26.275  1.00  0.00     0.198 A 
ATOM     87  F   UNL A   1      40.665  22.786  28.006  1.00  0.00    -0.203 F 
ATOM     88  F   UNL A   1      44.410  24.064  24.233  1.00  0.00    -0.200 F 
ATOM     89  C   UNL A   1      43.131  22.437  25.339  1.00  0.00     0.200 A 
ATOM     90  F   UNL A   1      41.834  20.867  26.488  1.00  0.00    -0.200 F 
ATOM     91  F   UNL A   1      43.787  21.460  24.692  1.00  0.00    -0.200 F 
ENDBRANCH  57  81
BRANCH  69  92
ATOM     92  C   UNL A   1      45.102  28.951  28.950  1.00  0.00     0.064 A 
ATOM     93  C   UNL A   1      44.120  29.642  28.189  1.00  0.00     0.173 A 
ATOM     94  C   UNL A   1      46.430  29.320  28.693  1.00  0.00     0.173 A 
ATOM     95  F   UNL A   1      42.804  29.521  28.416  1.00  0.00    -0.203 F 
ATOM     96  C   UNL A   1      44.466  30.536  27.170  1.00  0.00     0.198 A 
ATOM     97  C   UNL A   1      46.768  30.263  27.723  1.00  0.00     0.198 A 
ATOM     98  F   UNL A   1      47.427  28.767  29.401  1.00  0.00    -0.203 F 
ATOM     99  F   UNL A   1      43.509  31.101  26.417  1.00  0.00    -0.200 F 
ATOM    100  C   UNL A   1      45.791  30.844  26.937  1.00  0.00     0.200 A 
ATOM    101  F   UNL A   1      48.053  30.599  27.550  1.00  0.00    -0.200 F 
ATOM    102  F   UNL A   1      46.126  31.712  25.971  1.00  0.00    -0.200 F 
ENDBRANCH  69  92
ENDBRANCH  43  44
ENDBRANCH  36  38
ENDBRANCH  35  36
ENDBRANCH  34  35
ENDBRANCH  33  34
ENDBRANCH  32  33
ENDBRANCH  31  32
ENDBRANCH   1  31
TORSDOF 21
ENDMDL
MODEL 3
REMARK VINA RESULT:     -11.4      2.016      3.544
REMARK SMILES Cc1c(CC(=O)OCCOCCOCCOC(=O)c2ccc(-c3c4nc(c(-c5c(F)c(F)c(F)c(F)c5F)c5ccc([nH]5)c(-c5c(F)c(F)c(F)c(F)c5F)c5nc(c(-c6c(F)c(F)c(F)c(F)c6F)c6ccc3[nH]6)C=C5)C=C4)cc2)cc(-c2ccc(S(C)(=O)=O)cc2)n1-c1ccccc1
REMARK SMILES IDX 11 1 10 2 9 3 8 4 7 5 5 6 6 7 4 8 3 9 1 10 2 11 94 12 82 13
REMARK SMILES IDX 83 14 95 15 96 16 100 17 97 18 99 19 98 20 84 21 85 22 93 23
REMARK SMILES IDX 86 24 92 25 87 26 88 27 89 28 90 29 91 30 12 31 13 32 14 33
REMARK SMILES IDX 15 34 16 35 17 36 18 37 19 38 20 39 81 40 21 41 80 42 22 43
REMARK SMILES IDX 23 44 24 45 74 46 25 47 79 48 73 49 75 50 26 51 78 52 72 53
REMARK SMILES IDX 71 54 27 56 59 57 39 58 58 59 40 60 43 61 57 62 76 63 41 64
REMARK SMILES IDX 42 65 56 67 77 68 44 69 28 70 29 71 37 72 30 73 31 74 35 75
REMARK SMILES IDX 38 76 32 77 33 78 36 79 34 80 60 81 61 82 69 83 62 84 63 85
REMARK SMILES IDX 67 86 70 87 64 88 65 89 68 90 66 91 45 92 46 93 54 94 47 95
REMARK SMILES IDX 48 96 52 97 55 98 49 99 50 100 53 101 51 102
REMARK H PARENT 75 55 43 66
REMARK Flexibility Score: inf
ROOT
ATOM      1  C   UNL A   1      38.443  23.842  26.098  1.00  0.00     0.188 C 
ENDROOT
BRANCH   1   2
ATOM      2  O   UNL A   1      37.043  23.974  26.292  1.00  0.00    -0.376 OA
BRANCH   2   3
ATOM      3  C   UNL A   1      36.152  23.199  25.501  1.00  0.00     0.202 C 
BRANCH   3   4
ATOM      4  C   UNL A   1      36.068  21.694  25.776  1.00  0.00     0.261 C 
BRANCH   4   5
ATOM      5  O   UNL A   1      34.804  21.283  26.336  1.00  0.00    -0.463 OA
BRANCH   5   6
ATOM      6  C   UNL A   1      33.763  21.229  25.466  1.00  0.00     0.310 C 
ATOM      7  O   UNL A   1      33.828  20.702  24.357  1.00  0.00    -0.252 OA
BRANCH   6   8
ATOM      8  C   UNL A   1      32.457  21.819  25.954  1.00  0.00     0.160 C 
BRANCH   8   9
ATOM      9  C   UNL A   1      32.153  23.272  25.716  1.00  0.00    -0.015 A 
ATOM     10  C   UNL A   1      31.332  23.261  23.231  1.00  0.00     0.065 C 
ATOM     11  C   UNL A   1      31.640  23.864  24.562  1.00  0.00     0.024 A 
ATOM     12  N   UNL A   1      31.519  25.227  24.799  1.00  0.00    -0.314 N 
ATOM     13  C   UNL A   1      32.563  24.351  26.554  1.00  0.00     0.033 A 
ATOM     14  C   UNL A   1      32.276  25.547  25.915  1.00  0.00     0.053 A 
BRANCH  12  15
ATOM     15  C   UNL A   1      30.738  26.139  24.051  1.00  0.00     0.046 A 
ATOM     16  C   UNL A   1      31.343  27.012  23.144  1.00  0.00     0.026 A 
ATOM     17  C   UNL A   1      29.371  26.230  24.338  1.00  0.00     0.026 A 
ATOM     18  C   UNL A   1      30.562  27.979  22.509  1.00  0.00     0.002 A 
ATOM     19  C   UNL A   1      28.605  27.214  23.714  1.00  0.00     0.002 A 
ATOM     20  C   UNL A   1      29.199  28.086  22.800  1.00  0.00     0.000 A 
ENDBRANCH  12  15
BRANCH  14  21
ATOM     21  C   UNL A   1      32.671  26.906  26.278  1.00  0.00    -0.001 A 
ATOM     22  C   UNL A   1      33.995  27.345  26.155  1.00  0.00     0.011 A 
ATOM     23  C   UNL A   1      31.706  27.770  26.815  1.00  0.00     0.011 A 
ATOM     24  C   UNL A   1      34.354  28.629  26.574  1.00  0.00     0.021 A 
ATOM     25  C   UNL A   1      32.058  29.051  27.241  1.00  0.00     0.021 A 
ATOM     26  C   UNL A   1      33.384  29.471  27.125  1.00  0.00     0.067 A 
BRANCH  26  27
ATOM     27  S   UNL A   1      33.833  31.113  27.634  1.00  0.00     0.175 S 
ATOM     28  C   UNL A   1      32.445  32.114  27.172  1.00  0.00     0.163 C 
ATOM     29  O   UNL A   1      33.914  31.093  29.090  1.00  0.00    -0.224 OA
ATOM     30  O   UNL A   1      34.961  31.535  26.835  1.00  0.00    -0.224 OA
ENDBRANCH  26  27
ENDBRANCH  14  21
ENDBRANCH   8   9
ENDBRANCH   6   8
ENDBRANCH   5   6
ENDBRANCH   4   5
ENDBRANCH   3   4
ENDBRANCH   2   3
ENDBRANCH   1   2
BRANCH   1  31
ATOM     31  C   UNL A   1      39.196  22.632  26.666  1.00  0.00     0.188 C 
BRANCH  31  32
ATOM     32  O   UNL A   1      39.650  21.608  25.808  1.00  0.00    -0.376 OA
BRANCH  32  33
ATOM     33  C   UNL A   1      40.215  20.432  26.377  1.00  0.00     0.202 C 
BRANCH  33  34
ATOM     34  C   UNL A   1      41.765  20.340  26.442  1.00  0.00     0.261 C 
BRANCH  34  35
ATOM     35  O   UNL A   1      42.527  21.496  26.961  1.00  0.00    -0.460 OA
BRANCH  35  36
ATOM     36  C   UNL A   1      42.915  22.431  26.028  1.00  0.00     0.338 C 
ATOM     37  O   UNL A   1      43.365  22.115  24.930  1.00  0.00    -0.246 OA
BRANCH  36  38
ATOM     38  C   UNL A   1      42.732  23.929  26.355  1.00  0.00     0.060 A 
ATOM     39  C   UNL A   1      42.387  24.249  27.656  1.00  0.00     0.016 A 
ATOM     40  C   UNL A   1      42.640  25.028  25.469  1.00  0.00     0.016 A 
ATOM     41  C   UNL A   1      42.022  25.590  28.035  1.00  0.00     0.010 A 
ATOM     42  C   UNL A   1      42.187  26.407  25.869  1.00  0.00     0.010 A 
ATOM     43  C   UNL A   1      41.834  26.758  27.185  1.00  0.00    -0.014 A 
BRANCH  43  44
ATOM     44  C   UNL A   1      41.122  28.145  27.878  1.00  0.00     0.031 A 
ATOM     45  C   UNL A   1      42.272  29.083  27.933  1.00  0.00     0.074 A 
ATOM     46  C   UNL A   1      40.037  28.726  28.591  1.00  0.00     0.049 A 
ATOM     47  N   UNL A   1      43.298  28.715  28.646  1.00  0.00    -0.248 NA
ATOM     48  C   UNL A   1      42.541  30.163  26.986  1.00  0.00     0.031 C 
ATOM     49  C   UNL A   1      38.846  28.066  29.165  1.00  0.00     0.029 A 
ATOM     50  N   UNL A   1      39.744  30.092  29.039  1.00  0.00    -0.354 N 
ATOM     51  C   UNL A   1      44.272  29.654  28.455  1.00  0.00     0.074 A 
ATOM     52  C   UNL A   1      43.818  30.425  27.305  1.00  0.00     0.031 C 
ATOM     53  C   UNL A   1      37.948  28.955  29.702  1.00  0.00     0.029 A 
ATOM     54  C   UNL A   1      38.423  30.342  29.622  1.00  0.00     0.049 A 
ATOM     55  H   UNL A   1      40.409  30.813  28.953  1.00  0.00     0.167 HD
ATOM     56  C   UNL A   1      44.894  30.038  29.603  1.00  0.00     0.037 A 
ATOM     57  C   UNL A   1      37.792  31.510  30.108  1.00  0.00     0.037 A 
ATOM     58  C   UNL A   1      44.362  31.282  30.078  1.00  0.00     0.049 A 
ATOM     59  C   UNL A   1      38.867  32.319  30.687  1.00  0.00     0.074 A 
ATOM     60  C   UNL A   1      43.995  32.442  29.427  1.00  0.00     0.029 A 
ATOM     61  N   UNL A   1      43.695  31.272  31.281  1.00  0.00    -0.354 N 
ATOM     62  N   UNL A   1      39.329  32.018  31.861  1.00  0.00    -0.248 NA
ATOM     63  C   UNL A   1      39.319  33.594  30.148  1.00  0.00     0.031 C 
ATOM     64  C   UNL A   1      42.764  32.799  30.008  1.00  0.00     0.029 A 
ATOM     65  C   UNL A   1      42.616  32.120  31.211  1.00  0.00     0.049 A 
ATOM     66  H   UNL A   1      43.952  30.741  32.071  1.00  0.00     0.167 HD
ATOM     67  C   UNL A   1      40.460  32.749  31.960  1.00  0.00     0.074 A 
ATOM     68  C   UNL A   1      40.267  33.866  31.050  1.00  0.00     0.031 C 
ATOM     69  C   UNL A   1      41.561  31.994  32.184  1.00  0.00     0.037 A 
BRANCH  56  70
ATOM     70  C   UNL A   1      45.240  28.839  30.461  1.00  0.00     0.064 A 
ATOM     71  C   UNL A   1      46.570  28.409  30.497  1.00  0.00     0.173 A 
ATOM     72  C   UNL A   1      44.265  27.966  30.994  1.00  0.00     0.173 A 
ATOM     73  F   UNL A   1      47.547  29.212  30.049  1.00  0.00    -0.203 F 
ATOM     74  C   UNL A   1      46.901  27.136  30.963  1.00  0.00     0.198 A 
ATOM     75  C   UNL A   1      44.587  26.671  31.384  1.00  0.00     0.198 A 
ATOM     76  F   UNL A   1      42.978  28.347  31.081  1.00  0.00    -0.203 F 
ATOM     77  F   UNL A   1      48.183  26.751  30.997  1.00  0.00    -0.200 F 
ATOM     78  C   UNL A   1      45.906  26.254  31.361  1.00  0.00     0.200 A 
ATOM     79  F   UNL A   1      43.618  25.821  31.755  1.00  0.00    -0.200 F 
ATOM     80  F   UNL A   1      46.221  25.004  31.731  1.00  0.00    -0.200 F 
ENDBRANCH  56  70
BRANCH  57  81
ATOM     81  C   UNL A   1      36.434  32.207  30.601  1.00  0.00     0.064 A 
ATOM     82  C   UNL A   1      35.950  32.083  31.966  1.00  0.00     0.173 A 
ATOM     83  C   UNL A   1      35.881  33.321  29.950  1.00  0.00     0.173 A 
ATOM     84  F   UNL A   1      36.293  31.052  32.749  1.00  0.00    -0.203 F 
ATOM     85  C   UNL A   1      35.142  33.033  32.626  1.00  0.00     0.198 A 
ATOM     86  C   UNL A   1      35.022  34.255  30.608  1.00  0.00     0.198 A 
ATOM     87  F   UNL A   1      36.222  33.588  28.684  1.00  0.00    -0.203 F 
ATOM     88  F   UNL A   1      34.869  32.897  33.936  1.00  0.00    -0.200 F 
ATOM     89  C   UNL A   1      34.692  34.135  31.950  1.00  0.00     0.200 A 
ATOM     90  F   UNL A   1      34.567  35.328  29.943  1.00  0.00    -0.200 F 
ATOM     91  F   UNL A   1      33.976  35.078  32.585  1.00  0.00    -0.200 F 
ENDBRANCH  57  81
BRANCH  69  92
ATOM     92  C   UNL A   1      41.468  30.968  33.311  1.00  0.00     0.064 A 
ATOM     93  C   UNL A   1      41.796  31.146  34.682  1.00  0.00     0.173 A 
ATOM     94  C   UNL A   1      41.118  29.662  32.941  1.00  0.00     0.173 A 
ATOM     95  F   UNL A   1      42.004  32.351  35.232  1.00  0.00    -0.203 F 
ATOM     96  C   UNL A   1      41.883  30.066  35.568  1.00  0.00     0.198 A 
ATOM     97  C   UNL A   1      41.140  28.600  33.844  1.00  0.00     0.198 A 
ATOM     98  F   UNL A   1      40.736  29.402  31.681  1.00  0.00    -0.203 F 
ATOM     99  F   UNL A   1      42.282  30.267  36.835  1.00  0.00    -0.200 F 
ATOM    100  C   UNL A   1      41.557  28.794  35.147  1.00  0.00     0.200 A 
ATOM    101  F   UNL A   1      40.761  27.380  33.438  1.00  0.00    -0.200 F 
ATOM    102  F   UNL A   1      41.626  27.759  35.998  1.00  0.00    -0.200 F 
ENDBRANCH  69  92
ENDBRANCH  43  44
ENDBRANCH  36  38
ENDBRANCH  35  36
ENDBRANCH  34  35
ENDBRANCH  33  34
ENDBRANCH  32  33
ENDBRANCH  31  32
ENDBRANCH   1  31
TORSDOF 21
ENDMDL
