MODEL 1
REMARK VINA RESULT:     -12.7      0.000      0.000
REMARK SMILES C[C@]1(C(=O)OCCOCCOCCOC(=O)c2ccc(-c3c4nc(c(-c5c(F)c(F)c(F)c(F)c5F)c5ccc([nH]5)c(-c5c(F)c(F)c(F)c(F)c5F)c5nc(c(-c6c(F)c(F)c(F)c(F)c6F)c6ccc3[nH]6)C=C5)C=C4)cc2)[NH2+]C2(C(=O)c3ccccc3C2=O)[C@@H]2C(=O)N(c3ccccc3)C(=O)[C@H]21
REMARK SMILES IDX 10 1 9 2 8 3 7 4 6 5 5 6 3 7 4 8 2 9 1 10 80 11 104 12 81 13
REMARK SMILES IDX 92 16 102 17 82 18 90 19 93 20 95 21 103 22 83 23 84 24
REMARK SMILES IDX 89 25 91 26 94 27 85 28 88 29 86 30 87 31 96 32 97 33 101 34
REMARK SMILES IDX 98 35 100 36 99 37 11 38 12 39 13 40 14 41 15 42 16 43 17 44
REMARK SMILES IDX 18 45 79 46 19 47 78 48 20 49 21 50 22 51 72 52 23 53 77 54
REMARK SMILES IDX 71 55 73 56 24 57 76 58 70 59 69 60 25 62 57 63 37 64 56 65
REMARK SMILES IDX 38 66 41 67 55 68 74 69 39 70 40 71 54 73 75 74 42 75 26 76
REMARK SMILES IDX 27 77 35 78 28 79 29 80 33 81 36 82 30 83 31 84 34 85 32 86
REMARK SMILES IDX 58 87 59 88 67 89 60 90 61 91 65 92 68 93 62 94 63 95 66 96
REMARK SMILES IDX 64 97 43 98 44 99 52 100 45 101 46 102 50 103 53 104 47 105
REMARK SMILES IDX 48 106 51 107 49 108
REMARK H PARENT 80 14 80 15 73 61 41 72
REMARK Flexibility Score: inf
ROOT
ATOM      1  C   UNL A   1      41.207  20.867  27.680  1.00  0.00     0.188 C 
ENDROOT
BRANCH   1   2
ATOM      2  C   UNL A   1      40.714  22.323  27.622  1.00  0.00     0.188 C 
BRANCH   2   3
ATOM      3  O   UNL A   1      39.755  22.645  26.646  1.00  0.00    -0.376 OA
BRANCH   3   4
ATOM      4  C   UNL A   1      38.926  21.631  26.099  1.00  0.00     0.202 C 
BRANCH   4   5
ATOM      5  C   UNL A   1      37.927  21.826  24.941  1.00  0.00     0.261 C 
BRANCH   5   6
ATOM      6  O   UNL A   1      37.544  23.169  24.630  1.00  0.00    -0.459 OA
BRANCH   6   7
ATOM      7  C   UNL A   1      36.282  23.359  24.161  1.00  0.00     0.368 C 
ATOM      8  O   UNL A   1      35.951  23.178  22.996  1.00  0.00    -0.245 OA
BRANCH   7   9
ATOM      9  C   UNL A   1      35.280  23.827  25.264  1.00  0.00     0.205 C 
ATOM     10  C   UNL A   1      36.073  24.050  26.554  1.00  0.00     0.093 C 
ATOM     11  N   UNL A   1      34.472  25.058  24.882  1.00  0.00    -0.313 N 
ATOM     12  C   UNL A   1      34.148  22.863  25.425  1.00  0.00     0.172 C 
ATOM     13  C   UNL A   1      33.182  24.594  24.223  1.00  0.00     0.237 C 
ATOM     14  H   UNL A   1      35.005  25.632  24.229  1.00  0.00     0.348 HD
ATOM     15  H   UNL A   1      34.263  25.615  25.710  1.00  0.00     0.348 HD
ATOM     16  C   UNL A   1      33.385  23.118  24.138  1.00  0.00     0.177 C 
ATOM     17  C   UNL A   1      34.270  21.386  25.427  1.00  0.00     0.244 C 
ATOM     18  C   UNL A   1      31.995  25.111  25.030  1.00  0.00     0.232 C 
ATOM     19  C   UNL A   1      32.997  25.278  22.868  1.00  0.00     0.232 C 
ATOM     20  C   UNL A   1      32.423  21.989  24.171  1.00  0.00     0.245 C 
ATOM     21  N   UNL A   1      33.149  20.940  24.734  1.00  0.00    -0.250 N 
ATOM     22  O   UNL A   1      35.138  20.768  26.012  1.00  0.00    -0.273 OA
ATOM     23  O   UNL A   1      31.733  24.842  26.194  1.00  0.00    -0.286 OA
ATOM     24  C   UNL A   1      31.287  26.109  24.232  1.00  0.00     0.036 A 
ATOM     25  C   UNL A   1      31.877  26.216  22.978  1.00  0.00     0.036 A 
ATOM     26  O   UNL A   1      33.609  25.074  21.831  1.00  0.00    -0.286 OA
ATOM     27  O   UNL A   1      31.311  22.013  23.671  1.00  0.00    -0.273 OA
ATOM     28  C   UNL A   1      30.209  26.895  24.599  1.00  0.00     0.013 A 
ATOM     29  C   UNL A   1      31.400  27.103  22.029  1.00  0.00     0.013 A 
ATOM     30  C   UNL A   1      29.714  27.796  23.652  1.00  0.00     0.001 A 
ATOM     31  C   UNL A   1      30.303  27.899  22.377  1.00  0.00     0.001 A 
BRANCH  21  32
ATOM     32  C   UNL A   1      32.917  19.571  24.511  1.00  0.00     0.052 A 
ATOM     33  C   UNL A   1      32.893  18.676  25.587  1.00  0.00     0.027 A 
ATOM     34  C   UNL A   1      32.880  19.076  23.204  1.00  0.00     0.027 A 
ATOM     35  C   UNL A   1      32.855  17.301  25.364  1.00  0.00     0.002 A 
ATOM     36  C   UNL A   1      32.888  17.696  22.983  1.00  0.00     0.002 A 
ATOM     37  C   UNL A   1      32.874  16.812  24.061  1.00  0.00     0.000 A 
ENDBRANCH  21  32
ENDBRANCH   7   9
ENDBRANCH   6   7
ENDBRANCH   5   6
ENDBRANCH   4   5
ENDBRANCH   3   4
ENDBRANCH   2   3
ENDBRANCH   1   2
BRANCH   1  38
ATOM     38  O   UNL A   1      42.271  20.400  26.883  1.00  0.00    -0.376 OA
BRANCH  38  39
ATOM     39  C   UNL A   1      42.110  19.164  26.208  1.00  0.00     0.202 C 
BRANCH  39  40
ATOM     40  C   UNL A   1      43.313  18.465  25.549  1.00  0.00     0.261 C 
BRANCH  40  41
ATOM     41  O   UNL A   1      43.673  18.926  24.235  1.00  0.00    -0.460 OA
BRANCH  41  42
ATOM     42  C   UNL A   1      44.945  19.380  24.087  1.00  0.00     0.338 C 
ATOM     43  O   UNL A   1      45.865  18.830  23.497  1.00  0.00    -0.246 OA
BRANCH  42  44
ATOM     44  C   UNL A   1      44.999  20.788  24.539  1.00  0.00     0.060 A 
ATOM     45  C   UNL A   1      45.504  21.109  25.796  1.00  0.00     0.016 A 
ATOM     46  C   UNL A   1      44.500  21.799  23.699  1.00  0.00     0.016 A 
ATOM     47  C   UNL A   1      45.519  22.445  26.208  1.00  0.00     0.010 A 
ATOM     48  C   UNL A   1      44.488  23.129  24.124  1.00  0.00     0.010 A 
ATOM     49  C   UNL A   1      45.017  23.465  25.376  1.00  0.00    -0.014 A 
BRANCH  49  50
ATOM     50  C   UNL A   1      45.210  24.885  25.760  1.00  0.00     0.031 A 
ATOM     51  C   UNL A   1      44.102  25.717  26.331  1.00  0.00     0.074 A 
ATOM     52  C   UNL A   1      46.435  25.417  25.598  1.00  0.00     0.049 A 
ATOM     53  N   UNL A   1      44.159  26.931  26.821  1.00  0.00    -0.248 NA
ATOM     54  C   UNL A   1      42.763  25.117  26.355  1.00  0.00     0.031 C 
ATOM     55  C   UNL A   1      47.580  24.714  25.018  1.00  0.00     0.029 A 
ATOM     56  N   UNL A   1      46.928  26.657  25.917  1.00  0.00    -0.354 N 
ATOM     57  C   UNL A   1      42.871  27.233  27.242  1.00  0.00     0.074 A 
ATOM     58  C   UNL A   1      42.043  26.094  26.896  1.00  0.00     0.031 C 
ATOM     59  C   UNL A   1      48.651  25.519  25.058  1.00  0.00     0.029 A 
ATOM     60  C   UNL A   1      48.264  26.801  25.641  1.00  0.00     0.049 A 
ATOM     61  H   UNL A   1      46.377  27.374  26.307  1.00  0.00     0.167 HD
ATOM     62  C   UNL A   1      42.432  28.348  27.876  1.00  0.00     0.037 A 
ATOM     63  C   UNL A   1      49.092  27.843  25.844  1.00  0.00     0.037 A 
ATOM     64  C   UNL A   1      43.259  29.488  28.196  1.00  0.00     0.049 A 
ATOM     65  C   UNL A   1      48.564  29.086  26.503  1.00  0.00     0.074 A 
ATOM     66  C   UNL A   1      42.907  30.646  28.870  1.00  0.00     0.029 A 
ATOM     67  N   UNL A   1      44.597  29.623  27.853  1.00  0.00    -0.354 N 
ATOM     68  N   UNL A   1      47.366  29.328  26.974  1.00  0.00    -0.248 NA
ATOM     69  C   UNL A   1      49.510  30.198  26.667  1.00  0.00     0.031 C 
ATOM     70  C   UNL A   1      44.011  31.504  28.882  1.00  0.00     0.029 A 
ATOM     71  C   UNL A   1      45.072  30.860  28.269  1.00  0.00     0.049 A 
ATOM     72  H   UNL A   1      45.130  28.943  27.383  1.00  0.00     0.167 HD
ATOM     73  C   UNL A   1      47.414  30.612  27.501  1.00  0.00     0.074 A 
ATOM     74  C   UNL A   1      48.771  31.084  27.322  1.00  0.00     0.031 C 
ATOM     75  C   UNL A   1      46.420  31.334  28.074  1.00  0.00     0.037 A 
BRANCH  62  76
ATOM     76  C   UNL A   1      40.988  28.399  28.290  1.00  0.00     0.064 A 
ATOM     77  C   UNL A   1      40.585  28.004  29.575  1.00  0.00     0.173 A 
ATOM     78  C   UNL A   1      40.014  28.937  27.436  1.00  0.00     0.173 A 
ATOM     79  F   UNL A   1      41.477  27.484  30.432  1.00  0.00    -0.203 F 
ATOM     80  C   UNL A   1      39.260  28.132  29.984  1.00  0.00     0.198 A 
ATOM     81  C   UNL A   1      38.694  29.090  27.857  1.00  0.00     0.198 A 
ATOM     82  F   UNL A   1      40.346  29.345  26.202  1.00  0.00    -0.203 F 
ATOM     83  F   UNL A   1      38.896  27.726  31.208  1.00  0.00    -0.200 F 
ATOM     84  C   UNL A   1      38.318  28.684  29.129  1.00  0.00     0.200 A 
ATOM     85  F   UNL A   1      37.791  29.645  27.038  1.00  0.00    -0.200 F 
ATOM     86  F   UNL A   1      37.048  28.829  29.532  1.00  0.00    -0.200 F 
ENDBRANCH  62  76
BRANCH  63  87
ATOM     87  C   UNL A   1      50.519  27.732  25.448  1.00  0.00     0.064 A 
ATOM     88  C   UNL A   1      51.509  27.443  26.397  1.00  0.00     0.173 A 
ATOM     89  C   UNL A   1      50.920  27.896  24.114  1.00  0.00     0.173 A 
ATOM     90  F   UNL A   1      51.177  27.298  27.688  1.00  0.00    -0.203 F 
ATOM     91  C   UNL A   1      52.848  27.332  26.028  1.00  0.00     0.198 A 
ATOM     92  C   UNL A   1      52.253  27.754  23.741  1.00  0.00     0.198 A 
ATOM     93  F   UNL A   1      50.008  28.170  23.168  1.00  0.00    -0.203 F 
ATOM     94  F   UNL A   1      53.779  27.093  26.960  1.00  0.00    -0.200 F 
ATOM     95  C   UNL A   1      53.218  27.479  24.699  1.00  0.00     0.200 A 
ATOM     96  F   UNL A   1      52.604  27.879  22.454  1.00  0.00    -0.200 F 
ATOM     97  F   UNL A   1      54.504  27.360  24.343  1.00  0.00    -0.200 F 
ENDBRANCH  63  87
BRANCH  75  98
ATOM     98  C   UNL A   1      46.761  32.721  28.546  1.00  0.00     0.064 A 
ATOM     99  C   UNL A   1      46.592  33.840  27.715  1.00  0.00     0.173 A 
ATOM    100  C   UNL A   1      47.228  32.942  29.850  1.00  0.00     0.173 A 
ATOM    101  F   UNL A   1      46.162  33.685  26.454  1.00  0.00    -0.203 F 
ATOM    102  C   UNL A   1      46.905  35.121  28.162  1.00  0.00     0.198 A 
ATOM    103  C   UNL A   1      47.508  34.228  30.306  1.00  0.00     0.198 A 
ATOM    104  F   UNL A   1      47.403  31.911  30.691  1.00  0.00    -0.203 F 
ATOM    105  F   UNL A   1      46.788  36.166  27.330  1.00  0.00    -0.200 F 
ATOM    106  C   UNL A   1      47.356  35.316  29.459  1.00  0.00     0.200 A 
ATOM    107  F   UNL A   1      47.928  34.416  31.565  1.00  0.00    -0.200 F 
ATOM    108  F   UNL A   1      47.649  36.550  29.890  1.00  0.00    -0.200 F 
ENDBRANCH  75  98
ENDBRANCH  49  50
ENDBRANCH  42  44
ENDBRANCH  41  42
ENDBRANCH  40  41
ENDBRANCH  39  40
ENDBRANCH  38  39
ENDBRANCH   1  38
TORSDOF 18
ENDMDL
MODEL 2
REMARK VINA RESULT:     -12.4      0.419      6.844
REMARK SMILES C[C@]1(C(=O)OCCOCCOCCOC(=O)c2ccc(-c3c4nc(c(-c5c(F)c(F)c(F)c(F)c5F)c5ccc([nH]5)c(-c5c(F)c(F)c(F)c(F)c5F)c5nc(c(-c6c(F)c(F)c(F)c(F)c6F)c6ccc3[nH]6)C=C5)C=C4)cc2)[NH2+]C2(C(=O)c3ccccc3C2=O)[C@@H]2C(=O)N(c3ccccc3)C(=O)[C@H]21
REMARK SMILES IDX 10 1 9 2 8 3 7 4 6 5 5 6 3 7 4 8 2 9 1 10 80 11 104 12 81 13
REMARK SMILES IDX 92 16 102 17 82 18 90 19 93 20 95 21 103 22 83 23 84 24
REMARK SMILES IDX 89 25 91 26 94 27 85 28 88 29 86 30 87 31 96 32 97 33 101 34
REMARK SMILES IDX 98 35 100 36 99 37 11 38 12 39 13 40 14 41 15 42 16 43 17 44
REMARK SMILES IDX 18 45 79 46 19 47 78 48 20 49 21 50 22 51 72 52 23 53 77 54
REMARK SMILES IDX 71 55 73 56 24 57 76 58 70 59 69 60 25 62 57 63 37 64 56 65
REMARK SMILES IDX 38 66 41 67 55 68 74 69 39 70 40 71 54 73 75 74 42 75 26 76
REMARK SMILES IDX 27 77 35 78 28 79 29 80 33 81 36 82 30 83 31 84 34 85 32 86
REMARK SMILES IDX 58 87 59 88 67 89 60 90 61 91 65 92 68 93 62 94 63 95 66 96
REMARK SMILES IDX 64 97 43 98 44 99 52 100 45 101 46 102 50 103 53 104 47 105
REMARK SMILES IDX 48 106 51 107 49 108
REMARK H PARENT 80 14 80 15 73 61 41 72
REMARK Flexibility Score: inf
ROOT
ATOM      1  C   UNL A   1      41.090  20.597  27.625  1.00  0.00     0.188 C 
ENDROOT
BRANCH   1   2
ATOM      2  C   UNL A   1      40.812  22.094  27.408  1.00  0.00     0.188 C 
BRANCH   2   3
ATOM      3  O   UNL A   1      39.743  22.441  26.565  1.00  0.00    -0.376 OA
BRANCH   3   4
ATOM      4  C   UNL A   1      38.996  21.428  25.906  1.00  0.00     0.202 C 
BRANCH   4   5
ATOM      5  C   UNL A   1      37.861  21.675  24.893  1.00  0.00     0.261 C 
BRANCH   5   6
ATOM      6  O   UNL A   1      37.542  23.037  24.591  1.00  0.00    -0.459 OA
BRANCH   6   7
ATOM      7  C   UNL A   1      36.289  23.290  24.127  1.00  0.00     0.368 C 
ATOM      8  O   UNL A   1      35.950  23.142  22.959  1.00  0.00    -0.245 OA
BRANCH   7   9
ATOM      9  C   UNL A   1      35.310  23.784  25.238  1.00  0.00     0.205 C 
ATOM     10  C   UNL A   1      36.123  24.007  26.515  1.00  0.00     0.093 C 
ATOM     11  N   UNL A   1      34.516  25.024  24.854  1.00  0.00    -0.313 N 
ATOM     12  C   UNL A   1      34.165  22.840  25.423  1.00  0.00     0.172 C 
ATOM     13  C   UNL A   1      33.210  24.574  24.217  1.00  0.00     0.237 C 
ATOM     14  H   UNL A   1      35.049  25.584  24.189  1.00  0.00     0.348 HD
ATOM     15  H   UNL A   1      34.327  25.592  25.680  1.00  0.00     0.348 HD
ATOM     16  C   UNL A   1      33.389  23.094  24.144  1.00  0.00     0.177 C 
ATOM     17  C   UNL A   1      34.263  21.362  25.438  1.00  0.00     0.244 C 
ATOM     18  C   UNL A   1      32.042  25.118  25.034  1.00  0.00     0.232 C 
ATOM     19  C   UNL A   1      33.018  25.248  22.858  1.00  0.00     0.232 C 
ATOM     20  C   UNL A   1      32.410  21.982  24.200  1.00  0.00     0.245 C 
ATOM     21  N   UNL A   1      33.126  20.926  24.764  1.00  0.00    -0.250 N 
ATOM     22  O   UNL A   1      35.130  20.735  26.018  1.00  0.00    -0.273 OA
ATOM     23  O   UNL A   1      31.791  24.864  26.204  1.00  0.00    -0.286 OA
ATOM     24  C   UNL A   1      31.339  26.119  24.235  1.00  0.00     0.036 A 
ATOM     25  C   UNL A   1      31.914  26.205  22.973  1.00  0.00     0.036 A 
ATOM     26  O   UNL A   1      33.613  25.024  21.815  1.00  0.00    -0.286 OA
ATOM     27  O   UNL A   1      31.292  22.018  23.715  1.00  0.00    -0.273 OA
ATOM     28  C   UNL A   1      30.278  26.925  24.609  1.00  0.00     0.013 A 
ATOM     29  C   UNL A   1      31.439  27.090  22.021  1.00  0.00     0.013 A 
ATOM     30  C   UNL A   1      29.785  27.825  23.660  1.00  0.00     0.001 A 
ATOM     31  C   UNL A   1      30.359  27.906  22.376  1.00  0.00     0.001 A 
BRANCH  21  32
ATOM     32  C   UNL A   1      32.871  19.559  24.558  1.00  0.00     0.052 A 
ATOM     33  C   UNL A   1      32.624  18.716  25.648  1.00  0.00     0.027 A 
ATOM     34  C   UNL A   1      33.029  19.006  23.283  1.00  0.00     0.027 A 
ATOM     35  C   UNL A   1      32.558  17.335  25.474  1.00  0.00     0.002 A 
ATOM     36  C   UNL A   1      33.009  17.619  23.120  1.00  0.00     0.002 A 
ATOM     37  C   UNL A   1      32.772  16.787  24.213  1.00  0.00     0.000 A 
ENDBRANCH  21  32
ENDBRANCH   7   9
ENDBRANCH   6   7
ENDBRANCH   5   6
ENDBRANCH   4   5
ENDBRANCH   3   4
ENDBRANCH   2   3
ENDBRANCH   1   2
BRANCH   1  38
ATOM     38  O   UNL A   1      42.275  19.979  27.178  1.00  0.00    -0.376 OA
BRANCH  38  39
ATOM     39  C   UNL A   1      42.170  18.941  26.218  1.00  0.00     0.202 C 
BRANCH  39  40
ATOM     40  C   UNL A   1      43.407  18.466  25.434  1.00  0.00     0.261 C 
BRANCH  40  41
ATOM     41  O   UNL A   1      43.740  19.221  24.256  1.00  0.00    -0.460 OA
BRANCH  41  42
ATOM     42  C   UNL A   1      45.029  19.642  24.160  1.00  0.00     0.338 C 
ATOM     43  O   UNL A   1      45.939  19.108  23.540  1.00  0.00    -0.246 OA
BRANCH  42  44
ATOM     44  C   UNL A   1      45.122  21.010  24.719  1.00  0.00     0.060 A 
ATOM     45  C   UNL A   1      45.396  21.205  26.070  1.00  0.00     0.016 A 
ATOM     46  C   UNL A   1      44.892  22.113  23.878  1.00  0.00     0.016 A 
ATOM     47  C   UNL A   1      45.452  22.507  26.577  1.00  0.00     0.010 A 
ATOM     48  C   UNL A   1      44.918  23.411  24.392  1.00  0.00     0.010 A 
ATOM     49  C   UNL A   1      45.219  23.618  25.744  1.00  0.00    -0.014 A 
BRANCH  49  50
ATOM     50  C   UNL A   1      45.462  24.987  26.264  1.00  0.00     0.031 A 
ATOM     51  C   UNL A   1      46.807  25.642  26.194  1.00  0.00     0.074 A 
ATOM     52  C   UNL A   1      44.418  25.649  26.795  1.00  0.00     0.049 A 
ATOM     53  N   UNL A   1      47.135  26.874  26.500  1.00  0.00    -0.248 NA
ATOM     54  C   UNL A   1      47.928  24.817  25.728  1.00  0.00     0.031 C 
ATOM     55  C   UNL A   1      43.071  25.097  26.949  1.00  0.00     0.029 A 
ATOM     56  N   UNL A   1      44.317  26.925  27.287  1.00  0.00    -0.354 N 
ATOM     57  C   UNL A   1      48.493  26.985  26.234  1.00  0.00     0.074 A 
ATOM     58  C   UNL A   1      48.939  25.676  25.796  1.00  0.00     0.031 C 
ATOM     59  C   UNL A   1      42.269  26.042  27.461  1.00  0.00     0.029 A 
ATOM     60  C   UNL A   1      43.049  27.255  27.696  1.00  0.00     0.049 A 
ATOM     61  H   UNL A   1      45.080  27.545  27.341  1.00  0.00     0.167 HD
ATOM     62  C   UNL A   1      49.283  28.083  26.327  1.00  0.00     0.037 A 
ATOM     63  C   UNL A   1      42.562  28.407  28.194  1.00  0.00     0.037 A 
ATOM     64  C   UNL A   1      48.835  29.378  26.786  1.00  0.00     0.049 A 
ATOM     65  C   UNL A   1      43.475  29.593  28.333  1.00  0.00     0.074 A 
ATOM     66  C   UNL A   1      49.557  30.556  26.878  1.00  0.00     0.029 A 
ATOM     67  N   UNL A   1      47.556  29.662  27.244  1.00  0.00    -0.354 N 
ATOM     68  N   UNL A   1      44.736  29.711  27.999  1.00  0.00    -0.248 NA
ATOM     69  C   UNL A   1      42.890  30.810  28.913  1.00  0.00     0.031 C 
ATOM     70  C   UNL A   1      48.735  31.535  27.446  1.00  0.00     0.029 A 
ATOM     71  C   UNL A   1      47.481  30.987  27.654  1.00  0.00     0.049 A 
ATOM     72  H   UNL A   1      46.812  29.019  27.275  1.00  0.00     0.167 HD
ATOM     73  C   UNL A   1      45.094  31.016  28.314  1.00  0.00     0.074 A 
ATOM     74  C   UNL A   1      43.906  31.659  28.834  1.00  0.00     0.031 C 
ATOM     75  C   UNL A   1      46.301  31.621  28.188  1.00  0.00     0.037 A 
BRANCH  62  76
ATOM     76  C   UNL A   1      50.720  27.953  25.910  1.00  0.00     0.064 A 
ATOM     77  C   UNL A   1      51.731  27.702  26.850  1.00  0.00     0.173 A 
ATOM     78  C   UNL A   1      51.080  27.979  24.554  1.00  0.00     0.173 A 
ATOM     79  F   UNL A   1      51.441  27.664  28.159  1.00  0.00    -0.203 F 
ATOM     80  C   UNL A   1      53.049  27.496  26.450  1.00  0.00     0.198 A 
ATOM     81  C   UNL A   1      52.395  27.746  24.154  1.00  0.00     0.198 A 
ATOM     82  F   UNL A   1      50.151  28.199  23.611  1.00  0.00    -0.203 F 
ATOM     83  F   UNL A   1      54.001  27.282  27.369  1.00  0.00    -0.200 F 
ATOM     84  C   UNL A   1      53.378  27.508  25.103  1.00  0.00     0.200 A 
ATOM     85  F   UNL A   1      52.706  27.735  22.851  1.00  0.00    -0.200 F 
ATOM     86  F   UNL A   1      54.643  27.287  24.719  1.00  0.00    -0.200 F 
ENDBRANCH  62  76
BRANCH  63  87
ATOM     87  C   UNL A   1      41.127  28.497  28.560  1.00  0.00     0.064 A 
ATOM     88  C   UNL A   1      40.175  28.950  27.636  1.00  0.00     0.173 A 
ATOM     89  C   UNL A   1      40.673  28.116  29.831  1.00  0.00     0.173 A 
ATOM     90  F   UNL A   1      40.562  29.345  26.415  1.00  0.00    -0.203 F 
ATOM     91  C   UNL A   1      38.826  29.030  27.975  1.00  0.00     0.198 A 
ATOM     92  C   UNL A   1      39.321  28.166  30.159  1.00  0.00     0.198 A 
ATOM     93  F   UNL A   1      41.546  27.671  30.749  1.00  0.00    -0.203 F 
ATOM     94  F   UNL A   1      37.943  29.504  27.087  1.00  0.00    -0.200 F 
ATOM     95  C   UNL A   1      38.399  28.629  29.232  1.00  0.00     0.200 A 
ATOM     96  F   UNL A   1      38.911  27.762  31.368  1.00  0.00    -0.200 F 
ATOM     97  F   UNL A   1      37.100  28.695  29.553  1.00  0.00    -0.200 F 
ENDBRANCH  63  87
BRANCH  75  98
ATOM     98  C   UNL A   1      46.402  33.054  28.629  1.00  0.00     0.064 A 
ATOM     99  C   UNL A   1      46.818  33.395  29.926  1.00  0.00     0.173 A 
ATOM    100  C   UNL A   1      46.113  34.102  27.741  1.00  0.00     0.173 A 
ATOM    101  F   UNL A   1      47.093  32.434  30.820  1.00  0.00    -0.203 F 
ATOM    102  C   UNL A   1      46.914  34.726  30.324  1.00  0.00     0.198 A 
ATOM    103  C   UNL A   1      46.242  35.432  28.131  1.00  0.00     0.198 A 
ATOM    104  F   UNL A   1      45.716  33.836  26.487  1.00  0.00    -0.203 F 
ATOM    105  F   UNL A   1      47.260  35.024  31.584  1.00  0.00    -0.200 F 
ATOM    106  C   UNL A   1      46.633  35.744  29.425  1.00  0.00     0.200 A 
ATOM    107  F   UNL A   1      45.986  36.415  27.256  1.00  0.00    -0.200 F 
ATOM    108  F   UNL A   1      46.733  37.024  29.807  1.00  0.00    -0.200 F 
ENDBRANCH  75  98
ENDBRANCH  49  50
ENDBRANCH  42  44
ENDBRANCH  41  42
ENDBRANCH  40  41
ENDBRANCH  39  40
ENDBRANCH  38  39
ENDBRANCH   1  38
TORSDOF 18
ENDMDL
MODEL 3
REMARK VINA RESULT:     -11.8      3.466      9.111
REMARK SMILES C[C@]1(C(=O)OCCOCCOCCOC(=O)c2ccc(-c3c4nc(c(-c5c(F)c(F)c(F)c(F)c5F)c5ccc([nH]5)c(-c5c(F)c(F)c(F)c(F)c5F)c5nc(c(-c6c(F)c(F)c(F)c(F)c6F)c6ccc3[nH]6)C=C5)C=C4)cc2)[NH2+]C2(C(=O)c3ccccc3C2=O)[C@@H]2C(=O)N(c3ccccc3)C(=O)[C@H]21
REMARK SMILES IDX 10 1 9 2 8 3 7 4 6 5 5 6 3 7 4 8 2 9 1 10 80 11 104 12 81 13
REMARK SMILES IDX 92 16 102 17 82 18 90 19 93 20 95 21 103 22 83 23 84 24
REMARK SMILES IDX 89 25 91 26 94 27 85 28 88 29 86 30 87 31 96 32 97 33 101 34
REMARK SMILES IDX 98 35 100 36 99 37 11 38 12 39 13 40 14 41 15 42 16 43 17 44
REMARK SMILES IDX 18 45 79 46 19 47 78 48 20 49 21 50 22 51 72 52 23 53 77 54
REMARK SMILES IDX 71 55 73 56 24 57 76 58 70 59 69 60 25 62 57 63 37 64 56 65
REMARK SMILES IDX 38 66 41 67 55 68 74 69 39 70 40 71 54 73 75 74 42 75 26 76
REMARK SMILES IDX 27 77 35 78 28 79 29 80 33 81 36 82 30 83 31 84 34 85 32 86
REMARK SMILES IDX 58 87 59 88 67 89 60 90 61 91 65 92 68 93 62 94 63 95 66 96
REMARK SMILES IDX 64 97 43 98 44 99 52 100 45 101 46 102 50 103 53 104 47 105
REMARK SMILES IDX 48 106 51 107 49 108
REMARK H PARENT 80 14 80 15 73 61 41 72
REMARK Flexibility Score: inf
ROOT
ATOM      1  C   UNL A   1      35.084  34.282  28.797  1.00  0.00     0.188 C 
ENDROOT
BRANCH   1   2
ATOM      2  C   UNL A   1      33.869  33.475  28.306  1.00  0.00     0.188 C 
BRANCH   2   3
ATOM      3  O   UNL A   1      34.095  32.494  27.325  1.00  0.00    -0.376 OA
BRANCH   3   4
ATOM      4  C   UNL A   1      34.555  31.204  27.699  1.00  0.00     0.202 C 
BRANCH   4   5
ATOM      5  C   UNL A   1      33.654  29.986  27.989  1.00  0.00     0.261 C 
BRANCH   5   6
ATOM      6  O   UNL A   1      32.931  29.434  26.885  1.00  0.00    -0.459 OA
BRANCH   6   7
ATOM      7  C   UNL A   1      32.830  28.078  26.829  1.00  0.00     0.368 C 
ATOM      8  O   UNL A   1      32.183  27.408  27.623  1.00  0.00    -0.245 OA
BRANCH   7   9
ATOM      9  C   UNL A   1      33.619  27.451  25.636  1.00  0.00     0.205 C 
ATOM     10  C   UNL A   1      34.934  28.221  25.487  1.00  0.00     0.093 C 
ATOM     11  N   UNL A   1      33.856  25.955  25.772  1.00  0.00    -0.313 N 
ATOM     12  C   UNL A   1      32.801  27.431  24.384  1.00  0.00     0.172 C 
ATOM     13  C   UNL A   1      32.701  25.228  25.098  1.00  0.00     0.237 C 
ATOM     14  H   UNL A   1      33.895  25.699  26.758  1.00  0.00     0.348 HD
ATOM     15  H   UNL A   1      34.739  25.696  25.332  1.00  0.00     0.348 HD
ATOM     16  C   UNL A   1      31.792  26.353  24.732  1.00  0.00     0.177 C 
ATOM     17  C   UNL A   1      31.929  28.531  23.909  1.00  0.00     0.244 C 
ATOM     18  C   UNL A   1      33.250  24.353  23.975  1.00  0.00     0.232 C 
ATOM     19  C   UNL A   1      32.082  24.208  26.053  1.00  0.00     0.232 C 
ATOM     20  C   UNL A   1      30.830  26.517  23.615  1.00  0.00     0.245 C 
ATOM     21  N   UNL A   1      30.812  27.891  23.381  1.00  0.00    -0.250 N 
ATOM     22  O   UNL A   1      32.236  29.708  23.923  1.00  0.00    -0.273 OA
ATOM     23  O   UNL A   1      33.852  24.735  22.982  1.00  0.00    -0.286 OA
ATOM     24  C   UNL A   1      33.071  22.951  24.345  1.00  0.00     0.036 A 
ATOM     25  C   UNL A   1      32.402  22.866  25.561  1.00  0.00     0.036 A 
ATOM     26  O   UNL A   1      31.386  24.420  27.035  1.00  0.00    -0.286 OA
ATOM     27  O   UNL A   1      30.145  25.619  23.154  1.00  0.00    -0.273 OA
ATOM     28  C   UNL A   1      33.497  21.822  23.668  1.00  0.00     0.013 A 
ATOM     29  C   UNL A   1      32.115  21.643  26.143  1.00  0.00     0.013 A 
ATOM     30  C   UNL A   1      33.215  20.579  24.241  1.00  0.00     0.001 A 
ATOM     31  C   UNL A   1      32.528  20.490  25.467  1.00  0.00     0.001 A 
BRANCH  21  32
ATOM     32  C   UNL A   1      29.736  28.616  22.837  1.00  0.00     0.052 A 
ATOM     33  C   UNL A   1      29.976  29.701  21.986  1.00  0.00     0.027 A 
ATOM     34  C   UNL A   1      28.434  28.362  23.278  1.00  0.00     0.027 A 
ATOM     35  C   UNL A   1      28.934  30.539  21.595  1.00  0.00     0.002 A 
ATOM     36  C   UNL A   1      27.399  29.231  22.922  1.00  0.00     0.002 A 
ATOM     37  C   UNL A   1      27.649  30.315  22.082  1.00  0.00     0.000 A 
ENDBRANCH  21  32
ENDBRANCH   7   9
ENDBRANCH   6   7
ENDBRANCH   5   6
ENDBRANCH   4   5
ENDBRANCH   3   4
ENDBRANCH   2   3
ENDBRANCH   1   2
BRANCH   1  38
ATOM     38  O   UNL A   1      35.582  34.169  30.111  1.00  0.00    -0.376 OA
BRANCH  38  39
ATOM     39  C   UNL A   1      34.658  34.219  31.184  1.00  0.00     0.202 C 
BRANCH  39  40
ATOM     40  C   UNL A   1      34.388  32.974  32.049  1.00  0.00     0.261 C 
BRANCH  40  41
ATOM     41  O   UNL A   1      35.333  31.897  31.923  1.00  0.00    -0.460 OA
BRANCH  41  42
ATOM     42  C   UNL A   1      36.385  31.922  32.784  1.00  0.00     0.338 C 
ATOM     43  O   UNL A   1      36.346  32.045  34.000  1.00  0.00    -0.246 OA
BRANCH  42  44
ATOM     44  C   UNL A   1      37.605  31.516  32.049  1.00  0.00     0.060 A 
ATOM     45  C   UNL A   1      38.727  31.061  32.737  1.00  0.00     0.016 A 
ATOM     46  C   UNL A   1      37.634  31.631  30.648  1.00  0.00     0.016 A 
ATOM     47  C   UNL A   1      39.875  30.710  32.021  1.00  0.00     0.010 A 
ATOM     48  C   UNL A   1      38.791  31.308  29.936  1.00  0.00     0.010 A 
ATOM     49  C   UNL A   1      39.915  30.824  30.617  1.00  0.00    -0.014 A 
BRANCH  49  50
ATOM     50  C   UNL A   1      41.074  30.277  29.871  1.00  0.00     0.031 A 
ATOM     51  C   UNL A   1      41.098  28.873  29.346  1.00  0.00     0.074 A 
ATOM     52  C   UNL A   1      42.122  31.093  29.654  1.00  0.00     0.049 A 
ATOM     53  N   UNL A   1      41.991  28.301  28.576  1.00  0.00    -0.248 NA
ATOM     54  C   UNL A   1      39.985  27.998  29.734  1.00  0.00     0.031 C 
ATOM     55  C   UNL A   1      42.225  32.466  30.148  1.00  0.00     0.029 A 
ATOM     56  N   UNL A   1      43.285  30.898  28.953  1.00  0.00    -0.354 N 
ATOM     57  C   UNL A   1      41.535  27.008  28.359  1.00  0.00     0.074 A 
ATOM     58  C   UNL A   1      40.314  26.863  29.126  1.00  0.00     0.031 C 
ATOM     59  C   UNL A   1      43.370  33.004  29.703  1.00  0.00     0.029 A 
ATOM     60  C   UNL A   1      44.092  32.008  28.916  1.00  0.00     0.049 A 
ATOM     61  H   UNL A   1      43.518  30.047  28.519  1.00  0.00     0.167 HD
ATOM     62  C   UNL A   1      42.078  26.045  27.574  1.00  0.00     0.037 A 
ATOM     63  C   UNL A   1      45.276  32.208  28.307  1.00  0.00     0.037 A 
ATOM     64  C   UNL A   1      43.308  26.191  26.830  1.00  0.00     0.049 A 
ATOM     65  C   UNL A   1      45.878  31.103  27.485  1.00  0.00     0.074 A 
ATOM     66  C   UNL A   1      43.914  25.280  25.980  1.00  0.00     0.029 A 
ATOM     67  N   UNL A   1      44.129  27.309  26.859  1.00  0.00    -0.354 N 
ATOM     68  N   UNL A   1      45.397  29.915  27.217  1.00  0.00    -0.248 NA
ATOM     69  C   UNL A   1      47.185  31.375  26.873  1.00  0.00     0.031 C 
ATOM     70  C   UNL A   1      45.126  25.822  25.542  1.00  0.00     0.029 A 
ATOM     71  C   UNL A   1      45.251  27.096  26.070  1.00  0.00     0.049 A 
ATOM     72  H   UNL A   1      43.942  28.133  27.364  1.00  0.00     0.167 HD
ATOM     73  C   UNL A   1      46.334  29.300  26.396  1.00  0.00     0.074 A 
ATOM     74  C   UNL A   1      47.395  30.262  26.183  1.00  0.00     0.031 C 
ATOM     75  C   UNL A   1      46.316  28.049  25.873  1.00  0.00     0.037 A 
BRANCH  62  76
ATOM     76  C   UNL A   1      41.344  24.740  27.454  1.00  0.00     0.064 A 
ATOM     77  C   UNL A   1      40.179  24.628  26.679  1.00  0.00     0.173 A 
ATOM     78  C   UNL A   1      41.858  23.570  28.034  1.00  0.00     0.173 A 
ATOM     79  F   UNL A   1      39.647  25.715  26.100  1.00  0.00    -0.203 F 
ATOM     80  C   UNL A   1      39.549  23.399  26.501  1.00  0.00     0.198 A 
ATOM     81  C   UNL A   1      41.241  22.336  27.832  1.00  0.00     0.198 A 
ATOM     82  F   UNL A   1      42.977  23.616  28.772  1.00  0.00    -0.203 F 
ATOM     83  F   UNL A   1      38.426  23.322  25.776  1.00  0.00    -0.200 F 
ATOM     84  C   UNL A   1      40.086  22.253  27.069  1.00  0.00     0.200 A 
ATOM     85  F   UNL A   1      41.775  21.227  28.362  1.00  0.00    -0.200 F 
ATOM     86  F   UNL A   1      39.493  21.067  26.877  1.00  0.00    -0.200 F 
ENDBRANCH  62  76
BRANCH  63  87
ATOM     87  C   UNL A   1      45.946  33.527  28.427  1.00  0.00     0.064 A 
ATOM     88  C   UNL A   1      45.645  34.571  27.542  1.00  0.00     0.173 A 
ATOM     89  C   UNL A   1      46.887  33.778  29.437  1.00  0.00     0.173 A 
ATOM     90  F   UNL A   1      44.768  34.374  26.547  1.00  0.00    -0.203 F 
ATOM     91  C   UNL A   1      46.268  35.812  27.656  1.00  0.00     0.198 A 
ATOM     92  C   UNL A   1      47.486  35.027  29.569  1.00  0.00     0.198 A 
ATOM     93  F   UNL A   1      47.205  32.811  30.312  1.00  0.00    -0.203 F 
ATOM     94  F   UNL A   1      45.991  36.781  26.773  1.00  0.00    -0.200 F 
ATOM     95  C   UNL A   1      47.181  36.042  28.675  1.00  0.00     0.200 A 
ATOM     96  F   UNL A   1      48.354  35.251  30.566  1.00  0.00    -0.200 F 
ATOM     97  F   UNL A   1      47.770  37.239  28.791  1.00  0.00    -0.200 F 
ENDBRANCH  63  87
BRANCH  75  98
ATOM     98  C   UNL A   1      47.487  27.641  25.023  1.00  0.00     0.064 A 
ATOM     99  C   UNL A   1      47.484  27.829  23.632  1.00  0.00     0.173 A 
ATOM    100  C   UNL A   1      48.639  27.088  25.604  1.00  0.00     0.173 A 
ATOM    101  F   UNL A   1      46.403  28.340  23.023  1.00  0.00    -0.203 F 
ATOM    102  C   UNL A   1      48.575  27.453  22.853  1.00  0.00     0.198 A 
ATOM    103  C   UNL A   1      49.742  26.745  24.827  1.00  0.00     0.198 A 
ATOM    104  F   UNL A   1      48.701  26.892  26.929  1.00  0.00    -0.203 F 
ATOM    105  F   UNL A   1      48.525  27.592  21.521  1.00  0.00    -0.200 F 
ATOM    106  C   UNL A   1      49.707  26.918  23.451  1.00  0.00     0.200 A 
ATOM    107  F   UNL A   1      50.841  26.244  25.408  1.00  0.00    -0.200 F 
ATOM    108  F   UNL A   1      50.759  26.565  22.702  1.00  0.00    -0.200 F 
ENDBRANCH  75  98
ENDBRANCH  49  50
ENDBRANCH  42  44
ENDBRANCH  41  42
ENDBRANCH  40  41
ENDBRANCH  39  40
ENDBRANCH  38  39
ENDBRANCH   1  38
TORSDOF 18
ENDMDL
