MODEL 1
REMARK VINA RESULT:     -11.2      0.000      0.000
REMARK SMILES COc1ccc(/C=C/c2cc(OC)cc(OC)c2/C=C/C(=O)OCCOCCOCCOC(=O)c2ccc(-c3c4nc(c(-c5c(F)c(F)c(F)c(F)c5F)c5ccc([nH]5)c(-c5c(F)c(F)c(F)c(F)c5F)c5nc(c(-c6c(F)c(F)c(F)c(F)c6F)c6ccc3[nH]6)C=C5)C=C4)cc2)cc1
REMARK SMILES IDX 27 1 26 2 25 3 24 4 23 5 21 6 22 7 20 8 19 9 18 10 9 11
REMARK SMILES IDX 10 12 11 13 15 14 14 15 8 16 7 17 6 18 3 19 4 20 99 21 5 22
REMARK SMILES IDX 98 23 2 24 1 25 12 26 13 27 16 28 17 29 28 30 29 31 30 32
REMARK SMILES IDX 31 33 32 34 33 35 34 36 35 37 36 38 97 39 37 40 96 41 38 42
REMARK SMILES IDX 39 43 40 44 90 45 41 46 95 47 89 48 91 49 42 50 94 51 88 52
REMARK SMILES IDX 87 53 43 55 75 56 55 57 74 58 56 59 59 60 73 61 92 62 57 63
REMARK SMILES IDX 58 64 72 66 93 67 60 68 44 69 45 70 53 71 46 72 47 73 51 74
REMARK SMILES IDX 54 75 48 76 49 77 52 78 50 79 76 80 77 81 85 82 78 83 79 84
REMARK SMILES IDX 83 85 86 86 80 87 81 88 84 89 82 90 61 91 62 92 70 93 63 94
REMARK SMILES IDX 64 95 68 96 71 97 65 98 66 99 69 100 67 101
REMARK H PARENT 91 54 59 65
REMARK Flexibility Score: inf
ROOT
ATOM      1  C   UNL A   1      32.374  29.686  25.311  1.00  0.00     0.188 C 
ENDROOT
BRANCH   1   2
ATOM      2  O   UNL A   1      32.557  28.846  24.185  1.00  0.00    -0.376 OA
BRANCH   2   3
ATOM      3  C   UNL A   1      33.744  28.973  23.413  1.00  0.00     0.202 C 
BRANCH   3   4
ATOM      4  C   UNL A   1      34.327  27.777  22.641  1.00  0.00     0.261 C 
BRANCH   4   5
ATOM      5  O   UNL A   1      33.700  27.499  21.380  1.00  0.00    -0.460 OA
BRANCH   5   6
ATOM      6  C   UNL A   1      33.196  26.248  21.238  1.00  0.00     0.330 C 
ATOM      7  O   UNL A   1      33.148  25.604  20.201  1.00  0.00    -0.247 OA
BRANCH   6   8
ATOM      8  C   UNL A   1      32.752  25.657  22.518  1.00  0.00     0.094 C 
ATOM      9  C   UNL A   1      31.644  24.920  22.687  1.00  0.00     0.020 C 
BRANCH   9  10
ATOM     10  C   UNL A   1      31.248  24.322  23.979  1.00  0.00     0.024 A 
ATOM     11  C   UNL A   1      30.432  25.097  24.848  1.00  0.00    -0.011 A 
ATOM     12  C   UNL A   1      29.989  24.560  26.067  1.00  0.00     0.055 A 
ATOM     13  C   UNL A   1      30.353  23.272  26.459  1.00  0.00     0.123 A 
ATOM     14  C   UNL A   1      31.634  23.030  24.399  1.00  0.00     0.130 A 
ATOM     15  C   UNL A   1      31.172  22.517  25.625  1.00  0.00     0.093 A 
BRANCH  11  16
ATOM     16  C   UNL A   1      30.048  26.494  24.559  1.00  0.00     0.009 C 
ATOM     17  C   UNL A   1      29.022  26.807  23.751  1.00  0.00     0.009 C 
BRANCH  17  18
ATOM     18  C   UNL A   1      28.715  28.155  23.255  1.00  0.00    -0.025 A 
ATOM     19  C   UNL A   1      28.253  30.725  22.219  1.00  0.00     0.118 A 
ATOM     20  C   UNL A   1      27.258  30.071  22.942  1.00  0.00     0.047 A 
ATOM     21  C   UNL A   1      29.495  30.121  22.045  1.00  0.00     0.047 A 
ATOM     22  C   UNL A   1      27.481  28.785  23.445  1.00  0.00     0.012 A 
ATOM     23  C   UNL A   1      29.720  28.840  22.554  1.00  0.00     0.012 A 
BRANCH  19  24
ATOM     24  O   UNL A   1      27.949  31.976  21.754  1.00  0.00    -0.497 OA
ATOM     25  C   UNL A   1      28.008  32.073  20.332  1.00  0.00     0.278 C 
ENDBRANCH  19  24
ENDBRANCH  17  18
ENDBRANCH  11  16
BRANCH  13  26
ATOM     26  O   UNL A   1      29.837  22.873  27.661  1.00  0.00    -0.497 OA
ATOM     27  C   UNL A   1      28.559  22.249  27.641  1.00  0.00     0.278 C 
ENDBRANCH  13  26
BRANCH  14  28
ATOM     28  O   UNL A   1      32.379  22.116  23.695  1.00  0.00    -0.496 OA
ATOM     29  C   UNL A   1      33.643  21.743  24.227  1.00  0.00     0.278 C 
ENDBRANCH  14  28
ENDBRANCH   9  10
ENDBRANCH   6   8
ENDBRANCH   5   6
ENDBRANCH   4   5
ENDBRANCH   3   4
ENDBRANCH   2   3
ENDBRANCH   1   2
BRANCH   1  30
ATOM     30  C   UNL A   1      31.036  30.417  25.531  1.00  0.00     0.188 C 
BRANCH  30  31
ATOM     31  O   UNL A   1      31.079  31.793  25.812  1.00  0.00    -0.376 OA
BRANCH  31  32
ATOM     32  C   UNL A   1      31.738  32.276  26.973  1.00  0.00     0.202 C 
BRANCH  32  33
ATOM     33  C   UNL A   1      32.228  33.719  27.213  1.00  0.00     0.261 C 
BRANCH  33  34
ATOM     34  O   UNL A   1      32.957  33.996  28.411  1.00  0.00    -0.460 OA
BRANCH  34  35
ATOM     35  C   UNL A   1      34.179  34.548  28.224  1.00  0.00     0.338 C 
ATOM     36  O   UNL A   1      34.440  35.713  27.944  1.00  0.00    -0.246 OA
BRANCH  35  37
ATOM     37  C   UNL A   1      35.210  33.568  28.587  1.00  0.00     0.060 A 
ATOM     38  C   UNL A   1      34.815  32.289  29.004  1.00  0.00     0.016 A 
ATOM     39  C   UNL A   1      36.554  33.937  28.578  1.00  0.00     0.016 A 
ATOM     40  C   UNL A   1      35.772  31.373  29.436  1.00  0.00     0.010 A 
ATOM     41  C   UNL A   1      37.508  33.029  29.035  1.00  0.00     0.010 A 
ATOM     42  C   UNL A   1      37.118  31.756  29.492  1.00  0.00    -0.014 A 
BRANCH  42  43
ATOM     43  C   UNL A   1      38.108  30.923  30.210  1.00  0.00     0.031 A 
ATOM     44  C   UNL A   1      38.334  31.194  31.670  1.00  0.00     0.074 A 
ATOM     45  C   UNL A   1      38.821  29.980  29.572  1.00  0.00     0.049 A 
ATOM     46  N   UNL A   1      39.256  30.726  32.470  1.00  0.00    -0.248 NA
ATOM     47  C   UNL A   1      37.394  32.129  32.310  1.00  0.00     0.031 C 
ATOM     48  C   UNL A   1      38.651  29.592  28.175  1.00  0.00     0.029 A 
ATOM     49  N   UNL A   1      39.854  29.196  30.020  1.00  0.00    -0.354 N 
ATOM     50  C   UNL A   1      39.020  31.326  33.700  1.00  0.00     0.074 A 
ATOM     51  C   UNL A   1      37.879  32.200  33.540  1.00  0.00     0.031 C 
ATOM     52  C   UNL A   1      39.573  28.661  27.870  1.00  0.00     0.029 A 
ATOM     53  C   UNL A   1      40.422  28.425  29.037  1.00  0.00     0.049 A 
ATOM     54  H   UNL A   1      40.160  29.188  30.957  1.00  0.00     0.167 HD
ATOM     55  C   UNL A   1      39.700  31.161  34.859  1.00  0.00     0.037 A 
ATOM     56  C   UNL A   1      41.526  27.653  29.071  1.00  0.00     0.037 A 
ATOM     57  C   UNL A   1      40.837  30.295  35.010  1.00  0.00     0.049 A 
ATOM     58  C   UNL A   1      42.316  27.548  30.352  1.00  0.00     0.074 A 
ATOM     59  C   UNL A   1      41.593  30.052  36.143  1.00  0.00     0.029 A 
ATOM     60  N   UNL A   1      41.387  29.535  33.989  1.00  0.00    -0.354 N 
ATOM     61  N   UNL A   1      42.087  28.109  31.516  1.00  0.00    -0.248 NA
ATOM     62  C   UNL A   1      43.522  26.709  30.323  1.00  0.00     0.031 C 
ATOM     63  C   UNL A   1      42.630  29.181  35.795  1.00  0.00     0.029 A 
ATOM     64  C   UNL A   1      42.485  28.837  34.460  1.00  0.00     0.049 A 
ATOM     65  H   UNL A   1      41.046  29.496  33.066  1.00  0.00     0.167 HD
ATOM     66  C   UNL A   1      43.092  27.658  32.362  1.00  0.00     0.074 A 
ATOM     67  C   UNL A   1      43.936  26.780  31.580  1.00  0.00     0.031 C 
ATOM     68  C   UNL A   1      43.295  27.943  33.673  1.00  0.00     0.037 A 
BRANCH  55  69
ATOM     69  C   UNL A   1      39.251  31.963  36.045  1.00  0.00     0.064 A 
ATOM     70  C   UNL A   1      39.768  33.238  36.313  1.00  0.00     0.173 A 
ATOM     71  C   UNL A   1      38.269  31.455  36.910  1.00  0.00     0.173 A 
ATOM     72  F   UNL A   1      40.721  33.759  35.525  1.00  0.00    -0.203 F 
ATOM     73  C   UNL A   1      39.336  33.968  37.418  1.00  0.00     0.198 A 
ATOM     74  C   UNL A   1      37.820  32.199  37.997  1.00  0.00     0.198 A 
ATOM     75  F   UNL A   1      37.742  30.241  36.698  1.00  0.00    -0.203 F 
ATOM     76  F   UNL A   1      39.878  35.165  37.682  1.00  0.00    -0.200 F 
ATOM     77  C   UNL A   1      38.358  33.451  38.254  1.00  0.00     0.200 A 
ATOM     78  F   UNL A   1      36.866  31.704  38.798  1.00  0.00    -0.200 F 
ATOM     79  F   UNL A   1      37.938  34.157  39.313  1.00  0.00    -0.200 F 
ENDBRANCH  55  69
BRANCH  56  80
ATOM     80  C   UNL A   1      41.970  26.935  27.847  1.00  0.00     0.064 A 
ATOM     81  C   UNL A   1      41.563  25.617  27.597  1.00  0.00     0.173 A 
ATOM     82  C   UNL A   1      42.830  27.539  26.919  1.00  0.00     0.173 A 
ATOM     83  F   UNL A   1      40.763  24.987  28.471  1.00  0.00    -0.203 F 
ATOM     84  C   UNL A   1      42.013  24.925  26.475  1.00  0.00     0.198 A 
ATOM     85  C   UNL A   1      43.257  26.856  25.782  1.00  0.00     0.198 A 
ATOM     86  F   UNL A   1      43.255  28.796  27.114  1.00  0.00    -0.203 F 
ATOM     87  F   UNL A   1      41.648  23.650  26.286  1.00  0.00    -0.200 F 
ATOM     88  C   UNL A   1      42.856  25.547  25.565  1.00  0.00     0.200 A 
ATOM     89  F   UNL A   1      44.065  27.463  24.901  1.00  0.00    -0.200 F 
ATOM     90  F   UNL A   1      43.289  24.880  24.486  1.00  0.00    -0.200 F 
ENDBRANCH  56  80
BRANCH  68  91
ATOM     91  C   UNL A   1      44.431  27.253  34.371  1.00  0.00     0.064 A 
ATOM     92  C   UNL A   1      45.699  27.840  34.480  1.00  0.00     0.173 A 
ATOM     93  C   UNL A   1      44.217  26.021  35.010  1.00  0.00     0.173 A 
ATOM     94  F   UNL A   1      45.956  29.010  33.876  1.00  0.00    -0.203 F 
ATOM     95  C   UNL A   1      46.717  27.211  35.194  1.00  0.00     0.198 A 
ATOM     96  C   UNL A   1      45.229  25.411  35.746  1.00  0.00     0.198 A 
ATOM     97  F   UNL A   1      43.019  25.424  34.942  1.00  0.00    -0.203 F 
ATOM     98  F   UNL A   1      47.932  27.775  35.260  1.00  0.00    -0.200 F 
ATOM     99  C   UNL A   1      46.478  26.005  35.835  1.00  0.00     0.200 A 
ATOM    100  F   UNL A   1      44.990  24.253  36.378  1.00  0.00    -0.200 F 
ATOM    101  F   UNL A   1      47.454  25.412  36.537  1.00  0.00    -0.200 F 
ENDBRANCH  68  91
ENDBRANCH  42  43
ENDBRANCH  35  37
ENDBRANCH  34  35
ENDBRANCH  33  34
ENDBRANCH  32  33
ENDBRANCH  31  32
ENDBRANCH  30  31
ENDBRANCH   1  30
TORSDOF 23
ENDMDL
MODEL 2
REMARK VINA RESULT:     -10.2      1.250      7.027
REMARK SMILES COc1ccc(/C=C/c2cc(OC)cc(OC)c2/C=C/C(=O)OCCOCCOCCOC(=O)c2ccc(-c3c4nc(c(-c5c(F)c(F)c(F)c(F)c5F)c5ccc([nH]5)c(-c5c(F)c(F)c(F)c(F)c5F)c5nc(c(-c6c(F)c(F)c(F)c(F)c6F)c6ccc3[nH]6)C=C5)C=C4)cc2)cc1
REMARK SMILES IDX 27 1 26 2 25 3 24 4 23 5 21 6 22 7 20 8 19 9 18 10 9 11
REMARK SMILES IDX 10 12 11 13 15 14 14 15 8 16 7 17 6 18 3 19 4 20 99 21 5 22
REMARK SMILES IDX 98 23 2 24 1 25 12 26 13 27 16 28 17 29 28 30 29 31 30 32
REMARK SMILES IDX 31 33 32 34 33 35 34 36 35 37 36 38 97 39 37 40 96 41 38 42
REMARK SMILES IDX 39 43 40 44 90 45 41 46 95 47 89 48 91 49 42 50 94 51 88 52
REMARK SMILES IDX 87 53 43 55 75 56 55 57 74 58 56 59 59 60 73 61 92 62 57 63
REMARK SMILES IDX 58 64 72 66 93 67 60 68 44 69 45 70 53 71 46 72 47 73 51 74
REMARK SMILES IDX 54 75 48 76 49 77 52 78 50 79 76 80 77 81 85 82 78 83 79 84
REMARK SMILES IDX 83 85 86 86 80 87 81 88 84 89 82 90 61 91 62 92 70 93 63 94
REMARK SMILES IDX 64 95 68 96 71 97 65 98 66 99 69 100 67 101
REMARK H PARENT 91 54 59 65
REMARK Flexibility Score: inf
ROOT
ATOM      1  C   UNL A   1      32.832  28.954  25.912  1.00  0.00     0.188 C 
ENDROOT
BRANCH   1   2
ATOM      2  O   UNL A   1      33.731  29.259  24.860  1.00  0.00    -0.376 OA
BRANCH   2   3
ATOM      3  C   UNL A   1      33.413  28.845  23.538  1.00  0.00     0.202 C 
BRANCH   3   4
ATOM      4  C   UNL A   1      34.411  28.032  22.694  1.00  0.00     0.261 C 
BRANCH   4   5
ATOM      5  O   UNL A   1      33.946  27.659  21.388  1.00  0.00    -0.460 OA
BRANCH   5   6
ATOM      6  C   UNL A   1      33.385  26.428  21.296  1.00  0.00     0.330 C 
ATOM      7  O   UNL A   1      33.333  25.733  20.292  1.00  0.00    -0.247 OA
BRANCH   6   8
ATOM      8  C   UNL A   1      32.878  25.926  22.590  1.00  0.00     0.094 C 
ATOM      9  C   UNL A   1      32.111  24.839  22.753  1.00  0.00     0.020 C 
BRANCH   9  10
ATOM     10  C   UNL A   1      31.647  24.353  24.069  1.00  0.00     0.024 A 
ATOM     11  C   UNL A   1      30.416  24.861  24.568  1.00  0.00    -0.011 A 
ATOM     12  C   UNL A   1      29.906  24.399  25.792  1.00  0.00     0.055 A 
ATOM     13  C   UNL A   1      30.598  23.454  26.548  1.00  0.00     0.123 A 
ATOM     14  C   UNL A   1      32.353  23.418  24.857  1.00  0.00     0.130 A 
ATOM     15  C   UNL A   1      31.815  22.971  26.078  1.00  0.00     0.093 A 
BRANCH  11  16
ATOM     16  C   UNL A   1      29.640  25.913  23.879  1.00  0.00     0.009 C 
ATOM     17  C   UNL A   1      30.154  27.122  23.603  1.00  0.00     0.009 C 
BRANCH  17  18
ATOM     18  C   UNL A   1      29.388  28.277  23.116  1.00  0.00    -0.025 A 
ATOM     19  C   UNL A   1      28.041  30.523  22.099  1.00  0.00     0.118 A 
ATOM     20  C   UNL A   1      27.341  29.543  22.799  1.00  0.00     0.047 A 
ATOM     21  C   UNL A   1      29.420  30.410  21.939  1.00  0.00     0.047 A 
ATOM     22  C   UNL A   1      28.007  28.416  23.293  1.00  0.00     0.012 A 
ATOM     23  C   UNL A   1      30.086  29.288  22.438  1.00  0.00     0.012 A 
BRANCH  19  24
ATOM     24  O   UNL A   1      27.312  31.588  21.643  1.00  0.00    -0.497 OA
ATOM     25  C   UNL A   1      27.881  32.200  20.486  1.00  0.00     0.278 C 
ENDBRANCH  19  24
ENDBRANCH  17  18
ENDBRANCH  11  16
BRANCH  13  26
ATOM     26  O   UNL A   1      29.976  23.084  27.709  1.00  0.00    -0.497 OA
ATOM     27  C   UNL A   1      28.717  22.432  27.589  1.00  0.00     0.278 C 
ENDBRANCH  13  26
BRANCH  14  28
ATOM     28  O   UNL A   1      33.528  22.783  24.538  1.00  0.00    -0.496 OA
ATOM     29  C   UNL A   1      34.646  22.995  25.389  1.00  0.00     0.278 C 
ENDBRANCH  14  28
ENDBRANCH   9  10
ENDBRANCH   6   8
ENDBRANCH   5   6
ENDBRANCH   4   5
ENDBRANCH   3   4
ENDBRANCH   2   3
ENDBRANCH   1   2
BRANCH   1  30
ATOM     30  C   UNL A   1      31.553  29.788  26.113  1.00  0.00     0.188 C 
BRANCH  30  31
ATOM     31  O   UNL A   1      31.676  31.188  26.109  1.00  0.00    -0.376 OA
BRANCH  31  32
ATOM     32  C   UNL A   1      32.286  31.865  27.197  1.00  0.00     0.202 C 
BRANCH  32  33
ATOM     33  C   UNL A   1      32.737  33.341  27.219  1.00  0.00     0.261 C 
BRANCH  33  34
ATOM     34  O   UNL A   1      32.286  34.170  28.292  1.00  0.00    -0.460 OA
BRANCH  34  35
ATOM     35  C   UNL A   1      33.219  35.009  28.800  1.00  0.00     0.338 C 
ATOM     36  O   UNL A   1      33.106  36.209  29.025  1.00  0.00    -0.246 OA
BRANCH  35  37
ATOM     37  C   UNL A   1      34.384  34.226  29.231  1.00  0.00     0.060 A 
ATOM     38  C   UNL A   1      34.215  33.238  30.211  1.00  0.00     0.016 A 
ATOM     39  C   UNL A   1      35.647  34.517  28.716  1.00  0.00     0.016 A 
ATOM     40  C   UNL A   1      35.321  32.543  30.696  1.00  0.00     0.010 A 
ATOM     41  C   UNL A   1      36.755  33.841  29.222  1.00  0.00     0.010 A 
ATOM     42  C   UNL A   1      36.600  32.874  30.232  1.00  0.00    -0.014 A 
BRANCH  42  43
ATOM     43  C   UNL A   1      37.805  32.369  30.928  1.00  0.00     0.031 A 
ATOM     44  C   UNL A   1      38.583  31.260  30.280  1.00  0.00     0.074 A 
ATOM     45  C   UNL A   1      38.174  32.852  32.126  1.00  0.00     0.049 A 
ATOM     46  N   UNL A   1      39.561  30.537  30.761  1.00  0.00    -0.248 NA
ATOM     47  C   UNL A   1      38.197  30.915  28.902  1.00  0.00     0.031 C 
ATOM     48  C   UNL A   1      37.530  33.960  32.826  1.00  0.00     0.029 A 
ATOM     49  N   UNL A   1      39.169  32.444  32.978  1.00  0.00    -0.354 N 
ATOM     50  C   UNL A   1      39.891  29.640  29.754  1.00  0.00     0.074 A 
ATOM     51  C   UNL A   1      39.004  29.898  28.642  1.00  0.00     0.031 C 
ATOM     52  C   UNL A   1      38.130  34.125  34.018  1.00  0.00     0.029 A 
ATOM     53  C   UNL A   1      39.166  33.106  34.180  1.00  0.00     0.049 A 
ATOM     54  H   UNL A   1      39.823  31.743  32.749  1.00  0.00     0.167 HD
ATOM     55  C   UNL A   1      40.848  28.684  29.762  1.00  0.00     0.037 A 
ATOM     56  C   UNL A   1      39.890  32.882  35.294  1.00  0.00     0.037 A 
ATOM     57  C   UNL A   1      41.723  28.428  30.874  1.00  0.00     0.049 A 
ATOM     58  C   UNL A   1      40.896  31.758  35.308  1.00  0.00     0.074 A 
ATOM     59  C   UNL A   1      42.731  27.487  30.981  1.00  0.00     0.029 A 
ATOM     60  N   UNL A   1      41.686  29.117  32.077  1.00  0.00    -0.354 N 
ATOM     61  N   UNL A   1      41.213  30.916  34.353  1.00  0.00    -0.248 NA
ATOM     62  C   UNL A   1      41.641  31.547  36.558  1.00  0.00     0.031 C 
ATOM     63  C   UNL A   1      43.272  27.574  32.267  1.00  0.00     0.029 A 
ATOM     64  C   UNL A   1      42.640  28.607  32.941  1.00  0.00     0.049 A 
ATOM     65  H   UNL A   1      41.072  29.858  32.286  1.00  0.00     0.167 HD
ATOM     66  C   UNL A   1      42.217  30.108  34.872  1.00  0.00     0.074 A 
ATOM     67  C   UNL A   1      42.457  30.557  36.227  1.00  0.00     0.031 C 
ATOM     68  C   UNL A   1      42.885  29.088  34.276  1.00  0.00     0.037 A 
BRANCH  55  69
ATOM     69  C   UNL A   1      40.974  27.820  28.542  1.00  0.00     0.064 A 
ATOM     70  C   UNL A   1      40.261  26.620  28.409  1.00  0.00     0.173 A 
ATOM     71  C   UNL A   1      41.803  28.213  27.480  1.00  0.00     0.173 A 
ATOM     72  F   UNL A   1      39.469  26.193  29.405  1.00  0.00    -0.203 F 
ATOM     73  C   UNL A   1      40.389  25.834  27.267  1.00  0.00     0.198 A 
ATOM     74  C   UNL A   1      41.907  27.439  26.328  1.00  0.00     0.198 A 
ATOM     75  F   UNL A   1      42.508  29.352  27.556  1.00  0.00    -0.203 F 
ATOM     76  F   UNL A   1      39.734  24.668  27.182  1.00  0.00    -0.200 F 
ATOM     77  C   UNL A   1      41.206  26.247  26.225  1.00  0.00     0.200 A 
ATOM     78  F   UNL A   1      42.688  27.845  25.317  1.00  0.00    -0.200 F 
ATOM     79  F   UNL A   1      41.324  25.492  25.124  1.00  0.00    -0.200 F 
ENDBRANCH  55  69
BRANCH  56  80
ATOM     80  C   UNL A   1      39.677  33.721  36.502  1.00  0.00     0.064 A 
ATOM     81  C   UNL A   1      38.827  33.299  37.533  1.00  0.00     0.173 A 
ATOM     82  C   UNL A   1      40.297  34.973  36.639  1.00  0.00     0.173 A 
ATOM     83  F   UNL A   1      38.189  32.123  37.433  1.00  0.00    -0.203 F 
ATOM     84  C   UNL A   1      38.589  34.103  38.646  1.00  0.00     0.198 A 
ATOM     85  C   UNL A   1      40.081  35.763  37.766  1.00  0.00     0.198 A 
ATOM     86  F   UNL A   1      41.115  35.427  35.679  1.00  0.00    -0.203 F 
ATOM     87  F   UNL A   1      37.733  33.696  39.592  1.00  0.00    -0.200 F 
ATOM     88  C   UNL A   1      39.221  35.332  38.765  1.00  0.00     0.200 A 
ATOM     89  F   UNL A   1      40.700  36.947  37.881  1.00  0.00    -0.200 F 
ATOM     90  F   UNL A   1      38.991  36.105  39.835  1.00  0.00    -0.200 F 
ENDBRANCH  56  80
BRANCH  68  91
ATOM     91  C   UNL A   1      43.985  28.425  35.052  1.00  0.00     0.064 A 
ATOM     92  C   UNL A   1      45.286  28.947  35.086  1.00  0.00     0.173 A 
ATOM     93  C   UNL A   1      43.708  27.294  35.838  1.00  0.00     0.173 A 
ATOM     94  F   UNL A   1      45.604  30.017  34.343  1.00  0.00    -0.203 F 
ATOM     95  C   UNL A   1      46.273  28.353  35.871  1.00  0.00     0.198 A 
ATOM     96  C   UNL A   1      44.689  26.722  36.641  1.00  0.00     0.198 A 
ATOM     97  F   UNL A   1      42.476  26.763  35.844  1.00  0.00    -0.203 F 
ATOM     98  F   UNL A   1      47.518  28.849  35.866  1.00  0.00    -0.200 F 
ATOM     99  C   UNL A   1      45.971  27.250  36.655  1.00  0.00     0.200 A 
ATOM    100  F   UNL A   1      44.390  25.665  37.411  1.00  0.00    -0.200 F 
ATOM    101  F   UNL A   1      46.917  26.692  37.424  1.00  0.00    -0.200 F 
ENDBRANCH  68  91
ENDBRANCH  42  43
ENDBRANCH  35  37
ENDBRANCH  34  35
ENDBRANCH  33  34
ENDBRANCH  32  33
ENDBRANCH  31  32
ENDBRANCH  30  31
ENDBRANCH   1  30
TORSDOF 23
ENDMDL
MODEL 3
REMARK VINA RESULT:     -10.0      3.706      9.021
REMARK SMILES COc1ccc(/C=C/c2cc(OC)cc(OC)c2/C=C/C(=O)OCCOCCOCCOC(=O)c2ccc(-c3c4nc(c(-c5c(F)c(F)c(F)c(F)c5F)c5ccc([nH]5)c(-c5c(F)c(F)c(F)c(F)c5F)c5nc(c(-c6c(F)c(F)c(F)c(F)c6F)c6ccc3[nH]6)C=C5)C=C4)cc2)cc1
REMARK SMILES IDX 27 1 26 2 25 3 24 4 23 5 21 6 22 7 20 8 19 9 18 10 9 11
REMARK SMILES IDX 10 12 11 13 15 14 14 15 8 16 7 17 6 18 3 19 4 20 99 21 5 22
REMARK SMILES IDX 98 23 2 24 1 25 12 26 13 27 16 28 17 29 28 30 29 31 30 32
REMARK SMILES IDX 31 33 32 34 33 35 34 36 35 37 36 38 97 39 37 40 96 41 38 42
REMARK SMILES IDX 39 43 40 44 90 45 41 46 95 47 89 48 91 49 42 50 94 51 88 52
REMARK SMILES IDX 87 53 43 55 75 56 55 57 74 58 56 59 59 60 73 61 92 62 57 63
REMARK SMILES IDX 58 64 72 66 93 67 60 68 44 69 45 70 53 71 46 72 47 73 51 74
REMARK SMILES IDX 54 75 48 76 49 77 52 78 50 79 76 80 77 81 85 82 78 83 79 84
REMARK SMILES IDX 83 85 86 86 80 87 81 88 84 89 82 90 61 91 62 92 70 93 63 94
REMARK SMILES IDX 64 95 68 96 71 97 65 98 66 99 69 100 67 101
REMARK H PARENT 91 54 59 65
REMARK Flexibility Score: inf
ROOT
ATOM      1  C   UNL A   1      42.425  20.539  26.408  1.00  0.00     0.188 C 
ENDROOT
BRANCH   1   2
ATOM      2  O   UNL A   1      42.239  21.128  27.683  1.00  0.00    -0.376 OA
BRANCH   2   3
ATOM      3  C   UNL A   1      41.279  22.166  27.831  1.00  0.00     0.202 C 
BRANCH   3   4
ATOM      4  C   UNL A   1      40.293  22.509  26.701  1.00  0.00     0.261 C 
BRANCH   4   5
ATOM      5  O   UNL A   1      40.090  23.912  26.472  1.00  0.00    -0.460 OA
BRANCH   5   6
ATOM      6  C   UNL A   1      38.840  24.372  26.728  1.00  0.00     0.330 C 
ATOM      7  O   UNL A   1      38.546  25.508  27.069  1.00  0.00    -0.247 OA
BRANCH   6   8
ATOM      8  C   UNL A   1      37.791  23.362  26.479  1.00  0.00     0.094 C 
ATOM      9  C   UNL A   1      36.818  23.466  25.562  1.00  0.00     0.020 C 
BRANCH   9  10
ATOM     10  C   UNL A   1      35.802  22.419  25.323  1.00  0.00     0.024 A 
ATOM     11  C   UNL A   1      34.433  22.798  25.376  1.00  0.00    -0.011 A 
ATOM     12  C   UNL A   1      33.428  21.854  25.112  1.00  0.00     0.055 A 
ATOM     13  C   UNL A   1      33.747  20.531  24.812  1.00  0.00     0.123 A 
ATOM     14  C   UNL A   1      36.112  21.070  25.046  1.00  0.00     0.130 A 
ATOM     15  C   UNL A   1      35.084  20.146  24.782  1.00  0.00     0.093 A 
BRANCH  11  16
ATOM     16  C   UNL A   1      33.987  24.156  25.751  1.00  0.00     0.009 C 
ATOM     17  C   UNL A   1      32.944  24.761  25.159  1.00  0.00     0.009 C 
BRANCH  17  18
ATOM     18  C   UNL A   1      32.577  26.173  25.329  1.00  0.00    -0.025 A 
ATOM     19  C   UNL A   1      31.887  28.892  25.504  1.00  0.00     0.118 A 
ATOM     20  C   UNL A   1      31.689  28.046  26.593  1.00  0.00     0.047 A 
ATOM     21  C   UNL A   1      32.468  28.397  24.339  1.00  0.00     0.047 A 
ATOM     22  C   UNL A   1      32.018  26.689  26.503  1.00  0.00     0.012 A 
ATOM     23  C   UNL A   1      32.802  27.043  24.251  1.00  0.00     0.012 A 
BRANCH  19  24
ATOM     24  O   UNL A   1      31.531  30.202  25.674  1.00  0.00    -0.497 OA
ATOM     25  C   UNL A   1      30.637  30.672  24.666  1.00  0.00     0.278 C 
ENDBRANCH  19  24
ENDBRANCH  17  18
ENDBRANCH  11  16
BRANCH  13  26
ATOM     26  O   UNL A   1      32.670  19.726  24.561  1.00  0.00    -0.497 OA
ATOM     27  C   UNL A   1      32.924  18.333  24.412  1.00  0.00     0.278 C 
ENDBRANCH  13  26
BRANCH  14  28
ATOM     28  O   UNL A   1      37.362  20.516  24.912  1.00  0.00    -0.496 OA
ATOM     29  C   UNL A   1      37.470  19.102  24.994  1.00  0.00     0.278 C 
ENDBRANCH  14  28
ENDBRANCH   9  10
ENDBRANCH   6   8
ENDBRANCH   5   6
ENDBRANCH   4   5
ENDBRANCH   3   4
ENDBRANCH   2   3
ENDBRANCH   1   2
BRANCH   1  30
ATOM     30  C   UNL A   1      43.354  21.199  25.371  1.00  0.00     0.188 C 
BRANCH  30  31
ATOM     31  O   UNL A   1      44.740  21.072  25.559  1.00  0.00    -0.376 OA
BRANCH  31  32
ATOM     32  C   UNL A   1      45.646  21.921  24.869  1.00  0.00     0.202 C 
BRANCH  32  33
ATOM     33  C   UNL A   1      45.327  23.308  24.274  1.00  0.00     0.261 C 
BRANCH  33  34
ATOM     34  O   UNL A   1      44.445  24.168  25.000  1.00  0.00    -0.460 OA
BRANCH  34  35
ATOM     35  C   UNL A   1      44.928  25.409  25.246  1.00  0.00     0.338 C 
ATOM     36  O   UNL A   1      45.827  25.995  24.653  1.00  0.00    -0.246 OA
BRANCH  35  37
ATOM     37  C   UNL A   1      44.080  26.063  26.250  1.00  0.00     0.060 A 
ATOM     38  C   UNL A   1      44.249  27.433  26.494  1.00  0.00     0.016 A 
ATOM     39  C   UNL A   1      43.171  25.309  26.991  1.00  0.00     0.016 A 
ATOM     40  C   UNL A   1      43.515  28.056  27.502  1.00  0.00     0.010 A 
ATOM     41  C   UNL A   1      42.458  25.927  28.017  1.00  0.00     0.010 A 
ATOM     42  C   UNL A   1      42.648  27.293  28.294  1.00  0.00    -0.014 A 
BRANCH  42  43
ATOM     43  C   UNL A   1      42.083  27.853  29.543  1.00  0.00     0.031 A 
ATOM     44  C   UNL A   1      40.789  28.610  29.456  1.00  0.00     0.074 A 
ATOM     45  C   UNL A   1      42.725  27.731  30.716  1.00  0.00     0.049 A 
ATOM     46  N   UNL A   1      40.185  29.334  30.361  1.00  0.00    -0.248 NA
ATOM     47  C   UNL A   1      40.086  28.548  28.164  1.00  0.00     0.031 C 
ATOM     48  C   UNL A   1      43.956  26.975  30.933  1.00  0.00     0.029 A 
ATOM     49  N   UNL A   1      42.437  28.272  31.944  1.00  0.00    -0.354 N 
ATOM     50  C   UNL A   1      39.045  29.830  29.744  1.00  0.00     0.074 A 
ATOM     51  C   UNL A   1      39.045  29.337  28.384  1.00  0.00     0.031 C 
ATOM     52  C   UNL A   1      44.335  27.126  32.214  1.00  0.00     0.029 A 
ATOM     53  C   UNL A   1      43.399  28.023  32.891  1.00  0.00     0.049 A 
ATOM     54  H   UNL A   1      41.619  28.789  32.128  1.00  0.00     0.167 HD
ATOM     55  C   UNL A   1      38.086  30.628  30.267  1.00  0.00     0.037 A 
ATOM     56  C   UNL A   1      43.526  28.502  34.143  1.00  0.00     0.037 A 
ATOM     57  C   UNL A   1      38.094  31.119  31.618  1.00  0.00     0.049 A 
ATOM     58  C   UNL A   1      42.487  29.456  34.679  1.00  0.00     0.074 A 
ATOM     59  C   UNL A   1      37.167  31.929  32.248  1.00  0.00     0.029 A 
ATOM     60  N   UNL A   1      39.090  30.850  32.545  1.00  0.00    -0.354 N 
ATOM     61  N   UNL A   1      41.405  29.916  34.096  1.00  0.00    -0.248 NA
ATOM     62  C   UNL A   1      42.689  29.963  36.044  1.00  0.00     0.031 C 
ATOM     63  C   UNL A   1      37.625  32.189  33.543  1.00  0.00     0.029 A 
ATOM     64  C   UNL A   1      38.809  31.495  33.737  1.00  0.00     0.049 A 
ATOM     65  H   UNL A   1      39.878  30.284  32.380  1.00  0.00     0.167 HD
ATOM     66  C   UNL A   1      40.781  30.729  35.035  1.00  0.00     0.074 A 
ATOM     67  C   UNL A   1      41.605  30.703  36.225  1.00  0.00     0.031 C 
ATOM     68  C   UNL A   1      39.626  31.431  34.922  1.00  0.00     0.037 A 
BRANCH  55  69
ATOM     69  C   UNL A   1      36.965  31.048  29.362  1.00  0.00     0.064 A 
ATOM     70  C   UNL A   1      35.912  30.180  29.039  1.00  0.00     0.173 A 
ATOM     71  C   UNL A   1      36.934  32.347  28.832  1.00  0.00     0.173 A 
ATOM     72  F   UNL A   1      35.906  28.923  29.507  1.00  0.00    -0.203 F 
ATOM     73  C   UNL A   1      34.879  30.590  28.200  1.00  0.00     0.198 A 
ATOM     74  C   UNL A   1      35.885  32.762  28.017  1.00  0.00     0.198 A 
ATOM     75  F   UNL A   1      37.917  33.216  29.110  1.00  0.00    -0.203 F 
ATOM     76  F   UNL A   1      33.907  29.730  27.867  1.00  0.00    -0.200 F 
ATOM     77  C   UNL A   1      34.863  31.882  27.696  1.00  0.00     0.200 A 
ATOM     78  F   UNL A   1      35.865  34.014  27.539  1.00  0.00    -0.200 F 
ATOM     79  F   UNL A   1      33.865  32.277  26.893  1.00  0.00    -0.200 F 
ENDBRANCH  55  69
BRANCH  56  80
ATOM     80  C   UNL A   1      44.694  28.111  34.976  1.00  0.00     0.064 A 
ATOM     81  C   UNL A   1      45.866  28.880  34.979  1.00  0.00     0.173 A 
ATOM     82  C   UNL A   1      44.673  26.950  35.763  1.00  0.00     0.173 A 
ATOM     83  F   UNL A   1      45.944  29.983  34.221  1.00  0.00    -0.203 F 
ATOM     84  C   UNL A   1      46.979  28.492  35.723  1.00  0.00     0.198 A 
ATOM     85  C   UNL A   1      45.777  26.579  36.528  1.00  0.00     0.198 A 
ATOM     86  F   UNL A   1      43.579  26.176  35.790  1.00  0.00    -0.203 F 
ATOM     87  F   UNL A   1      48.103  29.218  35.669  1.00  0.00    -0.200 F 
ATOM     88  C   UNL A   1      46.932  27.345  36.501  1.00  0.00     0.200 A 
ATOM     89  F   UNL A   1      45.724  25.474  37.285  1.00  0.00    -0.200 F 
ATOM     90  F   UNL A   1      48.003  26.973  37.215  1.00  0.00    -0.200 F 
ENDBRANCH  56  80
BRANCH  68  91
ATOM     91  C   UNL A   1      39.140  32.177  36.130  1.00  0.00     0.064 A 
ATOM     92  C   UNL A   1      38.247  31.603  37.046  1.00  0.00     0.173 A 
ATOM     93  C   UNL A   1      39.642  33.458  36.414  1.00  0.00     0.173 A 
ATOM     94  F   UNL A   1      37.730  30.387  36.813  1.00  0.00    -0.203 F 
ATOM     95  C   UNL A   1      37.866  32.289  38.197  1.00  0.00     0.198 A 
ATOM     96  C   UNL A   1      39.280  34.127  37.579  1.00  0.00     0.198 A 
ATOM     97  F   UNL A   1      40.505  34.046  35.572  1.00  0.00    -0.203 F 
ATOM     98  F   UNL A   1      36.988  31.734  39.045  1.00  0.00    -0.200 F 
ATOM     99  C   UNL A   1      38.391  33.544  38.468  1.00  0.00     0.200 A 
ATOM    100  F   UNL A   1      39.802  35.333  37.846  1.00  0.00    -0.200 F 
ATOM    101  F   UNL A   1      38.038  34.194  39.586  1.00  0.00    -0.200 F 
ENDBRANCH  68  91
ENDBRANCH  42  43
ENDBRANCH  35  37
ENDBRANCH  34  35
ENDBRANCH  33  34
ENDBRANCH  32  33
ENDBRANCH  31  32
ENDBRANCH  30  31
ENDBRANCH   1  30
TORSDOF 23
ENDMDL
