MODEL 1
REMARK VINA RESULT:     -11.5      0.000      0.000
REMARK SMILES Cc1cc(C)c2c(=O)n(CCCC(=O)OCCOCCOCCOC(=O)c3ccc(-c4c5nc(c(-c6c(F)c(F)c(F)c(F)c6F)c6ccc([nH]6)c(-c6c(F)c(F)c(F)c(F)c6F)c6nc(c(-c7c(F)c(F)c(F)c(F)c7F)c7ccc4[nH]7)C=C6)C=C5)cc3)sc2n1
REMARK SMILES IDX 19 1 18 2 17 3 16 4 15 5 13 6 14 7 12 8 11 9 10 10 9 11 1 12
REMARK SMILES IDX 2 13 3 14 92 15 4 16 91 17 5 18 6 19 90 20 7 21 8 22 20 23
REMARK SMILES IDX 21 24 22 25 23 26 24 27 25 28 26 29 27 30 28 31 89 32 29 33
REMARK SMILES IDX 88 34 30 35 31 36 32 37 82 38 33 39 87 40 81 41 83 42 34 43
REMARK SMILES IDX 86 44 80 45 79 46 35 48 67 49 47 50 66 51 48 52 51 53 65 54
REMARK SMILES IDX 84 55 49 56 50 57 64 59 85 60 52 61 36 62 37 63 45 64 38 65
REMARK SMILES IDX 39 66 43 67 46 68 40 69 41 70 44 71 42 72 68 73 69 74 77 75
REMARK SMILES IDX 70 76 71 77 75 78 78 79 72 80 73 81 76 82 74 83 53 84 54 85
REMARK SMILES IDX 62 86 55 87 56 88 60 89 63 90 57 91 58 92 61 93 59 94
REMARK H PARENT 83 47 51 58
REMARK Flexibility Score: inf
ROOT
ATOM      1  C   UNL A   1      45.840  19.165  24.777  1.00  0.00     0.188 C 
ENDROOT
BRANCH   1   2
ATOM      2  O   UNL A   1      44.678  18.395  24.973  1.00  0.00    -0.376 OA
BRANCH   2   3
ATOM      3  C   UNL A   1      43.465  19.077  25.248  1.00  0.00     0.202 C 
BRANCH   3   4
ATOM      4  C   UNL A   1      42.651  18.776  26.520  1.00  0.00     0.261 C 
BRANCH   4   5
ATOM      5  O   UNL A   1      41.839  19.870  26.990  1.00  0.00    -0.463 OA
BRANCH   5   6
ATOM      6  C   UNL A   1      40.630  20.038  26.401  1.00  0.00     0.305 C 
ATOM      7  O   UNL A   1      40.081  19.189  25.706  1.00  0.00    -0.252 OA
BRANCH   6   8
ATOM      8  C   UNL A   1      39.921  21.336  26.759  1.00  0.00     0.124 C 
BRANCH   8   9
ATOM      9  C   UNL A   1      39.151  22.205  25.753  1.00  0.00     0.035 C 
BRANCH   9  10
ATOM     10  C   UNL A   1      37.825  22.859  26.149  1.00  0.00     0.139 C 
BRANCH  10  11
ATOM     11  N   UNL A   1      36.673  22.241  25.536  1.00  0.00    -0.262 N 
ATOM     12  C   UNL A   1      32.442  18.009  24.649  1.00  0.00     0.067 C 
ATOM     13  C   UNL A   1      33.113  19.338  24.800  1.00  0.00     0.039 A 
ATOM     14  C   UNL A   1      32.371  20.514  24.995  1.00  0.00     0.027 A 
ATOM     15  N   UNL A   1      34.458  19.329  24.707  1.00  0.00    -0.241 NA
ATOM     16  C   UNL A   1      33.032  21.736  25.202  1.00  0.00    -0.033 A 
ATOM     17  C   UNL A   1      35.056  20.508  24.915  1.00  0.00     0.146 A 
ATOM     18  C   UNL A   1      32.282  23.020  25.361  1.00  0.00     0.045 C 
ATOM     19  C   UNL A   1      34.416  21.692  25.230  1.00  0.00     0.081 A 
ATOM     20  S   UNL A   1      36.797  20.708  24.797  1.00  0.00    -0.035 S 
ATOM     21  C   UNL A   1      35.381  22.733  25.639  1.00  0.00     0.270 A 
ATOM     22  O   UNL A   1      35.045  23.820  26.082  1.00  0.00    -0.268 OA
ENDBRANCH  10  11
ENDBRANCH   9  10
ENDBRANCH   8   9
ENDBRANCH   6   8
ENDBRANCH   5   6
ENDBRANCH   4   5
ENDBRANCH   3   4
ENDBRANCH   2   3
ENDBRANCH   1   2
BRANCH   1  23
ATOM     23  C   UNL A   1      45.737  20.694  24.721  1.00  0.00     0.188 C 
BRANCH  23  24
ATOM     24  O   UNL A   1      46.088  21.579  25.765  1.00  0.00    -0.376 OA
BRANCH  24  25
ATOM     25  C   UNL A   1      45.765  22.958  25.891  1.00  0.00     0.202 C 
BRANCH  25  26
ATOM     26  C   UNL A   1      45.164  23.822  24.783  1.00  0.00     0.261 C 
BRANCH  26  27
ATOM     27  O   UNL A   1      44.005  24.511  25.158  1.00  0.00    -0.460 OA
BRANCH  27  28
ATOM     28  C   UNL A   1      42.946  23.720  25.410  1.00  0.00     0.338 C 
ATOM     29  O   UNL A   1      42.707  22.607  24.960  1.00  0.00    -0.246 OA
BRANCH  28  30
ATOM     30  C   UNL A   1      42.135  24.428  26.400  1.00  0.00     0.060 A 
ATOM     31  C   UNL A   1      41.126  25.271  25.934  1.00  0.00     0.016 A 
ATOM     32  C   UNL A   1      42.519  24.377  27.748  1.00  0.00     0.016 A 
ATOM     33  C   UNL A   1      40.763  26.315  26.742  1.00  0.00     0.010 A 
ATOM     34  C   UNL A   1      42.173  25.423  28.545  1.00  0.00     0.010 A 
ATOM     35  C   UNL A   1      41.427  26.439  27.963  1.00  0.00    -0.014 A 
BRANCH  35  36
ATOM     36  C   UNL A   1      41.427  27.713  28.625  1.00  0.00     0.031 A 
ATOM     37  C   UNL A   1      42.581  28.538  28.254  1.00  0.00     0.074 A 
ATOM     38  C   UNL A   1      40.382  28.063  29.400  1.00  0.00     0.049 A 
ATOM     39  N   UNL A   1      43.574  28.855  29.010  1.00  0.00    -0.248 NA
ATOM     40  C   UNL A   1      42.772  28.863  26.831  1.00  0.00     0.031 C 
ATOM     41  C   UNL A   1      39.116  27.353  29.615  1.00  0.00     0.029 A 
ATOM     42  N   UNL A   1      40.204  29.215  30.097  1.00  0.00    -0.354 N 
ATOM     43  C   UNL A   1      44.412  29.612  28.207  1.00  0.00     0.074 A 
ATOM     44  C   UNL A   1      43.999  29.382  26.849  1.00  0.00     0.031 C 
ATOM     45  C   UNL A   1      38.224  28.190  30.195  1.00  0.00     0.029 A 
ATOM     46  C   UNL A   1      38.888  29.442  30.497  1.00  0.00     0.049 A 
ATOM     47  H   UNL A   1      40.940  29.837  30.300  1.00  0.00     0.167 HD
ATOM     48  C   UNL A   1      45.172  30.598  28.747  1.00  0.00     0.037 A 
ATOM     49  C   UNL A   1      38.417  30.636  30.941  1.00  0.00     0.037 A 
ATOM     50  C   UNL A   1      45.294  30.437  30.174  1.00  0.00     0.049 A 
ATOM     51  C   UNL A   1      39.606  31.421  31.388  1.00  0.00     0.074 A 
ATOM     52  C   UNL A   1      45.809  29.440  30.980  1.00  0.00     0.029 A 
ATOM     53  N   UNL A   1      44.466  31.186  30.977  1.00  0.00    -0.354 N 
ATOM     54  N   UNL A   1      40.326  31.094  32.428  1.00  0.00    -0.248 NA
ATOM     55  C   UNL A   1      40.289  32.233  30.386  1.00  0.00     0.031 C 
ATOM     56  C   UNL A   1      44.915  29.356  32.086  1.00  0.00     0.029 A 
ATOM     57  C   UNL A   1      43.952  30.355  31.942  1.00  0.00     0.049 A 
ATOM     58  H   UNL A   1      44.276  32.146  30.879  1.00  0.00     0.167 HD
ATOM     59  C   UNL A   1      41.641  31.282  32.021  1.00  0.00     0.074 A 
ATOM     60  C   UNL A   1      41.553  32.037  30.772  1.00  0.00     0.031 C 
ATOM     61  C   UNL A   1      42.658  30.544  32.556  1.00  0.00     0.037 A 
BRANCH  48  62
ATOM     62  C   UNL A   1      45.466  31.892  28.043  1.00  0.00     0.064 A 
ATOM     63  C   UNL A   1      44.399  32.753  27.736  1.00  0.00     0.173 A 
ATOM     64  C   UNL A   1      46.698  32.192  27.418  1.00  0.00     0.173 A 
ATOM     65  F   UNL A   1      43.180  32.539  28.252  1.00  0.00    -0.203 F 
ATOM     66  C   UNL A   1      44.541  33.799  26.823  1.00  0.00     0.198 A 
ATOM     67  C   UNL A   1      46.852  33.273  26.557  1.00  0.00     0.198 A 
ATOM     68  F   UNL A   1      47.768  31.395  27.516  1.00  0.00    -0.203 F 
ATOM     69  F   UNL A   1      43.470  34.518  26.466  1.00  0.00    -0.200 F 
ATOM     70  C   UNL A   1      45.767  34.058  26.234  1.00  0.00     0.200 A 
ATOM     71  F   UNL A   1      48.043  33.491  25.981  1.00  0.00    -0.200 F 
ATOM     72  F   UNL A   1      45.892  35.027  25.318  1.00  0.00    -0.200 F 
ENDBRANCH  48  62
BRANCH  49  73
ATOM     73  C   UNL A   1      37.096  31.261  30.673  1.00  0.00     0.064 A 
ATOM     74  C   UNL A   1      36.191  31.519  31.718  1.00  0.00     0.173 A 
ATOM     75  C   UNL A   1      36.801  31.867  29.436  1.00  0.00     0.173 A 
ATOM     76  F   UNL A   1      36.413  31.018  32.942  1.00  0.00    -0.203 F 
ATOM     77  C   UNL A   1      35.081  32.356  31.543  1.00  0.00     0.198 A 
ATOM     78  C   UNL A   1      35.691  32.695  29.261  1.00  0.00     0.198 A 
ATOM     79  F   UNL A   1      37.633  31.748  28.392  1.00  0.00    -0.203 F 
ATOM     80  F   UNL A   1      34.278  32.628  32.581  1.00  0.00    -0.200 F 
ATOM     81  C   UNL A   1      34.840  32.953  30.317  1.00  0.00     0.200 A 
ATOM     82  F   UNL A   1      35.490  33.294  28.077  1.00  0.00    -0.200 F 
ATOM     83  F   UNL A   1      33.815  33.804  30.165  1.00  0.00    -0.200 F 
ENDBRANCH  49  73
BRANCH  61  84
ATOM     84  C   UNL A   1      42.351  29.670  33.743  1.00  0.00     0.064 A 
ATOM     85  C   UNL A   1      41.864  28.354  33.640  1.00  0.00     0.173 A 
ATOM     86  C   UNL A   1      42.749  30.110  35.011  1.00  0.00     0.173 A 
ATOM     87  F   UNL A   1      41.558  27.824  32.451  1.00  0.00    -0.203 F 
ATOM     88  C   UNL A   1      41.757  27.531  34.762  1.00  0.00     0.198 A 
ATOM     89  C   UNL A   1      42.676  29.275  36.123  1.00  0.00     0.198 A 
ATOM     90  F   UNL A   1      43.276  31.335  35.160  1.00  0.00    -0.203 F 
ATOM     91  F   UNL A   1      41.293  26.278  34.636  1.00  0.00    -0.200 F 
ATOM     92  C   UNL A   1      42.174  27.990  35.999  1.00  0.00     0.200 A 
ATOM     93  F   UNL A   1      43.132  29.704  37.307  1.00  0.00    -0.200 F 
ATOM     94  F   UNL A   1      42.123  27.182  37.069  1.00  0.00    -0.200 F 
ENDBRANCH  61  84
ENDBRANCH  35  36
ENDBRANCH  28  30
ENDBRANCH  27  28
ENDBRANCH  26  27
ENDBRANCH  25  26
ENDBRANCH  24  25
ENDBRANCH  23  24
ENDBRANCH   1  23
TORSDOF 20
ENDMDL
MODEL 2
REMARK VINA RESULT:     -10.6      3.203      5.361
REMARK SMILES Cc1cc(C)c2c(=O)n(CCCC(=O)OCCOCCOCCOC(=O)c3ccc(-c4c5nc(c(-c6c(F)c(F)c(F)c(F)c6F)c6ccc([nH]6)c(-c6c(F)c(F)c(F)c(F)c6F)c6nc(c(-c7c(F)c(F)c(F)c(F)c7F)c7ccc4[nH]7)C=C6)C=C5)cc3)sc2n1
REMARK SMILES IDX 19 1 18 2 17 3 16 4 15 5 13 6 14 7 12 8 11 9 10 10 9 11 1 12
REMARK SMILES IDX 2 13 3 14 92 15 4 16 91 17 5 18 6 19 90 20 7 21 8 22 20 23
REMARK SMILES IDX 21 24 22 25 23 26 24 27 25 28 26 29 27 30 28 31 89 32 29 33
REMARK SMILES IDX 88 34 30 35 31 36 32 37 82 38 33 39 87 40 81 41 83 42 34 43
REMARK SMILES IDX 86 44 80 45 79 46 35 48 67 49 47 50 66 51 48 52 51 53 65 54
REMARK SMILES IDX 84 55 49 56 50 57 64 59 85 60 52 61 36 62 37 63 45 64 38 65
REMARK SMILES IDX 39 66 43 67 46 68 40 69 41 70 44 71 42 72 68 73 69 74 77 75
REMARK SMILES IDX 70 76 71 77 75 78 78 79 72 80 73 81 76 82 74 83 53 84 54 85
REMARK SMILES IDX 62 86 55 87 56 88 60 89 63 90 57 91 58 92 61 93 59 94
REMARK H PARENT 83 47 51 58
REMARK Flexibility Score: inf
ROOT
ATOM      1  C   UNL A   1      38.894  22.497  26.138  1.00  0.00     0.188 C 
ENDROOT
BRANCH   1   2
ATOM      2  O   UNL A   1      38.079  21.630  25.383  1.00  0.00    -0.376 OA
BRANCH   2   3
ATOM      3  C   UNL A   1      36.746  22.033  25.118  1.00  0.00     0.202 C 
BRANCH   3   4
ATOM      4  C   UNL A   1      35.550  21.159  25.540  1.00  0.00     0.261 C 
BRANCH   4   5
ATOM      5  O   UNL A   1      34.492  21.072  24.566  1.00  0.00    -0.463 OA
BRANCH   5   6
ATOM      6  C   UNL A   1      33.736  22.179  24.375  1.00  0.00     0.305 C 
ATOM      7  O   UNL A   1      32.966  22.638  25.213  1.00  0.00    -0.252 OA
BRANCH   6   8
ATOM      8  C   UNL A   1      33.990  22.909  23.063  1.00  0.00     0.124 C 
BRANCH   8   9
ATOM      9  C   UNL A   1      32.956  23.795  22.353  1.00  0.00     0.035 C 
BRANCH   9  10
ATOM     10  C   UNL A   1      33.259  25.270  22.077  1.00  0.00     0.139 C 
BRANCH  10  11
ATOM     11  N   UNL A   1      32.761  26.161  23.098  1.00  0.00    -0.262 N 
ATOM     12  C   UNL A   1      32.924  30.737  27.052  1.00  0.00     0.067 C 
ATOM     13  C   UNL A   1      32.450  29.783  26.001  1.00  0.00     0.039 A 
ATOM     14  C   UNL A   1      31.322  30.065  25.213  1.00  0.00     0.027 A 
ATOM     15  N   UNL A   1      33.155  28.639  25.886  1.00  0.00    -0.241 NA
ATOM     16  C   UNL A   1      30.942  29.182  24.188  1.00  0.00    -0.033 A 
ATOM     17  C   UNL A   1      32.771  27.825  24.897  1.00  0.00     0.146 A 
ATOM     18  C   UNL A   1      29.719  29.416  23.361  1.00  0.00     0.045 C 
ATOM     19  C   UNL A   1      31.749  28.073  23.999  1.00  0.00     0.081 A 
ATOM     20  S   UNL A   1      33.538  26.271  24.613  1.00  0.00    -0.035 S 
ATOM     21  C   UNL A   1      31.757  27.095  22.892  1.00  0.00     0.270 A 
ATOM     22  O   UNL A   1      31.031  27.185  21.914  1.00  0.00    -0.268 OA
ENDBRANCH  10  11
ENDBRANCH   9  10
ENDBRANCH   8   9
ENDBRANCH   6   8
ENDBRANCH   5   6
ENDBRANCH   4   5
ENDBRANCH   3   4
ENDBRANCH   2   3
ENDBRANCH   1   2
BRANCH   1  23
ATOM     23  C   UNL A   1      40.138  21.946  26.846  1.00  0.00     0.188 C 
BRANCH  23  24
ATOM     24  O   UNL A   1      40.366  20.589  27.167  1.00  0.00    -0.376 OA
BRANCH  24  25
ATOM     25  C   UNL A   1      40.842  19.555  26.315  1.00  0.00     0.202 C 
BRANCH  25  26
ATOM     26  C   UNL A   1      42.314  19.213  26.090  1.00  0.00     0.261 C 
BRANCH  26  27
ATOM     27  O   UNL A   1      43.177  20.312  26.179  1.00  0.00    -0.460 OA
BRANCH  27  28
ATOM     28  C   UNL A   1      43.942  20.506  25.089  1.00  0.00     0.338 C 
ATOM     29  O   UNL A   1      44.229  19.703  24.211  1.00  0.00    -0.246 OA
BRANCH  28  30
ATOM     30  C   UNL A   1      44.331  21.916  25.110  1.00  0.00     0.060 A 
ATOM     31  C   UNL A   1      45.495  22.261  25.797  1.00  0.00     0.016 A 
ATOM     32  C   UNL A   1      43.434  22.871  24.608  1.00  0.00     0.016 A 
ATOM     33  C   UNL A   1      45.569  23.534  26.298  1.00  0.00     0.010 A 
ATOM     34  C   UNL A   1      43.498  24.130  25.118  1.00  0.00     0.010 A 
ATOM     35  C   UNL A   1      44.479  24.375  26.069  1.00  0.00    -0.014 A 
BRANCH  35  36
ATOM     36  C   UNL A   1      44.297  25.518  26.919  1.00  0.00     0.031 A 
ATOM     37  C   UNL A   1      45.340  26.531  26.728  1.00  0.00     0.074 A 
ATOM     38  C   UNL A   1      43.199  25.606  27.694  1.00  0.00     0.049 A 
ATOM     39  N   UNL A   1      46.267  26.847  27.565  1.00  0.00    -0.248 NA
ATOM     40  C   UNL A   1      45.518  27.099  25.381  1.00  0.00     0.031 C 
ATOM     41  C   UNL A   1      42.033  24.716  27.744  1.00  0.00     0.029 A 
ATOM     42  N   UNL A   1      42.856  26.601  28.552  1.00  0.00    -0.354 N 
ATOM     43  C   UNL A   1      47.014  27.822  26.923  1.00  0.00     0.074 A 
ATOM     44  C   UNL A   1      46.665  27.759  25.530  1.00  0.00     0.031 C 
ATOM     45  C   UNL A   1      41.027  25.331  28.408  1.00  0.00     0.029 A 
ATOM     46  C   UNL A   1      41.513  26.594  28.927  1.00  0.00     0.049 A 
ATOM     47  H   UNL A   1      43.499  27.271  28.880  1.00  0.00     0.167 HD
ATOM     48  C   UNL A   1      47.627  28.799  27.641  1.00  0.00     0.037 A 
ATOM     49  C   UNL A   1      40.880  27.633  29.530  1.00  0.00     0.037 A 
ATOM     50  C   UNL A   1      47.738  28.430  29.029  1.00  0.00     0.049 A 
ATOM     51  C   UNL A   1      41.945  28.481  30.142  1.00  0.00     0.074 A 
ATOM     52  C   UNL A   1      48.363  27.391  29.693  1.00  0.00     0.029 A 
ATOM     53  N   UNL A   1      46.802  28.931  29.904  1.00  0.00    -0.354 N 
ATOM     54  N   UNL A   1      42.680  28.087  31.148  1.00  0.00    -0.248 NA
ATOM     55  C   UNL A   1      42.536  29.521  29.307  1.00  0.00     0.031 C 
ATOM     56  C   UNL A   1      47.464  27.021  30.734  1.00  0.00     0.029 A 
ATOM     57  C   UNL A   1      46.381  27.900  30.706  1.00  0.00     0.049 A 
ATOM     58  H   UNL A   1      46.489  29.863  29.947  1.00  0.00     0.167 HD
ATOM     59  C   UNL A   1      43.967  28.502  30.830  1.00  0.00     0.074 A 
ATOM     60  C   UNL A   1      43.807  29.428  29.710  1.00  0.00     0.031 C 
ATOM     61  C   UNL A   1      45.060  27.824  31.287  1.00  0.00     0.037 A 
BRANCH  48  62
ATOM     62  C   UNL A   1      47.762  30.214  27.157  1.00  0.00     0.064 A 
ATOM     63  C   UNL A   1      49.024  30.828  27.207  1.00  0.00     0.173 A 
ATOM     64  C   UNL A   1      46.668  31.075  26.911  1.00  0.00     0.173 A 
ATOM     65  F   UNL A   1      50.125  30.106  27.464  1.00  0.00    -0.203 F 
ATOM     66  C   UNL A   1      49.172  32.210  27.079  1.00  0.00     0.198 A 
ATOM     67  C   UNL A   1      46.826  32.443  26.722  1.00  0.00     0.198 A 
ATOM     68  F   UNL A   1      45.398  30.657  26.957  1.00  0.00    -0.203 F 
ATOM     69  F   UNL A   1      50.376  32.767  27.254  1.00  0.00    -0.200 F 
ATOM     70  C   UNL A   1      48.073  33.016  26.837  1.00  0.00     0.200 A 
ATOM     71  F   UNL A   1      45.744  33.207  26.511  1.00  0.00    -0.200 F 
ATOM     72  F   UNL A   1      48.206  34.347  26.768  1.00  0.00    -0.200 F 
ENDBRANCH  48  62
BRANCH  49  73
ATOM     73  C   UNL A   1      39.494  28.119  29.307  1.00  0.00     0.064 A 
ATOM     74  C   UNL A   1      38.589  28.246  30.375  1.00  0.00     0.173 A 
ATOM     75  C   UNL A   1      39.110  28.729  28.096  1.00  0.00     0.173 A 
ATOM     76  F   UNL A   1      38.889  27.734  31.577  1.00  0.00    -0.203 F 
ATOM     77  C   UNL A   1      37.393  28.964  30.248  1.00  0.00     0.198 A 
ATOM     78  C   UNL A   1      37.914  29.438  27.967  1.00  0.00     0.198 A 
ATOM     79  F   UNL A   1      39.927  28.732  27.034  1.00  0.00    -0.203 F 
ATOM     80  F   UNL A   1      36.587  29.115  31.308  1.00  0.00    -0.200 F 
ATOM     81  C   UNL A   1      37.062  29.569  29.047  1.00  0.00     0.200 A 
ATOM     82  F   UNL A   1      37.625  30.048  26.808  1.00  0.00    -0.200 F 
ATOM     83  F   UNL A   1      35.949  30.309  28.941  1.00  0.00    -0.200 F 
ENDBRANCH  49  73
BRANCH  61  84
ATOM     84  C   UNL A   1      44.846  26.741  32.311  1.00  0.00     0.064 A 
ATOM     85  C   UNL A   1      44.595  25.396  31.987  1.00  0.00     0.173 A 
ATOM     86  C   UNL A   1      45.098  27.041  33.656  1.00  0.00     0.173 A 
ATOM     87  F   UNL A   1      44.445  25.011  30.714  1.00  0.00    -0.203 F 
ATOM     88  C   UNL A   1      44.571  24.405  32.969  1.00  0.00     0.198 A 
ATOM     89  C   UNL A   1      45.110  26.045  34.629  1.00  0.00     0.198 A 
ATOM     90  F   UNL A   1      45.400  28.297  34.016  1.00  0.00    -0.203 F 
ATOM     91  F   UNL A   1      44.334  23.128  32.631  1.00  0.00    -0.200 F 
ATOM     92  C   UNL A   1      44.841  24.730  34.287  1.00  0.00     0.200 A 
ATOM     93  F   UNL A   1      45.425  26.356  35.893  1.00  0.00    -0.200 F 
ATOM     94  F   UNL A   1      44.873  23.771  35.224  1.00  0.00    -0.200 F 
ENDBRANCH  61  84
ENDBRANCH  35  36
ENDBRANCH  28  30
ENDBRANCH  27  28
ENDBRANCH  26  27
ENDBRANCH  25  26
ENDBRANCH  24  25
ENDBRANCH  23  24
ENDBRANCH   1  23
TORSDOF 20
ENDMDL
MODEL 3
REMARK VINA RESULT:     -10.4      1.460      2.144
REMARK SMILES Cc1cc(C)c2c(=O)n(CCCC(=O)OCCOCCOCCOC(=O)c3ccc(-c4c5nc(c(-c6c(F)c(F)c(F)c(F)c6F)c6ccc([nH]6)c(-c6c(F)c(F)c(F)c(F)c6F)c6nc(c(-c7c(F)c(F)c(F)c(F)c7F)c7ccc4[nH]7)C=C6)C=C5)cc3)sc2n1
REMARK SMILES IDX 19 1 18 2 17 3 16 4 15 5 13 6 14 7 12 8 11 9 10 10 9 11 1 12
REMARK SMILES IDX 2 13 3 14 92 15 4 16 91 17 5 18 6 19 90 20 7 21 8 22 20 23
REMARK SMILES IDX 21 24 22 25 23 26 24 27 25 28 26 29 27 30 28 31 89 32 29 33
REMARK SMILES IDX 88 34 30 35 31 36 32 37 82 38 33 39 87 40 81 41 83 42 34 43
REMARK SMILES IDX 86 44 80 45 79 46 35 48 67 49 47 50 66 51 48 52 51 53 65 54
REMARK SMILES IDX 84 55 49 56 50 57 64 59 85 60 52 61 36 62 37 63 45 64 38 65
REMARK SMILES IDX 39 66 43 67 46 68 40 69 41 70 44 71 42 72 68 73 69 74 77 75
REMARK SMILES IDX 70 76 71 77 75 78 78 79 72 80 73 81 76 82 74 83 53 84 54 85
REMARK SMILES IDX 62 86 55 87 56 88 60 89 63 90 57 91 58 92 61 93 59 94
REMARK H PARENT 83 47 51 58
REMARK Flexibility Score: inf
ROOT
ATOM      1  C   UNL A   1      44.053  19.023  25.193  1.00  0.00     0.188 C 
ENDROOT
BRANCH   1   2
ATOM      2  O   UNL A   1      42.668  19.262  25.101  1.00  0.00    -0.376 OA
BRANCH   2   3
ATOM      3  C   UNL A   1      42.065  20.068  26.100  1.00  0.00     0.202 C 
BRANCH   3   4
ATOM      4  C   UNL A   1      40.590  19.872  26.498  1.00  0.00     0.261 C 
BRANCH   4   5
ATOM      5  O   UNL A   1      39.638  20.505  25.620  1.00  0.00    -0.463 OA
BRANCH   5   6
ATOM      6  C   UNL A   1      39.099  21.676  26.034  1.00  0.00     0.305 C 
ATOM      7  O   UNL A   1      39.618  22.416  26.865  1.00  0.00    -0.252 OA
BRANCH   6   8
ATOM      8  C   UNL A   1      37.830  22.091  25.302  1.00  0.00     0.124 C 
BRANCH   8   9
ATOM      9  C   UNL A   1      36.414  21.675  25.726  1.00  0.00     0.035 C 
BRANCH   9  10
ATOM     10  C   UNL A   1      35.305  21.524  24.681  1.00  0.00     0.139 C 
BRANCH  10  11
ATOM     11  N   UNL A   1      34.347  22.603  24.699  1.00  0.00    -0.262 N 
ATOM     12  C   UNL A   1      31.563  27.540  26.817  1.00  0.00     0.067 C 
ATOM     13  C   UNL A   1      32.198  26.555  25.886  1.00  0.00     0.039 A 
ATOM     14  C   UNL A   1      32.574  26.920  24.583  1.00  0.00     0.027 A 
ATOM     15  N   UNL A   1      32.351  25.306  26.369  1.00  0.00    -0.241 NA
ATOM     16  C   UNL A   1      33.230  25.992  23.755  1.00  0.00    -0.033 A 
ATOM     17  C   UNL A   1      32.985  24.450  25.558  1.00  0.00     0.146 A 
ATOM     18  C   UNL A   1      33.602  26.321  22.345  1.00  0.00     0.045 C 
ATOM     19  C   UNL A   1      33.495  24.751  24.309  1.00  0.00     0.081 A 
ATOM     20  S   UNL A   1      33.245  22.768  25.991  1.00  0.00    -0.035 S 
ATOM     21  C   UNL A   1      34.346  23.657  23.798  1.00  0.00     0.270 A 
ATOM     22  O   UNL A   1      35.006  23.744  22.774  1.00  0.00    -0.268 OA
ENDBRANCH  10  11
ENDBRANCH   9  10
ENDBRANCH   8   9
ENDBRANCH   6   8
ENDBRANCH   5   6
ENDBRANCH   4   5
ENDBRANCH   3   4
ENDBRANCH   2   3
ENDBRANCH   1   2
BRANCH   1  23
ATOM     23  C   UNL A   1      45.032  19.919  24.424  1.00  0.00     0.188 C 
BRANCH  23  24
ATOM     24  O   UNL A   1      45.685  21.058  24.946  1.00  0.00    -0.376 OA
BRANCH  24  25
ATOM     25  C   UNL A   1      45.141  22.079  25.773  1.00  0.00     0.202 C 
BRANCH  25  26
ATOM     26  C   UNL A   1      45.524  23.556  25.707  1.00  0.00     0.261 C 
BRANCH  26  27
ATOM     27  O   UNL A   1      44.461  24.410  25.386  1.00  0.00    -0.460 OA
BRANCH  27  28
ATOM     28  C   UNL A   1      43.260  23.807  25.339  1.00  0.00     0.338 C 
ATOM     29  O   UNL A   1      42.914  22.856  24.649  1.00  0.00    -0.246 OA
BRANCH  28  30
ATOM     30  C   UNL A   1      42.429  24.474  26.341  1.00  0.00     0.060 A 
ATOM     31  C   UNL A   1      41.369  25.260  25.890  1.00  0.00     0.016 A 
ATOM     32  C   UNL A   1      42.839  24.449  27.683  1.00  0.00     0.016 A 
ATOM     33  C   UNL A   1      40.964  26.286  26.702  1.00  0.00     0.010 A 
ATOM     34  C   UNL A   1      42.451  25.478  28.483  1.00  0.00     0.010 A 
ATOM     35  C   UNL A   1      41.642  26.450  27.911  1.00  0.00    -0.014 A 
BRANCH  35  36
ATOM     36  C   UNL A   1      41.585  27.725  28.569  1.00  0.00     0.031 A 
ATOM     37  C   UNL A   1      42.720  28.587  28.221  1.00  0.00     0.074 A 
ATOM     38  C   UNL A   1      40.512  28.043  29.319  1.00  0.00     0.049 A 
ATOM     39  N   UNL A   1      43.685  28.937  28.999  1.00  0.00    -0.248 NA
ATOM     40  C   UNL A   1      42.932  28.915  26.802  1.00  0.00     0.031 C 
ATOM     41  C   UNL A   1      39.266  27.291  29.508  1.00  0.00     0.029 A 
ATOM     42  N   UNL A   1      40.281  29.190  30.008  1.00  0.00    -0.354 N 
ATOM     43  C   UNL A   1      44.515  29.719  28.212  1.00  0.00     0.074 A 
ATOM     44  C   UNL A   1      44.141  29.473  26.846  1.00  0.00     0.031 C 
ATOM     45  C   UNL A   1      38.334  28.100  30.065  1.00  0.00     0.029 A 
ATOM     46  C   UNL A   1      38.950  29.374  30.379  1.00  0.00     0.049 A 
ATOM     47  H   UNL A   1      40.991  29.835  30.227  1.00  0.00     0.167 HD
ATOM     48  C   UNL A   1      45.231  30.732  28.767  1.00  0.00     0.037 A 
ATOM     49  C   UNL A   1      38.431  30.553  30.809  1.00  0.00     0.037 A 
ATOM     50  C   UNL A   1      45.325  30.577  30.196  1.00  0.00     0.049 A 
ATOM     51  C   UNL A   1      39.582  31.377  31.280  1.00  0.00     0.074 A 
ATOM     52  C   UNL A   1      45.855  29.599  31.017  1.00  0.00     0.029 A 
ATOM     53  N   UNL A   1      44.456  31.300  30.979  1.00  0.00    -0.354 N 
ATOM     54  N   UNL A   1      40.290  31.076  32.336  1.00  0.00    -0.248 NA
ATOM     55  C   UNL A   1      40.261  32.209  30.292  1.00  0.00     0.031 C 
ATOM     56  C   UNL A   1      44.939  29.489  32.102  1.00  0.00     0.029 A 
ATOM     57  C   UNL A   1      43.947  30.455  31.934  1.00  0.00     0.049 A 
ATOM     58  H   UNL A   1      44.236  32.254  30.874  1.00  0.00     0.167 HD
ATOM     59  C   UNL A   1      41.606  31.306  31.958  1.00  0.00     0.074 A 
ATOM     60  C   UNL A   1      41.522  32.055  30.706  1.00  0.00     0.031 C 
ATOM     61  C   UNL A   1      42.634  30.603  32.518  1.00  0.00     0.037 A 
BRANCH  48  62
ATOM     62  C   UNL A   1      45.498  32.033  28.066  1.00  0.00     0.064 A 
ATOM     63  C   UNL A   1      44.419  32.893  27.803  1.00  0.00     0.173 A 
ATOM     64  C   UNL A   1      46.707  32.342  27.403  1.00  0.00     0.173 A 
ATOM     65  F   UNL A   1      43.219  32.672  28.358  1.00  0.00    -0.203 F 
ATOM     66  C   UNL A   1      44.529  33.949  26.896  1.00  0.00     0.198 A 
ATOM     67  C   UNL A   1      46.830  33.431  26.548  1.00  0.00     0.198 A 
ATOM     68  F   UNL A   1      47.783  31.547  27.458  1.00  0.00    -0.203 F 
ATOM     69  F   UNL A   1      43.444  34.668  26.582  1.00  0.00    -0.200 F 
ATOM     70  C   UNL A   1      45.733  34.216  26.269  1.00  0.00     0.200 A 
ATOM     71  F   UNL A   1      48.001  33.658  25.935  1.00  0.00    -0.200 F 
ATOM     72  F   UNL A   1      45.826  35.194  25.359  1.00  0.00    -0.200 F 
ENDBRANCH  48  62
BRANCH  49  73
ATOM     73  C   UNL A   1      37.096  31.133  30.510  1.00  0.00     0.064 A 
ATOM     74  C   UNL A   1      36.206  31.476  31.543  1.00  0.00     0.173 A 
ATOM     75  C   UNL A   1      36.770  31.620  29.228  1.00  0.00     0.173 A 
ATOM     76  F   UNL A   1      36.456  31.093  32.803  1.00  0.00    -0.203 F 
ATOM     77  C   UNL A   1      35.081  32.279  31.313  1.00  0.00     0.198 A 
ATOM     78  C   UNL A   1      35.646  32.414  28.997  1.00  0.00     0.198 A 
ATOM     79  F   UNL A   1      37.585  31.415  28.184  1.00  0.00    -0.203 F 
ATOM     80  F   UNL A   1      34.293  32.635  32.336  1.00  0.00    -0.200 F 
ATOM     81  C   UNL A   1      34.810  32.757  30.042  1.00  0.00     0.200 A 
ATOM     82  F   UNL A   1      35.415  32.899  27.768  1.00  0.00    -0.200 F 
ATOM     83  F   UNL A   1      33.770  33.577  29.831  1.00  0.00    -0.200 F 
ENDBRANCH  49  73
BRANCH  61  84
ATOM     84  C   UNL A   1      42.330  29.722  33.700  1.00  0.00     0.064 A 
ATOM     85  C   UNL A   1      41.924  28.379  33.592  1.00  0.00     0.173 A 
ATOM     86  C   UNL A   1      42.649  30.194  34.980  1.00  0.00     0.173 A 
ATOM     87  F   UNL A   1      41.699  27.823  32.396  1.00  0.00    -0.203 F 
ATOM     88  C   UNL A   1      41.818  27.560  34.716  1.00  0.00     0.198 A 
ATOM     89  C   UNL A   1      42.578  29.365  36.096  1.00  0.00     0.198 A 
ATOM     90  F   UNL A   1      43.097  31.449  35.137  1.00  0.00    -0.203 F 
ATOM     91  F   UNL A   1      41.433  26.281  34.584  1.00  0.00    -0.200 F 
ATOM     92  C   UNL A   1      42.157  28.052  35.965  1.00  0.00     0.200 A 
ATOM     93  F   UNL A   1      42.958  29.829  37.293  1.00  0.00    -0.200 F 
ATOM     94  F   UNL A   1      42.108  27.251  37.040  1.00  0.00    -0.200 F 
ENDBRANCH  61  84
ENDBRANCH  35  36
ENDBRANCH  28  30
ENDBRANCH  27  28
ENDBRANCH  26  27
ENDBRANCH  25  26
ENDBRANCH  24  25
ENDBRANCH  23  24
ENDBRANCH   1  23
TORSDOF 20
ENDMDL
