MODEL 1
REMARK VINA RESULT:      -9.3      0.000      0.000
REMARK SMILES COc1ccccc1C(=O)N/C(=C/c1ccc2c(c1)OCO2)C(=O)Nc1ccc(C(=O)OCCOCCOCCOC(=O)c2ccc(-c3c4nc(c(-c5c(F)c(F)c(F)c(F)c5F)c5ccc([nH]5)c(-c5c(F)c(F)c(F)c(F)c5F)c5nc(c(-c6c(F)c(F)c(F)c(F)c6F)c6ccc3[nH]6)C=C5)C=C4)cc2)cc1
REMARK SMILES IDX 35 1 34 2 33 3 32 4 30 5 31 6 29 7 26 8 27 9 108 10 28 11
REMARK SMILES IDX 107 12 25 13 23 14 24 15 12 17 13 18 11 19 9 20 10 21 8 23
REMARK SMILES IDX 3 24 4 25 5 26 7 27 6 28 2 29 1 30 14 31 15 32 19 33 16 34
REMARK SMILES IDX 18 35 17 36 20 37 22 38 21 39 36 40 37 41 38 42 39 43 40 44
REMARK SMILES IDX 41 45 42 46 43 47 44 48 45 49 106 50 46 51 105 52 47 53
REMARK SMILES IDX 48 54 49 55 99 56 50 57 104 58 98 59 100 60 51 61 103 62
REMARK SMILES IDX 97 63 96 64 52 66 84 67 64 68 83 69 65 70 68 71 82 72 101 73
REMARK SMILES IDX 66 74 67 75 81 77 102 78 69 79 53 80 54 81 62 82 55 83 56 84
REMARK SMILES IDX 60 85 63 86 57 87 58 88 61 89 59 90 85 91 86 92 94 93 87 94
REMARK SMILES IDX 88 95 92 96 95 97 89 98 90 99 93 100 91 101 70 102 71 103
REMARK SMILES IDX 79 104 72 105 73 106 77 107 80 108 74 109 75 110 78 111
REMARK SMILES IDX 76 112
REMARK H PARENT 25 16 11 22 100 65 68 76
REMARK Flexibility Score: inf
ROOT
ATOM      1  O   UNL A   1      36.803  32.680  32.226  1.00  0.00    -0.376 OA
ENDROOT
BRANCH   1   2
ATOM      2  C   UNL A   1      37.507  33.336  31.172  1.00  0.00     0.202 C 
BRANCH   2   3
ATOM      3  C   UNL A   1      38.463  34.497  31.513  1.00  0.00     0.261 C 
BRANCH   3   4
ATOM      4  O   UNL A   1      38.536  34.819  32.917  1.00  0.00    -0.460 OA
BRANCH   4   5
ATOM      5  C   UNL A   1      39.756  34.672  33.477  1.00  0.00     0.338 C 
ATOM      6  O   UNL A   1      40.841  34.833  32.942  1.00  0.00    -0.246 OA
BRANCH   5   7
ATOM      7  C   UNL A   1      39.636  34.494  34.930  1.00  0.00     0.060 A 
ATOM      8  C   UNL A   1      39.113  33.955  38.583  1.00  0.00     0.041 A 
ATOM      9  C   UNL A   1      38.993  32.565  37.494  1.00  0.00     0.027 A 
ATOM     10  C   UNL A   1      39.554  35.520  37.898  1.00  0.00     0.027 A 
ATOM     11  C   UNL A   1      39.220  32.840  35.507  1.00  0.00     0.018 A 
ATOM     12  C   UNL A   1      39.812  35.775  36.141  1.00  0.00     0.018 A 
BRANCH   8  13
ATOM     13  N   UNL A   1      38.156  33.865  39.614  1.00  0.00    -0.321 N 
ATOM     14  C   UNL A   1      38.526  34.114  40.938  1.00  0.00     0.272 C 
ATOM     15  O   UNL A   1      38.072  35.075  41.557  1.00  0.00    -0.267 OA
ATOM     16  H   UNL A   1      37.225  33.626  39.400  1.00  0.00     0.170 HD
BRANCH  14  17
ATOM     17  C   UNL A   1      39.397  33.077  41.671  1.00  0.00     0.108 C 
ATOM     18  C   UNL A   1      40.477  33.362  42.457  1.00  0.00     0.040 C 
BRANCH  17  19
ATOM     19  N   UNL A   1      39.078  31.731  41.548  1.00  0.00    -0.317 N 
ATOM     20  C   UNL A   1      37.990  30.934  41.831  1.00  0.00     0.259 C 
ATOM     21  O   UNL A   1      38.052  29.746  41.499  1.00  0.00    -0.269 OA
ATOM     22  H   UNL A   1      39.818  31.213  41.156  1.00  0.00     0.170 HD
BRANCH  20  23
ATOM     23  C   UNL A   1      36.801  31.361  42.590  1.00  0.00     0.082 A 
ATOM     24  C   UNL A   1      35.535  31.643  42.067  1.00  0.00     0.131 A 
ATOM     25  C   UNL A   1      34.578  32.234  42.909  1.00  0.00     0.047 A 
ATOM     26  C   UNL A   1      34.814  32.390  44.276  1.00  0.00     0.004 A 
ATOM     27  C   UNL A   1      37.002  31.439  43.983  1.00  0.00     0.018 A 
ATOM     28  C   UNL A   1      36.008  31.939  44.823  1.00  0.00     0.001 A 
BRANCH  24  29
ATOM     29  O   UNL A   1      35.069  31.464  40.794  1.00  0.00    -0.496 OA
ATOM     30  C   UNL A   1      34.925  32.610  39.964  1.00  0.00     0.278 C 
ENDBRANCH  24  29
ENDBRANCH  20  23
ENDBRANCH  17  19
BRANCH  18  31
ATOM     31  C   UNL A   1      41.176  34.665  42.503  1.00  0.00    -0.019 A 
ATOM     32  C   UNL A   1      42.145  34.832  41.000  1.00  0.00     0.012 A 
ATOM     33  C   UNL A   1      40.453  36.128  43.202  1.00  0.00     0.058 A 
ATOM     34  C   UNL A   1      42.246  36.646  40.114  1.00  0.00     0.051 A 
ATOM     35  C   UNL A   1      40.603  37.717  42.421  1.00  0.00     0.166 A 
ATOM     36  C   UNL A   1      41.444  38.012  40.940  1.00  0.00     0.165 A 
ATOM     37  O   UNL A   1      39.644  38.707  42.501  1.00  0.00    -0.454 OA
ATOM     38  O   UNL A   1      40.877  39.103  40.346  1.00  0.00    -0.454 OA
ATOM     39  C   UNL A   1      39.634  39.201  41.117  1.00  0.00     0.468 C 
ENDBRANCH  18  31
ENDBRANCH  14  17
ENDBRANCH   8  13
ENDBRANCH   5   7
ENDBRANCH   4   5
ENDBRANCH   3   4
ENDBRANCH   2   3
ENDBRANCH   1   2
BRANCH   1  40
ATOM     40  C   UNL A   1      35.400  32.884  32.339  1.00  0.00     0.188 C 
BRANCH  40  41
ATOM     41  C   UNL A   1      34.510  32.669  31.102  1.00  0.00     0.188 C 
BRANCH  41  42
ATOM     42  O   UNL A   1      34.030  33.856  30.505  1.00  0.00    -0.376 OA
BRANCH  42  43
ATOM     43  C   UNL A   1      34.267  34.017  29.115  1.00  0.00     0.202 C 
BRANCH  43  44
ATOM     44  C   UNL A   1      33.840  32.846  28.208  1.00  0.00     0.261 C 
BRANCH  44  45
ATOM     45  O   UNL A   1      34.908  32.063  27.640  1.00  0.00    -0.460 OA
BRANCH  45  46
ATOM     46  C   UNL A   1      34.901  30.739  27.924  1.00  0.00     0.338 C 
ATOM     47  O   UNL A   1      34.102  29.912  27.519  1.00  0.00    -0.246 OA
BRANCH  46  48
ATOM     48  C   UNL A   1      36.168  30.393  28.614  1.00  0.00     0.060 A 
ATOM     49  C   UNL A   1      37.350  31.005  28.174  1.00  0.00     0.016 A 
ATOM     50  C   UNL A   1      36.207  29.475  29.666  1.00  0.00     0.016 A 
ATOM     51  C   UNL A   1      38.575  30.664  28.751  1.00  0.00     0.010 A 
ATOM     52  C   UNL A   1      37.441  29.123  30.234  1.00  0.00     0.010 A 
ATOM     53  C   UNL A   1      38.637  29.688  29.754  1.00  0.00    -0.014 A 
BRANCH  53  54
ATOM     54  C   UNL A   1      39.964  29.154  30.167  1.00  0.00     0.031 A 
ATOM     55  C   UNL A   1      40.661  29.770  31.351  1.00  0.00     0.074 A 
ATOM     56  C   UNL A   1      40.522  28.100  29.544  1.00  0.00     0.049 A 
ATOM     57  N   UNL A   1      41.793  29.437  31.920  1.00  0.00    -0.248 NA
ATOM     58  C   UNL A   1      39.991  30.920  31.977  1.00  0.00     0.031 C 
ATOM     59  C   UNL A   1      39.957  27.402  28.396  1.00  0.00     0.029 A 
ATOM     60  N   UNL A   1      41.696  27.431  29.802  1.00  0.00    -0.354 N 
ATOM     61  C   UNL A   1      41.970  30.333  32.966  1.00  0.00     0.074 A 
ATOM     62  C   UNL A   1      40.849  31.248  32.931  1.00  0.00     0.031 C 
ATOM     63  C   UNL A   1      40.779  26.396  28.048  1.00  0.00     0.029 A 
ATOM     64  C   UNL A   1      41.940  26.392  28.937  1.00  0.00     0.049 A 
ATOM     65  H   UNL A   1      42.303  27.673  30.539  1.00  0.00     0.167 HD
ATOM     66  C   UNL A   1      42.968  30.386  33.881  1.00  0.00     0.037 A 
ATOM     67  C   UNL A   1      42.983  25.541  28.866  1.00  0.00     0.037 A 
ATOM     68  C   UNL A   1      44.090  29.484  33.920  1.00  0.00     0.049 A 
ATOM     69  C   UNL A   1      44.105  25.650  29.868  1.00  0.00     0.074 A 
ATOM     70  C   UNL A   1      45.140  29.451  34.822  1.00  0.00     0.029 A 
ATOM     71  N   UNL A   1      44.317  28.463  33.009  1.00  0.00    -0.354 N 
ATOM     72  N   UNL A   1      44.242  26.474  30.878  1.00  0.00    -0.248 NA
ATOM     73  C   UNL A   1      45.218  24.701  29.720  1.00  0.00     0.031 C 
ATOM     74  C   UNL A   1      46.031  28.448  34.423  1.00  0.00     0.029 A 
ATOM     75  C   UNL A   1      45.503  27.810  33.313  1.00  0.00     0.049 A 
ATOM     76  H   UNL A   1      43.724  28.236  32.257  1.00  0.00     0.167 HD
ATOM     77  C   UNL A   1      45.435  26.125  31.501  1.00  0.00     0.074 A 
ATOM     78  C   UNL A   1      45.972  24.998  30.768  1.00  0.00     0.031 C 
ATOM     79  C   UNL A   1      46.032  26.687  32.582  1.00  0.00     0.037 A 
BRANCH  66  80
ATOM     80  C   UNL A   1      42.904  31.478  34.910  1.00  0.00     0.064 A 
ATOM     81  C   UNL A   1      42.517  31.225  36.236  1.00  0.00     0.173 A 
ATOM     82  C   UNL A   1      43.264  32.792  34.573  1.00  0.00     0.173 A 
ATOM     83  F   UNL A   1      42.149  29.989  36.607  1.00  0.00    -0.203 F 
ATOM     84  C   UNL A   1      42.468  32.250  37.177  1.00  0.00     0.198 A 
ATOM     85  C   UNL A   1      43.245  33.808  35.525  1.00  0.00     0.198 A 
ATOM     86  F   UNL A   1      43.645  33.090  33.323  1.00  0.00    -0.203 F 
ATOM     87  F   UNL A   1      42.048  31.993  38.423  1.00  0.00    -0.200 F 
ATOM     88  C   UNL A   1      42.840  33.539  36.824  1.00  0.00     0.200 A 
ATOM     89  F   UNL A   1      43.619  35.050  35.186  1.00  0.00    -0.200 F 
ATOM     90  F   UNL A   1      42.800  34.522  37.733  1.00  0.00    -0.200 F 
ENDBRANCH  66  80
BRANCH  67  91
ATOM     91  C   UNL A   1      43.026  24.501  27.802  1.00  0.00     0.064 A 
ATOM     92  C   UNL A   1      42.576  23.195  28.043  1.00  0.00     0.173 A 
ATOM     93  C   UNL A   1      43.557  24.783  26.535  1.00  0.00     0.173 A 
ATOM     94  F   UNL A   1      42.089  22.866  29.248  1.00  0.00    -0.203 F 
ATOM     95  C   UNL A   1      42.678  22.206  27.065  1.00  0.00     0.198 A 
ATOM     96  C   UNL A   1      43.627  23.803  25.548  1.00  0.00     0.198 A 
ATOM     97  F   UNL A   1      44.008  26.014  26.255  1.00  0.00    -0.203 F 
ATOM     98  F   UNL A   1      42.299  20.950  27.343  1.00  0.00    -0.200 F 
ATOM     99  C   UNL A   1      43.198  22.512  25.816  1.00  0.00     0.200 A 
ATOM    100  F   UNL A   1      44.123  24.106  24.340  1.00  0.00    -0.200 F 
ATOM    101  F   UNL A   1      43.300  21.561  24.879  1.00  0.00    -0.200 F 
ENDBRANCH  67  91
BRANCH  79 102
ATOM    102  C   UNL A   1      47.313  26.062  33.067  1.00  0.00     0.064 A 
ATOM    103  C   UNL A   1      48.572  26.546  32.678  1.00  0.00     0.173 A 
ATOM    104  C   UNL A   1      47.278  24.962  33.939  1.00  0.00     0.173 A 
ATOM    105  F   UNL A   1      48.664  27.588  31.838  1.00  0.00    -0.203 F 
ATOM    106  C   UNL A   1      49.743  25.923  33.103  1.00  0.00     0.198 A 
ATOM    107  C   UNL A   1      48.453  24.365  34.393  1.00  0.00     0.198 A 
ATOM    108  F   UNL A   1      46.106  24.464  34.357  1.00  0.00    -0.203 F 
ATOM    109  F   UNL A   1      50.930  26.360  32.659  1.00  0.00    -0.200 F 
ATOM    110  C   UNL A   1      49.683  24.837  33.963  1.00  0.00     0.200 A 
ATOM    111  F   UNL A   1      48.392  23.327  35.238  1.00  0.00    -0.200 F 
ATOM    112  F   UNL A   1      50.812  24.238  34.367  1.00  0.00    -0.200 F 
ENDBRANCH  79 102
ENDBRANCH  53  54
ENDBRANCH  46  48
ENDBRANCH  45  46
ENDBRANCH  44  45
ENDBRANCH  43  44
ENDBRANCH  42  43
ENDBRANCH  41  42
ENDBRANCH  40  41
ENDBRANCH   1  40
TORSDOF 23
ENDMDL
MODEL 2
REMARK VINA RESULT:      -8.7      6.812     14.013
REMARK SMILES COc1ccccc1C(=O)N/C(=C/c1ccc2c(c1)OCO2)C(=O)Nc1ccc(C(=O)OCCOCCOCCOC(=O)c2ccc(-c3c4nc(c(-c5c(F)c(F)c(F)c(F)c5F)c5ccc([nH]5)c(-c5c(F)c(F)c(F)c(F)c5F)c5nc(c(-c6c(F)c(F)c(F)c(F)c6F)c6ccc3[nH]6)C=C5)C=C4)cc2)cc1
REMARK SMILES IDX 35 1 34 2 33 3 32 4 30 5 31 6 29 7 26 8 27 9 108 10 28 11
REMARK SMILES IDX 107 12 25 13 23 14 24 15 12 17 13 18 11 19 9 20 10 21 8 23
REMARK SMILES IDX 3 24 4 25 5 26 7 27 6 28 2 29 1 30 14 31 15 32 19 33 16 34
REMARK SMILES IDX 18 35 17 36 20 37 22 38 21 39 36 40 37 41 38 42 39 43 40 44
REMARK SMILES IDX 41 45 42 46 43 47 44 48 45 49 106 50 46 51 105 52 47 53
REMARK SMILES IDX 48 54 49 55 99 56 50 57 104 58 98 59 100 60 51 61 103 62
REMARK SMILES IDX 97 63 96 64 52 66 84 67 64 68 83 69 65 70 68 71 82 72 101 73
REMARK SMILES IDX 66 74 67 75 81 77 102 78 69 79 53 80 54 81 62 82 55 83 56 84
REMARK SMILES IDX 60 85 63 86 57 87 58 88 61 89 59 90 85 91 86 92 94 93 87 94
REMARK SMILES IDX 88 95 92 96 95 97 89 98 90 99 93 100 91 101 70 102 71 103
REMARK SMILES IDX 79 104 72 105 73 106 77 107 80 108 74 109 75 110 78 111
REMARK SMILES IDX 76 112
REMARK H PARENT 25 16 11 22 100 65 68 76
REMARK Flexibility Score: inf
ROOT
ATOM      1  O   UNL A   1      40.003  19.838  26.556  1.00  0.00    -0.376 OA
ENDROOT
BRANCH   1   2
ATOM      2  C   UNL A   1      39.335  19.607  25.316  1.00  0.00     0.202 C 
BRANCH   2   3
ATOM      3  C   UNL A   1      37.812  19.835  25.226  1.00  0.00     0.261 C 
BRANCH   3   4
ATOM      4  O   UNL A   1      37.432  21.144  24.756  1.00  0.00    -0.460 OA
BRANCH   4   5
ATOM      5  C   UNL A   1      37.481  22.124  25.684  1.00  0.00     0.338 C 
ATOM      6  O   UNL A   1      38.468  22.548  26.264  1.00  0.00    -0.246 OA
BRANCH   5   7
ATOM      7  C   UNL A   1      36.183  22.808  25.779  1.00  0.00     0.060 A 
ATOM      8  C   UNL A   1      33.003  24.724  26.128  1.00  0.00     0.041 A 
ATOM      9  C   UNL A   1      34.348  25.464  25.246  1.00  0.00     0.027 A 
ATOM     10  C   UNL A   1      33.203  23.079  26.732  1.00  0.00     0.027 A 
ATOM     11  C   UNL A   1      36.097  24.468  25.089  1.00  0.00     0.018 A 
ATOM     12  C   UNL A   1      34.732  22.157  26.557  1.00  0.00     0.018 A 
BRANCH   8  13
ATOM     13  N   UNL A   1      32.312  25.691  26.885  1.00  0.00    -0.321 N 
ATOM     14  C   UNL A   1      31.225  26.371  26.330  1.00  0.00     0.272 C 
ATOM     15  O   UNL A   1      30.087  26.228  26.776  1.00  0.00    -0.267 OA
ATOM     16  H   UNL A   1      32.595  25.885  27.808  1.00  0.00     0.170 HD
BRANCH  14  17
ATOM     17  C   UNL A   1      31.491  27.430  25.244  1.00  0.00     0.108 C 
ATOM     18  C   UNL A   1      32.366  28.472  25.349  1.00  0.00     0.040 C 
BRANCH  17  19
ATOM     19  N   UNL A   1      30.801  27.339  24.041  1.00  0.00    -0.317 N 
ATOM     20  C   UNL A   1      30.747  26.454  22.987  1.00  0.00     0.259 C 
ATOM     21  O   UNL A   1      29.924  26.682  22.094  1.00  0.00    -0.269 OA
ATOM     22  H   UNL A   1      30.193  28.103  23.909  1.00  0.00     0.170 HD
BRANCH  20  23
ATOM     23  C   UNL A   1      31.660  25.315  22.789  1.00  0.00     0.082 A 
ATOM     24  C   UNL A   1      32.877  25.331  22.099  1.00  0.00     0.131 A 
ATOM     25  C   UNL A   1      33.514  24.108  21.835  1.00  0.00     0.047 A 
ATOM     26  C   UNL A   1      33.044  22.913  22.382  1.00  0.00     0.004 A 
ATOM     27  C   UNL A   1      31.240  24.122  23.411  1.00  0.00     0.018 A 
ATOM     28  C   UNL A   1      31.936  22.930  23.219  1.00  0.00     0.001 A 
BRANCH  24  29
ATOM     29  O   UNL A   1      33.559  26.397  21.579  1.00  0.00    -0.496 OA
ATOM     30  C   UNL A   1      34.218  27.277  22.481  1.00  0.00     0.278 C 
ENDBRANCH  24  29
ENDBRANCH  20  23
ENDBRANCH  17  19
BRANCH  18  31
ATOM     31  C   UNL A   1      32.983  28.941  26.609  1.00  0.00    -0.019 A 
ATOM     32  C   UNL A   1      34.691  28.389  26.633  1.00  0.00     0.012 A 
ATOM     33  C   UNL A   1      32.596  30.505  27.355  1.00  0.00     0.058 A 
ATOM     34  C   UNL A   1      36.097  29.634  27.382  1.00  0.00     0.051 A 
ATOM     35  C   UNL A   1      33.852  31.553  28.048  1.00  0.00     0.166 A 
ATOM     36  C   UNL A   1      35.540  31.183  28.077  1.00  0.00     0.165 A 
ATOM     37  O   UNL A   1      33.779  32.932  28.066  1.00  0.00    -0.454 OA
ATOM     38  O   UNL A   1      36.228  32.361  28.094  1.00  0.00    -0.454 OA
ATOM     39  C   UNL A   1      35.159  33.291  27.712  1.00  0.00     0.468 C 
ENDBRANCH  18  31
ENDBRANCH  14  17
ENDBRANCH   8  13
ENDBRANCH   5   7
ENDBRANCH   4   5
ENDBRANCH   3   4
ENDBRANCH   2   3
ENDBRANCH   1   2
BRANCH   1  40
ATOM     40  C   UNL A   1      41.350  20.295  26.530  1.00  0.00     0.188 C 
BRANCH  40  41
ATOM     41  C   UNL A   1      42.453  19.347  26.024  1.00  0.00     0.188 C 
BRANCH  41  42
ATOM     42  O   UNL A   1      43.220  19.854  24.952  1.00  0.00    -0.376 OA
BRANCH  42  43
ATOM     43  C   UNL A   1      44.287  20.729  25.283  1.00  0.00     0.202 C 
BRANCH  43  44
ATOM     44  C   UNL A   1      44.148  22.188  24.805  1.00  0.00     0.261 C 
BRANCH  44  45
ATOM     45  O   UNL A   1      44.540  23.204  25.749  1.00  0.00    -0.460 OA
BRANCH  45  46
ATOM     46  C   UNL A   1      45.256  24.242  25.254  1.00  0.00     0.338 C 
ATOM     47  O   UNL A   1      45.909  24.250  24.225  1.00  0.00    -0.246 OA
BRANCH  46  48
ATOM     48  C   UNL A   1      44.928  25.461  26.034  1.00  0.00     0.060 A 
ATOM     49  C   UNL A   1      44.483  26.593  25.338  1.00  0.00     0.016 A 
ATOM     50  C   UNL A   1      45.067  25.505  27.423  1.00  0.00     0.016 A 
ATOM     51  C   UNL A   1      44.223  27.782  26.021  1.00  0.00     0.010 A 
ATOM     52  C   UNL A   1      44.819  26.706  28.106  1.00  0.00     0.010 A 
ATOM     53  C   UNL A   1      44.432  27.862  27.405  1.00  0.00    -0.014 A 
BRANCH  53  54
ATOM     54  C   UNL A   1      44.404  29.195  28.067  1.00  0.00     0.031 A 
ATOM     55  C   UNL A   1      45.566  30.132  27.872  1.00  0.00     0.074 A 
ATOM     56  C   UNL A   1      43.340  29.601  28.784  1.00  0.00     0.049 A 
ATOM     57  N   UNL A   1      45.735  31.356  28.307  1.00  0.00    -0.248 NA
ATOM     58  C   UNL A   1      46.693  29.616  27.079  1.00  0.00     0.031 C 
ATOM     59  C   UNL A   1      42.146  28.806  29.045  1.00  0.00     0.029 A 
ATOM     60  N   UNL A   1      43.095  30.796  29.420  1.00  0.00    -0.354 N 
ATOM     61  C   UNL A   1      46.982  31.754  27.843  1.00  0.00     0.074 A 
ATOM     62  C   UNL A   1      47.544  30.630  27.126  1.00  0.00     0.031 C 
ATOM     63  C   UNL A   1      41.288  29.535  29.782  1.00  0.00     0.029 A 
ATOM     64  C   UNL A   1      41.883  30.841  30.063  1.00  0.00     0.049 A 
ATOM     65  H   UNL A   1      43.730  31.549  29.413  1.00  0.00     0.167 HD
ATOM     66  C   UNL A   1      47.601  32.951  27.991  1.00  0.00     0.037 A 
ATOM     67  C   UNL A   1      41.320  31.820  30.799  1.00  0.00     0.037 A 
ATOM     68  C   UNL A   1      47.053  34.072  28.709  1.00  0.00     0.049 A 
ATOM     69  C   UNL A   1      42.051  33.126  30.988  1.00  0.00     0.074 A 
ATOM     70  C   UNL A   1      47.602  35.330  28.895  1.00  0.00     0.029 A 
ATOM     71  N   UNL A   1      45.835  34.069  29.371  1.00  0.00    -0.354 N 
ATOM     72  N   UNL A   1      43.210  33.507  30.511  1.00  0.00    -0.248 NA
ATOM     73  C   UNL A   1      41.385  34.142  31.816  1.00  0.00     0.031 C 
ATOM     74  C   UNL A   1      46.743  36.068  29.718  1.00  0.00     0.029 A 
ATOM     75  C   UNL A   1      45.626  35.295  29.987  1.00  0.00     0.049 A 
ATOM     76  H   UNL A   1      45.210  33.309  29.400  1.00  0.00     0.167 HD
ATOM     77  C   UNL A   1      43.399  34.811  30.955  1.00  0.00     0.074 A 
ATOM     78  C   UNL A   1      42.222  35.164  31.720  1.00  0.00     0.031 C 
ATOM     79  C   UNL A   1      44.452  35.642  30.746  1.00  0.00     0.037 A 
BRANCH  66  80
ATOM     80  C   UNL A   1      48.965  33.102  27.379  1.00  0.00     0.064 A 
ATOM     81  C   UNL A   1      49.159  33.761  26.156  1.00  0.00     0.173 A 
ATOM     82  C   UNL A   1      50.099  32.606  28.043  1.00  0.00     0.173 A 
ATOM     83  F   UNL A   1      48.107  34.241  25.474  1.00  0.00    -0.203 F 
ATOM     84  C   UNL A   1      50.432  33.895  25.606  1.00  0.00     0.198 A 
ATOM     85  C   UNL A   1      51.373  32.771  27.506  1.00  0.00     0.198 A 
ATOM     86  F   UNL A   1      49.973  31.971  29.217  1.00  0.00    -0.203 F 
ATOM     87  F   UNL A   1      50.585  34.485  24.413  1.00  0.00    -0.200 F 
ATOM     88  C   UNL A   1      51.538  33.408  26.285  1.00  0.00     0.200 A 
ATOM     89  F   UNL A   1      52.443  32.313  28.171  1.00  0.00    -0.200 F 
ATOM     90  F   UNL A   1      52.763  33.545  25.759  1.00  0.00    -0.200 F 
ENDBRANCH  66  80
BRANCH  67  91
ATOM     91  C   UNL A   1      39.985  31.610  31.424  1.00  0.00     0.064 A 
ATOM     92  C   UNL A   1      38.820  32.135  30.844  1.00  0.00     0.173 A 
ATOM     93  C   UNL A   1      39.853  30.915  32.634  1.00  0.00     0.173 A 
ATOM     94  F   UNL A   1      38.897  32.836  29.703  1.00  0.00    -0.203 F 
ATOM     95  C   UNL A   1      37.580  31.994  31.466  1.00  0.00     0.198 A 
ATOM     96  C   UNL A   1      38.609  30.745  33.236  1.00  0.00     0.198 A 
ATOM     97  F   UNL A   1      40.936  30.399  33.233  1.00  0.00    -0.203 F 
ATOM     98  F   UNL A   1      36.493  32.560  30.923  1.00  0.00    -0.200 F 
ATOM     99  C   UNL A   1      37.474  31.293  32.658  1.00  0.00     0.200 A 
ATOM    100  F   UNL A   1      38.510  30.060  34.384  1.00  0.00    -0.200 F 
ATOM    101  F   UNL A   1      36.283  31.161  33.256  1.00  0.00    -0.200 F 
ENDBRANCH  67  91
BRANCH  79 102
ATOM    102  C   UNL A   1      44.359  37.032  31.317  1.00  0.00     0.064 A 
ATOM    103  C   UNL A   1      43.958  38.131  30.540  1.00  0.00     0.173 A 
ATOM    104  C   UNL A   1      44.672  37.267  32.665  1.00  0.00     0.173 A 
ATOM    105  F   UNL A   1      43.657  37.966  29.243  1.00  0.00    -0.203 F 
ATOM    106  C   UNL A   1      43.923  39.416  31.078  1.00  0.00     0.198 A 
ATOM    107  C   UNL A   1      44.599  38.548  33.209  1.00  0.00     0.198 A 
ATOM    108  F   UNL A   1      45.047  36.255  33.460  1.00  0.00    -0.203 F 
ATOM    109  F   UNL A   1      43.607  40.458  30.296  1.00  0.00    -0.200 F 
ATOM    110  C   UNL A   1      44.239  39.622  32.412  1.00  0.00     0.200 A 
ATOM    111  F   UNL A   1      44.887  38.742  34.504  1.00  0.00    -0.200 F 
ATOM    112  F   UNL A   1      44.208  40.860  32.925  1.00  0.00    -0.200 F 
ENDBRANCH  79 102
ENDBRANCH  53  54
ENDBRANCH  46  48
ENDBRANCH  45  46
ENDBRANCH  44  45
ENDBRANCH  43  44
ENDBRANCH  42  43
ENDBRANCH  41  42
ENDBRANCH  40  41
ENDBRANCH   1  40
TORSDOF 23
ENDMDL
MODEL 3
REMARK VINA RESULT:      -8.7      8.854     14.191
REMARK SMILES COc1ccccc1C(=O)N/C(=C/c1ccc2c(c1)OCO2)C(=O)Nc1ccc(C(=O)OCCOCCOCCOC(=O)c2ccc(-c3c4nc(c(-c5c(F)c(F)c(F)c(F)c5F)c5ccc([nH]5)c(-c5c(F)c(F)c(F)c(F)c5F)c5nc(c(-c6c(F)c(F)c(F)c(F)c6F)c6ccc3[nH]6)C=C5)C=C4)cc2)cc1
REMARK SMILES IDX 35 1 34 2 33 3 32 4 30 5 31 6 29 7 26 8 27 9 108 10 28 11
REMARK SMILES IDX 107 12 25 13 23 14 24 15 12 17 13 18 11 19 9 20 10 21 8 23
REMARK SMILES IDX 3 24 4 25 5 26 7 27 6 28 2 29 1 30 14 31 15 32 19 33 16 34
REMARK SMILES IDX 18 35 17 36 20 37 22 38 21 39 36 40 37 41 38 42 39 43 40 44
REMARK SMILES IDX 41 45 42 46 43 47 44 48 45 49 106 50 46 51 105 52 47 53
REMARK SMILES IDX 48 54 49 55 99 56 50 57 104 58 98 59 100 60 51 61 103 62
REMARK SMILES IDX 97 63 96 64 52 66 84 67 64 68 83 69 65 70 68 71 82 72 101 73
REMARK SMILES IDX 66 74 67 75 81 77 102 78 69 79 53 80 54 81 62 82 55 83 56 84
REMARK SMILES IDX 60 85 63 86 57 87 58 88 61 89 59 90 85 91 86 92 94 93 87 94
REMARK SMILES IDX 88 95 92 96 95 97 89 98 90 99 93 100 91 101 70 102 71 103
REMARK SMILES IDX 79 104 72 105 73 106 77 107 80 108 74 109 75 110 78 111
REMARK SMILES IDX 76 112
REMARK H PARENT 25 16 11 22 100 65 68 76
REMARK Flexibility Score: inf
ROOT
ATOM      1  O   UNL A   1      40.096  19.626  26.575  1.00  0.00    -0.376 OA
ENDROOT
BRANCH   1   2
ATOM      2  C   UNL A   1      39.446  19.577  25.305  1.00  0.00     0.202 C 
BRANCH   2   3
ATOM      3  C   UNL A   1      37.905  19.623  25.245  1.00  0.00     0.261 C 
BRANCH   3   4
ATOM      4  O   UNL A   1      37.362  20.886  24.810  1.00  0.00    -0.460 OA
BRANCH   4   5
ATOM      5  C   UNL A   1      37.458  21.891  25.707  1.00  0.00     0.338 C 
ATOM      6  O   UNL A   1      38.459  22.263  26.299  1.00  0.00    -0.246 OA
BRANCH   5   7
ATOM      7  C   UNL A   1      36.212  22.669  25.743  1.00  0.00     0.060 A 
ATOM      8  C   UNL A   1      33.165  24.807  25.963  1.00  0.00     0.041 A 
ATOM      9  C   UNL A   1      34.627  25.486  25.232  1.00  0.00     0.027 A 
ATOM     10  C   UNL A   1      33.193  23.121  26.481  1.00  0.00     0.027 A 
ATOM     11  C   UNL A   1      36.305  24.366  25.149  1.00  0.00     0.018 A 
ATOM     12  C   UNL A   1      34.658  22.093  26.368  1.00  0.00     0.018 A 
BRANCH   8  13
ATOM     13  N   UNL A   1      32.488  25.783  26.722  1.00  0.00    -0.321 N 
ATOM     14  C   UNL A   1      31.447  26.518  26.150  1.00  0.00     0.272 C 
ATOM     15  O   UNL A   1      30.291  26.411  26.557  1.00  0.00    -0.267 OA
ATOM     16  H   UNL A   1      32.750  25.945  27.657  1.00  0.00     0.170 HD
BRANCH  14  17
ATOM     17  C   UNL A   1      31.788  27.591  25.099  1.00  0.00     0.108 C 
ATOM     18  C   UNL A   1      32.655  28.630  25.277  1.00  0.00     0.040 C 
BRANCH  17  19
ATOM     19  N   UNL A   1      31.182  27.517  23.851  1.00  0.00    -0.317 N 
ATOM     20  C   UNL A   1      31.026  26.559  22.873  1.00  0.00     0.259 C 
ATOM     21  O   UNL A   1      30.333  26.853  21.894  1.00  0.00    -0.269 OA
ATOM     22  H   UNL A   1      30.753  28.368  23.601  1.00  0.00     0.170 HD
BRANCH  20  23
ATOM     23  C   UNL A   1      31.701  25.250  22.854  1.00  0.00     0.082 A 
ATOM     24  C   UNL A   1      32.995  24.985  22.393  1.00  0.00     0.131 A 
ATOM     25  C   UNL A   1      33.398  23.646  22.260  1.00  0.00     0.047 A 
ATOM     26  C   UNL A   1      32.601  22.599  22.727  1.00  0.00     0.004 A 
ATOM     27  C   UNL A   1      30.939  24.199  23.403  1.00  0.00     0.018 A 
ATOM     28  C   UNL A   1      31.393  22.882  23.352  1.00  0.00     0.001 A 
BRANCH  24  29
ATOM     29  O   UNL A   1      33.964  25.863  21.993  1.00  0.00    -0.496 OA
ATOM     30  C   UNL A   1      33.574  27.190  21.664  1.00  0.00     0.278 C 
ENDBRANCH  24  29
ENDBRANCH  20  23
ENDBRANCH  17  19
BRANCH  18  31
ATOM     31  C   UNL A   1      33.185  29.081  26.583  1.00  0.00    -0.019 A 
ATOM     32  C   UNL A   1      34.881  28.510  26.725  1.00  0.00     0.012 A 
ATOM     33  C   UNL A   1      32.761  30.642  27.314  1.00  0.00     0.058 A 
ATOM     34  C   UNL A   1      36.242  29.733  27.584  1.00  0.00     0.051 A 
ATOM     35  C   UNL A   1      33.975  31.671  28.106  1.00  0.00     0.166 A 
ATOM     36  C   UNL A   1      35.652  31.282  28.253  1.00  0.00     0.165 A 
ATOM     37  O   UNL A   1      33.915  33.050  28.131  1.00  0.00    -0.454 OA
ATOM     38  O   UNL A   1      36.349  32.453  28.330  1.00  0.00    -0.454 OA
ATOM     39  C   UNL A   1      35.321  33.397  27.881  1.00  0.00     0.468 C 
ENDBRANCH  18  31
ENDBRANCH  14  17
ENDBRANCH   8  13
ENDBRANCH   5   7
ENDBRANCH   4   5
ENDBRANCH   3   4
ENDBRANCH   2   3
ENDBRANCH   1   2
BRANCH   1  40
ATOM     40  C   UNL A   1      41.305  20.366  26.693  1.00  0.00     0.188 C 
BRANCH  40  41
ATOM     41  C   UNL A   1      42.640  19.680  26.350  1.00  0.00     0.188 C 
BRANCH  41  42
ATOM     42  O   UNL A   1      43.233  20.112  25.144  1.00  0.00    -0.376 OA
BRANCH  42  43
ATOM     43  C   UNL A   1      44.349  20.982  25.251  1.00  0.00     0.202 C 
BRANCH  43  44
ATOM     44  C   UNL A   1      44.155  22.414  24.714  1.00  0.00     0.261 C 
BRANCH  44  45
ATOM     45  O   UNL A   1      43.324  23.282  25.510  1.00  0.00    -0.460 OA
BRANCH  45  46
ATOM     46  C   UNL A   1      43.845  23.699  26.688  1.00  0.00     0.338 C 
ATOM     47  O   UNL A   1      43.665  23.194  27.783  1.00  0.00    -0.246 OA
BRANCH  46  48
ATOM     48  C   UNL A   1      44.875  24.732  26.414  1.00  0.00     0.060 A 
ATOM     49  C   UNL A   1      45.843  24.981  27.397  1.00  0.00     0.016 A 
ATOM     50  C   UNL A   1      44.887  25.460  25.222  1.00  0.00     0.016 A 
ATOM     51  C   UNL A   1      46.792  25.986  27.211  1.00  0.00     0.010 A 
ATOM     52  C   UNL A   1      45.834  26.481  25.043  1.00  0.00     0.010 A 
ATOM     53  C   UNL A   1      46.769  26.775  26.053  1.00  0.00    -0.014 A 
BRANCH  53  54
ATOM     54  C   UNL A   1      47.613  28.000  25.991  1.00  0.00     0.031 A 
ATOM     55  C   UNL A   1      46.987  29.334  26.299  1.00  0.00     0.074 A 
ATOM     56  C   UNL A   1      48.931  27.932  25.727  1.00  0.00     0.049 A 
ATOM     57  N   UNL A   1      47.536  30.521  26.358  1.00  0.00    -0.248 NA
ATOM     58  C   UNL A   1      45.541  29.328  26.574  1.00  0.00     0.031 C 
ATOM     59  C   UNL A   1      49.669  26.712  25.423  1.00  0.00     0.029 A 
ATOM     60  N   UNL A   1      49.883  28.923  25.679  1.00  0.00    -0.354 N 
ATOM     61  C   UNL A   1      46.509  31.400  26.675  1.00  0.00     0.074 A 
ATOM     62  C   UNL A   1      45.295  30.616  26.759  1.00  0.00     0.031 C 
ATOM     63  C   UNL A   1      50.963  27.022  25.226  1.00  0.00     0.029 A 
ATOM     64  C   UNL A   1      51.140  28.467  25.369  1.00  0.00     0.049 A 
ATOM     65  H   UNL A   1      49.682  29.872  25.853  1.00  0.00     0.167 HD
ATOM     66  C   UNL A   1      46.568  32.737  26.889  1.00  0.00     0.037 A 
ATOM     67  C   UNL A   1      52.299  29.137  25.211  1.00  0.00     0.037 A 
ATOM     68  C   UNL A   1      47.769  33.526  26.800  1.00  0.00     0.049 A 
ATOM     69  C   UNL A   1      52.330  30.632  25.407  1.00  0.00     0.074 A 
ATOM     70  C   UNL A   1      47.928  34.885  27.018  1.00  0.00     0.029 A 
ATOM     71  N   UNL A   1      49.018  33.031  26.455  1.00  0.00    -0.354 N 
ATOM     72  N   UNL A   1      51.362  31.446  25.749  1.00  0.00    -0.248 NA
ATOM     73  C   UNL A   1      53.624  31.299  25.203  1.00  0.00     0.031 C 
ATOM     74  C   UNL A   1      49.259  35.221  26.748  1.00  0.00     0.029 A 
ATOM     75  C   UNL A   1      49.947  34.062  26.429  1.00  0.00     0.049 A 
ATOM     76  H   UNL A   1      49.216  32.087  26.256  1.00  0.00     0.167 HD
ATOM     77  C   UNL A   1      51.933  32.711  25.827  1.00  0.00     0.074 A 
ATOM     78  C   UNL A   1      53.339  32.552  25.521  1.00  0.00     0.031 C 
ATOM     79  C   UNL A   1      51.346  33.898  26.126  1.00  0.00     0.037 A 
BRANCH  66  80
ATOM     80  C   UNL A   1      45.283  33.441  27.217  1.00  0.00     0.064 A 
ATOM     81  C   UNL A   1      44.823  33.564  28.538  1.00  0.00     0.173 A 
ATOM     82  C   UNL A   1      44.516  34.029  26.199  1.00  0.00     0.173 A 
ATOM     83  F   UNL A   1      45.510  33.008  29.547  1.00  0.00    -0.203 F 
ATOM     84  C   UNL A   1      43.630  34.224  28.823  1.00  0.00     0.198 A 
ATOM     85  C   UNL A   1      43.341  34.717  26.492  1.00  0.00     0.198 A 
ATOM     86  F   UNL A   1      44.910  33.946  24.921  1.00  0.00    -0.203 F 
ATOM     87  F   UNL A   1      43.186  34.285  30.086  1.00  0.00    -0.200 F 
ATOM     88  C   UNL A   1      42.895  34.808  27.802  1.00  0.00     0.200 A 
ATOM     89  F   UNL A   1      42.640  35.293  25.506  1.00  0.00    -0.200 F 
ATOM     90  F   UNL A   1      41.752  35.450  28.080  1.00  0.00    -0.200 F 
ENDBRANCH  66  80
BRANCH  67  91
ATOM     91  C   UNL A   1      53.541  28.403  24.842  1.00  0.00     0.064 A 
ATOM     92  C   UNL A   1      53.894  28.199  23.500  1.00  0.00     0.173 A 
ATOM     93  C   UNL A   1      54.378  27.857  25.825  1.00  0.00     0.173 A 
ATOM     94  F   UNL A   1      53.109  28.673  22.521  1.00  0.00    -0.203 F 
ATOM     95  C   UNL A   1      55.023  27.455  23.157  1.00  0.00     0.198 A 
ATOM     96  C   UNL A   1      55.524  27.143  25.482  1.00  0.00     0.198 A 
ATOM     97  F   UNL A   1      54.083  28.018  27.123  1.00  0.00    -0.203 F 
ATOM     98  F   UNL A   1      55.301  27.220  21.867  1.00  0.00    -0.200 F 
ATOM     99  C   UNL A   1      55.840  26.933  24.149  1.00  0.00     0.200 A 
ATOM    100  F   UNL A   1      56.316  26.648  26.444  1.00  0.00    -0.200 F 
ATOM    101  F   UNL A   1      56.922  26.215  23.819  1.00  0.00    -0.200 F 
ENDBRANCH  67  91
BRANCH  79 102
ATOM    102  C   UNL A   1      52.233  35.113  26.183  1.00  0.00     0.064 A 
ATOM    103  C   UNL A   1      52.414  35.955  25.074  1.00  0.00     0.173 A 
ATOM    104  C   UNL A   1      52.911  35.441  27.367  1.00  0.00     0.173 A 
ATOM    105  F   UNL A   1      51.799  35.683  23.913  1.00  0.00    -0.203 F 
ATOM    106  C   UNL A   1      53.275  37.049  25.135  1.00  0.00     0.198 A 
ATOM    107  C   UNL A   1      53.742  36.558  27.436  1.00  0.00     0.198 A 
ATOM    108  F   UNL A   1      52.767  34.682  28.463  1.00  0.00    -0.203 F 
ATOM    109  F   UNL A   1      53.486  37.794  24.042  1.00  0.00    -0.200 F 
ATOM    110  C   UNL A   1      53.935  37.351  26.317  1.00  0.00     0.200 A 
ATOM    111  F   UNL A   1      54.364  36.858  28.585  1.00  0.00    -0.200 F 
ATOM    112  F   UNL A   1      54.766  38.401  26.372  1.00  0.00    -0.200 F 
ENDBRANCH  79 102
ENDBRANCH  53  54
ENDBRANCH  46  48
ENDBRANCH  45  46
ENDBRANCH  44  45
ENDBRANCH  43  44
ENDBRANCH  42  43
ENDBRANCH  41  42
ENDBRANCH  40  41
ENDBRANCH   1  40
TORSDOF 23
ENDMDL
