MODEL 1
REMARK VINA RESULT:     -11.0      0.000      0.000
REMARK SMILES O=C(Cc1ccccc1Nc1c(Cl)cccc1Cl)OCCOCCOCCOC(=O)c1ccc(-c2c3nc(c(-c4c(F)c(F)c(F)c(F)c4F)c4ccc([nH]4)c(-c4c(F)c(F)c(F)c(F)c4F)c4nc(c(-c5c(F)c(F)c(F)c(F)c5F)c5ccc2[nH]5)C=C4)C=C3)cc1
REMARK SMILES IDX 23 1 22 2 21 3 20 4 19 5 2 6 1 7 3 8 4 9 5 10 9 11 6 12 8 13
REMARK SMILES IDX 7 14 10 15 11 17 12 18 17 19 13 20 14 21 16 22 18 23 15 24
REMARK SMILES IDX 24 25 25 26 26 27 27 28 28 29 29 30 30 31 31 32 32 33 93 34
REMARK SMILES IDX 33 35 92 36 34 37 35 38 36 39 86 40 37 41 91 42 85 43 87 44
REMARK SMILES IDX 38 45 90 46 84 47 83 48 39 50 71 51 51 52 70 53 52 54 55 55
REMARK SMILES IDX 69 56 88 57 53 58 54 59 68 61 89 62 56 63 40 64 41 65 49 66
REMARK SMILES IDX 42 67 43 68 47 69 50 70 44 71 45 72 48 73 46 74 72 75 73 76
REMARK SMILES IDX 81 77 74 78 75 79 79 80 82 81 76 82 77 83 80 84 78 85 57 86
REMARK SMILES IDX 58 87 66 88 59 89 60 90 64 91 67 92 61 93 62 94 65 95 63 96
REMARK H PARENT 10 16 87 49 55 60
REMARK Flexibility Score: inf
ROOT
ATOM      1  C   UNL A   1      42.097  18.876  26.207  1.00  0.00     0.188 C 
ENDROOT
BRANCH   1   2
ATOM      2  O   UNL A   1      41.275  19.859  25.606  1.00  0.00    -0.376 OA
BRANCH   2   3
ATOM      3  C   UNL A   1      40.758  20.873  26.443  1.00  0.00     0.202 C 
BRANCH   3   4
ATOM      4  C   UNL A   1      39.354  21.289  26.016  1.00  0.00     0.261 C 
BRANCH   4   5
ATOM      5  O   UNL A   1      39.135  22.709  25.846  1.00  0.00    -0.463 OA
BRANCH   5   6
ATOM      6  C   UNL A   1      37.980  23.393  25.968  1.00  0.00     0.310 C 
ATOM      7  O   UNL A   1      37.903  24.313  26.783  1.00  0.00    -0.252 OA
BRANCH   6   8
ATOM      8  C   UNL A   1      36.754  22.956  25.205  1.00  0.00     0.160 C 
BRANCH   8   9
ATOM      9  C   UNL A   1      35.455  22.865  25.972  1.00  0.00    -0.013 A 
ATOM     10  C   UNL A   1      35.166  21.665  26.655  1.00  0.00     0.006 A 
ATOM     11  C   UNL A   1      34.486  23.898  25.936  1.00  0.00     0.042 A 
ATOM     12  C   UNL A   1      33.963  21.494  27.330  1.00  0.00     0.000 A 
ATOM     13  C   UNL A   1      33.270  23.683  26.605  1.00  0.00     0.026 A 
ATOM     14  C   UNL A   1      33.012  22.502  27.301  1.00  0.00     0.002 A 
BRANCH  11  15
ATOM     15  N   UNL A   1      34.753  25.126  25.282  1.00  0.00    -0.353 N 
ATOM     16  H   UNL A   1      35.601  25.553  25.542  1.00  0.00     0.167 HD
BRANCH  15  17
ATOM     17  C   UNL A   1      33.997  25.846  24.315  1.00  0.00     0.076 A 
ATOM     18  C   UNL A   1      33.653  27.189  24.591  1.00  0.00     0.066 A 
ATOM     19  C   UNL A   1      33.634  25.341  23.050  1.00  0.00     0.066 A 
ATOM     20  Cl  UNL A   1      33.990  27.878  26.145  1.00  0.00    -0.082 Cl
ATOM     21  C   UNL A   1      33.044  28.008  23.636  1.00  0.00     0.023 A 
ATOM     22  C   UNL A   1      33.040  26.169  22.085  1.00  0.00     0.023 A 
ATOM     23  Cl  UNL A   1      33.786  23.664  22.643  1.00  0.00    -0.082 Cl
ATOM     24  C   UNL A   1      32.759  27.504  22.371  1.00  0.00     0.003 A 
ENDBRANCH  15  17
ENDBRANCH  11  15
ENDBRANCH   8   9
ENDBRANCH   6   8
ENDBRANCH   5   6
ENDBRANCH   4   5
ENDBRANCH   3   4
ENDBRANCH   2   3
ENDBRANCH   1   2
BRANCH   1  25
ATOM     25  C   UNL A   1      43.561  18.990  25.755  1.00  0.00     0.188 C 
BRANCH  25  26
ATOM     26  O   UNL A   1      43.874  19.522  24.473  1.00  0.00    -0.376 OA
BRANCH  26  27
ATOM     27  C   UNL A   1      44.531  20.779  24.364  1.00  0.00     0.202 C 
BRANCH  27  28
ATOM     28  C   UNL A   1      44.115  21.878  25.345  1.00  0.00     0.261 C 
BRANCH  28  29
ATOM     29  O   UNL A   1      43.470  23.010  24.728  1.00  0.00    -0.460 OA
BRANCH  29  30
ATOM     30  C   UNL A   1      44.094  24.199  24.917  1.00  0.00     0.338 C 
ATOM     31  O   UNL A   1      45.147  24.567  24.427  1.00  0.00    -0.246 OA
BRANCH  30  32
ATOM     32  C   UNL A   1      43.266  25.110  25.734  1.00  0.00     0.060 A 
ATOM     33  C   UNL A   1      43.776  26.388  25.995  1.00  0.00     0.016 A 
ATOM     34  C   UNL A   1      42.092  24.681  26.358  1.00  0.00     0.016 A 
ATOM     35  C   UNL A   1      43.152  27.215  26.929  1.00  0.00     0.010 A 
ATOM     36  C   UNL A   1      41.473  25.509  27.306  1.00  0.00     0.010 A 
ATOM     37  C   UNL A   1      42.027  26.762  27.631  1.00  0.00    -0.014 A 
BRANCH  37  38
ATOM     38  C   UNL A   1      41.561  27.532  28.816  1.00  0.00     0.031 A 
ATOM     39  C   UNL A   1      42.316  27.409  30.114  1.00  0.00     0.074 A 
ATOM     40  C   UNL A   1      40.528  28.389  28.731  1.00  0.00     0.049 A 
ATOM     41  N   UNL A   1      42.126  28.032  31.251  1.00  0.00    -0.248 NA
ATOM     42  C   UNL A   1      43.442  26.463  30.129  1.00  0.00     0.031 C 
ATOM     43  C   UNL A   1      39.730  28.630  27.534  1.00  0.00     0.029 A 
ATOM     44  N   UNL A   1      39.977  29.217  29.678  1.00  0.00    -0.354 N 
ATOM     45  C   UNL A   1      43.117  27.572  32.106  1.00  0.00     0.074 A 
ATOM     46  C   UNL A   1      43.878  26.580  31.375  1.00  0.00     0.031 C 
ATOM     47  C   UNL A   1      38.776  29.532  27.821  1.00  0.00     0.029 A 
ATOM     48  C   UNL A   1      38.893  29.927  29.224  1.00  0.00     0.049 A 
ATOM     49  H   UNL A   1      40.325  29.295  30.596  1.00  0.00     0.167 HD
ATOM     50  C   UNL A   1      43.388  27.953  33.377  1.00  0.00     0.037 A 
ATOM     51  C   UNL A   1      38.082  30.790  29.868  1.00  0.00     0.037 A 
ATOM     52  C   UNL A   1      42.631  28.926  34.121  1.00  0.00     0.049 A 
ATOM     53  C   UNL A   1      38.362  31.149  31.305  1.00  0.00     0.074 A 
ATOM     54  C   UNL A   1      42.830  29.370  35.417  1.00  0.00     0.029 A 
ATOM     55  N   UNL A   1      41.522  29.602  33.634  1.00  0.00    -0.354 N 
ATOM     56  N   UNL A   1      39.323  30.731  32.092  1.00  0.00    -0.248 NA
ATOM     57  C   UNL A   1      37.453  32.118  31.935  1.00  0.00     0.031 C 
ATOM     58  C   UNL A   1      41.818  30.286  35.729  1.00  0.00     0.029 A 
ATOM     59  C   UNL A   1      41.017  30.447  34.611  1.00  0.00     0.049 A 
ATOM     60  H   UNL A   1      41.150  29.499  32.730  1.00  0.00     0.167 HD
ATOM     61  C   UNL A   1      39.149  31.402  33.297  1.00  0.00     0.074 A 
ATOM     62  C   UNL A   1      38.003  32.270  33.131  1.00  0.00     0.031 C 
ATOM     63  C   UNL A   1      39.875  31.306  34.439  1.00  0.00     0.037 A 
BRANCH  50  64
ATOM     64  C   UNL A   1      44.561  27.308  34.054  1.00  0.00     0.064 A 
ATOM     65  C   UNL A   1      44.425  26.100  34.755  1.00  0.00     0.173 A 
ATOM     66  C   UNL A   1      45.839  27.881  33.972  1.00  0.00     0.173 A 
ATOM     67  F   UNL A   1      43.222  25.519  34.873  1.00  0.00    -0.203 F 
ATOM     68  C   UNL A   1      45.523  25.498  35.365  1.00  0.00     0.198 A 
ATOM     69  C   UNL A   1      46.939  27.263  34.562  1.00  0.00     0.198 A 
ATOM     70  F   UNL A   1      46.022  29.033  33.311  1.00  0.00    -0.203 F 
ATOM     71  F   UNL A   1      45.363  24.365  36.062  1.00  0.00    -0.200 F 
ATOM     72  C   UNL A   1      46.780  26.077  35.262  1.00  0.00     0.200 A 
ATOM     73  F   UNL A   1      48.155  27.817  34.453  1.00  0.00    -0.200 F 
ATOM     74  F   UNL A   1      47.837  25.493  35.843  1.00  0.00    -0.200 F 
ENDBRANCH  50  64
BRANCH  51  75
ATOM     75  C   UNL A   1      36.914  31.377  29.161  1.00  0.00     0.064 A 
ATOM     76  C   UNL A   1      36.888  32.729  28.795  1.00  0.00     0.173 A 
ATOM     77  C   UNL A   1      35.782  30.600  28.874  1.00  0.00     0.173 A 
ATOM     78  F   UNL A   1      37.936  33.519  29.075  1.00  0.00    -0.203 F 
ATOM     79  C   UNL A   1      35.765  33.289  28.189  1.00  0.00     0.198 A 
ATOM     80  C   UNL A   1      34.670  31.154  28.244  1.00  0.00     0.198 A 
ATOM     81  F   UNL A   1      35.754  29.302  29.210  1.00  0.00    -0.203 F 
ATOM     82  F   UNL A   1      35.745  34.596  27.900  1.00  0.00    -0.200 F 
ATOM     83  C   UNL A   1      34.659  32.501  27.910  1.00  0.00     0.200 A 
ATOM     84  F   UNL A   1      33.606  30.387  27.971  1.00  0.00    -0.200 F 
ATOM     85  F   UNL A   1      33.577  33.040  27.333  1.00  0.00    -0.200 F 
ENDBRANCH  51  75
BRANCH  63  86
ATOM     86  C   UNL A   1      39.465  32.180  35.590  1.00  0.00     0.064 A 
ATOM     87  C   UNL A   1      38.528  31.751  36.543  1.00  0.00     0.173 A 
ATOM     88  C   UNL A   1      40.027  33.456  35.753  1.00  0.00     0.173 A 
ATOM     89  F   UNL A   1      37.952  30.546  36.426  1.00  0.00    -0.203 F 
ATOM     90  C   UNL A   1      38.145  32.579  37.595  1.00  0.00     0.198 A 
ATOM     91  C   UNL A   1      39.663  34.269  36.822  1.00  0.00     0.198 A 
ATOM     92  F   UNL A   1      40.933  33.912  34.876  1.00  0.00    -0.203 F 
ATOM     93  F   UNL A   1      37.207  32.169  38.461  1.00  0.00    -0.200 F 
ATOM     94  C   UNL A   1      38.715  33.835  37.737  1.00  0.00     0.200 A 
ATOM     95  F   UNL A   1      40.225  35.478  36.965  1.00  0.00    -0.200 F 
ATOM     96  F   UNL A   1      38.343  34.631  38.749  1.00  0.00    -0.200 F 
ENDBRANCH  63  86
ENDBRANCH  37  38
ENDBRANCH  30  32
ENDBRANCH  29  30
ENDBRANCH  28  29
ENDBRANCH  27  28
ENDBRANCH  26  27
ENDBRANCH  25  26
ENDBRANCH   1  25
TORSDOF 20
ENDMDL
MODEL 2
REMARK VINA RESULT:     -10.7      3.260      8.817
REMARK SMILES O=C(Cc1ccccc1Nc1c(Cl)cccc1Cl)OCCOCCOCCOC(=O)c1ccc(-c2c3nc(c(-c4c(F)c(F)c(F)c(F)c4F)c4ccc([nH]4)c(-c4c(F)c(F)c(F)c(F)c4F)c4nc(c(-c5c(F)c(F)c(F)c(F)c5F)c5ccc2[nH]5)C=C4)C=C3)cc1
REMARK SMILES IDX 23 1 22 2 21 3 20 4 19 5 2 6 1 7 3 8 4 9 5 10 9 11 6 12 8 13
REMARK SMILES IDX 7 14 10 15 11 17 12 18 17 19 13 20 14 21 16 22 18 23 15 24
REMARK SMILES IDX 24 25 25 26 26 27 27 28 28 29 29 30 30 31 31 32 32 33 93 34
REMARK SMILES IDX 33 35 92 36 34 37 35 38 36 39 86 40 37 41 91 42 85 43 87 44
REMARK SMILES IDX 38 45 90 46 84 47 83 48 39 50 71 51 51 52 70 53 52 54 55 55
REMARK SMILES IDX 69 56 88 57 53 58 54 59 68 61 89 62 56 63 40 64 41 65 49 66
REMARK SMILES IDX 42 67 43 68 47 69 50 70 44 71 45 72 48 73 46 74 72 75 73 76
REMARK SMILES IDX 81 77 74 78 75 79 79 80 82 81 76 82 77 83 80 84 78 85 57 86
REMARK SMILES IDX 58 87 66 88 59 89 60 90 64 91 67 92 61 93 62 94 65 95 63 96
REMARK H PARENT 10 16 87 49 55 60
REMARK Flexibility Score: inf
ROOT
ATOM      1  C   UNL A   1      32.277  27.651  25.170  1.00  0.00     0.188 C 
ENDROOT
BRANCH   1   2
ATOM      2  O   UNL A   1      32.507  26.538  24.326  1.00  0.00    -0.376 OA
BRANCH   2   3
ATOM      3  C   UNL A   1      32.119  26.660  22.973  1.00  0.00     0.202 C 
BRANCH   3   4
ATOM      4  C   UNL A   1      32.977  25.784  22.065  1.00  0.00     0.261 C 
BRANCH   4   5
ATOM      5  O   UNL A   1      32.789  24.355  22.196  1.00  0.00    -0.463 OA
BRANCH   5   6
ATOM      6  C   UNL A   1      33.498  23.488  22.946  1.00  0.00     0.310 C 
ATOM      7  O   UNL A   1      34.686  23.297  22.691  1.00  0.00    -0.252 OA
BRANCH   6   8
ATOM      8  C   UNL A   1      32.811  22.666  24.009  1.00  0.00     0.160 C 
BRANCH   8   9
ATOM      9  C   UNL A   1      32.963  21.164  23.931  1.00  0.00    -0.013 A 
ATOM     10  C   UNL A   1      32.233  20.470  22.945  1.00  0.00     0.006 A 
ATOM     11  C   UNL A   1      33.727  20.436  24.877  1.00  0.00     0.042 A 
ATOM     12  C   UNL A   1      32.282  19.084  22.857  1.00  0.00     0.000 A 
ATOM     13  C   UNL A   1      33.734  19.035  24.777  1.00  0.00     0.026 A 
ATOM     14  C   UNL A   1      33.029  18.365  23.777  1.00  0.00     0.002 A 
BRANCH  11  15
ATOM     15  N   UNL A   1      34.494  21.102  25.864  1.00  0.00    -0.353 N 
ATOM     16  H   UNL A   1      34.101  21.091  26.766  1.00  0.00     0.167 HD
BRANCH  15  17
ATOM     17  C   UNL A   1      35.738  21.787  25.766  1.00  0.00     0.076 A 
ATOM     18  C   UNL A   1      35.777  23.164  26.085  1.00  0.00     0.066 A 
ATOM     19  C   UNL A   1      36.966  21.169  25.454  1.00  0.00     0.066 A 
ATOM     20  Cl  UNL A   1      34.311  24.029  26.410  1.00  0.00    -0.082 Cl
ATOM     21  C   UNL A   1      36.980  23.873  26.159  1.00  0.00     0.023 A 
ATOM     22  C   UNL A   1      38.175  21.877  25.547  1.00  0.00     0.023 A 
ATOM     23  Cl  UNL A   1      37.060  19.554  24.833  1.00  0.00    -0.082 Cl
ATOM     24  C   UNL A   1      38.184  23.221  25.913  1.00  0.00     0.003 A 
ENDBRANCH  15  17
ENDBRANCH  11  15
ENDBRANCH   8   9
ENDBRANCH   6   8
ENDBRANCH   5   6
ENDBRANCH   4   5
ENDBRANCH   3   4
ENDBRANCH   2   3
ENDBRANCH   1   2
BRANCH   1  25
ATOM     25  C   UNL A   1      31.382  28.707  24.505  1.00  0.00     0.188 C 
BRANCH  25  26
ATOM     26  O   UNL A   1      31.299  30.019  25.050  1.00  0.00    -0.376 OA
BRANCH  26  27
ATOM     27  C   UNL A   1      31.821  30.287  26.346  1.00  0.00     0.202 C 
BRANCH  27  28
ATOM     28  C   UNL A   1      31.694  31.718  26.874  1.00  0.00     0.261 C 
BRANCH  28  29
ATOM     29  O   UNL A   1      32.854  32.541  26.641  1.00  0.00    -0.460 OA
BRANCH  29  30
ATOM     30  C   UNL A   1      33.411  33.077  27.754  1.00  0.00     0.338 C 
ATOM     31  O   UNL A   1      32.887  33.834  28.552  1.00  0.00    -0.246 OA
BRANCH  30  32
ATOM     32  C   UNL A   1      34.764  32.528  27.988  1.00  0.00     0.060 A 
ATOM     33  C   UNL A   1      34.887  31.137  28.097  1.00  0.00     0.016 A 
ATOM     34  C   UNL A   1      35.860  33.354  28.248  1.00  0.00     0.016 A 
ATOM     35  C   UNL A   1      36.086  30.571  28.530  1.00  0.00     0.010 A 
ATOM     36  C   UNL A   1      37.062  32.783  28.694  1.00  0.00     0.010 A 
ATOM     37  C   UNL A   1      37.166  31.392  28.882  1.00  0.00    -0.014 A 
BRANCH  37  38
ATOM     38  C   UNL A   1      38.316  30.792  29.610  1.00  0.00     0.031 A 
ATOM     39  C   UNL A   1      38.569  31.191  31.041  1.00  0.00     0.074 A 
ATOM     40  C   UNL A   1      39.088  29.849  29.042  1.00  0.00     0.049 A 
ATOM     41  N   UNL A   1      39.472  30.752  31.882  1.00  0.00    -0.248 NA
ATOM     42  C   UNL A   1      37.677  32.219  31.600  1.00  0.00     0.031 C 
ATOM     43  C   UNL A   1      38.939  29.346  27.680  1.00  0.00     0.029 A 
ATOM     44  N   UNL A   1      40.154  29.145  29.547  1.00  0.00    -0.354 N 
ATOM     45  C   UNL A   1      39.244  31.429  33.071  1.00  0.00     0.074 A 
ATOM     46  C   UNL A   1      38.151  32.347  32.831  1.00  0.00     0.031 C 
ATOM     47  C   UNL A   1      39.891  28.426  27.449  1.00  0.00     0.029 A 
ATOM     48  C   UNL A   1      40.721  28.281  28.644  1.00  0.00     0.049 A 
ATOM     49  H   UNL A   1      40.481  29.250  30.470  1.00  0.00     0.167 HD
ATOM     50  C   UNL A   1      39.871  31.288  34.264  1.00  0.00     0.037 A 
ATOM     51  C   UNL A   1      41.792  27.471  28.764  1.00  0.00     0.037 A 
ATOM     52  C   UNL A   1      40.970  30.391  34.513  1.00  0.00     0.049 A 
ATOM     53  C   UNL A   1      42.517  27.380  30.082  1.00  0.00     0.074 A 
ATOM     54  C   UNL A   1      41.670  30.186  35.689  1.00  0.00     0.029 A 
ATOM     55  N   UNL A   1      41.533  29.552  33.563  1.00  0.00    -0.354 N 
ATOM     56  N   UNL A   1      42.271  28.002  31.209  1.00  0.00    -0.248 NA
ATOM     57  C   UNL A   1      43.658  26.454  30.148  1.00  0.00     0.031 C 
ATOM     58  C   UNL A   1      42.683  29.252  35.442  1.00  0.00     0.029 A 
ATOM     59  C   UNL A   1      42.583  28.841  34.123  1.00  0.00     0.049 A 
ATOM     60  H   UNL A   1      41.231  29.472  32.630  1.00  0.00     0.167 HD
ATOM     61  C   UNL A   1      43.207  27.527  32.120  1.00  0.00     0.074 A 
ATOM     62  C   UNL A   1      44.013  26.549  31.421  1.00  0.00     0.031 C 
ATOM     63  C   UNL A   1      43.383  27.872  33.420  1.00  0.00     0.037 A 
BRANCH  50  64
ATOM     64  C   UNL A   1      39.382  32.134  35.403  1.00  0.00     0.064 A 
ATOM     65  C   UNL A   1      38.455  31.638  36.333  1.00  0.00     0.173 A 
ATOM     66  C   UNL A   1      39.870  33.435  35.590  1.00  0.00     0.173 A 
ATOM     67  F   UNL A   1      37.948  30.405  36.190  1.00  0.00    -0.203 F 
ATOM     68  C   UNL A   1      38.020  32.424  37.398  1.00  0.00     0.198 A 
ATOM     69  C   UNL A   1      39.453  34.207  36.670  1.00  0.00     0.198 A 
ATOM     70  F   UNL A   1      40.761  33.953  34.730  1.00  0.00    -0.203 F 
ATOM     71  F   UNL A   1      37.105  31.945  38.252  1.00  0.00    -0.200 F 
ATOM     72  C   UNL A   1      38.525  33.705  37.569  1.00  0.00     0.200 A 
ATOM     73  F   UNL A   1      39.949  35.441  36.841  1.00  0.00    -0.200 F 
ATOM     74  F   UNL A   1      38.112  34.456  38.599  1.00  0.00    -0.200 F 
ENDBRANCH  50  64
BRANCH  51  75
ATOM     75  C   UNL A   1      42.255  26.677  27.595  1.00  0.00     0.064 A 
ATOM     76  C   UNL A   1      41.716  25.416  27.311  1.00  0.00     0.173 A 
ATOM     77  C   UNL A   1      43.279  27.154  26.763  1.00  0.00     0.173 A 
ATOM     78  F   UNL A   1      40.756  24.906  28.096  1.00  0.00    -0.203 F 
ATOM     79  C   UNL A   1      42.199  24.650  26.251  1.00  0.00     0.198 A 
ATOM     80  C   UNL A   1      43.742  26.400  25.687  1.00  0.00     0.198 A 
ATOM     81  F   UNL A   1      43.833  28.353  26.997  1.00  0.00    -0.203 F 
ATOM     82  F   UNL A   1      41.705  23.424  26.035  1.00  0.00    -0.200 F 
ATOM     83  C   UNL A   1      43.208  25.144  25.438  1.00  0.00     0.200 A 
ATOM     84  F   UNL A   1      44.714  26.883  24.901  1.00  0.00    -0.200 F 
ATOM     85  F   UNL A   1      43.676  24.405  24.423  1.00  0.00    -0.200 F 
ENDBRANCH  51  75
BRANCH  63  86
ATOM     86  C   UNL A   1      44.473  27.169  34.177  1.00  0.00     0.064 A 
ATOM     87  C   UNL A   1      44.246  25.949  34.833  1.00  0.00     0.173 A 
ATOM     88  C   UNL A   1      45.766  27.712  34.235  1.00  0.00     0.173 A 
ATOM     89  F   UNL A   1      43.025  25.394  34.820  1.00  0.00    -0.203 F 
ATOM     90  C   UNL A   1      45.262  25.318  35.547  1.00  0.00     0.198 A 
ATOM     91  C   UNL A   1      46.787  27.063  34.924  1.00  0.00     0.198 A 
ATOM     92  F   UNL A   1      46.041  28.871  33.619  1.00  0.00    -0.203 F 
ATOM     93  F   UNL A   1      45.006  24.183  36.212  1.00  0.00    -0.200 F 
ATOM     94  C   UNL A   1      46.532  25.872  35.588  1.00  0.00     0.200 A 
ATOM     95  F   UNL A   1      48.017  27.594  34.953  1.00  0.00    -0.200 F 
ATOM     96  F   UNL A   1      47.508  25.265  36.277  1.00  0.00    -0.200 F 
ENDBRANCH  63  86
ENDBRANCH  37  38
ENDBRANCH  30  32
ENDBRANCH  29  30
ENDBRANCH  28  29
ENDBRANCH  27  28
ENDBRANCH  26  27
ENDBRANCH  25  26
ENDBRANCH   1  25
TORSDOF 20
ENDMDL
MODEL 3
REMARK VINA RESULT:     -10.7      4.094      9.226
REMARK SMILES O=C(Cc1ccccc1Nc1c(Cl)cccc1Cl)OCCOCCOCCOC(=O)c1ccc(-c2c3nc(c(-c4c(F)c(F)c(F)c(F)c4F)c4ccc([nH]4)c(-c4c(F)c(F)c(F)c(F)c4F)c4nc(c(-c5c(F)c(F)c(F)c(F)c5F)c5ccc2[nH]5)C=C4)C=C3)cc1
REMARK SMILES IDX 23 1 22 2 21 3 20 4 19 5 2 6 1 7 3 8 4 9 5 10 9 11 6 12 8 13
REMARK SMILES IDX 7 14 10 15 11 17 12 18 17 19 13 20 14 21 16 22 18 23 15 24
REMARK SMILES IDX 24 25 25 26 26 27 27 28 28 29 29 30 30 31 31 32 32 33 93 34
REMARK SMILES IDX 33 35 92 36 34 37 35 38 36 39 86 40 37 41 91 42 85 43 87 44
REMARK SMILES IDX 38 45 90 46 84 47 83 48 39 50 71 51 51 52 70 53 52 54 55 55
REMARK SMILES IDX 69 56 88 57 53 58 54 59 68 61 89 62 56 63 40 64 41 65 49 66
REMARK SMILES IDX 42 67 43 68 47 69 50 70 44 71 45 72 48 73 46 74 72 75 73 76
REMARK SMILES IDX 81 77 74 78 75 79 79 80 82 81 76 82 77 83 80 84 78 85 57 86
REMARK SMILES IDX 58 87 66 88 59 89 60 90 64 91 67 92 61 93 62 94 65 95 63 96
REMARK H PARENT 10 16 87 49 55 60
REMARK Flexibility Score: inf
ROOT
ATOM      1  C   UNL A   1      31.043  29.214  24.568  1.00  0.00     0.188 C 
ENDROOT
BRANCH   1   2
ATOM      2  O   UNL A   1      31.255  28.845  23.218  1.00  0.00    -0.376 OA
BRANCH   2   3
ATOM      3  C   UNL A   1      31.012  27.498  22.867  1.00  0.00     0.202 C 
BRANCH   3   4
ATOM      4  C   UNL A   1      30.084  26.819  23.870  1.00  0.00     0.261 C 
BRANCH   4   5
ATOM      5  O   UNL A   1      30.563  25.580  24.442  1.00  0.00    -0.463 OA
BRANCH   5   6
ATOM      6  C   UNL A   1      30.404  25.129  25.702  1.00  0.00     0.310 C 
ATOM      7  O   UNL A   1      29.483  25.567  26.391  1.00  0.00    -0.252 OA
BRANCH   6   8
ATOM      8  C   UNL A   1      31.419  24.189  26.307  1.00  0.00     0.160 C 
BRANCH   8   9
ATOM      9  C   UNL A   1      32.771  24.106  25.637  1.00  0.00    -0.013 A 
ATOM     10  C   UNL A   1      33.695  25.147  25.868  1.00  0.00     0.006 A 
ATOM     11  C   UNL A   1      33.092  23.079  24.715  1.00  0.00     0.042 A 
ATOM     12  C   UNL A   1      34.933  25.161  25.236  1.00  0.00     0.000 A 
ATOM     13  C   UNL A   1      34.340  23.138  24.074  1.00  0.00     0.026 A 
ATOM     14  C   UNL A   1      35.254  24.159  24.335  1.00  0.00     0.002 A 
BRANCH  11  15
ATOM     15  N   UNL A   1      32.199  22.004  24.481  1.00  0.00    -0.353 N 
ATOM     16  H   UNL A   1      31.248  22.255  24.474  1.00  0.00     0.167 HD
BRANCH  15  17
ATOM     17  C   UNL A   1      32.452  20.622  24.255  1.00  0.00     0.076 A 
ATOM     18  C   UNL A   1      32.906  19.834  25.337  1.00  0.00     0.066 A 
ATOM     19  C   UNL A   1      32.197  19.952  23.041  1.00  0.00     0.066 A 
ATOM     20  Cl  UNL A   1      33.317  20.576  26.849  1.00  0.00    -0.082 Cl
ATOM     21  C   UNL A   1      33.035  18.445  25.239  1.00  0.00     0.023 A 
ATOM     22  C   UNL A   1      32.308  18.556  22.948  1.00  0.00     0.023 A 
ATOM     23  Cl  UNL A   1      31.849  20.801  21.570  1.00  0.00    -0.082 Cl
ATOM     24  C   UNL A   1      32.711  17.802  24.049  1.00  0.00     0.003 A 
ENDBRANCH  15  17
ENDBRANCH  11  15
ENDBRANCH   8   9
ENDBRANCH   6   8
ENDBRANCH   5   6
ENDBRANCH   4   5
ENDBRANCH   3   4
ENDBRANCH   2   3
ENDBRANCH   1   2
BRANCH   1  25
ATOM     25  C   UNL A   1      32.363  29.420  25.326  1.00  0.00     0.188 C 
BRANCH  25  26
ATOM     26  O   UNL A   1      32.487  30.478  26.270  1.00  0.00    -0.376 OA
BRANCH  26  27
ATOM     27  C   UNL A   1      31.484  31.482  26.352  1.00  0.00     0.202 C 
BRANCH  27  28
ATOM     28  C   UNL A   1      31.900  32.851  26.897  1.00  0.00     0.261 C 
BRANCH  28  29
ATOM     29  O   UNL A   1      32.773  32.792  28.042  1.00  0.00    -0.460 OA
BRANCH  29  30
ATOM     30  C   UNL A   1      33.831  33.639  28.001  1.00  0.00     0.338 C 
ATOM     31  O   UNL A   1      33.803  34.853  27.904  1.00  0.00    -0.246 OA
BRANCH  30  32
ATOM     32  C   UNL A   1      35.101  32.914  28.215  1.00  0.00     0.060 A 
ATOM     33  C   UNL A   1      35.022  31.557  28.554  1.00  0.00     0.016 A 
ATOM     34  C   UNL A   1      36.333  33.573  28.237  1.00  0.00     0.016 A 
ATOM     35  C   UNL A   1      36.160  30.872  28.978  1.00  0.00     0.010 A 
ATOM     36  C   UNL A   1      37.474  32.885  28.675  1.00  0.00     0.010 A 
ATOM     37  C   UNL A   1      37.385  31.544  29.093  1.00  0.00    -0.014 A 
BRANCH  37  38
ATOM     38  C   UNL A   1      38.502  30.882  29.817  1.00  0.00     0.031 A 
ATOM     39  C   UNL A   1      38.745  31.224  31.264  1.00  0.00     0.074 A 
ATOM     40  C   UNL A   1      39.251  29.931  29.229  1.00  0.00     0.049 A 
ATOM     41  N   UNL A   1      39.619  30.726  32.103  1.00  0.00    -0.248 NA
ATOM     42  C   UNL A   1      37.880  32.262  31.844  1.00  0.00     0.031 C 
ATOM     43  C   UNL A   1      39.107  29.479  27.849  1.00  0.00     0.029 A 
ATOM     44  N   UNL A   1      40.284  29.175  29.727  1.00  0.00    -0.354 N 
ATOM     45  C   UNL A   1      39.395  31.371  33.312  1.00  0.00     0.074 A 
ATOM     46  C   UNL A   1      38.338  32.334  33.086  1.00  0.00     0.031 C 
ATOM     47  C   UNL A   1      40.031  28.536  27.602  1.00  0.00     0.029 A 
ATOM     48  C   UNL A   1      40.836  28.322  28.803  1.00  0.00     0.049 A 
ATOM     49  H   UNL A   1      40.600  29.238  30.657  1.00  0.00     0.167 HD
ATOM     50  C   UNL A   1      39.997  31.170  34.508  1.00  0.00     0.037 A 
ATOM     51  C   UNL A   1      41.877  27.473  28.912  1.00  0.00     0.037 A 
ATOM     52  C   UNL A   1      41.061  30.227  34.743  1.00  0.00     0.049 A 
ATOM     53  C   UNL A   1      42.577  27.313  30.237  1.00  0.00     0.074 A 
ATOM     54  C   UNL A   1      41.735  29.960  35.922  1.00  0.00     0.029 A 
ATOM     55  N   UNL A   1      41.611  29.402  33.774  1.00  0.00    -0.354 N 
ATOM     56  N   UNL A   1      42.335  27.906  31.380  1.00  0.00    -0.248 NA
ATOM     57  C   UNL A   1      43.686  26.348  30.289  1.00  0.00     0.031 C 
ATOM     58  C   UNL A   1      42.720  29.001  35.658  1.00  0.00     0.029 A 
ATOM     59  C   UNL A   1      42.628  28.637  34.326  1.00  0.00     0.049 A 
ATOM     60  H   UNL A   1      41.322  29.363  32.834  1.00  0.00     0.167 HD
ATOM     61  C   UNL A   1      43.239  27.369  32.289  1.00  0.00     0.074 A 
ATOM     62  C   UNL A   1      44.023  26.388  31.569  1.00  0.00     0.031 C 
ATOM     63  C   UNL A   1      43.405  27.664  33.602  1.00  0.00     0.037 A 
BRANCH  50  64
ATOM     64  C   UNL A   1      39.519  31.993  35.668  1.00  0.00     0.064 A 
ATOM     65  C   UNL A   1      40.026  33.279  35.907  1.00  0.00     0.173 A 
ATOM     66  C   UNL A   1      38.520  31.509  36.525  1.00  0.00     0.173 A 
ATOM     67  F   UNL A   1      40.992  33.781  35.123  1.00  0.00    -0.203 F 
ATOM     68  C   UNL A   1      39.563  34.044  36.975  1.00  0.00     0.198 A 
ATOM     69  C   UNL A   1      38.042  32.287  37.576  1.00  0.00     0.198 A 
ATOM     70  F   UNL A   1      38.000  30.287  36.336  1.00  0.00    -0.203 F 
ATOM     71  F   UNL A   1      40.089  35.254  37.208  1.00  0.00    -0.200 F 
ATOM     72  C   UNL A   1      38.567  33.550  37.804  1.00  0.00     0.200 A 
ATOM     73  F   UNL A   1      37.071  31.813  38.370  1.00  0.00    -0.200 F 
ATOM     74  F   UNL A   1      38.116  34.290  38.827  1.00  0.00    -0.200 F 
ENDBRANCH  50  64
BRANCH  51  75
ATOM     75  C   UNL A   1      42.332  26.703  27.724  1.00  0.00     0.064 A 
ATOM     76  C   UNL A   1      41.837  25.421  27.453  1.00  0.00     0.173 A 
ATOM     77  C   UNL A   1      43.305  27.225  26.859  1.00  0.00     0.173 A 
ATOM     78  F   UNL A   1      40.928  24.868  28.270  1.00  0.00    -0.203 F 
ATOM     79  C   UNL A   1      42.314  24.679  26.374  1.00  0.00     0.198 A 
ATOM     80  C   UNL A   1      43.761  26.494  25.764  1.00  0.00     0.198 A 
ATOM     81  F   UNL A   1      43.815  28.446  27.078  1.00  0.00    -0.203 F 
ATOM     82  F   UNL A   1      41.865  23.434  26.170  1.00  0.00    -0.200 F 
ATOM     83  C   UNL A   1      43.272  25.217  25.528  1.00  0.00     0.200 A 
ATOM     84  F   UNL A   1      44.683  27.021  24.947  1.00  0.00    -0.200 F 
ATOM     85  F   UNL A   1      43.735  24.502  24.495  1.00  0.00    -0.200 F 
ENDBRANCH  51  75
BRANCH  63  86
ATOM     86  C   UNL A   1      44.459  26.900  34.352  1.00  0.00     0.064 A 
ATOM     87  C   UNL A   1      45.772  27.381  34.472  1.00  0.00     0.173 A 
ATOM     88  C   UNL A   1      44.150  25.680  34.972  1.00  0.00     0.173 A 
ATOM     89  F   UNL A   1      46.123  28.536  33.886  1.00  0.00    -0.203 F 
ATOM     90  C   UNL A   1      46.743  26.653  35.154  1.00  0.00     0.198 A 
ATOM     91  C   UNL A   1      45.116  24.969  35.678  1.00  0.00     0.198 A 
ATOM     92  F   UNL A   1      42.908  25.178  34.896  1.00  0.00    -0.203 F 
ATOM     93  F   UNL A   1      48.004  27.106  35.207  1.00  0.00    -0.200 F 
ATOM     94  C   UNL A   1      46.415  25.450  35.761  1.00  0.00     0.200 A 
ATOM     95  F   UNL A   1      44.794  23.812  36.275  1.00  0.00    -0.200 F 
ATOM     96  F   UNL A   1      47.351  24.750  36.415  1.00  0.00    -0.200 F 
ENDBRANCH  63  86
ENDBRANCH  37  38
ENDBRANCH  30  32
ENDBRANCH  29  30
ENDBRANCH  28  29
ENDBRANCH  27  28
ENDBRANCH  26  27
ENDBRANCH  25  26
ENDBRANCH   1  25
TORSDOF 20
ENDMDL
