MODEL 1
REMARK VINA RESULT:     -10.8      0.000      0.000
REMARK SMILES C[C@@H](C(=O)OCCOCCOCCOC(=O)c1ccc(-c2c3nc(c(-c4c(F)c(F)c(F)c(F)c4F)c4ccc([nH]4)c(-c4c(F)c(F)c(F)c(F)c4F)c4nc(c(-c5c(F)c(F)c(F)c(F)c5F)c5ccc2[nH]5)C=C4)C=C3)cc1)c1ccc(C[C@H]2CCC[C@H]2O)cc1
REMARK SMILES IDX 9 1 8 2 7 3 6 4 5 5 3 6 4 7 2 8 1 9 80 10 81 11 92 12 82 13
REMARK SMILES IDX 91 14 83 15 84 16 85 17 86 18 89 19 87 20 88 21 90 22 10 24
REMARK SMILES IDX 11 25 12 26 13 27 14 28 15 29 16 30 17 31 18 32 79 33 19 34
REMARK SMILES IDX 78 35 20 36 21 37 22 38 72 39 23 40 77 41 71 42 73 43 24 44
REMARK SMILES IDX 76 45 70 46 69 47 25 49 57 50 37 51 56 52 38 53 41 54 55 55
REMARK SMILES IDX 74 56 39 57 40 58 54 60 75 61 42 62 26 63 27 64 35 65 28 66
REMARK SMILES IDX 29 67 33 68 36 69 30 70 31 71 34 72 32 73 58 74 59 75 67 76
REMARK SMILES IDX 60 77 61 78 65 79 68 80 62 81 63 82 66 83 64 84 43 85 44 86
REMARK SMILES IDX 52 87 45 88 46 89 50 90 53 91 47 92 48 93 51 94 49 95
REMARK H PARENT 90 23 73 48 41 59
REMARK Flexibility Score: inf
ROOT
ATOM      1  C   UNL A   1      34.951  31.341  28.495  1.00  0.00     0.188 C 
ENDROOT
BRANCH   1   2
ATOM      2  O   UNL A   1      34.595  30.246  27.681  1.00  0.00    -0.376 OA
BRANCH   2   3
ATOM      3  C   UNL A   1      33.546  30.425  26.737  1.00  0.00     0.202 C 
BRANCH   3   4
ATOM      4  C   UNL A   1      32.154  29.778  26.910  1.00  0.00     0.261 C 
BRANCH   4   5
ATOM      5  O   UNL A   1      31.822  28.732  25.973  1.00  0.00    -0.463 OA
BRANCH   5   6
ATOM      6  C   UNL A   1      31.410  27.547  26.508  1.00  0.00     0.313 C 
ATOM      7  O   UNL A   1      31.067  27.421  27.681  1.00  0.00    -0.252 OA
BRANCH   6   8
ATOM      8  C   UNL A   1      31.315  26.379  25.504  1.00  0.00     0.126 C 
ATOM      9  C   UNL A   1      29.933  26.109  24.895  1.00  0.00     0.025 C 
BRANCH   8  10
ATOM     10  C   UNL A   1      31.992  25.090  25.981  1.00  0.00    -0.034 A 
ATOM     11  C   UNL A   1      33.380  24.977  26.094  1.00  0.00     0.005 A 
ATOM     12  C   UNL A   1      31.233  23.949  26.284  1.00  0.00     0.005 A 
ATOM     13  C   UNL A   1      33.993  23.789  26.478  1.00  0.00     0.004 A 
ATOM     14  C   UNL A   1      31.858  22.721  26.558  1.00  0.00     0.004 A 
ATOM     15  C   UNL A   1      33.254  22.621  26.583  1.00  0.00    -0.048 A 
BRANCH  15  16
ATOM     16  C   UNL A   1      33.966  21.290  26.593  1.00  0.00     0.041 C 
BRANCH  16  17
ATOM     17  C   UNL A   1      33.709  20.362  25.376  1.00  0.00     0.022 C 
ATOM     18  C   UNL A   1      34.951  19.649  24.811  1.00  0.00     0.007 C 
ATOM     19  C   UNL A   1      32.628  19.267  25.444  1.00  0.00     0.117 C 
ATOM     20  C   UNL A   1      34.479  18.288  24.295  1.00  0.00     0.003 C 
ATOM     21  C   UNL A   1      32.960  18.353  24.273  1.00  0.00     0.032 C 
BRANCH  19  22
ATOM     22  O   UNL A   1      32.599  18.481  26.618  1.00  0.00    -0.393 OA
ATOM     23  H   UNL A   1      32.887  19.016  27.373  1.00  0.00     0.210 HD
ENDBRANCH  19  22
ENDBRANCH  16  17
ENDBRANCH  15  16
ENDBRANCH   8  10
ENDBRANCH   6   8
ENDBRANCH   5   6
ENDBRANCH   4   5
ENDBRANCH   3   4
ENDBRANCH   2   3
ENDBRANCH   1   2
BRANCH   1  24
ATOM     24  C   UNL A   1      34.865  32.759  27.917  1.00  0.00     0.188 C 
BRANCH  24  25
ATOM     25  O   UNL A   1      33.767  33.577  28.232  1.00  0.00    -0.376 OA
BRANCH  25  26
ATOM     26  C   UNL A   1      33.982  34.899  28.695  1.00  0.00     0.202 C 
BRANCH  26  27
ATOM     27  C   UNL A   1      32.994  35.701  29.566  1.00  0.00     0.261 C 
BRANCH  27  28
ATOM     28  O   UNL A   1      32.453  35.081  30.737  1.00  0.00    -0.460 OA
BRANCH  28  29
ATOM     29  C   UNL A   1      32.763  35.671  31.915  1.00  0.00     0.338 C 
ATOM     30  O   UNL A   1      32.118  36.525  32.510  1.00  0.00    -0.246 OA
BRANCH  29  31
ATOM     31  C   UNL A   1      33.938  34.990  32.493  1.00  0.00     0.060 A 
ATOM     32  C   UNL A   1      35.191  35.618  32.441  1.00  0.00     0.016 A 
ATOM     33  C   UNL A   1      33.809  33.719  33.055  1.00  0.00     0.016 A 
ATOM     34  C   UNL A   1      36.324  34.966  32.930  1.00  0.00     0.010 A 
ATOM     35  C   UNL A   1      34.949  33.056  33.517  1.00  0.00     0.010 A 
ATOM     36  C   UNL A   1      36.215  33.662  33.430  1.00  0.00    -0.014 A 
BRANCH  36  37
ATOM     37  C   UNL A   1      37.436  32.869  33.715  1.00  0.00     0.031 A 
ATOM     38  C   UNL A   1      38.140  33.069  35.024  1.00  0.00     0.074 A 
ATOM     39  C   UNL A   1      37.941  32.018  32.806  1.00  0.00     0.049 A 
ATOM     40  N   UNL A   1      39.256  32.542  35.456  1.00  0.00    -0.248 NA
ATOM     41  C   UNL A   1      37.519  34.022  35.956  1.00  0.00     0.031 C 
ATOM     42  C   UNL A   1      37.382  31.787  31.481  1.00  0.00     0.029 A 
ATOM     43  N   UNL A   1      39.046  31.202  32.855  1.00  0.00    -0.354 N 
ATOM     44  C   UNL A   1      39.497  33.133  36.689  1.00  0.00     0.074 A 
ATOM     45  C   UNL A   1      38.411  34.059  36.934  1.00  0.00     0.031 C 
ATOM     46  C   UNL A   1      38.134  30.874  30.847  1.00  0.00     0.029 A 
ATOM     47  C   UNL A   1      39.232  30.457  31.715  1.00  0.00     0.049 A 
ATOM     48  H   UNL A   1      39.648  31.156  33.632  1.00  0.00     0.167 HD
ATOM     49  C   UNL A   1      40.540  32.933  37.530  1.00  0.00     0.037 A 
ATOM     50  C   UNL A   1      40.181  29.546  31.417  1.00  0.00     0.037 A 
ATOM     51  C   UNL A   1      41.620  32.015  37.279  1.00  0.00     0.049 A 
ATOM     52  C   UNL A   1      41.307  29.311  32.395  1.00  0.00     0.074 A 
ATOM     53  C   UNL A   1      42.709  31.728  38.084  1.00  0.00     0.029 A 
ATOM     54  N   UNL A   1      41.754  31.242  36.136  1.00  0.00    -0.354 N 
ATOM     55  N   UNL A   1      41.506  29.838  33.579  1.00  0.00    -0.248 NA
ATOM     56  C   UNL A   1      42.361  28.372  31.979  1.00  0.00     0.031 C 
ATOM     57  C   UNL A   1      43.532  30.826  37.402  1.00  0.00     0.029 A 
ATOM     58  C   UNL A   1      42.921  30.494  36.204  1.00  0.00     0.049 A 
ATOM     59  H   UNL A   1      41.116  31.226  35.386  1.00  0.00     0.167 HD
ATOM     60  C   UNL A   1      42.698  29.297  34.046  1.00  0.00     0.074 A 
ATOM     61  C   UNL A   1      43.156  28.366  33.039  1.00  0.00     0.031 C 
ATOM     62  C   UNL A   1      43.364  29.565  35.196  1.00  0.00     0.037 A 
BRANCH  49  63
ATOM     63  C   UNL A   1      40.588  33.762  38.780  1.00  0.00     0.064 A 
ATOM     64  C   UNL A   1      39.877  33.405  39.935  1.00  0.00     0.173 A 
ATOM     65  C   UNL A   1      41.379  34.921  38.828  1.00  0.00     0.173 A 
ATOM     66  F   UNL A   1      39.093  32.316  39.936  1.00  0.00    -0.203 F 
ATOM     67  C   UNL A   1      39.935  34.191  41.083  1.00  0.00     0.198 A 
ATOM     68  C   UNL A   1      41.463  35.684  39.988  1.00  0.00     0.198 A 
ATOM     69  F   UNL A   1      42.081  35.306  37.752  1.00  0.00    -0.203 F 
ATOM     70  F   UNL A   1      39.206  33.859  42.158  1.00  0.00    -0.200 F 
ATOM     71  C   UNL A   1      40.734  35.324  41.111  1.00  0.00     0.200 A 
ATOM     72  F   UNL A   1      42.247  36.771  40.018  1.00  0.00    -0.200 F 
ATOM     73  F   UNL A   1      40.797  36.074  42.220  1.00  0.00    -0.200 F 
ENDBRANCH  49  63
BRANCH  50  74
ATOM     74  C   UNL A   1      40.119  28.766  30.149  1.00  0.00     0.064 A 
ATOM     75  C   UNL A   1      39.477  27.517  30.113  1.00  0.00     0.173 A 
ATOM     76  C   UNL A   1      40.713  29.219  28.963  1.00  0.00     0.173 A 
ATOM     77  F   UNL A   1      38.905  27.026  31.223  1.00  0.00    -0.203 F 
ATOM     78  C   UNL A   1      39.458  26.743  28.954  1.00  0.00     0.198 A 
ATOM     79  C   UNL A   1      40.657  28.463  27.792  1.00  0.00     0.198 A 
ATOM     80  F   UNL A   1      41.347  30.400  28.938  1.00  0.00    -0.203 F 
ATOM     81  F   UNL A   1      38.888  25.531  28.970  1.00  0.00    -0.200 F 
ATOM     82  C   UNL A   1      40.040  27.222  27.791  1.00  0.00     0.200 A 
ATOM     83  F   UNL A   1      41.209  28.935  26.666  1.00  0.00    -0.200 F 
ATOM     84  F   UNL A   1      40.017  26.481  26.676  1.00  0.00    -0.200 F 
ENDBRANCH  50  74
BRANCH  62  85
ATOM     85  C   UNL A   1      44.650  28.824  35.444  1.00  0.00     0.064 A 
ATOM     86  C   UNL A   1      44.674  27.584  36.102  1.00  0.00     0.173 A 
ATOM     87  C   UNL A   1      45.869  29.339  34.975  1.00  0.00     0.173 A 
ATOM     88  F   UNL A   1      43.540  27.051  36.581  1.00  0.00    -0.203 F 
ATOM     89  C   UNL A   1      45.872  26.904  36.306  1.00  0.00     0.198 A 
ATOM     90  C   UNL A   1      47.059  28.640  35.151  1.00  0.00     0.198 A 
ATOM     91  F   UNL A   1      45.903  30.516  34.332  1.00  0.00    -0.203 F 
ATOM     92  F   UNL A   1      45.877  25.747  36.983  1.00  0.00    -0.200 F 
ATOM     93  C   UNL A   1      47.062  27.427  35.824  1.00  0.00     0.200 A 
ATOM     94  F   UNL A   1      48.205  29.139  34.668  1.00  0.00    -0.200 F 
ATOM     95  F   UNL A   1      48.213  26.767  36.014  1.00  0.00    -0.200 F 
ENDBRANCH  62  85
ENDBRANCH  36  37
ENDBRANCH  29  31
ENDBRANCH  28  29
ENDBRANCH  27  28
ENDBRANCH  26  27
ENDBRANCH  25  26
ENDBRANCH  24  25
ENDBRANCH   1  24
TORSDOF 21
ENDMDL
MODEL 2
REMARK VINA RESULT:     -10.7      5.943     11.600
REMARK SMILES C[C@@H](C(=O)OCCOCCOCCOC(=O)c1ccc(-c2c3nc(c(-c4c(F)c(F)c(F)c(F)c4F)c4ccc([nH]4)c(-c4c(F)c(F)c(F)c(F)c4F)c4nc(c(-c5c(F)c(F)c(F)c(F)c5F)c5ccc2[nH]5)C=C4)C=C3)cc1)c1ccc(C[C@H]2CCC[C@H]2O)cc1
REMARK SMILES IDX 9 1 8 2 7 3 6 4 5 5 3 6 4 7 2 8 1 9 80 10 81 11 92 12 82 13
REMARK SMILES IDX 91 14 83 15 84 16 85 17 86 18 89 19 87 20 88 21 90 22 10 24
REMARK SMILES IDX 11 25 12 26 13 27 14 28 15 29 16 30 17 31 18 32 79 33 19 34
REMARK SMILES IDX 78 35 20 36 21 37 22 38 72 39 23 40 77 41 71 42 73 43 24 44
REMARK SMILES IDX 76 45 70 46 69 47 25 49 57 50 37 51 56 52 38 53 41 54 55 55
REMARK SMILES IDX 74 56 39 57 40 58 54 60 75 61 42 62 26 63 27 64 35 65 28 66
REMARK SMILES IDX 29 67 33 68 36 69 30 70 31 71 34 72 32 73 58 74 59 75 67 76
REMARK SMILES IDX 60 77 61 78 65 79 68 80 62 81 63 82 66 83 64 84 43 85 44 86
REMARK SMILES IDX 52 87 45 88 46 89 50 90 53 91 47 92 48 93 51 94 49 95
REMARK H PARENT 90 23 73 48 41 59
REMARK Flexibility Score: inf
ROOT
ATOM      1  C   UNL A   1      36.530  23.345  26.088  1.00  0.00     0.188 C 
ENDROOT
BRANCH   1   2
ATOM      2  O   UNL A   1      35.730  22.717  25.110  1.00  0.00    -0.376 OA
BRANCH   2   3
ATOM      3  C   UNL A   1      34.416  22.314  25.476  1.00  0.00     0.202 C 
BRANCH   3   4
ATOM      4  C   UNL A   1      33.170  22.694  24.646  1.00  0.00     0.261 C 
BRANCH   4   5
ATOM      5  O   UNL A   1      31.970  22.971  25.399  1.00  0.00    -0.463 OA
BRANCH   5   6
ATOM      6  C   UNL A   1      31.924  24.172  26.044  1.00  0.00     0.313 C 
ATOM      7  O   UNL A   1      31.569  24.294  27.214  1.00  0.00    -0.252 OA
BRANCH   6   8
ATOM      8  C   UNL A   1      32.443  25.371  25.224  1.00  0.00     0.126 C 
ATOM      9  C   UNL A   1      33.643  26.131  25.803  1.00  0.00     0.025 C 
BRANCH   8  10
ATOM     10  C   UNL A   1      31.340  26.322  24.744  1.00  0.00    -0.034 A 
ATOM     11  C   UNL A   1      30.088  25.860  24.331  1.00  0.00     0.005 A 
ATOM     12  C   UNL A   1      31.569  27.704  24.662  1.00  0.00     0.005 A 
ATOM     13  C   UNL A   1      29.109  26.721  23.848  1.00  0.00     0.004 A 
ATOM     14  C   UNL A   1      30.624  28.555  24.066  1.00  0.00     0.004 A 
ATOM     15  C   UNL A   1      29.410  28.049  23.586  1.00  0.00    -0.048 A 
BRANCH  15  16
ATOM     16  C   UNL A   1      28.495  28.858  22.699  1.00  0.00     0.041 C 
BRANCH  16  17
ATOM     17  C   UNL A   1      28.863  30.353  22.511  1.00  0.00     0.022 C 
ATOM     18  C   UNL A   1      28.543  30.947  21.127  1.00  0.00     0.007 C 
ATOM     19  C   UNL A   1      28.363  31.411  23.513  1.00  0.00     0.117 C 
ATOM     20  C   UNL A   1      28.167  32.412  21.354  1.00  0.00     0.003 C 
ATOM     21  C   UNL A   1      28.572  32.731  22.784  1.00  0.00     0.032 C 
BRANCH  19  22
ATOM     22  O   UNL A   1      27.005  31.331  23.892  1.00  0.00    -0.393 OA
ATOM     23  H   UNL A   1      26.826  30.456  24.271  1.00  0.00     0.210 HD
ENDBRANCH  19  22
ENDBRANCH  16  17
ENDBRANCH  15  16
ENDBRANCH   8  10
ENDBRANCH   6   8
ENDBRANCH   5   6
ENDBRANCH   4   5
ENDBRANCH   3   4
ENDBRANCH   2   3
ENDBRANCH   1   2
BRANCH   1  24
ATOM     24  C   UNL A   1      38.049  23.388  25.892  1.00  0.00     0.188 C 
BRANCH  24  25
ATOM     25  O   UNL A   1      38.846  22.332  26.364  1.00  0.00    -0.376 OA
BRANCH  25  26
ATOM     26  C   UNL A   1      38.938  21.130  25.620  1.00  0.00     0.202 C 
BRANCH  26  27
ATOM     27  C   UNL A   1      39.691  19.864  26.077  1.00  0.00     0.261 C 
BRANCH  27  28
ATOM     28  O   UNL A   1      40.851  19.455  25.346  1.00  0.00    -0.460 OA
BRANCH  28  29
ATOM     29  C   UNL A   1      41.975  19.270  26.078  1.00  0.00     0.338 C 
ATOM     30  O   UNL A   1      42.561  18.216  26.286  1.00  0.00    -0.246 OA
BRANCH  29  31
ATOM     31  C   UNL A   1      42.517  20.590  26.456  1.00  0.00     0.060 A 
ATOM     32  C   UNL A   1      42.456  20.999  27.797  1.00  0.00     0.016 A 
ATOM     33  C   UNL A   1      43.053  21.437  25.485  1.00  0.00     0.016 A 
ATOM     34  C   UNL A   1      42.910  22.266  28.166  1.00  0.00     0.010 A 
ATOM     35  C   UNL A   1      43.480  22.716  25.851  1.00  0.00     0.010 A 
ATOM     36  C   UNL A   1      43.384  23.148  27.186  1.00  0.00    -0.014 A 
BRANCH  36  37
ATOM     37  C   UNL A   1      43.629  24.572  27.521  1.00  0.00     0.031 A 
ATOM     38  C   UNL A   1      45.039  25.085  27.514  1.00  0.00     0.074 A 
ATOM     39  C   UNL A   1      42.621  25.388  27.874  1.00  0.00     0.049 A 
ATOM     40  N   UNL A   1      45.495  26.267  27.842  1.00  0.00    -0.248 NA
ATOM     41  C   UNL A   1      46.078  24.122  27.120  1.00  0.00     0.031 C 
ATOM     42  C   UNL A   1      41.225  24.989  27.976  1.00  0.00     0.029 A 
ATOM     43  N   UNL A   1      42.621  26.717  28.225  1.00  0.00    -0.354 N 
ATOM     44  C   UNL A   1      46.876  26.177  27.739  1.00  0.00     0.074 A 
ATOM     45  C   UNL A   1      47.183  24.825  27.319  1.00  0.00     0.031 C 
ATOM     46  C   UNL A   1      40.496  26.054  28.345  1.00  0.00     0.029 A 
ATOM     47  C   UNL A   1      41.371  27.211  28.511  1.00  0.00     0.049 A 
ATOM     48  H   UNL A   1      43.439  27.263  28.268  1.00  0.00     0.167 HD
ATOM     49  C   UNL A   1      47.803  27.131  27.989  1.00  0.00     0.037 A 
ATOM     50  C   UNL A   1      40.988  28.455  28.865  1.00  0.00     0.037 A 
ATOM     51  C   UNL A   1      47.494  28.473  28.411  1.00  0.00     0.049 A 
ATOM     52  C   UNL A   1      42.042  29.512  29.092  1.00  0.00     0.074 A 
ATOM     53  C   UNL A   1      48.366  29.517  28.667  1.00  0.00     0.029 A 
ATOM     54  N   UNL A   1      46.215  28.954  28.648  1.00  0.00    -0.354 N 
ATOM     55  N   UNL A   1      43.343  29.435  28.950  1.00  0.00    -0.248 NA
ATOM     56  C   UNL A   1      41.574  30.825  29.563  1.00  0.00     0.031 C 
ATOM     57  C   UNL A   1      47.620  30.611  29.115  1.00  0.00     0.029 A 
ATOM     58  C   UNL A   1      46.277  30.274  29.069  1.00  0.00     0.049 A 
ATOM     59  H   UNL A   1      45.386  28.436  28.534  1.00  0.00     0.167 HD
ATOM     60  C   UNL A   1      43.844  30.681  29.308  1.00  0.00     0.074 A 
ATOM     61  C   UNL A   1      42.705  31.511  29.632  1.00  0.00     0.031 C 
ATOM     62  C   UNL A   1      45.134  31.093  29.384  1.00  0.00     0.037 A 
BRANCH  49  63
ATOM     63  C   UNL A   1      49.247  26.742  27.862  1.00  0.00     0.064 A 
ATOM     64  C   UNL A   1      49.895  26.689  26.619  1.00  0.00     0.173 A 
ATOM     65  C   UNL A   1      50.000  26.441  29.008  1.00  0.00     0.173 A 
ATOM     66  F   UNL A   1      49.216  26.952  25.492  1.00  0.00    -0.203 F 
ATOM     67  C   UNL A   1      51.235  26.323  26.525  1.00  0.00     0.198 A 
ATOM     68  C   UNL A   1      51.348  26.110  28.914  1.00  0.00     0.198 A 
ATOM     69  F   UNL A   1      49.430  26.478  30.222  1.00  0.00    -0.203 F 
ATOM     70  F   UNL A   1      51.819  26.228  25.323  1.00  0.00    -0.200 F 
ATOM     71  C   UNL A   1      51.963  26.043  27.672  1.00  0.00     0.200 A 
ATOM     72  F   UNL A   1      52.053  25.854  30.025  1.00  0.00    -0.200 F 
ATOM     73  F   UNL A   1      53.254  25.700  27.581  1.00  0.00    -0.200 F 
ENDBRANCH  49  63
BRANCH  50  74
ATOM     74  C   UNL A   1      39.545  28.796  29.015  1.00  0.00     0.064 A 
ATOM     75  C   UNL A   1      38.809  29.272  27.919  1.00  0.00     0.173 A 
ATOM     76  C   UNL A   1      38.876  28.689  30.243  1.00  0.00     0.173 A 
ATOM     77  F   UNL A   1      39.402  29.411  26.723  1.00  0.00    -0.203 F 
ATOM     78  C   UNL A   1      37.474  29.653  28.050  1.00  0.00     0.198 A 
ATOM     79  C   UNL A   1      37.529  29.030  30.364  1.00  0.00     0.198 A 
ATOM     80  F   UNL A   1      39.529  28.248  31.327  1.00  0.00    -0.203 F 
ATOM     81  F   UNL A   1      36.818  30.159  26.997  1.00  0.00    -0.200 F 
ATOM     82  C   UNL A   1      36.833  29.523  29.271  1.00  0.00     0.200 A 
ATOM     83  F   UNL A   1      36.909  28.889  31.543  1.00  0.00    -0.200 F 
ATOM     84  F   UNL A   1      35.549  29.883  29.396  1.00  0.00    -0.200 F 
ENDBRANCH  50  74
BRANCH  62  85
ATOM     85  C   UNL A   1      45.387  32.514  29.809  1.00  0.00     0.064 A 
ATOM     86  C   UNL A   1      45.424  33.568  28.883  1.00  0.00     0.173 A 
ATOM     87  C   UNL A   1      45.547  32.831  31.168  1.00  0.00     0.173 A 
ATOM     88  F   UNL A   1      45.288  33.320  27.572  1.00  0.00    -0.203 F 
ATOM     89  C   UNL A   1      45.641  34.880  29.298  1.00  0.00     0.198 A 
ATOM     90  C   UNL A   1      45.729  34.148  31.581  1.00  0.00     0.198 A 
ATOM     91  F   UNL A   1      45.511  31.864  32.096  1.00  0.00    -0.203 F 
ATOM     92  F   UNL A   1      45.724  35.863  28.390  1.00  0.00    -0.200 F 
ATOM     93  C   UNL A   1      45.784  35.170  30.647  1.00  0.00     0.200 A 
ATOM     94  F   UNL A   1      45.849  34.427  32.886  1.00  0.00    -0.200 F 
ATOM     95  F   UNL A   1      45.984  36.434  31.044  1.00  0.00    -0.200 F 
ENDBRANCH  62  85
ENDBRANCH  36  37
ENDBRANCH  29  31
ENDBRANCH  28  29
ENDBRANCH  27  28
ENDBRANCH  26  27
ENDBRANCH  25  26
ENDBRANCH  24  25
ENDBRANCH   1  24
TORSDOF 21
ENDMDL
MODEL 3
REMARK VINA RESULT:     -10.7      6.545     11.508
REMARK SMILES C[C@@H](C(=O)OCCOCCOCCOC(=O)c1ccc(-c2c3nc(c(-c4c(F)c(F)c(F)c(F)c4F)c4ccc([nH]4)c(-c4c(F)c(F)c(F)c(F)c4F)c4nc(c(-c5c(F)c(F)c(F)c(F)c5F)c5ccc2[nH]5)C=C4)C=C3)cc1)c1ccc(C[C@H]2CCC[C@H]2O)cc1
REMARK SMILES IDX 9 1 8 2 7 3 6 4 5 5 3 6 4 7 2 8 1 9 80 10 81 11 92 12 82 13
REMARK SMILES IDX 91 14 83 15 84 16 85 17 86 18 89 19 87 20 88 21 90 22 10 24
REMARK SMILES IDX 11 25 12 26 13 27 14 28 15 29 16 30 17 31 18 32 79 33 19 34
REMARK SMILES IDX 78 35 20 36 21 37 22 38 72 39 23 40 77 41 71 42 73 43 24 44
REMARK SMILES IDX 76 45 70 46 69 47 25 49 57 50 37 51 56 52 38 53 41 54 55 55
REMARK SMILES IDX 74 56 39 57 40 58 54 60 75 61 42 62 26 63 27 64 35 65 28 66
REMARK SMILES IDX 29 67 33 68 36 69 30 70 31 71 34 72 32 73 58 74 59 75 67 76
REMARK SMILES IDX 60 77 61 78 65 79 68 80 62 81 63 82 66 83 64 84 43 85 44 86
REMARK SMILES IDX 52 87 45 88 46 89 50 90 53 91 47 92 48 93 51 94 49 95
REMARK H PARENT 90 23 73 48 41 59
REMARK Flexibility Score: inf
ROOT
ATOM      1  C   UNL A   1      35.291  20.929  25.269  1.00  0.00     0.188 C 
ENDROOT
BRANCH   1   2
ATOM      2  O   UNL A   1      34.423  21.373  24.250  1.00  0.00    -0.376 OA
BRANCH   2   3
ATOM      3  C   UNL A   1      33.055  20.990  24.320  1.00  0.00     0.202 C 
BRANCH   3   4
ATOM      4  C   UNL A   1      31.910  22.020  24.441  1.00  0.00     0.261 C 
BRANCH   4   5
ATOM      5  O   UNL A   1      31.333  22.171  25.756  1.00  0.00    -0.463 OA
BRANCH   5   6
ATOM      6  C   UNL A   1      31.702  23.283  26.455  1.00  0.00     0.313 C 
ATOM      7  O   UNL A   1      31.373  23.485  27.622  1.00  0.00    -0.252 OA
BRANCH   6   8
ATOM      8  C   UNL A   1      32.651  24.238  25.702  1.00  0.00     0.126 C 
ATOM      9  C   UNL A   1      34.110  24.270  26.174  1.00  0.00     0.025 C 
BRANCH   8  10
ATOM     10  C   UNL A   1      32.084  25.648  25.500  1.00  0.00    -0.034 A 
ATOM     11  C   UNL A   1      30.994  25.898  24.663  1.00  0.00     0.005 A 
ATOM     12  C   UNL A   1      32.677  26.757  26.123  1.00  0.00     0.005 A 
ATOM     13  C   UNL A   1      30.515  27.185  24.442  1.00  0.00     0.004 A 
ATOM     14  C   UNL A   1      32.267  28.063  25.808  1.00  0.00     0.004 A 
ATOM     15  C   UNL A   1      31.223  28.285  24.902  1.00  0.00    -0.048 A 
BRANCH  15  16
ATOM     16  C   UNL A   1      30.935  29.649  24.323  1.00  0.00     0.041 C 
BRANCH  16  17
ATOM     17  C   UNL A   1      29.592  29.805  23.562  1.00  0.00     0.022 C 
ATOM     18  C   UNL A   1      28.877  31.156  23.746  1.00  0.00     0.007 C 
ATOM     19  C   UNL A   1      29.517  29.528  22.049  1.00  0.00     0.117 C 
ATOM     20  C   UNL A   1      28.162  31.458  22.428  1.00  0.00     0.003 C 
ATOM     21  C   UNL A   1      28.201  30.167  21.626  1.00  0.00     0.032 C 
BRANCH  19  22
ATOM     22  O   UNL A   1      30.546  30.079  21.254  1.00  0.00    -0.393 OA
ATOM     23  H   UNL A   1      30.888  29.401  20.652  1.00  0.00     0.210 HD
ENDBRANCH  19  22
ENDBRANCH  16  17
ENDBRANCH  15  16
ENDBRANCH   8  10
ENDBRANCH   6   8
ENDBRANCH   5   6
ENDBRANCH   4   5
ENDBRANCH   3   4
ENDBRANCH   2   3
ENDBRANCH   1   2
BRANCH   1  24
ATOM     24  C   UNL A   1      36.800  20.902  25.003  1.00  0.00     0.188 C 
BRANCH  24  25
ATOM     25  O   UNL A   1      37.651  21.768  25.710  1.00  0.00    -0.376 OA
BRANCH  25  26
ATOM     26  C   UNL A   1      39.030  21.464  25.826  1.00  0.00     0.202 C 
BRANCH  26  27
ATOM     27  C   UNL A   1      39.603  20.060  26.113  1.00  0.00     0.261 C 
BRANCH  27  28
ATOM     28  O   UNL A   1      40.752  19.625  25.379  1.00  0.00    -0.460 OA
BRANCH  28  29
ATOM     29  C   UNL A   1      41.856  19.358  26.114  1.00  0.00     0.338 C 
ATOM     30  O   UNL A   1      42.308  18.257  26.402  1.00  0.00    -0.246 OA
BRANCH  29  31
ATOM     31  C   UNL A   1      42.567  20.624  26.382  1.00  0.00     0.060 A 
ATOM     32  C   UNL A   1      42.657  21.096  27.700  1.00  0.00     0.016 A 
ATOM     33  C   UNL A   1      43.113  21.361  25.330  1.00  0.00     0.016 A 
ATOM     34  C   UNL A   1      43.273  22.319  27.967  1.00  0.00     0.010 A 
ATOM     35  C   UNL A   1      43.704  22.599  25.596  1.00  0.00     0.010 A 
ATOM     36  C   UNL A   1      43.762  23.098  26.910  1.00  0.00    -0.014 A 
BRANCH  36  37
ATOM     37  C   UNL A   1      44.186  24.498  27.151  1.00  0.00     0.031 A 
ATOM     38  C   UNL A   1      43.188  25.471  27.708  1.00  0.00     0.074 A 
ATOM     39  C   UNL A   1      45.425  24.915  26.838  1.00  0.00     0.049 A 
ATOM     40  N   UNL A   1      43.314  26.754  27.931  1.00  0.00    -0.248 NA
ATOM     41  C   UNL A   1      41.857  24.930  28.018  1.00  0.00     0.031 C 
ATOM     42  C   UNL A   1      46.455  24.080  26.237  1.00  0.00     0.029 A 
ATOM     43  N   UNL A   1      46.018  26.147  26.967  1.00  0.00    -0.354 N 
ATOM     44  C   UNL A   1      42.067  27.183  28.363  1.00  0.00     0.074 A 
ATOM     45  C   UNL A   1      41.199  26.024  28.370  1.00  0.00     0.031 C 
ATOM     46  C   UNL A   1      47.565  24.817  26.067  1.00  0.00     0.029 A 
ATOM     47  C   UNL A   1      47.324  26.178  26.541  1.00  0.00     0.049 A 
ATOM     48  H   UNL A   1      45.553  26.935  27.330  1.00  0.00     0.167 HD
ATOM     49  C   UNL A   1      41.679  28.434  28.706  1.00  0.00     0.037 A 
ATOM     50  C   UNL A   1      48.215  27.191  26.537  1.00  0.00     0.037 A 
ATOM     51  C   UNL A   1      42.545  29.585  28.693  1.00  0.00     0.049 A 
ATOM     52  C   UNL A   1      47.765  28.566  26.968  1.00  0.00     0.074 A 
ATOM     53  C   UNL A   1      42.246  30.890  29.046  1.00  0.00     0.029 A 
ATOM     54  N   UNL A   1      43.874  29.572  28.299  1.00  0.00    -0.354 N 
ATOM     55  N   UNL A   1      46.598  28.957  27.420  1.00  0.00    -0.248 NA
ATOM     56  C   UNL A   1      48.753  29.651  26.859  1.00  0.00     0.031 C 
ATOM     57  C   UNL A   1      43.377  31.676  28.809  1.00  0.00     0.029 A 
ATOM     58  C   UNL A   1      44.404  30.852  28.378  1.00  0.00     0.049 A 
ATOM     59  H   UNL A   1      44.369  28.773  28.006  1.00  0.00     0.167 HD
ATOM     60  C   UNL A   1      46.712  30.323  27.648  1.00  0.00     0.074 A 
ATOM     61  C   UNL A   1      48.075  30.688  27.330  1.00  0.00     0.031 C 
ATOM     62  C   UNL A   1      45.765  31.201  28.064  1.00  0.00     0.037 A 
BRANCH  49  63
ATOM     63  C   UNL A   1      40.238  28.633  29.076  1.00  0.00     0.064 A 
ATOM     64  C   UNL A   1      39.282  29.052  28.139  1.00  0.00     0.173 A 
ATOM     65  C   UNL A   1      39.804  28.375  30.386  1.00  0.00     0.173 A 
ATOM     66  F   UNL A   1      39.648  29.327  26.878  1.00  0.00    -0.203 F 
ATOM     67  C   UNL A   1      37.951  29.232  28.505  1.00  0.00     0.198 A 
ATOM     68  C   UNL A   1      38.467  28.522  30.740  1.00  0.00     0.198 A 
ATOM     69  F   UNL A   1      40.677  27.970  31.321  1.00  0.00    -0.203 F 
ATOM     70  F   UNL A   1      37.065  29.684  27.607  1.00  0.00    -0.200 F 
ATOM     71  C   UNL A   1      37.543  28.958  29.803  1.00  0.00     0.200 A 
ATOM     72  F   UNL A   1      38.072  28.242  31.990  1.00  0.00    -0.200 F 
ATOM     73  F   UNL A   1      36.260  29.123  30.152  1.00  0.00    -0.200 F 
ENDBRANCH  49  63
BRANCH  50  74
ATOM     74  C   UNL A   1      49.630  26.962  26.129  1.00  0.00     0.064 A 
ATOM     75  C   UNL A   1      49.997  27.013  24.775  1.00  0.00     0.173 A 
ATOM     76  C   UNL A   1      50.635  26.660  27.058  1.00  0.00     0.173 A 
ATOM     77  F   UNL A   1      49.073  27.282  23.840  1.00  0.00    -0.203 F 
ATOM     78  C   UNL A   1      51.302  26.744  24.365  1.00  0.00     0.198 A 
ATOM     79  C   UNL A   1      51.950  26.433  26.652  1.00  0.00     0.198 A 
ATOM     80  F   UNL A   1      50.343  26.589  28.365  1.00  0.00    -0.203 F 
ATOM     81  F   UNL A   1      51.605  26.744  23.061  1.00  0.00    -0.200 F 
ATOM     82  C   UNL A   1      52.279  26.463  25.306  1.00  0.00     0.200 A 
ATOM     83  F   UNL A   1      52.895  26.175  27.566  1.00  0.00    -0.200 F 
ATOM     84  F   UNL A   1      53.535  26.211  24.913  1.00  0.00    -0.200 F 
ENDBRANCH  50  74
BRANCH  62  85
ATOM     85  C   UNL A   1      46.174  32.640  28.225  1.00  0.00     0.064 A 
ATOM     86  C   UNL A   1      46.741  33.120  29.416  1.00  0.00     0.173 A 
ATOM     87  C   UNL A   1      46.039  33.541  27.156  1.00  0.00     0.173 A 
ATOM     88  F   UNL A   1      46.882  32.305  30.472  1.00  0.00    -0.203 F 
ATOM     89  C   UNL A   1      47.130  34.451  29.540  1.00  0.00     0.198 A 
ATOM     90  C   UNL A   1      46.462  34.862  27.273  1.00  0.00     0.198 A 
ATOM     91  F   UNL A   1      45.512  33.134  25.991  1.00  0.00    -0.203 F 
ATOM     92  F   UNL A   1      47.621  34.899  30.704  1.00  0.00    -0.200 F 
ATOM     93  C   UNL A   1      46.998  35.319  28.466  1.00  0.00     0.200 A 
ATOM     94  F   UNL A   1      46.349  35.694  26.227  1.00  0.00    -0.200 F 
ATOM     95  F   UNL A   1      47.382  36.598  28.585  1.00  0.00    -0.200 F 
ENDBRANCH  62  85
ENDBRANCH  36  37
ENDBRANCH  29  31
ENDBRANCH  28  29
ENDBRANCH  27  28
ENDBRANCH  26  27
ENDBRANCH  25  26
ENDBRANCH  24  25
ENDBRANCH   1  24
TORSDOF 21
ENDMDL
