MODEL 1
REMARK VINA RESULT:     -11.3      0.000      0.000
REMARK SMILES O=C(CSCC(=O)N1CCN(c2ccc(F)cc2)CC1)OCCOCCOCCOC(=O)c1ccc(-c2c3nc(c(-c4c(F)c(F)c(F)c(F)c4F)c4ccc([nH]4)c(-c4c(F)c(F)c(F)c(F)c4F)c4nc(c(-c5c(F)c(F)c(F)c(F)c5F)c5ccc2[nH]5)C=C4)C=C3)cc1
REMARK SMILES IDX 25 1 24 2 23 3 22 4 21 5 2 6 1 7 3 8 4 9 5 10 6 11 7 12 8 13
REMARK SMILES IDX 9 14 20 15 10 16 19 17 11 18 12 19 13 20 18 21 14 22 17 23
REMARK SMILES IDX 15 24 16 25 26 26 27 27 28 28 29 29 30 30 31 31 32 32 33 33
REMARK SMILES IDX 34 34 95 35 35 36 94 37 36 38 37 39 38 40 88 41 39 42 93 43
REMARK SMILES IDX 87 44 89 45 40 46 92 47 86 48 85 49 41 51 73 52 53 53 72 54
REMARK SMILES IDX 54 55 57 56 71 57 90 58 55 59 56 60 70 62 91 63 58 64 42 65
REMARK SMILES IDX 43 66 51 67 44 68 45 69 49 70 52 71 46 72 47 73 50 74 48 75
REMARK SMILES IDX 74 76 75 77 83 78 76 79 77 80 81 81 84 82 78 83 79 84 82 85
REMARK SMILES IDX 80 86 59 87 60 88 68 89 61 90 62 91 66 92 69 93 63 94 64 95
REMARK SMILES IDX 67 96 65 97
REMARK H PARENT 89 50 57 61
REMARK Flexibility Score: inf
ROOT
ATOM      1  C   UNL A   1      40.435  21.499  26.996  1.00  0.00     0.188 C 
ENDROOT
BRANCH   1   2
ATOM      2  O   UNL A   1      39.655  21.345  25.826  1.00  0.00    -0.376 OA
BRANCH   2   3
ATOM      3  C   UNL A   1      38.377  21.948  25.749  1.00  0.00     0.202 C 
BRANCH   3   4
ATOM      4  C   UNL A   1      37.387  21.344  24.749  1.00  0.00     0.261 C 
BRANCH   4   5
ATOM      5  O   UNL A   1      36.165  22.069  24.493  1.00  0.00    -0.463 OA
BRANCH   5   6
ATOM      6  C   UNL A   1      35.022  21.965  25.210  1.00  0.00     0.315 C 
ATOM      7  O   UNL A   1      35.001  22.265  26.401  1.00  0.00    -0.251 OA
BRANCH   6   8
ATOM      8  C   UNL A   1      33.826  21.333  24.553  1.00  0.00     0.192 C 
BRANCH   8   9
ATOM      9  S   UNL A   1      32.308  22.254  24.869  1.00  0.00    -0.140 SA
BRANCH   9  10
ATOM     10  C   UNL A   1      32.276  23.257  23.372  1.00  0.00     0.170 C 
BRANCH  10  11
ATOM     11  C   UNL A   1      33.069  24.562  23.365  1.00  0.00     0.232 C 
ATOM     12  O   UNL A   1      34.182  24.574  22.827  1.00  0.00    -0.274 OA
ATOM     13  N   UNL A   1      32.473  25.754  23.723  1.00  0.00    -0.338 N 
ATOM     14  C   UNL A   1      32.539  26.841  22.741  1.00  0.00     0.141 C 
ATOM     15  C   UNL A   1      31.496  26.014  24.788  1.00  0.00     0.141 C 
ATOM     16  C   UNL A   1      31.152  26.990  22.075  1.00  0.00     0.138 C 
ATOM     17  C   UNL A   1      30.084  26.205  24.215  1.00  0.00     0.138 C 
ATOM     18  N   UNL A   1      30.113  27.175  23.109  1.00  0.00    -0.368 N 
BRANCH  18  19
ATOM     19  C   UNL A   1      29.463  28.388  23.182  1.00  0.00     0.037 A 
ATOM     20  C   UNL A   1      28.132  28.553  22.776  1.00  0.00     0.029 A 
ATOM     21  C   UNL A   1      30.138  29.508  23.696  1.00  0.00     0.029 A 
ATOM     22  C   UNL A   1      27.490  29.789  22.898  1.00  0.00     0.041 A 
ATOM     23  C   UNL A   1      29.509  30.748  23.806  1.00  0.00     0.041 A 
ATOM     24  C   UNL A   1      28.186  30.875  23.411  1.00  0.00     0.123 A 
ATOM     25  F   UNL A   1      27.573  32.060  23.525  1.00  0.00    -0.207 F 
ENDBRANCH  18  19
ENDBRANCH  10  11
ENDBRANCH   9  10
ENDBRANCH   8   9
ENDBRANCH   6   8
ENDBRANCH   5   6
ENDBRANCH   4   5
ENDBRANCH   3   4
ENDBRANCH   2   3
ENDBRANCH   1   2
BRANCH   1  26
ATOM     26  C   UNL A   1      41.792  20.778  26.937  1.00  0.00     0.188 C 
BRANCH  26  27
ATOM     27  O   UNL A   1      42.963  21.538  26.675  1.00  0.00    -0.376 OA
BRANCH  27  28
ATOM     28  C   UNL A   1      43.795  21.168  25.579  1.00  0.00     0.202 C 
BRANCH  28  29
ATOM     29  C   UNL A   1      44.356  22.282  24.683  1.00  0.00     0.261 C 
BRANCH  29  30
ATOM     30  O   UNL A   1      43.531  23.465  24.613  1.00  0.00    -0.460 OA
BRANCH  30  31
ATOM     31  C   UNL A   1      44.149  24.616  24.974  1.00  0.00     0.338 C 
ATOM     32  O   UNL A   1      45.242  25.013  24.609  1.00  0.00    -0.246 OA
BRANCH  31  33
ATOM     33  C   UNL A   1      43.272  25.458  25.812  1.00  0.00     0.060 A 
ATOM     34  C   UNL A   1      43.686  26.770  26.074  1.00  0.00     0.016 A 
ATOM     35  C   UNL A   1      42.166  24.922  26.476  1.00  0.00     0.016 A 
ATOM     36  C   UNL A   1      43.031  27.531  27.044  1.00  0.00     0.010 A 
ATOM     37  C   UNL A   1      41.515  25.685  27.457  1.00  0.00     0.010 A 
ATOM     38  C   UNL A   1      41.972  26.977  27.777  1.00  0.00    -0.014 A 
BRANCH  38  39
ATOM     39  C   UNL A   1      41.469  27.701  28.975  1.00  0.00     0.031 A 
ATOM     40  C   UNL A   1      42.227  27.593  30.274  1.00  0.00     0.074 A 
ATOM     41  C   UNL A   1      40.395  28.508  28.898  1.00  0.00     0.049 A 
ATOM     42  N   UNL A   1      42.004  28.191  31.418  1.00  0.00    -0.248 NA
ATOM     43  C   UNL A   1      43.398  26.702  30.281  1.00  0.00     0.031 C 
ATOM     44  C   UNL A   1      39.597  28.737  27.696  1.00  0.00     0.029 A 
ATOM     45  N   UNL A   1      39.803  29.299  29.853  1.00  0.00    -0.354 N 
ATOM     46  C   UNL A   1      43.010  27.760  32.273  1.00  0.00     0.074 A 
ATOM     47  C   UNL A   1      43.824  26.823  31.530  1.00  0.00     0.031 C 
ATOM     48  C   UNL A   1      38.624  29.619  27.982  1.00  0.00     0.029 A 
ATOM     49  C   UNL A   1      38.717  30.001  29.392  1.00  0.00     0.049 A 
ATOM     50  H   UNL A   1      40.127  29.357  30.781  1.00  0.00     0.167 HD
ATOM     51  C   UNL A   1      43.246  28.124  33.556  1.00  0.00     0.037 A 
ATOM     52  C   UNL A   1      37.893  30.855  30.032  1.00  0.00     0.037 A 
ATOM     53  C   UNL A   1      42.446  29.058  34.304  1.00  0.00     0.049 A 
ATOM     54  C   UNL A   1      38.137  31.188  31.483  1.00  0.00     0.074 A 
ATOM     55  C   UNL A   1      42.625  29.494  35.605  1.00  0.00     0.029 A 
ATOM     56  N   UNL A   1      41.317  29.698  33.819  1.00  0.00    -0.354 N 
ATOM     57  N   UNL A   1      39.105  30.791  32.273  1.00  0.00    -0.248 NA
ATOM     58  C   UNL A   1      37.173  32.093  32.128  1.00  0.00     0.031 C 
ATOM     59  C   UNL A   1      41.578  30.365  35.924  1.00  0.00     0.029 A 
ATOM     60  C   UNL A   1      40.773  30.507  34.805  1.00  0.00     0.049 A 
ATOM     61  H   UNL A   1      40.955  29.594  32.910  1.00  0.00     0.167 HD
ATOM     62  C   UNL A   1      38.880  31.412  33.495  1.00  0.00     0.074 A 
ATOM     63  C   UNL A   1      37.693  32.227  33.340  1.00  0.00     0.031 C 
ATOM     64  C   UNL A   1      39.592  31.314  34.644  1.00  0.00     0.037 A 
BRANCH  51  65
ATOM     65  C   UNL A   1      44.426  27.515  34.251  1.00  0.00     0.064 A 
ATOM     66  C   UNL A   1      44.268  26.377  35.055  1.00  0.00     0.173 A 
ATOM     67  C   UNL A   1      45.693  28.113  34.196  1.00  0.00     0.173 A 
ATOM     68  F   UNL A   1      43.073  25.774  35.145  1.00  0.00    -0.203 F 
ATOM     69  C   UNL A   1      45.335  25.869  35.793  1.00  0.00     0.198 A 
ATOM     70  C   UNL A   1      46.762  27.590  34.918  1.00  0.00     0.198 A 
ATOM     71  F   UNL A   1      45.894  29.198  33.432  1.00  0.00    -0.203 F 
ATOM     72  F   UNL A   1      45.153  24.800  36.581  1.00  0.00    -0.200 F 
ATOM     73  C   UNL A   1      46.579  26.476  35.724  1.00  0.00     0.200 A 
ATOM     74  F   UNL A   1      47.969  28.167  34.838  1.00  0.00    -0.200 F 
ATOM     75  F   UNL A   1      47.604  25.986  36.434  1.00  0.00    -0.200 F 
ENDBRANCH  51  65
BRANCH  52  76
ATOM     76  C   UNL A   1      36.758  31.474  29.301  1.00  0.00     0.064 A 
ATOM     77  C   UNL A   1      35.636  30.721  28.925  1.00  0.00     0.173 A 
ATOM     78  C   UNL A   1      36.765  32.839  28.978  1.00  0.00     0.173 A 
ATOM     79  F   UNL A   1      35.579  29.411  29.211  1.00  0.00    -0.203 F 
ATOM     80  C   UNL A   1      34.571  31.307  28.244  1.00  0.00     0.198 A 
ATOM     81  C   UNL A   1      35.689  33.428  28.320  1.00  0.00     0.198 A 
ATOM     82  F   UNL A   1      37.804  33.606  29.342  1.00  0.00    -0.203 F 
ATOM     83  F   UNL A   1      33.521  30.560  27.879  1.00  0.00    -0.200 F 
ATOM     84  C   UNL A   1      34.596  32.661  27.947  1.00  0.00     0.200 A 
ATOM     85  F   UNL A   1      35.703  34.743  28.060  1.00  0.00    -0.200 F 
ATOM     86  F   UNL A   1      33.564  33.226  27.307  1.00  0.00    -0.200 F 
ENDBRANCH  52  76
BRANCH  64  87
ATOM     87  C   UNL A   1      39.123  32.109  35.828  1.00  0.00     0.064 A 
ATOM     88  C   UNL A   1      39.562  33.427  36.024  1.00  0.00     0.173 A 
ATOM     89  C   UNL A   1      38.285  31.545  36.801  1.00  0.00     0.173 A 
ATOM     90  F   UNL A   1      40.373  34.010  35.128  1.00  0.00    -0.203 F 
ATOM     91  C   UNL A   1      39.186  34.149  37.153  1.00  0.00     0.198 A 
ATOM     92  C   UNL A   1      37.889  32.279  37.917  1.00  0.00     0.198 A 
ATOM     93  F   UNL A   1      37.830  30.292  36.655  1.00  0.00    -0.203 F 
ATOM     94  F   UNL A   1      39.639  35.398  37.333  1.00  0.00    -0.200 F 
ATOM     95  C   UNL A   1      38.346  33.576  38.096  1.00  0.00     0.200 A 
ATOM     96  F   UNL A   1      37.058  31.732  38.815  1.00  0.00    -0.200 F 
ATOM     97  F   UNL A   1      37.971  34.276  39.176  1.00  0.00    -0.200 F 
ENDBRANCH  64  87
ENDBRANCH  38  39
ENDBRANCH  31  33
ENDBRANCH  30  31
ENDBRANCH  29  30
ENDBRANCH  28  29
ENDBRANCH  27  28
ENDBRANCH  26  27
ENDBRANCH   1  26
TORSDOF 21
ENDMDL
MODEL 2
REMARK VINA RESULT:     -10.7      4.182      9.614
REMARK SMILES O=C(CSCC(=O)N1CCN(c2ccc(F)cc2)CC1)OCCOCCOCCOC(=O)c1ccc(-c2c3nc(c(-c4c(F)c(F)c(F)c(F)c4F)c4ccc([nH]4)c(-c4c(F)c(F)c(F)c(F)c4F)c4nc(c(-c5c(F)c(F)c(F)c(F)c5F)c5ccc2[nH]5)C=C4)C=C3)cc1
REMARK SMILES IDX 25 1 24 2 23 3 22 4 21 5 2 6 1 7 3 8 4 9 5 10 6 11 7 12 8 13
REMARK SMILES IDX 9 14 20 15 10 16 19 17 11 18 12 19 13 20 18 21 14 22 17 23
REMARK SMILES IDX 15 24 16 25 26 26 27 27 28 28 29 29 30 30 31 31 32 32 33 33
REMARK SMILES IDX 34 34 95 35 35 36 94 37 36 38 37 39 38 40 88 41 39 42 93 43
REMARK SMILES IDX 87 44 89 45 40 46 92 47 86 48 85 49 41 51 73 52 53 53 72 54
REMARK SMILES IDX 54 55 57 56 71 57 90 58 55 59 56 60 70 62 91 63 58 64 42 65
REMARK SMILES IDX 43 66 51 67 44 68 45 69 49 70 52 71 46 72 47 73 50 74 48 75
REMARK SMILES IDX 74 76 75 77 83 78 76 79 77 80 81 81 84 82 78 83 79 84 82 85
REMARK SMILES IDX 80 86 59 87 60 88 68 89 61 90 62 91 66 92 69 93 63 94 64 95
REMARK SMILES IDX 67 96 65 97
REMARK H PARENT 89 50 57 61
REMARK Flexibility Score: inf
ROOT
ATOM      1  C   UNL A   1      34.764  32.501  29.055  1.00  0.00     0.188 C 
ENDROOT
BRANCH   1   2
ATOM      2  O   UNL A   1      34.814  31.838  27.808  1.00  0.00    -0.376 OA
BRANCH   2   3
ATOM      3  C   UNL A   1      35.472  30.588  27.702  1.00  0.00     0.202 C 
BRANCH   3   4
ATOM      4  C   UNL A   1      34.590  29.362  27.453  1.00  0.00     0.261 C 
BRANCH   4   5
ATOM      5  O   UNL A   1      34.159  29.110  26.097  1.00  0.00    -0.463 OA
BRANCH   5   6
ATOM      6  C   UNL A   1      32.945  29.420  25.585  1.00  0.00     0.315 C 
ATOM      7  O   UNL A   1      32.325  30.398  25.995  1.00  0.00    -0.251 OA
BRANCH   6   8
ATOM      8  C   UNL A   1      32.315  28.457  24.618  1.00  0.00     0.192 C 
BRANCH   8   9
ATOM      9  S   UNL A   1      33.327  26.985  24.366  1.00  0.00    -0.140 SA
BRANCH   9  10
ATOM     10  C   UNL A   1      32.067  25.729  24.660  1.00  0.00     0.170 C 
BRANCH  10  11
ATOM     11  C   UNL A   1      32.225  24.826  25.881  1.00  0.00     0.232 C 
ATOM     12  O   UNL A   1      31.602  25.109  26.911  1.00  0.00    -0.274 OA
ATOM     13  N   UNL A   1      32.844  23.597  25.776  1.00  0.00    -0.338 N 
ATOM     14  C   UNL A   1      32.073  22.434  26.225  1.00  0.00     0.141 C 
ATOM     15  C   UNL A   1      34.021  23.221  24.982  1.00  0.00     0.141 C 
ATOM     16  C   UNL A   1      31.570  21.664  24.983  1.00  0.00     0.138 C 
ATOM     17  C   UNL A   1      33.618  22.422  23.733  1.00  0.00     0.138 C 
ATOM     18  N   UNL A   1      32.707  21.327  24.103  1.00  0.00    -0.368 N 
BRANCH  18  19
ATOM     19  C   UNL A   1      33.056  20.002  23.951  1.00  0.00     0.037 A 
ATOM     20  C   UNL A   1      32.303  19.112  23.173  1.00  0.00     0.029 A 
ATOM     21  C   UNL A   1      34.213  19.512  24.579  1.00  0.00     0.029 A 
ATOM     22  C   UNL A   1      32.704  17.783  23.009  1.00  0.00     0.041 A 
ATOM     23  C   UNL A   1      34.610  18.183  24.434  1.00  0.00     0.041 A 
ATOM     24  C   UNL A   1      33.853  17.331  23.643  1.00  0.00     0.123 A 
ATOM     25  F   UNL A   1      34.236  16.057  23.491  1.00  0.00    -0.207 F 
ENDBRANCH  18  19
ENDBRANCH  10  11
ENDBRANCH   9  10
ENDBRANCH   8   9
ENDBRANCH   6   8
ENDBRANCH   5   6
ENDBRANCH   4   5
ENDBRANCH   3   4
ENDBRANCH   2   3
ENDBRANCH   1   2
BRANCH   1  26
ATOM     26  C   UNL A   1      35.621  33.777  29.116  1.00  0.00     0.188 C 
BRANCH  26  27
ATOM     27  O   UNL A   1      35.134  34.961  28.501  1.00  0.00    -0.376 OA
BRANCH  27  28
ATOM     28  C   UNL A   1      33.726  35.147  28.381  1.00  0.00     0.202 C 
BRANCH  28  29
ATOM     29  C   UNL A   1      32.985  35.848  29.529  1.00  0.00     0.261 C 
BRANCH  29  30
ATOM     30  O   UNL A   1      32.609  34.976  30.617  1.00  0.00    -0.460 OA
BRANCH  30  31
ATOM     31  C   UNL A   1      32.727  35.521  31.852  1.00  0.00     0.338 C 
ATOM     32  O   UNL A   1      31.957  36.295  32.395  1.00  0.00    -0.246 OA
BRANCH  31  33
ATOM     33  C   UNL A   1      33.885  34.963  32.578  1.00  0.00     0.060 A 
ATOM     34  C   UNL A   1      35.094  35.666  32.513  1.00  0.00     0.016 A 
ATOM     35  C   UNL A   1      33.839  33.692  33.155  1.00  0.00     0.016 A 
ATOM     36  C   UNL A   1      36.274  35.076  32.972  1.00  0.00     0.010 A 
ATOM     37  C   UNL A   1      35.027  33.096  33.606  1.00  0.00     0.010 A 
ATOM     38  C   UNL A   1      36.257  33.768  33.476  1.00  0.00    -0.014 A 
BRANCH  38  39
ATOM     39  C   UNL A   1      37.548  33.068  33.707  1.00  0.00     0.031 A 
ATOM     40  C   UNL A   1      38.322  33.346  34.971  1.00  0.00     0.074 A 
ATOM     41  C   UNL A   1      37.998  32.138  32.844  1.00  0.00     0.049 A 
ATOM     42  N   UNL A   1      39.432  32.800  35.402  1.00  0.00    -0.248 NA
ATOM     43  C   UNL A   1      37.765  34.366  35.873  1.00  0.00     0.031 C 
ATOM     44  C   UNL A   1      37.328  31.741  31.608  1.00  0.00     0.029 A 
ATOM     45  N   UNL A   1      39.119  31.346  32.890  1.00  0.00    -0.354 N 
ATOM     46  C   UNL A   1      39.698  33.399  36.626  1.00  0.00     0.074 A 
ATOM     47  C   UNL A   1      38.655  34.376  36.855  1.00  0.00     0.031 C 
ATOM     48  C   UNL A   1      38.047  30.772  31.016  1.00  0.00     0.029 A 
ATOM     49  C   UNL A   1      39.238  30.495  31.820  1.00  0.00     0.049 A 
ATOM     50  H   UNL A   1      39.777  31.386  33.622  1.00  0.00     0.167 HD
ATOM     51  C   UNL A   1      40.709  33.147  37.492  1.00  0.00     0.037 A 
ATOM     52  C   UNL A   1      40.196  29.593  31.523  1.00  0.00     0.037 A 
ATOM     53  C   UNL A   1      41.750  32.176  37.278  1.00  0.00     0.049 A 
ATOM     54  C   UNL A   1      41.350  29.384  32.471  1.00  0.00     0.074 A 
ATOM     55  C   UNL A   1      42.804  31.848  38.112  1.00  0.00     0.029 A 
ATOM     56  N   UNL A   1      41.868  31.379  36.151  1.00  0.00    -0.354 N 
ATOM     57  N   UNL A   1      41.577  29.940  33.636  1.00  0.00    -0.248 NA
ATOM     58  C   UNL A   1      42.379  28.415  32.062  1.00  0.00     0.031 C 
ATOM     59  C   UNL A   1      43.587  30.883  37.470  1.00  0.00     0.029 A 
ATOM     60  C   UNL A   1      42.994  30.578  36.256  1.00  0.00     0.049 A 
ATOM     61  H   UNL A   1      41.245  31.382  35.388  1.00  0.00     0.167 HD
ATOM     62  C   UNL A   1      42.757  29.376  34.106  1.00  0.00     0.074 A 
ATOM     63  C   UNL A   1      43.191  28.421  33.109  1.00  0.00     0.031 C 
ATOM     64  C   UNL A   1      43.420  29.630  35.260  1.00  0.00     0.037 A 
BRANCH  51  65
ATOM     65  C   UNL A   1      40.751  33.933  38.768  1.00  0.00     0.064 A 
ATOM     66  C   UNL A   1      40.031  33.506  39.891  1.00  0.00     0.173 A 
ATOM     67  C   UNL A   1      41.430  35.158  38.846  1.00  0.00     0.173 A 
ATOM     68  F   UNL A   1      39.360  32.344  39.862  1.00  0.00    -0.203 F 
ATOM     69  C   UNL A   1      39.974  34.285  41.044  1.00  0.00     0.198 A 
ATOM     70  C   UNL A   1      41.388  35.925  40.007  1.00  0.00     0.198 A 
ATOM     71  F   UNL A   1      42.140  35.604  37.799  1.00  0.00    -0.203 F 
ATOM     72  F   UNL A   1      39.252  33.872  42.095  1.00  0.00    -0.200 F 
ATOM     73  C   UNL A   1      40.652  35.493  41.100  1.00  0.00     0.200 A 
ATOM     74  F   UNL A   1      42.057  37.084  40.067  1.00  0.00    -0.200 F 
ATOM     75  F   UNL A   1      40.596  36.242  42.210  1.00  0.00    -0.200 F 
ENDBRANCH  51  65
BRANCH  52  76
ATOM     76  C   UNL A   1      40.101  28.800  30.270  1.00  0.00     0.064 A 
ATOM     77  C   UNL A   1      39.477  27.544  30.248  1.00  0.00     0.173 A 
ATOM     78  C   UNL A   1      40.618  29.293  29.063  1.00  0.00     0.173 A 
ATOM     79  F   UNL A   1      38.964  27.028  31.376  1.00  0.00    -0.203 F 
ATOM     80  C   UNL A   1      39.385  26.807  29.070  1.00  0.00     0.198 A 
ATOM     81  C   UNL A   1      40.504  28.565  27.882  1.00  0.00     0.198 A 
ATOM     82  F   UNL A   1      41.199  30.501  29.029  1.00  0.00    -0.203 F 
ATOM     83  F   UNL A   1      38.803  25.600  29.081  1.00  0.00    -0.200 F 
ATOM     84  C   UNL A   1      39.894  27.320  27.886  1.00  0.00     0.200 A 
ATOM     85  F   UNL A   1      40.970  29.077  26.734  1.00  0.00    -0.200 F 
ATOM     86  F   UNL A   1      39.791  26.617  26.751  1.00  0.00    -0.200 F 
ENDBRANCH  52  76
BRANCH  64  87
ATOM     87  C   UNL A   1      44.684  28.862  35.522  1.00  0.00     0.064 A 
ATOM     88  C   UNL A   1      44.644  27.619  36.172  1.00  0.00     0.173 A 
ATOM     89  C   UNL A   1      45.940  29.386  35.185  1.00  0.00     0.173 A 
ATOM     90  F   UNL A   1      43.468  27.079  36.527  1.00  0.00    -0.203 F 
ATOM     91  C   UNL A   1      45.815  26.932  36.480  1.00  0.00     0.198 A 
ATOM     92  C   UNL A   1      47.109  28.684  35.470  1.00  0.00     0.198 A 
ATOM     93  F   UNL A   1      46.032  30.565  34.553  1.00  0.00    -0.203 F 
ATOM     94  F   UNL A   1      45.754  25.759  37.125  1.00  0.00    -0.200 F 
ATOM     95  C   UNL A   1      47.046  27.463  36.125  1.00  0.00     0.200 A 
ATOM     96  F   UNL A   1      48.296  29.186  35.104  1.00  0.00    -0.200 F 
ATOM     97  F   UNL A   1      48.173  26.793  36.406  1.00  0.00    -0.200 F 
ENDBRANCH  64  87
ENDBRANCH  38  39
ENDBRANCH  31  33
ENDBRANCH  30  31
ENDBRANCH  29  30
ENDBRANCH  28  29
ENDBRANCH  27  28
ENDBRANCH  26  27
ENDBRANCH   1  26
TORSDOF 21
ENDMDL
MODEL 3
REMARK VINA RESULT:     -10.6      4.207     10.231
REMARK SMILES O=C(CSCC(=O)N1CCN(c2ccc(F)cc2)CC1)OCCOCCOCCOC(=O)c1ccc(-c2c3nc(c(-c4c(F)c(F)c(F)c(F)c4F)c4ccc([nH]4)c(-c4c(F)c(F)c(F)c(F)c4F)c4nc(c(-c5c(F)c(F)c(F)c(F)c5F)c5ccc2[nH]5)C=C4)C=C3)cc1
REMARK SMILES IDX 25 1 24 2 23 3 22 4 21 5 2 6 1 7 3 8 4 9 5 10 6 11 7 12 8 13
REMARK SMILES IDX 9 14 20 15 10 16 19 17 11 18 12 19 13 20 18 21 14 22 17 23
REMARK SMILES IDX 15 24 16 25 26 26 27 27 28 28 29 29 30 30 31 31 32 32 33 33
REMARK SMILES IDX 34 34 95 35 35 36 94 37 36 38 37 39 38 40 88 41 39 42 93 43
REMARK SMILES IDX 87 44 89 45 40 46 92 47 86 48 85 49 41 51 73 52 53 53 72 54
REMARK SMILES IDX 54 55 57 56 71 57 90 58 55 59 56 60 70 62 91 63 58 64 42 65
REMARK SMILES IDX 43 66 51 67 44 68 45 69 49 70 52 71 46 72 47 73 50 74 48 75
REMARK SMILES IDX 74 76 75 77 83 78 76 79 77 80 81 81 84 82 78 83 79 84 82 85
REMARK SMILES IDX 80 86 59 87 60 88 68 89 61 90 62 91 66 92 69 93 63 94 64 95
REMARK SMILES IDX 67 96 65 97
REMARK H PARENT 89 50 57 61
REMARK Flexibility Score: inf
ROOT
ATOM      1  C   UNL A   1      34.763  31.923  28.908  1.00  0.00     0.188 C 
ENDROOT
BRANCH   1   2
ATOM      2  O   UNL A   1      34.627  31.309  27.641  1.00  0.00    -0.376 OA
BRANCH   2   3
ATOM      3  C   UNL A   1      34.982  29.949  27.477  1.00  0.00     0.202 C 
BRANCH   3   4
ATOM      4  C   UNL A   1      33.835  28.954  27.281  1.00  0.00     0.261 C 
BRANCH   4   5
ATOM      5  O   UNL A   1      33.330  28.769  25.940  1.00  0.00    -0.463 OA
BRANCH   5   6
ATOM      6  C   UNL A   1      32.174  29.280  25.456  1.00  0.00     0.315 C 
ATOM      7  O   UNL A   1      31.734  30.344  25.881  1.00  0.00    -0.251 OA
BRANCH   6   8
ATOM      8  C   UNL A   1      31.371  28.439  24.502  1.00  0.00     0.192 C 
BRANCH   8   9
ATOM      9  S   UNL A   1      32.310  27.031  23.878  1.00  0.00    -0.140 SA
BRANCH   9  10
ATOM     10  C   UNL A   1      31.383  25.706  24.675  1.00  0.00     0.170 C 
BRANCH  10  11
ATOM     11  C   UNL A   1      32.064  24.930  25.800  1.00  0.00     0.232 C 
ATOM     12  O   UNL A   1      31.796  25.227  26.970  1.00  0.00    -0.274 OA
ATOM     13  N   UNL A   1      32.765  23.771  25.536  1.00  0.00    -0.338 N 
ATOM     14  C   UNL A   1      32.353  22.572  26.271  1.00  0.00     0.141 C 
ATOM     15  C   UNL A   1      33.641  23.462  24.398  1.00  0.00     0.141 C 
ATOM     16  C   UNL A   1      31.563  21.651  25.313  1.00  0.00     0.138 C 
ATOM     17  C   UNL A   1      32.947  22.523  23.400  1.00  0.00     0.138 C 
ATOM     18  N   UNL A   1      32.368  21.370  24.107  1.00  0.00    -0.368 N 
BRANCH  18  19
ATOM     19  C   UNL A   1      32.815  20.083  23.897  1.00  0.00     0.037 A 
ATOM     20  C   UNL A   1      33.871  19.526  24.631  1.00  0.00     0.029 A 
ATOM     21  C   UNL A   1      32.191  19.280  22.928  1.00  0.00     0.029 A 
ATOM     22  C   UNL A   1      34.277  18.205  24.419  1.00  0.00     0.041 A 
ATOM     23  C   UNL A   1      32.602  17.966  22.700  1.00  0.00     0.041 A 
ATOM     24  C   UNL A   1      33.639  17.439  23.454  1.00  0.00     0.123 A 
ATOM     25  F   UNL A   1      34.029  16.175  23.247  1.00  0.00    -0.207 F 
ENDBRANCH  18  19
ENDBRANCH  10  11
ENDBRANCH   9  10
ENDBRANCH   8   9
ENDBRANCH   6   8
ENDBRANCH   5   6
ENDBRANCH   4   5
ENDBRANCH   3   4
ENDBRANCH   2   3
ENDBRANCH   1   2
BRANCH   1  26
ATOM     26  C   UNL A   1      35.704  33.139  28.911  1.00  0.00     0.188 C 
BRANCH  26  27
ATOM     27  O   UNL A   1      35.244  34.365  28.363  1.00  0.00    -0.376 OA
BRANCH  27  28
ATOM     28  C   UNL A   1      33.841  34.585  28.247  1.00  0.00     0.202 C 
BRANCH  28  29
ATOM     29  C   UNL A   1      33.158  35.492  29.281  1.00  0.00     0.261 C 
BRANCH  29  30
ATOM     30  O   UNL A   1      32.797  34.828  30.511  1.00  0.00    -0.460 OA
BRANCH  30  31
ATOM     31  C   UNL A   1      32.978  35.566  31.634  1.00  0.00     0.338 C 
ATOM     32  O   UNL A   1      32.334  36.538  31.989  1.00  0.00    -0.246 OA
BRANCH  31  33
ATOM     33  C   UNL A   1      34.014  34.976  32.505  1.00  0.00     0.060 A 
ATOM     34  C   UNL A   1      35.238  35.648  32.605  1.00  0.00     0.016 A 
ATOM     35  C   UNL A   1      33.859  33.706  33.063  1.00  0.00     0.016 A 
ATOM     36  C   UNL A   1      36.331  35.026  33.214  1.00  0.00     0.010 A 
ATOM     37  C   UNL A   1      34.960  33.079  33.666  1.00  0.00     0.010 A 
ATOM     38  C   UNL A   1      36.213  33.718  33.704  1.00  0.00    -0.014 A 
BRANCH  38  39
ATOM     39  C   UNL A   1      37.444  32.984  34.101  1.00  0.00     0.031 A 
ATOM     40  C   UNL A   1      38.015  31.944  33.171  1.00  0.00     0.074 A 
ATOM     41  C   UNL A   1      38.096  33.287  35.239  1.00  0.00     0.049 A 
ATOM     42  N   UNL A   1      39.111  31.236  33.289  1.00  0.00    -0.248 NA
ATOM     43  C   UNL A   1      37.255  31.674  31.940  1.00  0.00     0.031 C 
ATOM     44  C   UNL A   1      37.679  34.300  36.205  1.00  0.00     0.029 A 
ATOM     45  N   UNL A   1      39.261  32.779  35.762  1.00  0.00    -0.354 N 
ATOM     46  C   UNL A   1      39.179  30.450  32.146  1.00  0.00     0.074 A 
ATOM     47  C   UNL A   1      37.997  30.738  31.363  1.00  0.00     0.031 C 
ATOM     48  C   UNL A   1      38.581  34.346  37.202  1.00  0.00     0.029 A 
ATOM     49  C   UNL A   1      39.627  33.354  36.953  1.00  0.00     0.049 A 
ATOM     50  H   UNL A   1      39.784  32.070  35.324  1.00  0.00     0.167 HD
ATOM     51  C   UNL A   1      40.146  29.579  31.772  1.00  0.00     0.037 A 
ATOM     52  C   UNL A   1      40.685  33.110  37.753  1.00  0.00     0.037 A 
ATOM     53  C   UNL A   1      41.328  29.286  32.539  1.00  0.00     0.049 A 
ATOM     54  C   UNL A   1      41.711  32.081  37.347  1.00  0.00     0.074 A 
ATOM     55  C   UNL A   1      42.367  28.427  32.226  1.00  0.00     0.029 A 
ATOM     56  N   UNL A   1      41.629  29.844  33.772  1.00  0.00    -0.354 N 
ATOM     57  N   UNL A   1      41.775  31.361  36.252  1.00  0.00    -0.248 NA
ATOM     58  C   UNL A   1      42.816  31.836  38.287  1.00  0.00     0.031 C 
ATOM     59  C   UNL A   1      43.275  28.430  33.289  1.00  0.00     0.029 A 
ATOM     60  C   UNL A   1      42.825  29.326  34.244  1.00  0.00     0.049 A 
ATOM     61  H   UNL A   1      41.075  30.508  34.242  1.00  0.00     0.167 HD
ATOM     62  C   UNL A   1      42.931  30.598  36.363  1.00  0.00     0.074 A 
ATOM     63  C   UNL A   1      43.549  30.954  37.623  1.00  0.00     0.031 C 
ATOM     64  C   UNL A   1      43.433  29.684  35.499  1.00  0.00     0.037 A 
BRANCH  51  65
ATOM     65  C   UNL A   1      39.979  28.866  30.464  1.00  0.00     0.064 A 
ATOM     66  C   UNL A   1      39.375  27.603  30.414  1.00  0.00     0.173 A 
ATOM     67  C   UNL A   1      40.503  29.394  29.275  1.00  0.00     0.173 A 
ATOM     68  F   UNL A   1      38.865  27.053  31.527  1.00  0.00    -0.203 F 
ATOM     69  C   UNL A   1      39.315  26.884  29.223  1.00  0.00     0.198 A 
ATOM     70  C   UNL A   1      40.422  28.682  28.081  1.00  0.00     0.198 A 
ATOM     71  F   UNL A   1      41.082  30.604  29.271  1.00  0.00    -0.203 F 
ATOM     72  F   UNL A   1      38.761  25.663  29.205  1.00  0.00    -0.200 F 
ATOM     73  C   UNL A   1      39.838  27.424  28.058  1.00  0.00     0.200 A 
ATOM     74  F   UNL A   1      40.914  29.213  26.952  1.00  0.00    -0.200 F 
ATOM     75  F   UNL A   1      39.780  26.732  26.912  1.00  0.00    -0.200 F 
ENDBRANCH  51  65
BRANCH  52  76
ATOM     76  C   UNL A   1      40.842  33.865  39.022  1.00  0.00     0.064 A 
ATOM     77  C   UNL A   1      41.620  35.030  39.085  1.00  0.00     0.173 A 
ATOM     78  C   UNL A   1      40.201  33.443  40.197  1.00  0.00     0.173 A 
ATOM     79  F   UNL A   1      42.252  35.476  37.989  1.00  0.00    -0.203 F 
ATOM     80  C   UNL A   1      41.760  35.739  40.277  1.00  0.00     0.198 A 
ATOM     81  C   UNL A   1      40.323  34.166  41.381  1.00  0.00     0.198 A 
ATOM     82  F   UNL A   1      39.425  32.350  40.179  1.00  0.00    -0.203 F 
ATOM     83  F   UNL A   1      42.525  36.837  40.314  1.00  0.00    -0.200 F 
ATOM     84  C   UNL A   1      41.107  35.309  41.422  1.00  0.00     0.200 A 
ATOM     85  F   UNL A   1      39.667  33.765  42.479  1.00  0.00    -0.200 F 
ATOM     86  F   UNL A   1      41.229  36.000  42.563  1.00  0.00    -0.200 F 
ENDBRANCH  52  76
BRANCH  64  87
ATOM     87  C   UNL A   1      44.719  29.003  35.871  1.00  0.00     0.064 A 
ATOM     88  C   UNL A   1      45.954  29.545  35.482  1.00  0.00     0.173 A 
ATOM     89  C   UNL A   1      44.726  27.781  36.560  1.00  0.00     0.173 A 
ATOM     90  F   UNL A   1      46.002  30.706  34.811  1.00  0.00    -0.203 F 
ATOM     91  C   UNL A   1      47.147  28.886  35.764  1.00  0.00     0.198 A 
ATOM     92  C   UNL A   1      45.923  27.138  36.863  1.00  0.00     0.198 A 
ATOM     93  F   UNL A   1      43.573  27.227  36.962  1.00  0.00    -0.203 F 
ATOM     94  F   UNL A   1      48.313  29.409  35.360  1.00  0.00    -0.200 F 
ATOM     95  C   UNL A   1      47.131  27.685  36.458  1.00  0.00     0.200 A 
ATOM     96  F   UNL A   1      45.908  25.990  37.556  1.00  0.00    -0.200 F 
ATOM     97  F   UNL A   1      48.281  27.059  36.744  1.00  0.00    -0.200 F 
ENDBRANCH  64  87
ENDBRANCH  38  39
ENDBRANCH  31  33
ENDBRANCH  30  31
ENDBRANCH  29  30
ENDBRANCH  28  29
ENDBRANCH  27  28
ENDBRANCH  26  27
ENDBRANCH   1  26
TORSDOF 21
ENDMDL
