MODEL 1
REMARK VINA RESULT:     -10.9      0.000      0.000
REMARK SMILES C[C@@H](Sc1nc2ccccc2c(=O)n1N)C(=O)OCCOCCOCCOC(=O)c1ccc(-c2c3nc(c(-c4c(F)c(F)c(F)c(F)c4F)c4ccc([nH]4)c(-c4c(F)c(F)c(F)c(F)c4F)c4nc(c(-c5c(F)c(F)c(F)c(F)c5F)c5ccc2[nH]5)C=C4)C=C3)cc1
REMARK SMILES IDX 22 1 21 2 20 3 19 4 18 5 16 6 17 7 2 8 1 9 3 10 4 11 5 12
REMARK SMILES IDX 14 13 6 14 12 15 7 16 11 17 13 18 8 19 10 20 9 21 15 22
REMARK SMILES IDX 23 25 24 26 25 27 26 28 27 29 28 30 29 31 30 32 31 33 92 34
REMARK SMILES IDX 32 35 91 36 33 37 34 38 35 39 85 40 36 41 90 42 84 43 86 44
REMARK SMILES IDX 37 45 89 46 83 47 82 48 38 50 70 51 50 52 69 53 51 54 54 55
REMARK SMILES IDX 68 56 87 57 52 58 53 59 67 61 88 62 55 63 39 64 40 65 48 66
REMARK SMILES IDX 41 67 42 68 46 69 49 70 43 71 44 72 47 73 45 74 71 75 72 76
REMARK SMILES IDX 80 77 73 78 74 79 78 80 81 81 75 82 76 83 79 84 77 85 56 86
REMARK SMILES IDX 57 87 65 88 58 89 59 90 63 91 66 92 60 93 61 94 64 95 62 96
REMARK H PARENT 15 23 15 24 86 49 54 60
REMARK Flexibility Score: inf
ROOT
ATOM      1  C   UNL A   1      33.508  33.114  28.015  1.00  0.00     0.188 C 
ENDROOT
BRANCH   1   2
ATOM      2  O   UNL A   1      34.008  31.794  28.168  1.00  0.00    -0.376 OA
BRANCH   2   3
ATOM      3  C   UNL A   1      33.820  30.839  27.129  1.00  0.00     0.202 C 
BRANCH   3   4
ATOM      4  C   UNL A   1      34.163  29.361  27.384  1.00  0.00     0.261 C 
BRANCH   4   5
ATOM      5  O   UNL A   1      33.711  28.426  26.383  1.00  0.00    -0.462 OA
BRANCH   5   6
ATOM      6  C   UNL A   1      32.402  28.514  26.025  1.00  0.00     0.319 C 
ATOM      7  O   UNL A   1      31.478  28.545  26.835  1.00  0.00    -0.251 OA
BRANCH   6   8
ATOM      8  C   UNL A   1      32.164  28.643  24.509  1.00  0.00     0.161 C 
ATOM      9  C   UNL A   1      33.369  28.582  23.566  1.00  0.00     0.032 C 
BRANCH   8  10
ATOM     10  S   UNL A   1      30.916  27.373  24.093  1.00  0.00    -0.071 SA
BRANCH  10  11
ATOM     11  C   UNL A   1      31.705  25.926  24.667  1.00  0.00     0.191 A 
ATOM     12  N   UNL A   1      32.746  25.543  24.006  1.00  0.00    -0.222 NA
ATOM     13  N   UNL A   1      31.245  25.306  25.824  1.00  0.00    -0.202 N 
ATOM     14  C   UNL A   1      33.491  24.472  24.507  1.00  0.00     0.079 A 
ATOM     15  C   UNL A   1      31.962  24.267  26.421  1.00  0.00     0.280 A 
ATOM     16  C   UNL A   1      34.624  24.066  23.800  1.00  0.00     0.029 A 
ATOM     17  C   UNL A   1      33.188  23.846  25.716  1.00  0.00     0.068 A 
ATOM     18  O   UNL A   1      31.625  23.731  27.476  1.00  0.00    -0.267 OA
ATOM     19  C   UNL A   1      35.465  23.079  24.316  1.00  0.00     0.002 A 
ATOM     20  C   UNL A   1      34.027  22.861  26.247  1.00  0.00     0.016 A 
ATOM     21  C   UNL A   1      35.175  22.488  25.546  1.00  0.00     0.001 A 
BRANCH  13  22
ATOM     22  N   UNL A   1      30.022  25.696  26.465  1.00  0.00    -0.334 N 
ATOM     23  H   UNL A   1      30.033  26.005  27.400  1.00  0.00     0.178 HD
ATOM     24  H   UNL A   1      29.172  25.657  25.970  1.00  0.00     0.178 HD
ENDBRANCH  13  22
ENDBRANCH  10  11
ENDBRANCH   8  10
ENDBRANCH   6   8
ENDBRANCH   5   6
ENDBRANCH   4   5
ENDBRANCH   3   4
ENDBRANCH   2   3
ENDBRANCH   1   2
BRANCH   1  25
ATOM     25  C   UNL A   1      34.487  34.297  27.933  1.00  0.00     0.188 C 
BRANCH  25  26
ATOM     26  O   UNL A   1      34.151  35.398  28.741  1.00  0.00    -0.376 OA
BRANCH  26  27
ATOM     27  C   UNL A   1      33.453  35.161  29.948  1.00  0.00     0.202 C 
BRANCH  27  28
ATOM     28  C   UNL A   1      34.227  34.944  31.262  1.00  0.00     0.261 C 
BRANCH  28  29
ATOM     29  O   UNL A   1      35.414  34.133  31.203  1.00  0.00    -0.460 OA
BRANCH  29  30
ATOM     30  C   UNL A   1      35.320  32.845  31.606  1.00  0.00     0.338 C 
ATOM     31  O   UNL A   1      34.338  32.288  32.070  1.00  0.00    -0.246 OA
BRANCH  30  32
ATOM     32  C   UNL A   1      36.558  32.158  31.172  1.00  0.00     0.060 A 
ATOM     33  C   UNL A   1      37.337  31.476  32.119  1.00  0.00     0.016 A 
ATOM     34  C   UNL A   1      36.921  32.145  29.826  1.00  0.00     0.016 A 
ATOM     35  C   UNL A   1      38.472  30.764  31.718  1.00  0.00     0.010 A 
ATOM     36  C   UNL A   1      38.076  31.461  29.431  1.00  0.00     0.010 A 
ATOM     37  C   UNL A   1      38.863  30.772  30.373  1.00  0.00    -0.014 A 
BRANCH  37  38
ATOM     38  C   UNL A   1      40.152  30.175  29.943  1.00  0.00     0.031 A 
ATOM     39  C   UNL A   1      41.349  31.073  29.806  1.00  0.00     0.074 A 
ATOM     40  C   UNL A   1      40.248  28.873  29.619  1.00  0.00     0.049 A 
ATOM     41  N   UNL A   1      42.519  30.827  29.273  1.00  0.00    -0.248 NA
ATOM     42  C   UNL A   1      41.203  32.438  30.336  1.00  0.00     0.031 C 
ATOM     43  C   UNL A   1      39.178  27.888  29.752  1.00  0.00     0.029 A 
ATOM     44  N   UNL A   1      41.293  28.164  29.075  1.00  0.00    -0.354 N 
ATOM     45  C   UNL A   1      43.235  32.012  29.375  1.00  0.00     0.074 A 
ATOM     46  C   UNL A   1      42.370  32.978  30.019  1.00  0.00     0.031 C 
ATOM     47  C   UNL A   1      39.607  26.710  29.264  1.00  0.00     0.029 A 
ATOM     48  C   UNL A   1      40.963  26.872  28.738  1.00  0.00     0.049 A 
ATOM     49  H   UNL A   1      42.191  28.544  28.939  1.00  0.00     0.167 HD
ATOM     50  C   UNL A   1      44.496  32.269  28.960  1.00  0.00     0.037 A 
ATOM     51  C   UNL A   1      41.653  25.949  28.038  1.00  0.00     0.037 A 
ATOM     52  C   UNL A   1      45.357  31.300  28.333  1.00  0.00     0.049 A 
ATOM     53  C   UNL A   1      43.031  26.290  27.517  1.00  0.00     0.074 A 
ATOM     54  C   UNL A   1      46.673  31.452  27.933  1.00  0.00     0.029 A 
ATOM     55  N   UNL A   1      44.984  30.008  28.000  1.00  0.00    -0.354 N 
ATOM     56  N   UNL A   1      43.722  27.395  27.657  1.00  0.00    -0.248 NA
ATOM     57  C   UNL A   1      43.720  25.255  26.730  1.00  0.00     0.031 C 
ATOM     58  C   UNL A   1      47.071  30.278  27.290  1.00  0.00     0.029 A 
ATOM     59  C   UNL A   1      46.028  29.369  27.352  1.00  0.00     0.049 A 
ATOM     60  H   UNL A   1      44.107  29.605  28.194  1.00  0.00     0.167 HD
ATOM     61  C   UNL A   1      44.930  27.177  27.004  1.00  0.00     0.074 A 
ATOM     62  C   UNL A   1      44.889  25.829  26.483  1.00  0.00     0.031 C 
ATOM     63  C   UNL A   1      45.979  28.022  26.846  1.00  0.00     0.037 A 
BRANCH  50  64
ATOM     64  C   UNL A   1      45.024  33.663  29.123  1.00  0.00     0.064 A 
ATOM     65  C   UNL A   1      45.782  34.045  30.239  1.00  0.00     0.173 A 
ATOM     66  C   UNL A   1      44.836  34.606  28.101  1.00  0.00     0.173 A 
ATOM     67  F   UNL A   1      45.981  33.186  31.248  1.00  0.00    -0.203 F 
ATOM     68  C   UNL A   1      46.323  35.326  30.329  1.00  0.00     0.198 A 
ATOM     69  C   UNL A   1      45.402  35.874  28.181  1.00  0.00     0.198 A 
ATOM     70  F   UNL A   1      44.122  34.288  27.011  1.00  0.00    -0.203 F 
ATOM     71  F   UNL A   1      47.019  35.682  31.417  1.00  0.00    -0.200 F 
ATOM     72  C   UNL A   1      46.143  36.235  29.296  1.00  0.00     0.200 A 
ATOM     73  F   UNL A   1      45.241  36.744  27.174  1.00  0.00    -0.200 F 
ATOM     74  F   UNL A   1      46.684  37.458  29.375  1.00  0.00    -0.200 F 
ENDBRANCH  50  64
BRANCH  51  75
ATOM     75  C   UNL A   1      41.041  24.629  27.723  1.00  0.00     0.064 A 
ATOM     76  C   UNL A   1      41.528  23.446  28.297  1.00  0.00     0.173 A 
ATOM     77  C   UNL A   1      39.999  24.515  26.789  1.00  0.00     0.173 A 
ATOM     78  F   UNL A   1      42.546  23.494  29.170  1.00  0.00    -0.203 F 
ATOM     79  C   UNL A   1      41.020  22.201  27.926  1.00  0.00     0.198 A 
ATOM     80  C   UNL A   1      39.467  23.274  26.447  1.00  0.00     0.198 A 
ATOM     81  F   UNL A   1      39.501  25.612  26.201  1.00  0.00    -0.203 F 
ATOM     82  F   UNL A   1      41.554  21.083  28.436  1.00  0.00    -0.200 F 
ATOM     83  C   UNL A   1      39.986  22.116  27.006  1.00  0.00     0.200 A 
ATOM     84  F   UNL A   1      38.462  23.197  25.564  1.00  0.00    -0.200 F 
ATOM     85  F   UNL A   1      39.505  20.919  26.643  1.00  0.00    -0.200 F 
ENDBRANCH  51  75
BRANCH  63  86
ATOM     86  C   UNL A   1      47.185  27.513  26.108  1.00  0.00     0.064 A 
ATOM     87  C   UNL A   1      47.301  27.630  24.715  1.00  0.00     0.173 A 
ATOM     88  C   UNL A   1      48.269  26.965  26.812  1.00  0.00     0.173 A 
ATOM     89  F   UNL A   1      46.288  28.133  23.994  1.00  0.00    -0.203 F 
ATOM     90  C   UNL A   1      48.449  27.201  24.053  1.00  0.00     0.198 A 
ATOM     91  C   UNL A   1      49.429  26.568  26.150  1.00  0.00     0.198 A 
ATOM     92  F   UNL A   1      48.216  26.838  28.146  1.00  0.00    -0.203 F 
ATOM     93  F   UNL A   1      48.520  27.285  22.717  1.00  0.00    -0.200 F 
ATOM     94  C   UNL A   1      49.516  26.681  24.771  1.00  0.00     0.200 A 
ATOM     95  F   UNL A   1      50.466  26.085  26.849  1.00  0.00    -0.200 F 
ATOM     96  F   UNL A   1      50.626  26.287  24.135  1.00  0.00    -0.200 F 
ENDBRANCH  63  86
ENDBRANCH  37  38
ENDBRANCH  30  32
ENDBRANCH  29  30
ENDBRANCH  28  29
ENDBRANCH  27  28
ENDBRANCH  26  27
ENDBRANCH  25  26
ENDBRANCH   1  25
TORSDOF 20
ENDMDL
MODEL 2
REMARK VINA RESULT:     -10.7      3.587      9.301
REMARK SMILES C[C@@H](Sc1nc2ccccc2c(=O)n1N)C(=O)OCCOCCOCCOC(=O)c1ccc(-c2c3nc(c(-c4c(F)c(F)c(F)c(F)c4F)c4ccc([nH]4)c(-c4c(F)c(F)c(F)c(F)c4F)c4nc(c(-c5c(F)c(F)c(F)c(F)c5F)c5ccc2[nH]5)C=C4)C=C3)cc1
REMARK SMILES IDX 22 1 21 2 20 3 19 4 18 5 16 6 17 7 2 8 1 9 3 10 4 11 5 12
REMARK SMILES IDX 14 13 6 14 12 15 7 16 11 17 13 18 8 19 10 20 9 21 15 22
REMARK SMILES IDX 23 25 24 26 25 27 26 28 27 29 28 30 29 31 30 32 31 33 92 34
REMARK SMILES IDX 32 35 91 36 33 37 34 38 35 39 85 40 36 41 90 42 84 43 86 44
REMARK SMILES IDX 37 45 89 46 83 47 82 48 38 50 70 51 50 52 69 53 51 54 54 55
REMARK SMILES IDX 68 56 87 57 52 58 53 59 67 61 88 62 55 63 39 64 40 65 48 66
REMARK SMILES IDX 41 67 42 68 46 69 49 70 43 71 44 72 47 73 45 74 71 75 72 76
REMARK SMILES IDX 80 77 73 78 74 79 78 80 81 81 75 82 76 83 79 84 77 85 56 86
REMARK SMILES IDX 57 87 65 88 58 89 59 90 63 91 66 92 60 93 61 94 64 95 62 96
REMARK H PARENT 15 23 15 24 86 49 54 60
REMARK Flexibility Score: inf
ROOT
ATOM      1  C   UNL A   1      39.900  22.016  26.296  1.00  0.00     0.188 C 
ENDROOT
BRANCH   1   2
ATOM      2  O   UNL A   1      38.527  22.261  26.025  1.00  0.00    -0.376 OA
BRANCH   2   3
ATOM      3  C   UNL A   1      37.746  21.267  25.371  1.00  0.00     0.202 C 
BRANCH   3   4
ATOM      4  C   UNL A   1      36.259  21.110  25.734  1.00  0.00     0.261 C 
BRANCH   4   5
ATOM      5  O   UNL A   1      35.356  20.907  24.627  1.00  0.00    -0.462 OA
BRANCH   5   6
ATOM      6  C   UNL A   1      34.342  21.805  24.506  1.00  0.00     0.319 C 
ATOM      7  O   UNL A   1      33.193  21.584  24.882  1.00  0.00    -0.251 OA
BRANCH   6   8
ATOM      8  C   UNL A   1      34.760  23.163  23.915  1.00  0.00     0.161 C 
ATOM      9  C   UNL A   1      35.918  23.206  22.915  1.00  0.00     0.032 C 
BRANCH   8  10
ATOM     10  S   UNL A   1      33.236  23.891  23.215  1.00  0.00    -0.071 SA
BRANCH  10  11
ATOM     11  C   UNL A   1      32.729  24.929  24.522  1.00  0.00     0.191 A 
ATOM     12  N   UNL A   1      33.536  25.886  24.838  1.00  0.00    -0.222 NA
ATOM     13  N   UNL A   1      31.478  24.743  25.102  1.00  0.00    -0.202 N 
ATOM     14  C   UNL A   1      33.113  26.825  25.782  1.00  0.00     0.079 A 
ATOM     15  C   UNL A   1      30.957  25.666  26.011  1.00  0.00     0.280 A 
ATOM     16  C   UNL A   1      33.980  27.868  26.114  1.00  0.00     0.029 A 
ATOM     17  C   UNL A   1      31.837  26.801  26.347  1.00  0.00     0.068 A 
ATOM     18  O   UNL A   1      29.832  25.573  26.501  1.00  0.00    -0.267 OA
ATOM     19  C   UNL A   1      33.564  28.893  26.964  1.00  0.00     0.002 A 
ATOM     20  C   UNL A   1      31.406  27.828  27.194  1.00  0.00     0.016 A 
ATOM     21  C   UNL A   1      32.272  28.881  27.490  1.00  0.00     0.001 A 
BRANCH  13  22
ATOM     22  N   UNL A   1      30.659  23.604  24.800  1.00  0.00    -0.334 N 
ATOM     23  H   UNL A   1      30.896  22.718  25.160  1.00  0.00     0.178 HD
ATOM     24  H   UNL A   1      29.860  23.708  24.234  1.00  0.00     0.178 HD
ENDBRANCH  13  22
ENDBRANCH  10  11
ENDBRANCH   8  10
ENDBRANCH   6   8
ENDBRANCH   5   6
ENDBRANCH   4   5
ENDBRANCH   3   4
ENDBRANCH   2   3
ENDBRANCH   1   2
BRANCH   1  25
ATOM     25  C   UNL A   1      40.386  20.578  26.540  1.00  0.00     0.188 C 
BRANCH  25  26
ATOM     26  O   UNL A   1      41.700  20.319  26.112  1.00  0.00    -0.376 OA
BRANCH  26  27
ATOM     27  C   UNL A   1      42.365  19.180  26.623  1.00  0.00     0.202 C 
BRANCH  27  28
ATOM     28  C   UNL A   1      43.304  18.359  25.719  1.00  0.00     0.261 C 
BRANCH  28  29
ATOM     29  O   UNL A   1      43.640  18.918  24.437  1.00  0.00    -0.460 OA
BRANCH  29  30
ATOM     30  C   UNL A   1      44.903  19.366  24.255  1.00  0.00     0.338 C 
ATOM     31  O   UNL A   1      45.824  18.775  23.712  1.00  0.00    -0.246 OA
BRANCH  30  32
ATOM     32  C   UNL A   1      44.919  20.800  24.626  1.00  0.00     0.060 A 
ATOM     33  C   UNL A   1      44.494  21.759  23.693  1.00  0.00     0.016 A 
ATOM     34  C   UNL A   1      45.304  21.191  25.907  1.00  0.00     0.016 A 
ATOM     35  C   UNL A   1      44.437  23.111  24.047  1.00  0.00     0.010 A 
ATOM     36  C   UNL A   1      45.278  22.548  26.250  1.00  0.00     0.010 A 
ATOM     37  C   UNL A   1      44.853  23.516  25.322  1.00  0.00    -0.014 A 
BRANCH  37  38
ATOM     38  C   UNL A   1      44.969  24.955  25.671  1.00  0.00     0.031 A 
ATOM     39  C   UNL A   1      46.324  25.603  25.602  1.00  0.00     0.074 A 
ATOM     40  C   UNL A   1      43.908  25.660  26.100  1.00  0.00     0.049 A 
ATOM     41  N   UNL A   1      46.708  26.777  26.033  1.00  0.00    -0.248 NA
ATOM     42  C   UNL A   1      47.392  24.813  24.968  1.00  0.00     0.031 C 
ATOM     43  C   UNL A   1      42.535  25.166  26.168  1.00  0.00     0.029 A 
ATOM     44  N   UNL A   1      43.829  26.940  26.597  1.00  0.00    -0.354 N 
ATOM     45  C   UNL A   1      48.065  26.854  25.751  1.00  0.00     0.074 A 
ATOM     46  C   UNL A   1      48.440  25.610  25.113  1.00  0.00     0.031 C 
ATOM     47  C   UNL A   1      41.756  26.116  26.714  1.00  0.00     0.029 A 
ATOM     48  C   UNL A   1      42.584  27.265  27.082  1.00  0.00     0.049 A 
ATOM     49  H   UNL A   1      44.591  27.564  26.605  1.00  0.00     0.167 HD
ATOM     50  C   UNL A   1      48.920  27.871  26.010  1.00  0.00     0.037 A 
ATOM     51  C   UNL A   1      42.176  28.338  27.788  1.00  0.00     0.037 A 
ATOM     52  C   UNL A   1      48.539  29.112  26.631  1.00  0.00     0.049 A 
ATOM     53  C   UNL A   1      43.170  29.423  28.133  1.00  0.00     0.074 A 
ATOM     54  C   UNL A   1      49.325  30.225  26.879  1.00  0.00     0.029 A 
ATOM     55  N   UNL A   1      47.274  29.399  27.117  1.00  0.00    -0.354 N 
ATOM     56  N   UNL A   1      44.441  29.515  27.823  1.00  0.00    -0.248 NA
ATOM     57  C   UNL A   1      42.673  30.552  28.936  1.00  0.00     0.031 C 
ATOM     58  C   UNL A   1      48.554  31.153  27.583  1.00  0.00     0.029 A 
ATOM     59  C   UNL A   1      47.270  30.651  27.710  1.00  0.00     0.049 A 
ATOM     60  H   UNL A   1      46.494  28.801  27.051  1.00  0.00     0.167 HD
ATOM     61  C   UNL A   1      44.883  30.715  28.366  1.00  0.00     0.074 A 
ATOM     62  C   UNL A   1      43.744  31.330  29.010  1.00  0.00     0.031 C 
ATOM     63  C   UNL A   1      46.126  31.257  28.339  1.00  0.00     0.037 A 
BRANCH  50  64
ATOM     64  C   UNL A   1      50.368  27.682  25.667  1.00  0.00     0.064 A 
ATOM     65  C   UNL A   1      50.861  27.903  24.374  1.00  0.00     0.173 A 
ATOM     66  C   UNL A   1      51.288  27.354  26.676  1.00  0.00     0.173 A 
ATOM     67  F   UNL A   1      50.022  28.207  23.373  1.00  0.00    -0.203 F 
ATOM     68  C   UNL A   1      52.223  27.793  24.102  1.00  0.00     0.198 A 
ATOM     69  C   UNL A   1      52.650  27.273  26.405  1.00  0.00     0.198 A 
ATOM     70  F   UNL A   1      50.867  27.136  27.930  1.00  0.00    -0.203 F 
ATOM     71  F   UNL A   1      52.671  27.980  22.852  1.00  0.00    -0.200 F 
ATOM     72  C   UNL A   1      53.116  27.490  25.119  1.00  0.00     0.200 A 
ATOM     73  F   UNL A   1      53.513  26.996  27.393  1.00  0.00    -0.200 F 
ATOM     74  F   UNL A   1      54.428  27.407  24.858  1.00  0.00    -0.200 F 
ENDBRANCH  50  64
BRANCH  51  75
ATOM     75  C   UNL A   1      40.774  28.426  28.283  1.00  0.00     0.064 A 
ATOM     76  C   UNL A   1      39.751  28.954  27.483  1.00  0.00     0.173 A 
ATOM     77  C   UNL A   1      40.440  28.044  29.593  1.00  0.00     0.173 A 
ATOM     78  F   UNL A   1      40.022  29.367  26.235  1.00  0.00    -0.203 F 
ATOM     79  C   UNL A   1      38.460  29.128  27.982  1.00  0.00     0.198 A 
ATOM     80  C   UNL A   1      39.141  28.183  30.078  1.00  0.00     0.198 A 
ATOM     81  F   UNL A   1      41.379  27.542  30.407  1.00  0.00    -0.203 F 
ATOM     82  F   UNL A   1      37.521  29.704  27.218  1.00  0.00    -0.200 F 
ATOM     83  C   UNL A   1      38.155  28.737  29.276  1.00  0.00     0.200 A 
ATOM     84  F   UNL A   1      38.849  27.796  31.326  1.00  0.00    -0.200 F 
ATOM     85  F   UNL A   1      36.917  28.913  29.758  1.00  0.00    -0.200 F 
ENDBRANCH  51  75
BRANCH  63  86
ATOM     86  C   UNL A   1      46.321  32.597  28.993  1.00  0.00     0.064 A 
ATOM     87  C   UNL A   1      46.747  32.712  30.325  1.00  0.00     0.173 A 
ATOM     88  C   UNL A   1      46.148  33.779  28.256  1.00  0.00     0.173 A 
ATOM     89  F   UNL A   1      46.914  31.613  31.077  1.00  0.00    -0.203 F 
ATOM     90  C   UNL A   1      46.975  33.959  30.899  1.00  0.00     0.198 A 
ATOM     91  C   UNL A   1      46.410  35.024  28.824  1.00  0.00     0.198 A 
ATOM     92  F   UNL A   1      45.751  33.727  26.976  1.00  0.00    -0.203 F 
ATOM     93  F   UNL A   1      47.342  34.046  32.185  1.00  0.00    -0.200 F 
ATOM     94  C   UNL A   1      46.818  35.113  30.146  1.00  0.00     0.200 A 
ATOM     95  F   UNL A   1      46.276  36.136  28.087  1.00  0.00    -0.200 F 
ATOM     96  F   UNL A   1      47.055  36.312  30.694  1.00  0.00    -0.200 F 
ENDBRANCH  63  86
ENDBRANCH  37  38
ENDBRANCH  30  32
ENDBRANCH  29  30
ENDBRANCH  28  29
ENDBRANCH  27  28
ENDBRANCH  26  27
ENDBRANCH  25  26
ENDBRANCH   1  25
TORSDOF 20
ENDMDL
MODEL 3
REMARK VINA RESULT:     -10.6      4.699      9.056
REMARK SMILES C[C@@H](Sc1nc2ccccc2c(=O)n1N)C(=O)OCCOCCOCCOC(=O)c1ccc(-c2c3nc(c(-c4c(F)c(F)c(F)c(F)c4F)c4ccc([nH]4)c(-c4c(F)c(F)c(F)c(F)c4F)c4nc(c(-c5c(F)c(F)c(F)c(F)c5F)c5ccc2[nH]5)C=C4)C=C3)cc1
REMARK SMILES IDX 22 1 21 2 20 3 19 4 18 5 16 6 17 7 2 8 1 9 3 10 4 11 5 12
REMARK SMILES IDX 14 13 6 14 12 15 7 16 11 17 13 18 8 19 10 20 9 21 15 22
REMARK SMILES IDX 23 25 24 26 25 27 26 28 27 29 28 30 29 31 30 32 31 33 92 34
REMARK SMILES IDX 32 35 91 36 33 37 34 38 35 39 85 40 36 41 90 42 84 43 86 44
REMARK SMILES IDX 37 45 89 46 83 47 82 48 38 50 70 51 50 52 69 53 51 54 54 55
REMARK SMILES IDX 68 56 87 57 52 58 53 59 67 61 88 62 55 63 39 64 40 65 48 66
REMARK SMILES IDX 41 67 42 68 46 69 49 70 43 71 44 72 47 73 45 74 71 75 72 76
REMARK SMILES IDX 80 77 73 78 74 79 78 80 81 81 75 82 76 83 79 84 77 85 56 86
REMARK SMILES IDX 57 87 65 88 58 89 59 90 63 91 66 92 60 93 61 94 64 95 62 96
REMARK H PARENT 15 23 15 24 86 49 54 60
REMARK Flexibility Score: inf
ROOT
ATOM      1  C   UNL A   1      31.947  28.853  27.076  1.00  0.00     0.188 C 
ENDROOT
BRANCH   1   2
ATOM      2  O   UNL A   1      31.387  28.478  25.825  1.00  0.00    -0.376 OA
BRANCH   2   3
ATOM      3  C   UNL A   1      31.419  29.389  24.732  1.00  0.00     0.202 C 
BRANCH   3   4
ATOM      4  C   UNL A   1      31.850  28.892  23.341  1.00  0.00     0.261 C 
BRANCH   4   5
ATOM      5  O   UNL A   1      30.842  28.199  22.578  1.00  0.00    -0.462 OA
BRANCH   5   6
ATOM      6  C   UNL A   1      30.977  26.848  22.488  1.00  0.00     0.319 C 
ATOM      7  O   UNL A   1      31.625  26.290  21.605  1.00  0.00    -0.251 OA
BRANCH   6   8
ATOM      8  C   UNL A   1      30.305  26.063  23.628  1.00  0.00     0.161 C 
ATOM      9  C   UNL A   1      28.868  26.418  24.020  1.00  0.00     0.032 C 
BRANCH   8  10
ATOM     10  S   UNL A   1      30.465  24.298  23.177  1.00  0.00    -0.071 SA
BRANCH  10  11
ATOM     11  C   UNL A   1      31.784  23.806  24.207  1.00  0.00     0.191 A 
ATOM     12  N   UNL A   1      32.965  23.864  23.690  1.00  0.00    -0.222 NA
ATOM     13  N   UNL A   1      31.529  23.458  25.530  1.00  0.00    -0.202 N 
ATOM     14  C   UNL A   1      34.063  23.613  24.517  1.00  0.00     0.079 A 
ATOM     15  C   UNL A   1      32.571  23.247  26.436  1.00  0.00     0.280 A 
ATOM     16  C   UNL A   1      35.342  23.688  23.961  1.00  0.00     0.029 A 
ATOM     17  C   UNL A   1      33.934  23.363  25.883  1.00  0.00     0.068 A 
ATOM     18  O   UNL A   1      32.392  22.998  27.627  1.00  0.00    -0.267 OA
ATOM     19  C   UNL A   1      36.474  23.559  24.766  1.00  0.00     0.002 A 
ATOM     20  C   UNL A   1      35.061  23.239  26.702  1.00  0.00     0.016 A 
ATOM     21  C   UNL A   1      36.333  23.351  26.139  1.00  0.00     0.001 A 
BRANCH  13  22
ATOM     22  N   UNL A   1      30.195  23.299  26.034  1.00  0.00    -0.334 N 
ATOM     23  H   UNL A   1      29.844  23.931  26.703  1.00  0.00     0.178 HD
ATOM     24  H   UNL A   1      29.631  22.560  25.710  1.00  0.00     0.178 HD
ENDBRANCH  13  22
ENDBRANCH  10  11
ENDBRANCH   8  10
ENDBRANCH   6   8
ENDBRANCH   5   6
ENDBRANCH   4   5
ENDBRANCH   3   4
ENDBRANCH   2   3
ENDBRANCH   1   2
BRANCH   1  25
ATOM     25  C   UNL A   1      33.450  29.163  27.178  1.00  0.00     0.188 C 
BRANCH  25  26
ATOM     26  O   UNL A   1      33.757  30.503  27.471  1.00  0.00    -0.376 OA
BRANCH  26  27
ATOM     27  C   UNL A   1      32.732  31.472  27.352  1.00  0.00     0.202 C 
BRANCH  27  28
ATOM     28  C   UNL A   1      33.081  32.972  27.339  1.00  0.00     0.261 C 
BRANCH  28  29
ATOM     29  O   UNL A   1      32.356  33.826  28.242  1.00  0.00    -0.460 OA
BRANCH  29  30
ATOM     30  C   UNL A   1      33.004  34.894  28.760  1.00  0.00     0.338 C 
ATOM     31  O   UNL A   1      32.586  36.038  28.850  1.00  0.00    -0.246 OA
BRANCH  30  32
ATOM     32  C   UNL A   1      34.233  34.387  29.414  1.00  0.00     0.060 A 
ATOM     33  C   UNL A   1      35.484  34.653  28.836  1.00  0.00     0.016 A 
ATOM     34  C   UNL A   1      34.152  33.695  30.622  1.00  0.00     0.016 A 
ATOM     35  C   UNL A   1      36.658  34.242  29.474  1.00  0.00     0.010 A 
ATOM     36  C   UNL A   1      35.327  33.255  31.242  1.00  0.00     0.010 A 
ATOM     37  C   UNL A   1      36.585  33.518  30.671  1.00  0.00    -0.014 A 
BRANCH  37  38
ATOM     38  C   UNL A   1      37.799  32.919  31.282  1.00  0.00     0.031 A 
ATOM     39  C   UNL A   1      38.425  31.727  30.613  1.00  0.00     0.074 A 
ATOM     40  C   UNL A   1      38.301  33.381  32.440  1.00  0.00     0.049 A 
ATOM     41  N   UNL A   1      39.362  30.925  31.049  1.00  0.00    -0.248 NA
ATOM     42  C   UNL A   1      37.919  31.392  29.272  1.00  0.00     0.031 C 
ATOM     43  C   UNL A   1      37.818  34.554  33.164  1.00  0.00     0.029 A 
ATOM     44  N   UNL A   1      39.313  32.891  33.232  1.00  0.00    -0.354 N 
ATOM     45  C   UNL A   1      39.536  29.974  30.053  1.00  0.00     0.074 A 
ATOM     46  C   UNL A   1      38.607  30.296  28.990  1.00  0.00     0.031 C 
ATOM     47  C   UNL A   1      38.506  34.671  34.314  1.00  0.00     0.029 A 
ATOM     48  C   UNL A   1      39.441  33.552  34.431  1.00  0.00     0.049 A 
ATOM     49  H   UNL A   1      39.891  32.138  32.967  1.00  0.00     0.167 HD
ATOM     50  C   UNL A   1      40.387  28.923  30.034  1.00  0.00     0.037 A 
ATOM     51  C   UNL A   1      40.185  33.256  35.516  1.00  0.00     0.037 A 
ATOM     52  C   UNL A   1      41.319  28.615  31.088  1.00  0.00     0.049 A 
ATOM     53  C   UNL A   1      41.069  32.030  35.499  1.00  0.00     0.074 A 
ATOM     54  C   UNL A   1      42.264  27.605  31.130  1.00  0.00     0.029 A 
ATOM     55  N   UNL A   1      41.410  29.301  32.288  1.00  0.00    -0.354 N 
ATOM     56  N   UNL A   1      41.266  31.162  34.536  1.00  0.00    -0.248 NA
ATOM     57  C   UNL A   1      41.830  31.740  36.724  1.00  0.00     0.031 C 
ATOM     58  C   UNL A   1      42.875  27.633  32.386  1.00  0.00     0.029 A 
ATOM     59  C   UNL A   1      42.362  28.704  33.099  1.00  0.00     0.049 A 
ATOM     60  H   UNL A   1      40.879  30.094  32.528  1.00  0.00     0.167 HD
ATOM     61  C   UNL A   1      42.186  30.244  35.030  1.00  0.00     0.074 A 
ATOM     62  C   UNL A   1      42.527  30.670  36.369  1.00  0.00     0.031 C 
ATOM     63  C   UNL A   1      42.700  29.143  34.428  1.00  0.00     0.037 A 
BRANCH  50  64
ATOM     64  C   UNL A   1      40.334  27.990  28.861  1.00  0.00     0.064 A 
ATOM     65  C   UNL A   1      41.073  28.222  27.693  1.00  0.00     0.173 A 
ATOM     66  C   UNL A   1      39.592  26.801  28.946  1.00  0.00     0.173 A 
ATOM     67  F   UNL A   1      41.788  29.348  27.557  1.00  0.00    -0.203 F 
ATOM     68  C   UNL A   1      41.063  27.300  26.648  1.00  0.00     0.198 A 
ATOM     69  C   UNL A   1      39.608  25.870  27.913  1.00  0.00     0.198 A 
ATOM     70  F   UNL A   1      38.871  26.531  30.045  1.00  0.00    -0.203 F 
ATOM     71  F   UNL A   1      41.752  27.554  25.527  1.00  0.00    -0.200 F 
ATOM     72  C   UNL A   1      40.340  26.121  26.764  1.00  0.00     0.200 A 
ATOM     73  F   UNL A   1      38.923  24.724  28.034  1.00  0.00    -0.200 F 
ATOM     74  F   UNL A   1      40.351  25.226  25.766  1.00  0.00    -0.200 F 
ENDBRANCH  50  64
BRANCH  51  75
ATOM     75  C   UNL A   1      40.089  34.089  36.746  1.00  0.00     0.064 A 
ATOM     76  C   UNL A   1      39.181  33.777  37.768  1.00  0.00     0.173 A 
ATOM     77  C   UNL A   1      40.857  35.255  36.898  1.00  0.00     0.173 A 
ATOM     78  F   UNL A   1      38.397  32.692  37.659  1.00  0.00    -0.203 F 
ATOM     79  C   UNL A   1      39.021  34.611  38.873  1.00  0.00     0.198 A 
ATOM     80  C   UNL A   1      40.724  36.068  38.021  1.00  0.00     0.198 A 
ATOM     81  F   UNL A   1      41.734  35.609  35.948  1.00  0.00    -0.203 F 
ATOM     82  F   UNL A   1      38.093  34.326  39.797  1.00  0.00    -0.200 F 
ATOM     83  C   UNL A   1      39.796  35.754  39.002  1.00  0.00     0.200 A 
ATOM     84  F   UNL A   1      41.481  37.167  38.145  1.00  0.00    -0.200 F 
ATOM     85  F   UNL A   1      39.636  36.560  40.060  1.00  0.00    -0.200 F 
ENDBRANCH  51  75
BRANCH  63  86
ATOM     86  C   UNL A   1      43.710  28.332  35.192  1.00  0.00     0.064 A 
ATOM     87  C   UNL A   1      45.082  28.613  35.128  1.00  0.00     0.173 A 
ATOM     88  C   UNL A   1      43.290  27.306  36.054  1.00  0.00     0.173 A 
ATOM     89  F   UNL A   1      45.536  29.575  34.309  1.00  0.00    -0.203 F 
ATOM     90  C   UNL A   1      45.999  27.887  35.883  1.00  0.00     0.198 A 
ATOM     91  C   UNL A   1      44.206  26.604  36.834  1.00  0.00     0.198 A 
ATOM     92  F   UNL A   1      41.988  27.002  36.161  1.00  0.00    -0.203 F 
ATOM     93  F   UNL A   1      47.309  28.146  35.775  1.00  0.00    -0.200 F 
ATOM     94  C   UNL A   1      45.560  26.891  36.744  1.00  0.00     0.200 A 
ATOM     95  F   UNL A   1      43.777  25.656  37.679  1.00  0.00    -0.200 F 
ATOM     96  F   UNL A   1      46.441  26.206  37.485  1.00  0.00    -0.200 F 
ENDBRANCH  63  86
ENDBRANCH  37  38
ENDBRANCH  30  32
ENDBRANCH  29  30
ENDBRANCH  28  29
ENDBRANCH  27  28
ENDBRANCH  26  27
ENDBRANCH  25  26
ENDBRANCH   1  25
TORSDOF 20
ENDMDL
