MODEL 1
REMARK VINA RESULT:     -12.4      0.000      0.000
REMARK SMILES CC(C)[C@@H](CNC(=O)[C@@H]1CC[C@@H]2CCCC[C@@H]2[NH2+]1)C(=O)OCCOCCOCCOC(=O)c1ccc(-c2c3nc(c(-c4c(F)c(F)c(F)c(F)c4F)c4ccc([nH]4)c(-c4c(F)c(F)c(F)c(F)c4F)c4nc(c(-c5c(F)c(F)c(F)c(F)c5F)c5ccc2[nH]5)C=C4)C=C3)cc1
REMARK SMILES IDX 25 1 24 2 23 3 22 4 21 5 19 6 20 7 4 8 2 9 1 10 3 11 5 12
REMARK SMILES IDX 6 13 7 14 8 16 9 17 10 18 18 19 11 20 17 21 12 24 16 25
REMARK SMILES IDX 13 26 15 27 14 28 26 29 27 30 28 31 29 32 30 33 31 34 32 35
REMARK SMILES IDX 33 36 34 37 95 38 35 39 94 40 36 41 37 42 38 43 88 44 39 45
REMARK SMILES IDX 93 46 87 47 89 48 40 49 92 50 86 51 85 52 41 54 73 55 53 56
REMARK SMILES IDX 72 57 54 58 57 59 71 60 90 61 55 62 56 63 70 65 91 66 58 67
REMARK SMILES IDX 42 68 43 69 51 70 44 71 45 72 49 73 52 74 46 75 47 76 50 77
REMARK SMILES IDX 48 78 74 79 75 80 83 81 76 82 77 83 81 84 84 85 78 86 79 87
REMARK SMILES IDX 82 88 80 89 59 90 60 91 68 92 61 93 62 94 66 95 69 96 63 97
REMARK SMILES IDX 64 98 67 99 65 100
REMARK H PARENT 6 15 18 22 18 23 89 53 57 64
REMARK Flexibility Score: inf
ROOT
ATOM      1  C   UNL A   1      41.294  20.684  27.488  1.00  0.00     0.188 C 
ENDROOT
BRANCH   1   2
ATOM      2  O   UNL A   1      40.229  21.652  27.594  1.00  0.00    -0.376 OA
BRANCH   2   3
ATOM      3  C   UNL A   1      39.623  22.343  26.478  1.00  0.00     0.202 C 
BRANCH   3   4
ATOM      4  C   UNL A   1      38.290  21.753  25.556  1.00  0.00     0.261 C 
BRANCH   4   5
ATOM      5  O   UNL A   1      36.482  21.186  26.046  1.00  0.00    -0.463 OA
BRANCH   5   6
ATOM      6  C   UNL A   1      35.016  21.455  26.119  1.00  0.00     0.311 C 
ATOM      7  O   UNL A   1      34.360  21.554  27.172  1.00  0.00    -0.252 OA
BRANCH   6   8
ATOM      8  C   UNL A   1      34.153  21.785  24.912  1.00  0.00     0.121 C 
BRANCH   8   9
ATOM      9  C   UNL A   1      33.512  20.647  24.052  1.00  0.00    -0.001 C 
ATOM     10  C   UNL A   1      33.216  19.408  24.928  1.00  0.00     0.008 C 
ATOM     11  C   UNL A   1      32.150  21.016  23.420  1.00  0.00     0.008 C 
ENDBRANCH   8   9
BRANCH   8  12
ATOM     12  C   UNL A   1      33.542  23.171  24.941  1.00  0.00     0.131 C 
BRANCH  12  13
ATOM     13  N   UNL A   1      32.758  23.471  26.088  1.00  0.00    -0.350 N 
ATOM     14  C   UNL A   1      31.433  23.705  26.189  1.00  0.00     0.278 C 
ATOM     15  H   UNL A   1      33.256  23.516  26.936  1.00  0.00     0.163 HD
ATOM     16  O   UNL A   1      30.994  23.727  27.351  1.00  0.00    -0.268 OA
BRANCH  14  17
ATOM     17  C   UNL A   1      30.490  24.129  25.025  1.00  0.00     0.272 C 
ATOM     18  C   UNL A   1      30.732  24.080  23.510  1.00  0.00     0.076 C 
ATOM     19  N   UNL A   1      29.883  25.398  25.417  1.00  0.00    -0.333 N 
ATOM     20  C   UNL A   1      31.356  25.270  22.748  1.00  0.00     0.016 C 
ATOM     21  C   UNL A   1      30.776  26.522  25.181  1.00  0.00     0.186 C 
ATOM     22  H   UNL A   1      29.655  25.362  26.409  1.00  0.00     0.347 HD
ATOM     23  H   UNL A   1      29.046  25.537  24.850  1.00  0.00     0.347 HD
ATOM     24  C   UNL A   1      31.231  26.680  23.376  1.00  0.00     0.048 C 
ATOM     25  C   UNL A   1      32.001  26.916  26.545  1.00  0.00     0.065 C 
ATOM     26  C   UNL A   1      32.673  27.876  22.902  1.00  0.00     0.010 C 
ATOM     27  C   UNL A   1      33.542  27.959  26.166  1.00  0.00     0.006 C 
ATOM     28  C   UNL A   1      33.984  28.350  24.318  1.00  0.00     0.001 C 
ENDBRANCH  14  17
ENDBRANCH  12  13
ENDBRANCH   8  12
ENDBRANCH   6   8
ENDBRANCH   5   6
ENDBRANCH   4   5
ENDBRANCH   3   4
ENDBRANCH   2   3
ENDBRANCH   1   2
BRANCH   1  29
ATOM     29  C   UNL A   1      41.475  19.833  26.202  1.00  0.00     0.188 C 
BRANCH  29  30
ATOM     30  O   UNL A   1      42.614  20.161  25.408  1.00  0.00    -0.376 OA
BRANCH  30  31
ATOM     31  C   UNL A   1      43.409  21.259  25.836  1.00  0.00     0.202 C 
BRANCH  31  32
ATOM     32  C   UNL A   1      43.636  22.340  24.771  1.00  0.00     0.261 C 
BRANCH  32  33
ATOM     33  O   UNL A   1      42.944  23.559  25.066  1.00  0.00    -0.460 OA
BRANCH  33  34
ATOM     34  C   UNL A   1      43.726  24.657  25.205  1.00  0.00     0.338 C 
ATOM     35  O   UNL A   1      44.708  24.936  24.535  1.00  0.00    -0.246 OA
BRANCH  34  36
ATOM     36  C   UNL A   1      43.092  25.564  26.203  1.00  0.00     0.060 A 
ATOM     37  C   UNL A   1      43.665  26.821  26.426  1.00  0.00     0.016 A 
ATOM     38  C   UNL A   1      41.897  25.223  26.852  1.00  0.00     0.016 A 
ATOM     39  C   UNL A   1      43.068  27.719  27.318  1.00  0.00     0.010 A 
ATOM     40  C   UNL A   1      41.286  26.130  27.721  1.00  0.00     0.010 A 
ATOM     41  C   UNL A   1      41.890  27.369  27.991  1.00  0.00    -0.014 A 
BRANCH  41  42
ATOM     42  C   UNL A   1      41.407  28.170  29.146  1.00  0.00     0.031 A 
ATOM     43  C   UNL A   1      42.143  28.026  30.451  1.00  0.00     0.074 A 
ATOM     44  C   UNL A   1      40.347  28.995  29.066  1.00  0.00     0.049 A 
ATOM     45  N   UNL A   1      41.880  28.545  31.623  1.00  0.00    -0.248 NA
ATOM     46  C   UNL A   1      43.341  27.170  30.428  1.00  0.00     0.031 C 
ATOM     47  C   UNL A   1      39.565  29.262  27.863  1.00  0.00     0.029 A 
ATOM     48  N   UNL A   1      39.744  29.757  30.038  1.00  0.00    -0.354 N 
ATOM     49  C   UNL A   1      42.873  28.074  32.472  1.00  0.00     0.074 A 
ATOM     50  C   UNL A   1      43.721  27.199  31.694  1.00  0.00     0.031 C 
ATOM     51  C   UNL A   1      38.576  30.122  28.170  1.00  0.00     0.029 A 
ATOM     52  C   UNL A   1      38.636  30.440  29.598  1.00  0.00     0.049 A 
ATOM     53  H   UNL A   1      40.074  29.809  30.964  1.00  0.00     0.167 HD
ATOM     54  C   UNL A   1      43.074  28.356  33.780  1.00  0.00     0.037 A 
ATOM     55  C   UNL A   1      37.762  31.212  30.275  1.00  0.00     0.037 A 
ATOM     56  C   UNL A   1      42.238  29.224  34.562  1.00  0.00     0.049 A 
ATOM     57  C   UNL A   1      37.956  31.440  31.757  1.00  0.00     0.074 A 
ATOM     58  C   UNL A   1      42.374  29.581  35.893  1.00  0.00     0.029 A 
ATOM     59  N   UNL A   1      41.105  29.864  34.088  1.00  0.00    -0.354 N 
ATOM     60  N   UNL A   1      38.913  31.016  32.547  1.00  0.00    -0.248 NA
ATOM     61  C   UNL A   1      36.940  32.258  32.441  1.00  0.00     0.031 C 
ATOM     62  C   UNL A   1      41.291  30.395  36.239  1.00  0.00     0.029 A 
ATOM     63  C   UNL A   1      40.512  30.590  35.109  1.00  0.00     0.049 A 
ATOM     64  H   UNL A   1      40.770  29.812  33.165  1.00  0.00     0.167 HD
ATOM     65  C   UNL A   1      38.631  31.534  33.807  1.00  0.00     0.074 A 
ATOM     66  C   UNL A   1      37.422  32.318  33.675  1.00  0.00     0.031 C 
ATOM     67  C   UNL A   1      39.312  31.374  34.968  1.00  0.00     0.037 A 
BRANCH  54  68
ATOM     68  C   UNL A   1      44.234  27.687  34.453  1.00  0.00     0.064 A 
ATOM     69  C   UNL A   1      44.112  26.423  35.049  1.00  0.00     0.173 A 
ATOM     70  C   UNL A   1      45.487  28.315  34.492  1.00  0.00     0.173 A 
ATOM     71  F   UNL A   1      42.928  25.791  35.057  1.00  0.00    -0.203 F 
ATOM     72  C   UNL A   1      45.196  25.824  35.683  1.00  0.00     0.198 A 
ATOM     73  C   UNL A   1      46.578  27.699  35.099  1.00  0.00     0.198 A 
ATOM     74  F   UNL A   1      45.655  29.525  33.938  1.00  0.00    -0.203 F 
ATOM     75  F   UNL A   1      45.044  24.639  36.292  1.00  0.00    -0.200 F 
ATOM     76  C   UNL A   1      46.429  26.459  35.701  1.00  0.00     0.200 A 
ATOM     77  F   UNL A   1      47.770  28.310  35.107  1.00  0.00    -0.200 F 
ATOM     78  F   UNL A   1      47.474  25.879  36.308  1.00  0.00    -0.200 F 
ENDBRANCH  54  68
BRANCH  55  79
ATOM     79  C   UNL A   1      36.598  31.820  29.575  1.00  0.00     0.064 A 
ATOM     80  C   UNL A   1      35.521  31.033  29.142  1.00  0.00     0.173 A 
ATOM     81  C   UNL A   1      36.564  33.189  29.275  1.00  0.00     0.173 A 
ATOM     82  F   UNL A   1      35.523  29.711  29.371  1.00  0.00    -0.203 F 
ATOM     83  C   UNL A   1      34.466  31.589  28.419  1.00  0.00     0.198 A 
ATOM     84  C   UNL A   1      35.495  33.749  28.579  1.00  0.00     0.198 A 
ATOM     85  F   UNL A   1      37.577  33.984  29.652  1.00  0.00    -0.203 F 
ATOM     86  F   UNL A   1      33.478  30.803  27.968  1.00  0.00    -0.200 F 
ATOM     87  C   UNL A   1      34.451  32.948  28.143  1.00  0.00     0.200 A 
ATOM     88  F   UNL A   1      35.485  35.063  28.316  1.00  0.00    -0.200 F 
ATOM     89  F   UNL A   1      33.441  33.480  27.444  1.00  0.00    -0.200 F 
ENDBRANCH  55  79
BRANCH  67  90
ATOM     90  C   UNL A   1      38.792  32.079  36.189  1.00  0.00     0.064 A 
ATOM     91  C   UNL A   1      38.013  31.416  37.148  1.00  0.00     0.173 A 
ATOM     92  C   UNL A   1      39.124  33.422  36.430  1.00  0.00     0.173 A 
ATOM     93  F   UNL A   1      37.658  30.136  36.962  1.00  0.00    -0.203 F 
ATOM     94  C   UNL A   1      37.568  32.076  38.292  1.00  0.00     0.198 A 
ATOM     95  C   UNL A   1      38.703  34.070  37.588  1.00  0.00     0.198 A 
ATOM     96  F   UNL A   1      39.874  34.101  35.550  1.00  0.00    -0.203 F 
ATOM     97  F   UNL A   1      36.790  31.433  39.174  1.00  0.00    -0.200 F 
ATOM     98  C   UNL A   1      37.920  33.399  38.514  1.00  0.00     0.200 A 
ATOM     99  F   UNL A   1      39.059  35.343  37.810  1.00  0.00    -0.200 F 
ATOM    100  F   UNL A   1      37.501  34.029  39.621  1.00  0.00    -0.200 F 
ENDBRANCH  67  90
ENDBRANCH  41  42
ENDBRANCH  34  36
ENDBRANCH  33  34
ENDBRANCH  32  33
ENDBRANCH  31  32
ENDBRANCH  30  31
ENDBRANCH  29  30
ENDBRANCH   1  29
TORSDOF 21
ENDMDL
MODEL 2
REMARK VINA RESULT:     -11.9      1.524      2.498
REMARK SMILES CC(C)[C@@H](CNC(=O)[C@@H]1CC[C@@H]2CCCC[C@@H]2[NH2+]1)C(=O)OCCOCCOCCOC(=O)c1ccc(-c2c3nc(c(-c4c(F)c(F)c(F)c(F)c4F)c4ccc([nH]4)c(-c4c(F)c(F)c(F)c(F)c4F)c4nc(c(-c5c(F)c(F)c(F)c(F)c5F)c5ccc2[nH]5)C=C4)C=C3)cc1
REMARK SMILES IDX 25 1 24 2 23 3 22 4 21 5 19 6 20 7 4 8 2 9 1 10 3 11 5 12
REMARK SMILES IDX 6 13 7 14 8 16 9 17 10 18 18 19 11 20 17 21 12 24 16 25
REMARK SMILES IDX 13 26 15 27 14 28 26 29 27 30 28 31 29 32 30 33 31 34 32 35
REMARK SMILES IDX 33 36 34 37 95 38 35 39 94 40 36 41 37 42 38 43 88 44 39 45
REMARK SMILES IDX 93 46 87 47 89 48 40 49 92 50 86 51 85 52 41 54 73 55 53 56
REMARK SMILES IDX 72 57 54 58 57 59 71 60 90 61 55 62 56 63 70 65 91 66 58 67
REMARK SMILES IDX 42 68 43 69 51 70 44 71 45 72 49 73 52 74 46 75 47 76 50 77
REMARK SMILES IDX 48 78 74 79 75 80 83 81 76 82 77 83 81 84 84 85 78 86 79 87
REMARK SMILES IDX 82 88 80 89 59 90 60 91 68 92 61 93 62 94 66 95 69 96 63 97
REMARK SMILES IDX 64 98 67 99 65 100
REMARK H PARENT 6 15 18 22 18 23 89 53 57 64
REMARK Flexibility Score: inf
ROOT
ATOM      1  C   UNL A   1      40.026  21.313  25.836  1.00  0.00     0.188 C 
ENDROOT
BRANCH   1   2
ATOM      2  O   UNL A   1      38.603  21.457  26.034  1.00  0.00    -0.376 OA
BRANCH   2   3
ATOM      3  C   UNL A   1      37.630  21.596  24.975  1.00  0.00     0.202 C 
BRANCH   3   4
ATOM      4  C   UNL A   1      36.055  20.895  24.980  1.00  0.00     0.261 C 
BRANCH   4   5
ATOM      5  O   UNL A   1      34.343  21.466  24.223  1.00  0.00    -0.463 OA
BRANCH   5   6
ATOM      6  C   UNL A   1      33.329  22.531  23.972  1.00  0.00     0.311 C 
ATOM      7  O   UNL A   1      32.270  22.375  23.337  1.00  0.00    -0.252 OA
BRANCH   6   8
ATOM      8  C   UNL A   1      33.390  23.921  24.584  1.00  0.00     0.121 C 
BRANCH   8   9
ATOM      9  C   UNL A   1      33.353  24.114  26.136  1.00  0.00    -0.001 C 
ATOM     10  C   UNL A   1      32.266  23.214  26.768  1.00  0.00     0.008 C 
ATOM     11  C   UNL A   1      34.660  23.715  26.859  1.00  0.00     0.008 C 
ENDBRANCH   8   9
BRANCH   8  12
ATOM     12  C   UNL A   1      34.014  24.971  23.689  1.00  0.00     0.131 C 
BRANCH  12  13
ATOM     13  N   UNL A   1      33.400  25.137  22.418  1.00  0.00    -0.350 N 
ATOM     14  C   UNL A   1      33.316  26.234  21.638  1.00  0.00     0.278 C 
ATOM     15  H   UNL A   1      32.971  24.330  22.052  1.00  0.00     0.163 HD
ATOM     16  O   UNL A   1      32.907  26.024  20.484  1.00  0.00    -0.268 OA
BRANCH  14  17
ATOM     17  C   UNL A   1      33.495  27.706  22.111  1.00  0.00     0.272 C 
ATOM     18  C   UNL A   1      34.323  28.259  23.280  1.00  0.00     0.076 C 
ATOM     19  N   UNL A   1      32.172  28.324  22.070  1.00  0.00    -0.333 N 
ATOM     20  C   UNL A   1      33.724  28.421  24.695  1.00  0.00     0.016 C 
ATOM     21  C   UNL A   1      31.376  27.982  23.239  1.00  0.00     0.186 C 
ATOM     22  H   UNL A   1      31.684  28.003  21.235  1.00  0.00     0.347 HD
ATOM     23  H   UNL A   1      32.296  29.337  22.059  1.00  0.00     0.347 HD
ATOM     24  C   UNL A   1      32.187  28.556  24.822  1.00  0.00     0.048 C 
ATOM     25  C   UNL A   1      30.409  26.378  23.151  1.00  0.00     0.065 C 
ATOM     26  C   UNL A   1      31.481  27.898  26.496  1.00  0.00     0.010 C 
ATOM     27  C   UNL A   1      29.792  25.552  24.746  1.00  0.00     0.006 C 
ATOM     28  C   UNL A   1      30.425  26.216  26.456  1.00  0.00     0.001 C 
ENDBRANCH  14  17
ENDBRANCH  12  13
ENDBRANCH   8  12
ENDBRANCH   6   8
ENDBRANCH   5   6
ENDBRANCH   4   5
ENDBRANCH   3   4
ENDBRANCH   2   3
ENDBRANCH   1   2
BRANCH   1  29
ATOM     29  C   UNL A   1      40.814  20.157  26.510  1.00  0.00     0.188 C 
BRANCH  29  30
ATOM     30  O   UNL A   1      42.193  20.423  26.760  1.00  0.00    -0.376 OA
BRANCH  30  31
ATOM     31  C   UNL A   1      43.123  20.013  25.766  1.00  0.00     0.202 C 
BRANCH  31  32
ATOM     32  C   UNL A   1      44.150  21.082  25.369  1.00  0.00     0.261 C 
BRANCH  32  33
ATOM     33  O   UNL A   1      44.009  22.290  26.126  1.00  0.00    -0.460 OA
BRANCH  33  34
ATOM     34  C   UNL A   1      43.714  23.400  25.408  1.00  0.00     0.338 C 
ATOM     35  O   UNL A   1      43.781  23.516  24.194  1.00  0.00    -0.246 OA
BRANCH  34  36
ATOM     36  C   UNL A   1      43.124  24.413  26.328  1.00  0.00     0.060 A 
ATOM     37  C   UNL A   1      43.600  25.729  26.271  1.00  0.00     0.016 A 
ATOM     38  C   UNL A   1      42.054  24.101  27.179  1.00  0.00     0.016 A 
ATOM     39  C   UNL A   1      43.035  26.718  27.083  1.00  0.00     0.010 A 
ATOM     40  C   UNL A   1      41.472  25.094  27.970  1.00  0.00     0.010 A 
ATOM     41  C   UNL A   1      41.985  26.401  27.957  1.00  0.00    -0.014 A 
BRANCH  41  42
ATOM     42  C   UNL A   1      41.574  27.347  29.027  1.00  0.00     0.031 A 
ATOM     43  C   UNL A   1      42.366  27.340  30.306  1.00  0.00     0.074 A 
ATOM     44  C   UNL A   1      40.531  28.186  28.893  1.00  0.00     0.049 A 
ATOM     45  N   UNL A   1      42.169  28.003  31.417  1.00  0.00    -0.248 NA
ATOM     46  C   UNL A   1      43.542  26.454  30.335  1.00  0.00     0.031 C 
ATOM     47  C   UNL A   1      39.700  28.329  27.701  1.00  0.00     0.029 A 
ATOM     48  N   UNL A   1      39.990  29.075  29.791  1.00  0.00    -0.354 N 
ATOM     49  C   UNL A   1      43.190  27.609  32.273  1.00  0.00     0.074 A 
ATOM     50  C   UNL A   1      43.980  26.624  31.571  1.00  0.00     0.031 C 
ATOM     51  C   UNL A   1      38.745  29.246  27.945  1.00  0.00     0.029 A 
ATOM     52  C   UNL A   1      38.878  29.731  29.319  1.00  0.00     0.049 A 
ATOM     53  H   UNL A   1      40.363  29.228  30.688  1.00  0.00     0.167 HD
ATOM     54  C   UNL A   1      43.457  28.040  33.528  1.00  0.00     0.037 A 
ATOM     55  C   UNL A   1      38.054  30.603  29.936  1.00  0.00     0.037 A 
ATOM     56  C   UNL A   1      42.677  29.018  34.235  1.00  0.00     0.049 A 
ATOM     57  C   UNL A   1      38.322  31.001  31.370  1.00  0.00     0.074 A 
ATOM     58  C   UNL A   1      42.882  29.528  35.506  1.00  0.00     0.029 A 
ATOM     59  N   UNL A   1      41.538  29.629  33.736  1.00  0.00    -0.354 N 
ATOM     60  N   UNL A   1      39.303  30.648  32.163  1.00  0.00    -0.248 NA
ATOM     61  C   UNL A   1      37.357  31.923  31.993  1.00  0.00     0.031 C 
ATOM     62  C   UNL A   1      41.835  30.407  35.797  1.00  0.00     0.029 A 
ATOM     63  C   UNL A   1      41.009  30.487  34.687  1.00  0.00     0.049 A 
ATOM     64  H   UNL A   1      41.160  29.475  32.841  1.00  0.00     0.167 HD
ATOM     65  C   UNL A   1      39.092  31.320  33.362  1.00  0.00     0.074 A 
ATOM     66  C   UNL A   1      37.896  32.117  33.189  1.00  0.00     0.031 C 
ATOM     67  C   UNL A   1      39.822  31.281  34.503  1.00  0.00     0.037 A 
BRANCH  54  68
ATOM     68  C   UNL A   1      44.631  27.424  34.226  1.00  0.00     0.064 A 
ATOM     69  C   UNL A   1      45.902  28.018  34.195  1.00  0.00     0.173 A 
ATOM     70  C   UNL A   1      44.479  26.230  34.946  1.00  0.00     0.173 A 
ATOM     71  F   UNL A   1      46.101  29.149  33.502  1.00  0.00    -0.203 F 
ATOM     72  C   UNL A   1      46.984  27.425  34.838  1.00  0.00     0.198 A 
ATOM     73  C   UNL A   1      45.557  25.656  35.614  1.00  0.00     0.198 A 
ATOM     74  F   UNL A   1      43.285  25.622  35.005  1.00  0.00    -0.203 F 
ATOM     75  F   UNL A   1      48.200  27.982  34.751  1.00  0.00    -0.200 F 
ATOM     76  C   UNL A   1      46.809  26.249  35.552  1.00  0.00     0.200 A 
ATOM     77  F   UNL A   1      45.385  24.525  36.312  1.00  0.00    -0.200 F 
ATOM     78  F   UNL A   1      47.852  25.680  36.175  1.00  0.00    -0.200 F 
ENDBRANCH  54  68
BRANCH  55  79
ATOM     79  C   UNL A   1      36.873  31.154  29.218  1.00  0.00     0.064 A 
ATOM     80  C   UNL A   1      35.752  30.357  28.946  1.00  0.00     0.173 A 
ATOM     81  C   UNL A   1      36.863  32.473  28.741  1.00  0.00     0.173 A 
ATOM     82  F   UNL A   1      35.728  29.077  29.348  1.00  0.00    -0.203 F 
ATOM     83  C   UNL A   1      34.677  30.850  28.208  1.00  0.00     0.198 A 
ATOM     84  C   UNL A   1      35.776  32.975  28.029  1.00  0.00     0.198 A 
ATOM     85  F   UNL A   1      37.917  33.274  28.959  1.00  0.00    -0.203 F 
ATOM     86  F   UNL A   1      33.645  30.048  27.913  1.00  0.00    -0.200 F 
ATOM     87  C   UNL A   1      34.688  32.161  27.755  1.00  0.00     0.200 A 
ATOM     88  F   UNL A   1      35.790  34.243  27.594  1.00  0.00    -0.200 F 
ATOM     89  F   UNL A   1      33.658  32.633  27.040  1.00  0.00    -0.200 F 
ENDBRANCH  55  79
BRANCH  67  90
ATOM     90  C   UNL A   1      39.374  32.142  35.651  1.00  0.00     0.064 A 
ATOM     91  C   UNL A   1      38.514  31.656  36.647  1.00  0.00     0.173 A 
ATOM     92  C   UNL A   1      39.858  33.453  35.788  1.00  0.00     0.173 A 
ATOM     93  F   UNL A   1      38.015  30.414  36.559  1.00  0.00    -0.203 F 
ATOM     94  C   UNL A   1      38.136  32.456  37.722  1.00  0.00     0.198 A 
ATOM     95  C   UNL A   1      39.503  34.241  36.880  1.00  0.00     0.198 A 
ATOM     96  F   UNL A   1      40.691  33.966  34.871  1.00  0.00    -0.203 F 
ATOM     97  F   UNL A   1      37.280  31.984  38.639  1.00  0.00    -0.200 F 
ATOM     98  C   UNL A   1      38.638  33.744  37.843  1.00  0.00     0.200 A 
ATOM     99  F   UNL A   1      40.003  35.478  37.004  1.00  0.00    -0.200 F 
ATOM    100  F   UNL A   1      38.283  34.509  38.885  1.00  0.00    -0.200 F 
ENDBRANCH  67  90
ENDBRANCH  41  42
ENDBRANCH  34  36
ENDBRANCH  33  34
ENDBRANCH  32  33
ENDBRANCH  31  32
ENDBRANCH  30  31
ENDBRANCH  29  30
ENDBRANCH   1  29
TORSDOF 21
ENDMDL
MODEL 3
REMARK VINA RESULT:     -11.6      1.129      7.131
REMARK SMILES CC(C)[C@@H](CNC(=O)[C@@H]1CC[C@@H]2CCCC[C@@H]2[NH2+]1)C(=O)OCCOCCOCCOC(=O)c1ccc(-c2c3nc(c(-c4c(F)c(F)c(F)c(F)c4F)c4ccc([nH]4)c(-c4c(F)c(F)c(F)c(F)c4F)c4nc(c(-c5c(F)c(F)c(F)c(F)c5F)c5ccc2[nH]5)C=C4)C=C3)cc1
REMARK SMILES IDX 25 1 24 2 23 3 22 4 21 5 19 6 20 7 4 8 2 9 1 10 3 11 5 12
REMARK SMILES IDX 6 13 7 14 8 16 9 17 10 18 18 19 11 20 17 21 12 24 16 25
REMARK SMILES IDX 13 26 15 27 14 28 26 29 27 30 28 31 29 32 30 33 31 34 32 35
REMARK SMILES IDX 33 36 34 37 95 38 35 39 94 40 36 41 37 42 38 43 88 44 39 45
REMARK SMILES IDX 93 46 87 47 89 48 40 49 92 50 86 51 85 52 41 54 73 55 53 56
REMARK SMILES IDX 72 57 54 58 57 59 71 60 90 61 55 62 56 63 70 65 91 66 58 67
REMARK SMILES IDX 42 68 43 69 51 70 44 71 45 72 49 73 52 74 46 75 47 76 50 77
REMARK SMILES IDX 48 78 74 79 75 80 83 81 76 82 77 83 81 84 84 85 78 86 79 87
REMARK SMILES IDX 82 88 80 89 59 90 60 91 68 92 61 93 62 94 66 95 69 96 63 97
REMARK SMILES IDX 64 98 67 99 65 100
REMARK H PARENT 6 15 18 22 18 23 89 53 57 64
REMARK Flexibility Score: inf
ROOT
ATOM      1  C   UNL A   1      40.516  21.824  26.468  1.00  0.00     0.188 C 
ENDROOT
BRANCH   1   2
ATOM      2  O   UNL A   1      39.110  22.109  26.307  1.00  0.00    -0.376 OA
BRANCH   2   3
ATOM      3  C   UNL A   1      38.203  21.358  25.468  1.00  0.00     0.202 C 
BRANCH   3   4
ATOM      4  C   UNL A   1      36.893  22.034  24.575  1.00  0.00     0.261 C 
BRANCH   4   5
ATOM      5  O   UNL A   1      34.984  21.609  24.489  1.00  0.00    -0.463 OA
BRANCH   5   6
ATOM      6  C   UNL A   1      33.628  21.853  23.916  1.00  0.00     0.311 C 
ATOM      7  O   UNL A   1      33.393  22.530  22.898  1.00  0.00    -0.252 OA
BRANCH   6   8
ATOM      8  C   UNL A   1      32.361  21.183  24.422  1.00  0.00     0.121 C 
BRANCH   8   9
ATOM      9  C   UNL A   1      32.243  19.624  24.468  1.00  0.00    -0.001 C 
ATOM     10  C   UNL A   1      32.528  19.019  23.074  1.00  0.00     0.008 C 
ATOM     11  C   UNL A   1      33.257  18.935  25.409  1.00  0.00     0.008 C 
ENDBRANCH   8   9
BRANCH   8  12
ATOM     12  C   UNL A   1      31.519  22.050  25.336  1.00  0.00     0.131 C 
BRANCH  12  13
ATOM     13  N   UNL A   1      30.816  23.109  24.701  1.00  0.00    -0.350 N 
ATOM     14  C   UNL A   1      30.890  24.440  24.910  1.00  0.00     0.278 C 
ATOM     15  H   UNL A   1      30.180  22.830  24.003  1.00  0.00     0.163 HD
ATOM     16  O   UNL A   1      30.316  25.135  24.056  1.00  0.00    -0.268 OA
BRANCH  14  17
ATOM     17  C   UNL A   1      31.445  25.132  26.189  1.00  0.00     0.272 C 
ATOM     18  C   UNL A   1      30.988  26.431  26.868  1.00  0.00     0.076 C 
ATOM     19  N   UNL A   1      32.901  25.073  26.101  1.00  0.00    -0.333 N 
ATOM     20  C   UNL A   1      31.593  27.801  26.491  1.00  0.00     0.016 C 
ATOM     21  C   UNL A   1      33.435  26.113  25.234  1.00  0.00     0.186 C 
ATOM     22  H   UNL A   1      33.173  24.164  25.729  1.00  0.00     0.347 HD
ATOM     23  H   UNL A   1      33.282  25.218  27.036  1.00  0.00     0.347 HD
ATOM     24  C   UNL A   1      33.005  27.822  25.856  1.00  0.00     0.048 C 
ATOM     25  C   UNL A   1      33.508  25.718  23.402  1.00  0.00     0.065 C 
ATOM     26  C   UNL A   1      33.308  29.322  24.675  1.00  0.00     0.010 C 
ATOM     27  C   UNL A   1      33.653  27.122  22.133  1.00  0.00     0.006 C 
ATOM     28  C   UNL A   1      33.422  28.956  22.726  1.00  0.00     0.001 C 
ENDBRANCH  14  17
ENDBRANCH  12  13
ENDBRANCH   8  12
ENDBRANCH   6   8
ENDBRANCH   5   6
ENDBRANCH   4   5
ENDBRANCH   3   4
ENDBRANCH   2   3
ENDBRANCH   1   2
BRANCH   1  29
ATOM     29  C   UNL A   1      41.080  20.405  26.193  1.00  0.00     0.188 C 
BRANCH  29  30
ATOM     30  O   UNL A   1      42.415  20.365  25.692  1.00  0.00    -0.376 OA
BRANCH  30  31
ATOM     31  C   UNL A   1      43.284  21.424  26.076  1.00  0.00     0.202 C 
BRANCH  31  32
ATOM     32  C   UNL A   1      43.771  22.305  24.918  1.00  0.00     0.261 C 
BRANCH  32  33
ATOM     33  O   UNL A   1      43.170  23.606  24.923  1.00  0.00    -0.460 OA
BRANCH  33  34
ATOM     34  C   UNL A   1      43.999  24.632  25.232  1.00  0.00     0.338 C 
ATOM     35  O   UNL A   1      45.007  24.955  24.627  1.00  0.00    -0.246 OA
BRANCH  34  36
ATOM     36  C   UNL A   1      43.384  25.416  26.341  1.00  0.00     0.060 A 
ATOM     37  C   UNL A   1      43.761  26.754  26.506  1.00  0.00     0.016 A 
ATOM     38  C   UNL A   1      42.382  24.874  27.159  1.00  0.00     0.016 A 
ATOM     39  C   UNL A   1      43.168  27.536  27.504  1.00  0.00     0.010 A 
ATOM     40  C   UNL A   1      41.769  25.662  28.136  1.00  0.00     0.010 A 
ATOM     41  C   UNL A   1      42.187  26.987  28.342  1.00  0.00    -0.014 A 
BRANCH  41  42
ATOM     42  C   UNL A   1      41.763  27.692  29.579  1.00  0.00     0.031 A 
ATOM     43  C   UNL A   1      40.529  28.551  29.504  1.00  0.00     0.074 A 
ATOM     44  C   UNL A   1      42.441  27.597  30.737  1.00  0.00     0.049 A 
ATOM     45  N   UNL A   1      39.995  29.330  30.410  1.00  0.00    -0.248 NA
ATOM     46  C   UNL A   1      39.802  28.529  28.224  1.00  0.00     0.031 C 
ATOM     47  C   UNL A   1      43.626  26.777  30.966  1.00  0.00     0.029 A 
ATOM     48  N   UNL A   1      42.220  28.217  31.944  1.00  0.00    -0.354 N 
ATOM     49  C   UNL A   1      38.877  29.892  29.807  1.00  0.00     0.074 A 
ATOM     50  C   UNL A   1      38.830  29.397  28.449  1.00  0.00     0.031 C 
ATOM     51  C   UNL A   1      44.036  26.951  32.237  1.00  0.00     0.029 A 
ATOM     52  C   UNL A   1      43.162  27.920  32.900  1.00  0.00     0.049 A 
ATOM     53  H   UNL A   1      41.459  28.819  32.110  1.00  0.00     0.167 HD
ATOM     54  C   UNL A   1      37.961  30.733  30.338  1.00  0.00     0.037 A 
ATOM     55  C   UNL A   1      43.310  28.394  34.154  1.00  0.00     0.037 A 
ATOM     56  C   UNL A   1      37.998  31.231  31.686  1.00  0.00     0.049 A 
ATOM     57  C   UNL A   1      42.323  29.403  34.696  1.00  0.00     0.074 A 
ATOM     58  C   UNL A   1      37.102  32.076  32.317  1.00  0.00     0.029 A 
ATOM     59  N   UNL A   1      38.989  30.936  32.608  1.00  0.00    -0.354 N 
ATOM     60  N   UNL A   1      41.254  29.908  34.131  1.00  0.00    -0.248 NA
ATOM     61  C   UNL A   1      42.572  29.909  36.056  1.00  0.00     0.031 C 
ATOM     62  C   UNL A   1      37.580  32.337  33.604  1.00  0.00     0.029 A 
ATOM     63  C   UNL A   1      38.744  31.609  33.794  1.00  0.00     0.049 A 
ATOM     64  H   UNL A   1      39.753  30.338  32.444  1.00  0.00     0.167 HD
ATOM     65  C   UNL A   1      40.690  30.764  35.070  1.00  0.00     0.074 A 
ATOM     66  C   UNL A   1      41.525  30.700  36.249  1.00  0.00     0.031 C 
ATOM     67  C   UNL A   1      39.579  31.534  34.965  1.00  0.00     0.037 A 
BRANCH  54  68
ATOM     68  C   UNL A   1      36.852  31.192  29.440  1.00  0.00     0.064 A 
ATOM     69  C   UNL A   1      35.769  30.360  29.121  1.00  0.00     0.173 A 
ATOM     70  C   UNL A   1      36.869  32.487  28.901  1.00  0.00     0.173 A 
ATOM     71  F   UNL A   1      35.719  29.105  29.594  1.00  0.00    -0.203 F 
ATOM     72  C   UNL A   1      34.756  30.798  28.273  1.00  0.00     0.198 A 
ATOM     73  C   UNL A   1      35.838  32.933  28.079  1.00  0.00     0.198 A 
ATOM     74  F   UNL A   1      37.884  33.321  29.175  1.00  0.00    -0.203 F 
ATOM     75  F   UNL A   1      33.758  29.968  27.940  1.00  0.00    -0.200 F 
ATOM     76  C   UNL A   1      34.788  32.086  27.760  1.00  0.00     0.200 A 
ATOM     77  F   UNL A   1      35.865  34.181  27.591  1.00  0.00    -0.200 F 
ATOM     78  F   UNL A   1      33.809  32.509  26.947  1.00  0.00    -0.200 F 
ENDBRANCH  54  68
BRANCH  55  79
ATOM     79  C   UNL A   1      44.453  27.944  34.995  1.00  0.00     0.064 A 
ATOM     80  C   UNL A   1      44.331  26.843  35.855  1.00  0.00     0.173 A 
ATOM     81  C   UNL A   1      45.672  28.639  34.997  1.00  0.00     0.173 A 
ATOM     82  F   UNL A   1      43.173  26.168  35.919  1.00  0.00    -0.203 F 
ATOM     83  C   UNL A   1      45.375  26.468  36.699  1.00  0.00     0.198 A 
ATOM     84  C   UNL A   1      46.725  28.245  35.819  1.00  0.00     0.198 A 
ATOM     85  F   UNL A   1      45.836  29.708  34.205  1.00  0.00    -0.203 F 
ATOM     86  F   UNL A   1      45.211  25.448  37.553  1.00  0.00    -0.200 F 
ATOM     87  C   UNL A   1      46.574  27.165  36.676  1.00  0.00     0.200 A 
ATOM     88  F   UNL A   1      47.882  28.920  35.791  1.00  0.00    -0.200 F 
ATOM     89  F   UNL A   1      47.575  26.808  37.491  1.00  0.00    -0.200 F 
ENDBRANCH  55  79
BRANCH  67  90
ATOM     90  C   UNL A   1      39.177  32.352  36.161  1.00  0.00     0.064 A 
ATOM     91  C   UNL A   1      38.312  31.847  37.143  1.00  0.00     0.173 A 
ATOM     92  C   UNL A   1      39.710  33.636  36.355  1.00  0.00     0.173 A 
ATOM     93  F   UNL A   1      37.767  30.630  37.001  1.00  0.00    -0.203 F 
ATOM     94  C   UNL A   1      37.978  32.606  38.262  1.00  0.00     0.198 A 
ATOM     95  C   UNL A   1      39.398  34.381  37.490  1.00  0.00     0.198 A 
ATOM     96  F   UNL A   1      40.550  34.164  35.452  1.00  0.00    -0.203 F 
ATOM     97  F   UNL A   1      37.116  32.120  39.166  1.00  0.00    -0.200 F 
ATOM     98  C   UNL A   1      38.527  33.867  38.439  1.00  0.00     0.200 A 
ATOM     99  F   UNL A   1      39.944  35.591  37.667  1.00  0.00    -0.200 F 
ATOM    100  F   UNL A   1      38.213  34.592  39.523  1.00  0.00    -0.200 F 
ENDBRANCH  67  90
ENDBRANCH  41  42
ENDBRANCH  34  36
ENDBRANCH  33  34
ENDBRANCH  32  33
ENDBRANCH  31  32
ENDBRANCH  30  31
ENDBRANCH  29  30
ENDBRANCH   1  29
TORSDOF 21
ENDMDL
