MODEL 1
REMARK VINA RESULT:     -11.5      0.000      0.000
REMARK SMILES CC(=O)c1cc2c(cc1NC(=O)/C=C/C(=O)OCCOCCOCCOC(=O)c1ccc(-c3c4nc(c(-c5c(F)c(F)c(F)c(F)c5F)c5ccc([nH]5)c(-c5c(F)c(F)c(F)c(F)c5F)c5nc(c(-c6c(F)c(F)c(F)c(F)c6F)c6ccc3[nH]6)C=C5)C=C4)cc1)OCO2
REMARK SMILES IDX 21 1 20 2 19 3 18 4 17 5 15 6 16 7 14 8 13 9 11 10 10 11
REMARK SMILES IDX 12 13 9 14 4 15 5 16 6 17 8 18 7 19 94 20 92 21 93 22 2 23
REMARK SMILES IDX 1 24 3 25 22 26 23 27 24 28 25 29 26 30 27 31 28 32 29 33
REMARK SMILES IDX 30 34 91 35 31 36 90 37 32 38 33 39 34 40 84 41 35 42 89 43
REMARK SMILES IDX 83 44 85 45 36 46 88 47 82 48 81 49 37 51 69 52 49 53 68 54
REMARK SMILES IDX 50 55 53 56 67 57 86 58 51 59 52 60 66 62 87 63 54 64 38 65
REMARK SMILES IDX 39 66 47 67 40 68 41 69 45 70 48 71 42 72 43 73 46 74 44 75
REMARK SMILES IDX 70 76 71 77 79 78 72 79 73 80 77 81 80 82 74 83 75 84 78 85
REMARK SMILES IDX 76 86 55 87 56 88 64 89 57 90 58 91 62 92 65 93 59 94 60 95
REMARK SMILES IDX 63 96 61 97
REMARK H PARENT 10 12 85 50 53 61
REMARK Flexibility Score: inf
ROOT
ATOM      1  C   UNL A   1      40.438  19.986  26.172  1.00  0.00     0.188 C 
ENDROOT
BRANCH   1   2
ATOM      2  O   UNL A   1      40.196  21.010  27.121  1.00  0.00    -0.376 OA
BRANCH   2   3
ATOM      3  C   UNL A   1      39.551  22.178  26.629  1.00  0.00     0.202 C 
BRANCH   3   4
ATOM      4  C   UNL A   1      38.412  21.937  25.632  1.00  0.00     0.261 C 
BRANCH   4   5
ATOM      5  O   UNL A   1      37.819  23.140  25.103  1.00  0.00    -0.460 OA
BRANCH   5   6
ATOM      6  C   UNL A   1      36.653  23.027  24.429  1.00  0.00     0.331 C 
ATOM      7  O   UNL A   1      36.530  22.874  23.225  1.00  0.00    -0.247 OA
BRANCH   6   8
ATOM      8  C   UNL A   1      35.494  22.999  25.358  1.00  0.00     0.099 C 
ATOM      9  C   UNL A   1      35.193  21.950  26.141  1.00  0.00     0.079 C 
BRANCH   9  10
ATOM     10  C   UNL A   1      33.955  21.870  26.946  1.00  0.00     0.248 C 
ATOM     11  N   UNL A   1      32.918  21.039  26.611  1.00  0.00    -0.322 N 
ATOM     12  H   UNL A   1      32.145  21.123  27.215  1.00  0.00     0.170 HD
ATOM     13  O   UNL A   1      33.885  22.563  27.960  1.00  0.00    -0.270 OA
BRANCH  11  14
ATOM     14  C   UNL A   1      32.721  20.084  25.583  1.00  0.00     0.056 A 
ATOM     15  C   UNL A   1      32.480  20.511  24.244  1.00  0.00     0.045 A 
ATOM     16  C   UNL A   1      32.588  19.607  23.169  1.00  0.00     0.064 A 
ATOM     17  C   UNL A   1      32.908  18.302  23.467  1.00  0.00     0.166 A 
ATOM     18  C   UNL A   1      32.810  18.717  25.827  1.00  0.00     0.077 A 
ATOM     19  C   UNL A   1      32.970  17.865  24.762  1.00  0.00     0.167 A 
ATOM     20  O   UNL A   1      33.220  17.313  22.588  1.00  0.00    -0.454 OA
ATOM     21  O   UNL A   1      33.287  16.546  24.858  1.00  0.00    -0.454 OA
ATOM     22  C   UNL A   1      33.692  16.295  23.500  1.00  0.00     0.468 C 
BRANCH  15  23
ATOM     23  C   UNL A   1      32.127  21.929  23.960  1.00  0.00     0.162 C 
ATOM     24  C   UNL A   1      32.746  22.587  22.751  1.00  0.00     0.093 C 
ATOM     25  O   UNL A   1      31.277  22.493  24.646  1.00  0.00    -0.294 OA
ENDBRANCH  15  23
ENDBRANCH  11  14
ENDBRANCH   9  10
ENDBRANCH   6   8
ENDBRANCH   5   6
ENDBRANCH   4   5
ENDBRANCH   3   4
ENDBRANCH   2   3
ENDBRANCH   1   2
BRANCH   1  26
ATOM     26  C   UNL A   1      41.877  19.433  26.205  1.00  0.00     0.188 C 
BRANCH  26  27
ATOM     27  O   UNL A   1      42.737  19.651  25.097  1.00  0.00    -0.376 OA
BRANCH  27  28
ATOM     28  C   UNL A   1      44.092  20.011  25.340  1.00  0.00     0.202 C 
BRANCH  28  29
ATOM     29  C   UNL A   1      44.527  21.432  24.972  1.00  0.00     0.261 C 
BRANCH  29  30
ATOM     30  O   UNL A   1      43.519  22.435  25.204  1.00  0.00    -0.460 OA
BRANCH  30  31
ATOM     31  C   UNL A   1      43.944  23.714  25.060  1.00  0.00     0.338 C 
ATOM     32  O   UNL A   1      44.756  24.142  24.258  1.00  0.00    -0.246 OA
BRANCH  31  33
ATOM     33  C   UNL A   1      43.195  24.616  25.954  1.00  0.00     0.060 A 
ATOM     34  C   UNL A   1      43.500  25.983  25.919  1.00  0.00     0.016 A 
ATOM     35  C   UNL A   1      42.324  24.109  26.919  1.00  0.00     0.016 A 
ATOM     36  C   UNL A   1      42.963  26.843  26.878  1.00  0.00     0.010 A 
ATOM     37  C   UNL A   1      41.799  24.970  27.891  1.00  0.00     0.010 A 
ATOM     38  C   UNL A   1      42.143  26.334  27.896  1.00  0.00    -0.014 A 
BRANCH  38  39
ATOM     39  C   UNL A   1      41.745  27.210  29.027  1.00  0.00     0.031 A 
ATOM     40  C   UNL A   1      42.554  27.200  30.289  1.00  0.00     0.074 A 
ATOM     41  C   UNL A   1      40.674  28.014  28.928  1.00  0.00     0.049 A 
ATOM     42  N   UNL A   1      42.360  27.867  31.398  1.00  0.00    -0.248 NA
ATOM     43  C   UNL A   1      43.725  26.311  30.312  1.00  0.00     0.031 C 
ATOM     44  C   UNL A   1      39.813  28.095  27.757  1.00  0.00     0.029 A 
ATOM     45  N   UNL A   1      40.127  28.912  29.810  1.00  0.00    -0.354 N 
ATOM     46  C   UNL A   1      43.363  27.454  32.264  1.00  0.00     0.074 A 
ATOM     47  C   UNL A   1      44.169  26.485  31.550  1.00  0.00     0.031 C 
ATOM     48  C   UNL A   1      38.858  29.014  27.977  1.00  0.00     0.029 A 
ATOM     49  C   UNL A   1      39.015  29.554  29.323  1.00  0.00     0.049 A 
ATOM     50  H   UNL A   1      40.497  29.079  30.707  1.00  0.00     0.167 HD
ATOM     51  C   UNL A   1      43.577  27.840  33.543  1.00  0.00     0.037 A 
ATOM     52  C   UNL A   1      38.203  30.461  29.903  1.00  0.00     0.037 A 
ATOM     53  C   UNL A   1      42.782  28.810  34.247  1.00  0.00     0.049 A 
ATOM     54  C   UNL A   1      38.479  30.882  31.323  1.00  0.00     0.074 A 
ATOM     55  C   UNL A   1      42.947  29.290  35.535  1.00  0.00     0.029 A 
ATOM     56  N   UNL A   1      41.665  29.445  33.724  1.00  0.00    -0.354 N 
ATOM     57  N   UNL A   1      39.451  30.512  32.120  1.00  0.00    -0.248 NA
ATOM     58  C   UNL A   1      37.535  31.830  31.930  1.00  0.00     0.031 C 
ATOM     59  C   UNL A   1      41.904  30.182  35.806  1.00  0.00     0.029 A 
ATOM     60  C   UNL A   1      41.117  30.294  34.672  1.00  0.00     0.049 A 
ATOM     61  H   UNL A   1      41.313  29.313  32.814  1.00  0.00     0.167 HD
ATOM     62  C   UNL A   1      39.241  31.184  33.316  1.00  0.00     0.074 A 
ATOM     63  C   UNL A   1      38.066  32.010  33.131  1.00  0.00     0.031 C 
ATOM     64  C   UNL A   1      39.949  31.112  34.469  1.00  0.00     0.037 A 
BRANCH  51  65
ATOM     65  C   UNL A   1      44.697  27.175  34.285  1.00  0.00     0.064 A 
ATOM     66  C   UNL A   1      44.508  25.982  34.994  1.00  0.00     0.173 A 
ATOM     67  C   UNL A   1      45.988  27.726  34.249  1.00  0.00     0.173 A 
ATOM     68  F   UNL A   1      43.290  25.427  35.071  1.00  0.00    -0.203 F 
ATOM     69  C   UNL A   1      45.570  25.371  35.657  1.00  0.00     0.198 A 
ATOM     70  C   UNL A   1      47.051  27.099  34.892  1.00  0.00     0.198 A 
ATOM     71  F   UNL A   1      46.217  28.867  33.581  1.00  0.00    -0.203 F 
ATOM     72  F   UNL A   1      45.363  24.248  36.360  1.00  0.00    -0.200 F 
ATOM     73  C   UNL A   1      46.841  25.926  35.599  1.00  0.00     0.200 A 
ATOM     74  F   UNL A   1      48.278  27.634  34.827  1.00  0.00    -0.200 F 
ATOM     75  F   UNL A   1      47.862  25.331  36.229  1.00  0.00    -0.200 F 
ENDBRANCH  51  65
BRANCH  52  76
ATOM     76  C   UNL A   1      37.039  31.019  29.163  1.00  0.00     0.064 A 
ATOM     77  C   UNL A   1      37.024  32.356  28.741  1.00  0.00     0.173 A 
ATOM     78  C   UNL A   1      35.905  30.240  28.892  1.00  0.00     0.173 A 
ATOM     79  F   UNL A   1      38.074  33.150  28.996  1.00  0.00    -0.203 F 
ATOM     80  C   UNL A   1      35.911  32.898  28.100  1.00  0.00     0.198 A 
ATOM     81  C   UNL A   1      34.806  30.774  28.221  1.00  0.00     0.198 A 
ATOM     82  F   UNL A   1      35.865  28.954  29.271  1.00  0.00    -0.203 F 
ATOM     83  F   UNL A   1      35.904  34.193  27.756  1.00  0.00    -0.200 F 
ATOM     84  C   UNL A   1      34.805  32.105  27.836  1.00  0.00     0.200 A 
ATOM     85  F   UNL A   1      33.745  29.998  27.955  1.00  0.00    -0.200 F 
ATOM     86  F   UNL A   1      33.736  32.625  27.218  1.00  0.00    -0.200 F 
ENDBRANCH  52  76
BRANCH  64  87
ATOM     87  C   UNL A   1      39.481  31.959  35.615  1.00  0.00     0.064 A 
ATOM     88  C   UNL A   1      38.539  31.485  36.540  1.00  0.00     0.173 A 
ATOM     89  C   UNL A   1      40.009  33.244  35.811  1.00  0.00     0.173 A 
ATOM     90  F   UNL A   1      37.992  30.270  36.382  1.00  0.00    -0.203 F 
ATOM     91  C   UNL A   1      38.127  32.275  37.610  1.00  0.00     0.198 A 
ATOM     92  C   UNL A   1      39.616  34.020  36.898  1.00  0.00     0.198 A 
ATOM     93  F   UNL A   1      40.915  33.741  34.957  1.00  0.00    -0.203 F 
ATOM     94  F   UNL A   1      37.196  31.818  38.457  1.00  0.00    -0.200 F 
ATOM     95  C   UNL A   1      38.671  33.538  37.792  1.00  0.00     0.200 A 
ATOM     96  F   UNL A   1      40.149  35.236  37.079  1.00  0.00    -0.200 F 
ATOM     97  F   UNL A   1      38.279  34.294  38.826  1.00  0.00    -0.200 F 
ENDBRANCH  64  87
ENDBRANCH  38  39
ENDBRANCH  31  33
ENDBRANCH  30  31
ENDBRANCH  29  30
ENDBRANCH  28  29
ENDBRANCH  27  28
ENDBRANCH  26  27
ENDBRANCH   1  26
TORSDOF 20
ENDMDL
MODEL 2
REMARK VINA RESULT:     -11.3      4.652      7.534
REMARK SMILES CC(=O)c1cc2c(cc1NC(=O)/C=C/C(=O)OCCOCCOCCOC(=O)c1ccc(-c3c4nc(c(-c5c(F)c(F)c(F)c(F)c5F)c5ccc([nH]5)c(-c5c(F)c(F)c(F)c(F)c5F)c5nc(c(-c6c(F)c(F)c(F)c(F)c6F)c6ccc3[nH]6)C=C5)C=C4)cc1)OCO2
REMARK SMILES IDX 21 1 20 2 19 3 18 4 17 5 15 6 16 7 14 8 13 9 11 10 10 11
REMARK SMILES IDX 12 13 9 14 4 15 5 16 6 17 8 18 7 19 94 20 92 21 93 22 2 23
REMARK SMILES IDX 1 24 3 25 22 26 23 27 24 28 25 29 26 30 27 31 28 32 29 33
REMARK SMILES IDX 30 34 91 35 31 36 90 37 32 38 33 39 34 40 84 41 35 42 89 43
REMARK SMILES IDX 83 44 85 45 36 46 88 47 82 48 81 49 37 51 69 52 49 53 68 54
REMARK SMILES IDX 50 55 53 56 67 57 86 58 51 59 52 60 66 62 87 63 54 64 38 65
REMARK SMILES IDX 39 66 47 67 40 68 41 69 45 70 48 71 42 72 43 73 46 74 44 75
REMARK SMILES IDX 70 76 71 77 79 78 72 79 73 80 77 81 80 82 74 83 75 84 78 85
REMARK SMILES IDX 76 86 55 87 56 88 64 89 57 90 58 91 62 92 65 93 59 94 60 95
REMARK SMILES IDX 63 96 61 97
REMARK H PARENT 10 12 85 50 53 61
REMARK Flexibility Score: inf
ROOT
ATOM      1  C   UNL A   1      35.311  23.328  25.855  1.00  0.00     0.188 C 
ENDROOT
BRANCH   1   2
ATOM      2  O   UNL A   1      34.671  23.381  27.119  1.00  0.00    -0.376 OA
BRANCH   2   3
ATOM      3  C   UNL A   1      34.069  22.173  27.566  1.00  0.00     0.202 C 
BRANCH   3   4
ATOM      4  C   UNL A   1      32.580  22.265  27.919  1.00  0.00     0.261 C 
BRANCH   4   5
ATOM      5  O   UNL A   1      31.966  23.525  27.584  1.00  0.00    -0.460 OA
BRANCH   5   6
ATOM      6  C   UNL A   1      30.838  23.501  26.839  1.00  0.00     0.331 C 
ATOM      7  O   UNL A   1      29.704  23.330  27.257  1.00  0.00    -0.247 OA
BRANCH   6   8
ATOM      8  C   UNL A   1      31.123  23.821  25.417  1.00  0.00     0.099 C 
ATOM      9  C   UNL A   1      31.998  24.763  25.029  1.00  0.00     0.079 C 
BRANCH   9  10
ATOM     10  C   UNL A   1      32.163  25.182  23.619  1.00  0.00     0.248 C 
ATOM     11  N   UNL A   1      32.349  26.492  23.264  1.00  0.00    -0.322 N 
ATOM     12  H   UNL A   1      32.402  26.625  22.290  1.00  0.00     0.170 HD
ATOM     13  O   UNL A   1      32.155  24.306  22.756  1.00  0.00    -0.270 OA
BRANCH  11  14
ATOM     14  C   UNL A   1      32.483  27.697  23.998  1.00  0.00     0.056 A 
ATOM     15  C   UNL A   1      31.382  28.596  24.107  1.00  0.00     0.045 A 
ATOM     16  C   UNL A   1      31.386  29.627  25.066  1.00  0.00     0.064 A 
ATOM     17  C   UNL A   1      32.498  29.744  25.868  1.00  0.00     0.166 A 
ATOM     18  C   UNL A   1      33.656  28.016  24.675  1.00  0.00     0.077 A 
ATOM     19  C   UNL A   1      33.617  28.987  25.645  1.00  0.00     0.167 A 
ATOM     20  O   UNL A   1      32.646  30.549  26.954  1.00  0.00    -0.454 OA
ATOM     21  O   UNL A   1      34.615  29.249  26.529  1.00  0.00    -0.454 OA
ATOM     22  C   UNL A   1      33.888  30.036  27.489  1.00  0.00     0.468 C 
BRANCH  15  23
ATOM     23  C   UNL A   1      30.198  28.446  23.215  1.00  0.00     0.162 C 
ATOM     24  C   UNL A   1      29.826  29.609  22.328  1.00  0.00     0.093 C 
ATOM     25  O   UNL A   1      29.621  27.364  23.149  1.00  0.00    -0.294 OA
ENDBRANCH  15  23
ENDBRANCH  11  14
ENDBRANCH   9  10
ENDBRANCH   6   8
ENDBRANCH   5   6
ENDBRANCH   4   5
ENDBRANCH   3   4
ENDBRANCH   2   3
ENDBRANCH   1   2
BRANCH   1  26
ATOM     26  C   UNL A   1      34.671  22.326  24.874  1.00  0.00     0.188 C 
BRANCH  26  27
ATOM     27  O   UNL A   1      35.485  21.358  24.230  1.00  0.00    -0.376 OA
BRANCH  27  28
ATOM     28  C   UNL A   1      36.041  20.302  25.005  1.00  0.00     0.202 C 
BRANCH  28  29
ATOM     29  C   UNL A   1      37.563  20.134  24.990  1.00  0.00     0.261 C 
BRANCH  29  30
ATOM     30  O   UNL A   1      38.291  21.340  25.292  1.00  0.00    -0.460 OA
BRANCH  30  31
ATOM     31  C   UNL A   1      39.342  21.176  26.131  1.00  0.00     0.338 C 
ATOM     32  O   UNL A   1      39.992  20.162  26.320  1.00  0.00    -0.246 OA
BRANCH  31  33
ATOM     33  C   UNL A   1      39.719  22.459  26.753  1.00  0.00     0.060 A 
ATOM     34  C   UNL A   1      39.075  23.622  26.311  1.00  0.00     0.016 A 
ATOM     35  C   UNL A   1      40.795  22.538  27.639  1.00  0.00     0.016 A 
ATOM     36  C   UNL A   1      39.534  24.873  26.724  1.00  0.00     0.010 A 
ATOM     37  C   UNL A   1      41.264  23.795  28.039  1.00  0.00     0.010 A 
ATOM     38  C   UNL A   1      40.658  24.969  27.558  1.00  0.00    -0.014 A 
BRANCH  38  39
ATOM     39  C   UNL A   1      41.265  26.298  27.825  1.00  0.00     0.031 A 
ATOM     40  C   UNL A   1      42.639  26.601  27.308  1.00  0.00     0.074 A 
ATOM     41  C   UNL A   1      40.592  27.232  28.518  1.00  0.00     0.049 A 
ATOM     42  N   UNL A   1      43.355  27.686  27.455  1.00  0.00    -0.248 NA
ATOM     43  C   UNL A   1      43.300  25.537  26.538  1.00  0.00     0.031 C 
ATOM     44  C   UNL A   1      39.262  27.041  29.076  1.00  0.00     0.029 A 
ATOM     45  N   UNL A   1      40.924  28.515  28.872  1.00  0.00    -0.354 N 
ATOM     46  C   UNL A   1      44.564  27.425  26.826  1.00  0.00     0.074 A 
ATOM     47  C   UNL A   1      44.483  26.083  26.289  1.00  0.00     0.031 C 
ATOM     48  C   UNL A   1      38.872  28.176  29.681  1.00  0.00     0.029 A 
ATOM     49  C   UNL A   1      39.946  29.159  29.590  1.00  0.00     0.049 A 
ATOM     50  H   UNL A   1      41.783  28.935  28.633  1.00  0.00     0.167 HD
ATOM     51  C   UNL A   1      45.646  28.231  26.724  1.00  0.00     0.037 A 
ATOM     52  C   UNL A   1      39.926  30.394  30.131  1.00  0.00     0.037 A 
ATOM     53  C   UNL A   1      45.721  29.568  27.250  1.00  0.00     0.049 A 
ATOM     54  C   UNL A   1      41.141  31.272  29.984  1.00  0.00     0.074 A 
ATOM     55  C   UNL A   1      46.766  30.472  27.162  1.00  0.00     0.029 A 
ATOM     56  N   UNL A   1      44.712  30.192  27.968  1.00  0.00    -0.354 N 
ATOM     57  N   UNL A   1      42.266  31.029  29.357  1.00  0.00    -0.248 NA
ATOM     58  C   UNL A   1      41.093  32.588  30.637  1.00  0.00     0.031 C 
ATOM     59  C   UNL A   1      46.405  31.626  27.865  1.00  0.00     0.029 A 
ATOM     60  C   UNL A   1      45.118  31.460  28.351  1.00  0.00     0.049 A 
ATOM     61  H   UNL A   1      43.836  29.793  28.175  1.00  0.00     0.167 HD
ATOM     62  C   UNL A   1      43.053  32.158  29.533  1.00  0.00     0.074 A 
ATOM     63  C   UNL A   1      42.267  33.102  30.300  1.00  0.00     0.031 C 
ATOM     64  C   UNL A   1      44.320  32.387  29.110  1.00  0.00     0.037 A 
BRANCH  51  65
ATOM     65  C   UNL A   1      46.862  27.669  26.052  1.00  0.00     0.064 A 
ATOM     66  C   UNL A   1      47.014  27.689  24.659  1.00  0.00     0.173 A 
ATOM     67  C   UNL A   1      47.908  27.138  26.823  1.00  0.00     0.173 A 
ATOM     68  F   UNL A   1      46.034  28.172  23.880  1.00  0.00    -0.203 F 
ATOM     69  C   UNL A   1      48.164  27.182  24.060  1.00  0.00     0.198 A 
ATOM     70  C   UNL A   1      49.066  26.654  26.221  1.00  0.00     0.198 A 
ATOM     71  F   UNL A   1      47.808  27.098  28.160  1.00  0.00    -0.203 F 
ATOM     72  F   UNL A   1      48.276  27.178  22.724  1.00  0.00    -0.200 F 
ATOM     73  C   UNL A   1      49.191  26.672  24.841  1.00  0.00     0.200 A 
ATOM     74  F   UNL A   1      50.059  26.170  26.979  1.00  0.00    -0.200 F 
ATOM     75  F   UNL A   1      50.300  26.193  24.262  1.00  0.00    -0.200 F 
ENDBRANCH  51  65
BRANCH  52  76
ATOM     76  C   UNL A   1      38.734  30.873  30.880  1.00  0.00     0.064 A 
ATOM     77  C   UNL A   1      37.666  31.496  30.218  1.00  0.00     0.173 A 
ATOM     78  C   UNL A   1      38.651  30.752  32.275  1.00  0.00     0.173 A 
ATOM     79  F   UNL A   1      37.707  31.659  28.887  1.00  0.00    -0.203 F 
ATOM     80  C   UNL A   1      36.574  32.000  30.924  1.00  0.00     0.198 A 
ATOM     81  C   UNL A   1      37.543  31.226  32.976  1.00  0.00     0.198 A 
ATOM     82  F   UNL A   1      39.642  30.164  32.959  1.00  0.00    -0.203 F 
ATOM     83  F   UNL A   1      35.594  32.638  30.270  1.00  0.00    -0.200 F 
ATOM     84  C   UNL A   1      36.512  31.859  32.301  1.00  0.00     0.200 A 
ATOM     85  F   UNL A   1      37.480  31.074  34.306  1.00  0.00    -0.200 F 
ATOM     86  F   UNL A   1      35.462  32.343  32.980  1.00  0.00    -0.200 F 
ENDBRANCH  52  76
BRANCH  64  87
ATOM     87  C   UNL A   1      44.929  33.714  29.455  1.00  0.00     0.064 A 
ATOM     88  C   UNL A   1      44.771  34.831  28.621  1.00  0.00     0.173 A 
ATOM     89  C   UNL A   1      45.644  33.880  30.651  1.00  0.00     0.173 A 
ATOM     90  F   UNL A   1      44.111  34.716  27.459  1.00  0.00    -0.203 F 
ATOM     91  C   UNL A   1      45.325  36.062  28.962  1.00  0.00     0.198 A 
ATOM     92  C   UNL A   1      46.173  35.118  31.002  1.00  0.00     0.198 A 
ATOM     93  F   UNL A   1      45.818  32.843  31.483  1.00  0.00    -0.203 F 
ATOM     94  F   UNL A   1      45.198  37.104  28.131  1.00  0.00    -0.200 F 
ATOM     95  C   UNL A   1      46.018  36.206  30.155  1.00  0.00     0.200 A 
ATOM     96  F   UNL A   1      46.834  35.259  32.158  1.00  0.00    -0.200 F 
ATOM     97  F   UNL A   1      46.546  37.393  30.485  1.00  0.00    -0.200 F 
ENDBRANCH  64  87
ENDBRANCH  38  39
ENDBRANCH  31  33
ENDBRANCH  30  31
ENDBRANCH  29  30
ENDBRANCH  28  29
ENDBRANCH  27  28
ENDBRANCH  26  27
ENDBRANCH   1  26
TORSDOF 20
ENDMDL
MODEL 3
REMARK VINA RESULT:     -11.2      5.118      9.767
REMARK SMILES CC(=O)c1cc2c(cc1NC(=O)/C=C/C(=O)OCCOCCOCCOC(=O)c1ccc(-c3c4nc(c(-c5c(F)c(F)c(F)c(F)c5F)c5ccc([nH]5)c(-c5c(F)c(F)c(F)c(F)c5F)c5nc(c(-c6c(F)c(F)c(F)c(F)c6F)c6ccc3[nH]6)C=C5)C=C4)cc1)OCO2
REMARK SMILES IDX 21 1 20 2 19 3 18 4 17 5 15 6 16 7 14 8 13 9 11 10 10 11
REMARK SMILES IDX 12 13 9 14 4 15 5 16 6 17 8 18 7 19 94 20 92 21 93 22 2 23
REMARK SMILES IDX 1 24 3 25 22 26 23 27 24 28 25 29 26 30 27 31 28 32 29 33
REMARK SMILES IDX 30 34 91 35 31 36 90 37 32 38 33 39 34 40 84 41 35 42 89 43
REMARK SMILES IDX 83 44 85 45 36 46 88 47 82 48 81 49 37 51 69 52 49 53 68 54
REMARK SMILES IDX 50 55 53 56 67 57 86 58 51 59 52 60 66 62 87 63 54 64 38 65
REMARK SMILES IDX 39 66 47 67 40 68 41 69 45 70 48 71 42 72 43 73 46 74 44 75
REMARK SMILES IDX 70 76 71 77 79 78 72 79 73 80 77 81 80 82 74 83 75 84 78 85
REMARK SMILES IDX 76 86 55 87 56 88 64 89 57 90 58 91 62 92 65 93 59 94 60 95
REMARK SMILES IDX 63 96 61 97
REMARK H PARENT 10 12 85 50 53 61
REMARK Flexibility Score: inf
ROOT
ATOM      1  C   UNL A   1      36.911  23.624  25.379  1.00  0.00     0.188 C 
ENDROOT
BRANCH   1   2
ATOM      2  O   UNL A   1      35.777  23.548  26.225  1.00  0.00    -0.376 OA
BRANCH   2   3
ATOM      3  C   UNL A   1      35.046  22.329  26.184  1.00  0.00     0.202 C 
BRANCH   3   4
ATOM      4  C   UNL A   1      33.561  22.458  25.826  1.00  0.00     0.261 C 
BRANCH   4   5
ATOM      5  O   UNL A   1      33.275  23.448  24.820  1.00  0.00    -0.460 OA
BRANCH   5   6
ATOM      6  C   UNL A   1      32.224  23.228  23.997  1.00  0.00     0.331 C 
ATOM      7  O   UNL A   1      31.356  22.384  24.149  1.00  0.00    -0.247 OA
BRANCH   6   8
ATOM      8  C   UNL A   1      32.178  24.231  22.903  1.00  0.00     0.099 C 
ATOM      9  C   UNL A   1      33.175  25.090  22.639  1.00  0.00     0.079 C 
BRANCH   9  10
ATOM     10  C   UNL A   1      33.059  26.185  21.650  1.00  0.00     0.248 C 
ATOM     11  N   UNL A   1      32.774  27.474  22.018  1.00  0.00    -0.322 N 
ATOM     12  H   UNL A   1      32.688  28.085  21.250  1.00  0.00     0.170 HD
ATOM     13  O   UNL A   1      33.255  25.911  20.467  1.00  0.00    -0.270 OA
BRANCH  11  14
ATOM     14  C   UNL A   1      32.578  28.117  23.265  1.00  0.00     0.056 A 
ATOM     15  C   UNL A   1      31.268  28.231  23.815  1.00  0.00     0.045 A 
ATOM     16  C   UNL A   1      31.081  28.579  25.167  1.00  0.00     0.064 A 
ATOM     17  C   UNL A   1      32.207  28.826  25.920  1.00  0.00     0.166 A 
ATOM     18  C   UNL A   1      33.646  28.602  24.015  1.00  0.00     0.077 A 
ATOM     19  C   UNL A   1      33.447  28.879  25.345  1.00  0.00     0.167 A 
ATOM     20  O   UNL A   1      32.268  29.013  27.265  1.00  0.00    -0.454 OA
ATOM     21  O   UNL A   1      34.432  29.146  26.242  1.00  0.00    -0.454 OA
ATOM     22  C   UNL A   1      33.700  28.965  27.467  1.00  0.00     0.468 C 
BRANCH  15  23
ATOM     23  C   UNL A   1      30.072  27.966  22.967  1.00  0.00     0.162 C 
ATOM     24  C   UNL A   1      29.015  27.033  23.504  1.00  0.00     0.093 C 
ATOM     25  O   UNL A   1      29.927  28.579  21.913  1.00  0.00    -0.294 OA
ENDBRANCH  15  23
ENDBRANCH  11  14
ENDBRANCH   9  10
ENDBRANCH   6   8
ENDBRANCH   5   6
ENDBRANCH   4   5
ENDBRANCH   3   4
ENDBRANCH   2   3
ENDBRANCH   1   2
BRANCH   1  26
ATOM     26  C   UNL A   1      38.255  23.514  26.126  1.00  0.00     0.188 C 
BRANCH  26  27
ATOM     27  O   UNL A   1      38.957  22.280  26.128  1.00  0.00    -0.376 OA
BRANCH  27  28
ATOM     28  C   UNL A   1      38.435  21.191  25.376  1.00  0.00     0.202 C 
BRANCH  28  29
ATOM     29  C   UNL A   1      39.197  19.864  25.422  1.00  0.00     0.261 C 
BRANCH  29  30
ATOM     30  O   UNL A   1      40.078  19.730  26.554  1.00  0.00    -0.460 OA
BRANCH  30  31
ATOM     31  C   UNL A   1      41.373  19.485  26.242  1.00  0.00     0.338 C 
ATOM     32  O   UNL A   1      41.844  18.464  25.770  1.00  0.00    -0.246 OA
BRANCH  31  33
ATOM     33  C   UNL A   1      42.196  20.693  26.440  1.00  0.00     0.060 A 
ATOM     34  C   UNL A   1      42.400  21.146  27.749  1.00  0.00     0.016 A 
ATOM     35  C   UNL A   1      42.625  21.454  25.351  1.00  0.00     0.016 A 
ATOM     36  C   UNL A   1      43.000  22.386  27.973  1.00  0.00     0.010 A 
ATOM     37  C   UNL A   1      43.212  22.705  25.577  1.00  0.00     0.010 A 
ATOM     38  C   UNL A   1      43.371  23.192  26.886  1.00  0.00    -0.014 A 
BRANCH  38  39
ATOM     39  C   UNL A   1      43.816  24.589  27.124  1.00  0.00     0.031 A 
ATOM     40  C   UNL A   1      42.846  25.589  27.679  1.00  0.00     0.074 A 
ATOM     41  C   UNL A   1      45.078  24.962  26.855  1.00  0.00     0.049 A 
ATOM     42  N   UNL A   1      43.026  26.859  27.933  1.00  0.00    -0.248 NA
ATOM     43  C   UNL A   1      41.491  25.098  27.970  1.00  0.00     0.031 C 
ATOM     44  C   UNL A   1      46.095  24.080  26.304  1.00  0.00     0.029 A 
ATOM     45  N   UNL A   1      45.721  26.165  27.004  1.00  0.00    -0.354 N 
ATOM     46  C   UNL A   1      41.801  27.330  28.381  1.00  0.00     0.074 A 
ATOM     47  C   UNL A   1      40.886  26.207  28.373  1.00  0.00     0.031 C 
ATOM     48  C   UNL A   1      47.249  24.759  26.185  1.00  0.00     0.029 A 
ATOM     49  C   UNL A   1      47.037  26.139  26.610  1.00  0.00     0.049 A 
ATOM     50  H   UNL A   1      45.280  26.971  27.359  1.00  0.00     0.167 HD
ATOM     51  C   UNL A   1      41.471  28.589  28.750  1.00  0.00     0.037 A 
ATOM     52  C   UNL A   1      47.961  27.120  26.578  1.00  0.00     0.037 A 
ATOM     53  C   UNL A   1      42.384  29.701  28.767  1.00  0.00     0.049 A 
ATOM     54  C   UNL A   1      47.565  28.507  27.011  1.00  0.00     0.074 A 
ATOM     55  C   UNL A   1      42.145  31.006  29.161  1.00  0.00     0.029 A 
ATOM     56  N   UNL A   1      43.710  29.639  28.367  1.00  0.00    -0.354 N 
ATOM     57  N   UNL A   1      46.413  28.932  27.468  1.00  0.00    -0.248 NA
ATOM     58  C   UNL A   1      48.591  29.554  26.906  1.00  0.00     0.031 C 
ATOM     59  C   UNL A   1      43.316  31.745  28.957  1.00  0.00     0.029 A 
ATOM     60  C   UNL A   1      44.297  30.890  28.481  1.00  0.00     0.049 A 
ATOM     61  H   UNL A   1      44.168  28.828  28.049  1.00  0.00     0.167 HD
ATOM     62  C   UNL A   1      46.576  30.289  27.709  1.00  0.00     0.074 A 
ATOM     63  C   UNL A   1      47.948  30.612  27.379  1.00  0.00     0.031 C 
ATOM     64  C   UNL A   1      45.666  31.191  28.151  1.00  0.00     0.037 A 
BRANCH  51  65
ATOM     65  C   UNL A   1      40.043  28.845  29.125  1.00  0.00     0.064 A 
ATOM     66  C   UNL A   1      39.097  29.279  28.186  1.00  0.00     0.173 A 
ATOM     67  C   UNL A   1      39.609  28.612  30.440  1.00  0.00     0.173 A 
ATOM     68  F   UNL A   1      39.468  29.530  26.922  1.00  0.00    -0.203 F 
ATOM     69  C   UNL A   1      37.770  29.487  28.554  1.00  0.00     0.198 A 
ATOM     70  C   UNL A   1      38.277  28.798  30.797  1.00  0.00     0.198 A 
ATOM     71  F   UNL A   1      40.477  28.195  31.373  1.00  0.00    -0.203 F 
ATOM     72  F   UNL A   1      36.889  29.936  27.649  1.00  0.00    -0.200 F 
ATOM     73  C   UNL A   1      37.360  29.240  29.856  1.00  0.00     0.200 A 
ATOM     74  F   UNL A   1      37.883  28.551  32.054  1.00  0.00    -0.200 F 
ATOM     75  F   UNL A   1      36.081  29.433  30.205  1.00  0.00    -0.200 F 
ENDBRANCH  51  65
BRANCH  52  76
ATOM     76  C   UNL A   1      49.342  26.843  26.100  1.00  0.00     0.064 A 
ATOM     77  C   UNL A   1      49.693  27.027  24.754  1.00  0.00     0.173 A 
ATOM     78  C   UNL A   1      50.331  26.355  26.966  1.00  0.00     0.173 A 
ATOM     79  F   UNL A   1      48.777  27.469  23.879  1.00  0.00    -0.203 F 
ATOM     80  C   UNL A   1      50.969  26.712  24.291  1.00  0.00     0.198 A 
ATOM     81  C   UNL A   1      51.616  26.072  26.509  1.00  0.00     0.198 A 
ATOM     82  F   UNL A   1      50.052  26.161  28.264  1.00  0.00    -0.203 F 
ATOM     83  F   UNL A   1      51.259  26.848  22.990  1.00  0.00    -0.200 F 
ATOM     84  C   UNL A   1      51.931  26.240  25.170  1.00  0.00     0.200 A 
ATOM     85  F   UNL A   1      52.548  25.630  27.366  1.00  0.00    -0.200 F 
ATOM     86  F   UNL A   1      53.158  25.938  24.725  1.00  0.00    -0.200 F 
ENDBRANCH  52  76
BRANCH  64  87
ATOM     87  C   UNL A   1      46.129  32.608  28.317  1.00  0.00     0.064 A 
ATOM     88  C   UNL A   1      46.728  33.048  29.507  1.00  0.00     0.173 A 
ATOM     89  C   UNL A   1      46.008  33.524  27.262  1.00  0.00     0.173 A 
ATOM     90  F   UNL A   1      46.849  32.213  30.550  1.00  0.00    -0.203 F 
ATOM     91  C   UNL A   1      47.171  34.361  29.641  1.00  0.00     0.198 A 
ATOM     92  C   UNL A   1      46.476  34.828  27.390  1.00  0.00     0.198 A 
ATOM     93  F   UNL A   1      45.446  33.150  26.103  1.00  0.00    -0.203 F 
ATOM     94  F   UNL A   1      47.702  34.772  30.800  1.00  0.00    -0.200 F 
ATOM     95  C   UNL A   1      47.052  35.248  28.581  1.00  0.00     0.200 A 
ATOM     96  F   UNL A   1      46.370  35.681  26.362  1.00  0.00    -0.200 F 
ATOM     97  F   UNL A   1      47.484  36.509  28.709  1.00  0.00    -0.200 F 
ENDBRANCH  64  87
ENDBRANCH  38  39
ENDBRANCH  31  33
ENDBRANCH  30  31
ENDBRANCH  29  30
ENDBRANCH  28  29
ENDBRANCH  27  28
ENDBRANCH  26  27
ENDBRANCH   1  26
TORSDOF 20
ENDMDL
