MODEL 1
REMARK VINA RESULT:     -10.0      0.000      0.000
REMARK SMILES O=C(CCCNC(=O)N1CC[C@@H](C(=O)OCCOCCOCCOC(=O)c2ccc(-c3c4nc(c(-c5c(F)c(F)c(F)c(F)c5F)c5ccc([nH]5)c(-c5c(F)c(F)c(F)c(F)c5F)c5nc(c(-c6c(F)c(F)c(F)c(F)c6F)c6ccc3[nH]6)C=C5)C=C4)cc2)C1)NC1CC1
REMARK SMILES IDX 17 1 16 2 15 3 13 4 14 5 12 6 9 7 10 8 90 9 11 10 7 11 6 12
REMARK SMILES IDX 8 14 5 15 4 16 3 17 2 18 1 19 91 20 92 22 93 23 94 24 18 25
REMARK SMILES IDX 19 26 20 27 21 28 22 29 23 30 24 31 25 32 26 33 27 34 28 35
REMARK SMILES IDX 89 36 29 37 88 38 30 39 31 40 32 41 82 42 33 43 87 44 81 45
REMARK SMILES IDX 83 46 34 47 86 48 80 49 79 50 35 52 67 53 47 54 66 55 48 56
REMARK SMILES IDX 51 57 65 58 84 59 49 60 50 61 64 63 85 64 52 65 36 66 37 67
REMARK SMILES IDX 45 68 38 69 39 70 43 71 46 72 40 73 41 74 44 75 42 76 68 77
REMARK SMILES IDX 69 78 77 79 70 80 71 81 75 82 78 83 72 84 73 85 76 86 74 87
REMARK SMILES IDX 53 88 54 89 62 90 55 91 56 92 60 93 63 94 57 95 58 96 61 97
REMARK SMILES IDX 59 98
REMARK H PARENT 6 13 91 21 83 51 51 62
REMARK Flexibility Score: inf
ROOT
ATOM      1  C   UNL A   1      34.949  29.750  27.398  1.00  0.00     0.202 C 
ENDROOT
BRANCH   1   2
ATOM      2  C   UNL A   1      33.530  29.671  26.815  1.00  0.00     0.261 C 
BRANCH   2   3
ATOM      3  O   UNL A   1      32.717  28.614  27.347  1.00  0.00    -0.463 OA
BRANCH   3   4
ATOM      4  C   UNL A   1      32.051  27.809  26.479  1.00  0.00     0.310 C 
ATOM      5  O   UNL A   1      31.136  27.060  26.783  1.00  0.00    -0.252 OA
BRANCH   4   6
ATOM      6  C   UNL A   1      32.540  28.079  25.068  1.00  0.00     0.120 C 
ATOM      7  N   UNL A   1      32.775  26.306  23.530  1.00  0.00    -0.324 N 
ATOM      8  C   UNL A   1      31.360  26.598  23.623  1.00  0.00     0.122 C 
ATOM      9  C   UNL A   1      33.501  27.000  24.579  1.00  0.00     0.136 C 
ATOM     10  C   UNL A   1      31.374  28.045  24.065  1.00  0.00     0.039 C 
BRANCH   7  11
ATOM     11  C   UNL A   1      33.396  25.401  22.737  1.00  0.00     0.317 C 
ATOM     12  N   UNL A   1      33.730  24.192  23.248  1.00  0.00    -0.338 N 
ATOM     13  H   UNL A   1      34.531  23.766  22.866  1.00  0.00     0.165 HD
ATOM     14  O   UNL A   1      33.630  25.607  21.547  1.00  0.00    -0.249 OA
BRANCH  12  15
ATOM     15  C   UNL A   1      33.046  23.449  24.295  1.00  0.00     0.118 C 
BRANCH  15  16
ATOM     16  C   UNL A   1      32.575  22.073  23.826  1.00  0.00     0.031 C 
BRANCH  16  17
ATOM     17  C   UNL A   1      32.556  20.993  24.902  1.00  0.00     0.102 C 
BRANCH  17  18
ATOM     18  C   UNL A   1      33.660  19.979  24.710  1.00  0.00     0.220 C 
ATOM     19  O   UNL A   1      34.842  20.308  24.675  1.00  0.00    -0.275 OA
ATOM     20  N   UNL A   1      33.215  18.683  24.556  1.00  0.00    -0.353 N 
ATOM     21  H   UNL A   1      32.246  18.509  24.541  1.00  0.00     0.163 HD
BRANCH  20  22
ATOM     22  C   UNL A   1      34.115  17.586  24.416  1.00  0.00     0.082 C 
ATOM     23  C   UNL A   1      33.571  16.184  24.403  1.00  0.00     0.027 C 
ATOM     24  C   UNL A   1      34.158  16.771  23.152  1.00  0.00     0.027 C 
ENDBRANCH  20  22
ENDBRANCH  17  18
ENDBRANCH  16  17
ENDBRANCH  15  16
ENDBRANCH  12  15
ENDBRANCH   7  11
ENDBRANCH   4   6
ENDBRANCH   3   4
ENDBRANCH   2   3
ENDBRANCH   1   2
BRANCH   1  25
ATOM     25  O   UNL A   1      35.153  30.703  28.432  1.00  0.00    -0.376 OA
BRANCH  25  26
ATOM     26  C   UNL A   1      35.633  31.973  28.022  1.00  0.00     0.188 C 
BRANCH  26  27
ATOM     27  C   UNL A   1      34.572  33.092  28.080  1.00  0.00     0.188 C 
BRANCH  27  28
ATOM     28  O   UNL A   1      34.797  34.270  28.839  1.00  0.00    -0.376 OA
BRANCH  28  29
ATOM     29  C   UNL A   1      34.120  35.464  28.477  1.00  0.00     0.202 C 
BRANCH  29  30
ATOM     30  C   UNL A   1      32.997  35.986  29.387  1.00  0.00     0.261 C 
BRANCH  30  31
ATOM     31  O   UNL A   1      32.591  35.094  30.440  1.00  0.00    -0.460 OA
BRANCH  31  32
ATOM     32  C   UNL A   1      32.748  35.575  31.699  1.00  0.00     0.338 C 
ATOM     33  O   UNL A   1      32.005  36.323  32.305  1.00  0.00    -0.246 OA
BRANCH  32  34
ATOM     34  C   UNL A   1      33.902  34.916  32.349  1.00  0.00     0.060 A 
ATOM     35  C   UNL A   1      35.154  35.542  32.259  1.00  0.00     0.016 A 
ATOM     36  C   UNL A   1      33.781  33.670  32.967  1.00  0.00     0.016 A 
ATOM     37  C   UNL A   1      36.292  34.915  32.764  1.00  0.00     0.010 A 
ATOM     38  C   UNL A   1      34.929  33.029  33.450  1.00  0.00     0.010 A 
ATOM     39  C   UNL A   1      36.192  33.636  33.325  1.00  0.00    -0.014 A 
BRANCH  39  40
ATOM     40  C   UNL A   1      37.430  32.870  33.618  1.00  0.00     0.031 A 
ATOM     41  C   UNL A   1      38.173  33.152  34.894  1.00  0.00     0.074 A 
ATOM     42  C   UNL A   1      37.877  31.922  32.777  1.00  0.00     0.049 A 
ATOM     43  N   UNL A   1      39.283  32.627  35.346  1.00  0.00    -0.248 NA
ATOM     44  C   UNL A   1      37.582  34.168  35.779  1.00  0.00     0.031 C 
ATOM     45  C   UNL A   1      37.234  31.530  31.527  1.00  0.00     0.029 A 
ATOM     46  N   UNL A   1      38.992  31.123  32.850  1.00  0.00    -0.354 N 
ATOM     47  C   UNL A   1      39.527  33.249  36.562  1.00  0.00     0.074 A 
ATOM     48  C   UNL A   1      38.464  34.212  36.765  1.00  0.00     0.031 C 
ATOM     49  C   UNL A   1      37.976  30.576  30.936  1.00  0.00     0.029 A 
ATOM     50  C   UNL A   1      39.158  30.311  31.756  1.00  0.00     0.049 A 
ATOM     51  H   UNL A   1      39.613  31.132  33.614  1.00  0.00     0.167 HD
ATOM     52  C   UNL A   1      40.540  33.036  37.435  1.00  0.00     0.037 A 
ATOM     53  C   UNL A   1      40.163  29.468  31.443  1.00  0.00     0.037 A 
ATOM     54  C   UNL A   1      41.601  32.084  37.233  1.00  0.00     0.049 A 
ATOM     55  C   UNL A   1      41.316  29.295  32.397  1.00  0.00     0.074 A 
ATOM     56  C   UNL A   1      42.653  31.772  38.076  1.00  0.00     0.029 A 
ATOM     57  N   UNL A   1      41.753  31.301  36.098  1.00  0.00    -0.354 N 
ATOM     58  N   UNL A   1      41.520  29.858  33.563  1.00  0.00    -0.248 NA
ATOM     59  C   UNL A   1      42.378  28.362  31.992  1.00  0.00     0.031 C 
ATOM     60  C   UNL A   1      43.473  30.842  37.426  1.00  0.00     0.029 A 
ATOM     61  C   UNL A   1      42.900  30.531  36.203  1.00  0.00     0.049 A 
ATOM     62  H   UNL A   1      41.136  31.293  35.331  1.00  0.00     0.167 HD
ATOM     63  C   UNL A   1      42.716  29.335  34.040  1.00  0.00     0.074 A 
ATOM     64  C   UNL A   1      43.187  28.398  33.042  1.00  0.00     0.031 C 
ATOM     65  C   UNL A   1      43.364  29.606  35.200  1.00  0.00     0.037 A 
BRANCH  52  66
ATOM     66  C   UNL A   1      40.567  33.879  38.677  1.00  0.00     0.064 A 
ATOM     67  C   UNL A   1      41.298  35.075  38.744  1.00  0.00     0.173 A 
ATOM     68  C   UNL A   1      39.842  33.488  39.813  1.00  0.00     0.173 A 
ATOM     69  F   UNL A   1      42.021  35.484  37.691  1.00  0.00    -0.203 F 
ATOM     70  C   UNL A   1      41.327  35.831  39.913  1.00  0.00     0.198 A 
ATOM     71  C   UNL A   1      39.850  34.262  40.970  1.00  0.00     0.198 A 
ATOM     72  F   UNL A   1      39.126  32.354  39.800  1.00  0.00    -0.203 F 
ATOM     73  F   UNL A   1      42.076  36.942  39.972  1.00  0.00    -0.200 F 
ATOM     74  C   UNL A   1      40.600  35.427  41.023  1.00  0.00     0.200 A 
ATOM     75  F   UNL A   1      39.138  33.874  42.037  1.00  0.00    -0.200 F 
ATOM     76  F   UNL A   1      40.629  36.155  42.146  1.00  0.00    -0.200 F 
ENDBRANCH  52  66
BRANCH  53  77
ATOM     77  C   UNL A   1      40.128  28.730  30.155  1.00  0.00     0.064 A 
ATOM     78  C   UNL A   1      40.703  29.267  28.995  1.00  0.00     0.173 A 
ATOM     79  C   UNL A   1      39.515  27.472  30.058  1.00  0.00     0.173 A 
ATOM     80  F   UNL A   1      41.277  30.478  29.033  1.00  0.00    -0.203 F 
ATOM     81  C   UNL A   1      40.658  28.578  27.785  1.00  0.00     0.198 A 
ATOM     82  C   UNL A   1      39.493  26.772  28.854  1.00  0.00     0.198 A 
ATOM     83  F   UNL A   1      38.949  26.916  31.139  1.00  0.00    -0.203 F 
ATOM     84  F   UNL A   1      41.187  29.128  26.684  1.00  0.00    -0.200 F 
ATOM     85  C   UNL A   1      40.060  27.329  27.717  1.00  0.00     0.200 A 
ATOM     86  F   UNL A   1      38.925  25.560  28.795  1.00  0.00    -0.200 F 
ATOM     87  F   UNL A   1      40.025  26.663  26.555  1.00  0.00    -0.200 F 
ENDBRANCH  53  77
BRANCH  65  88
ATOM     88  C   UNL A   1      44.644  28.865  35.468  1.00  0.00     0.064 A 
ATOM     89  C   UNL A   1      45.891  29.386  35.094  1.00  0.00     0.173 A 
ATOM     90  C   UNL A   1      44.625  27.634  36.143  1.00  0.00     0.173 A 
ATOM     91  F   UNL A   1      45.964  30.553  34.435  1.00  0.00    -0.203 F 
ATOM     92  C   UNL A   1      47.068  28.693  35.365  1.00  0.00     0.198 A 
ATOM     93  C   UNL A   1      45.805  26.957  36.437  1.00  0.00     0.198 A 
ATOM     94  F   UNL A   1      43.459  27.092  36.529  1.00  0.00    -0.203 F 
ATOM     95  F   UNL A   1      48.245  29.189  34.956  1.00  0.00    -0.200 F 
ATOM     96  C   UNL A   1      47.026  27.483  36.041  1.00  0.00     0.200 A 
ATOM     97  F   UNL A   1      45.762  25.796  37.105  1.00  0.00    -0.200 F 
ATOM     98  F   UNL A   1      48.160  26.820  36.305  1.00  0.00    -0.200 F 
ENDBRANCH  65  88
ENDBRANCH  39  40
ENDBRANCH  32  34
ENDBRANCH  31  32
ENDBRANCH  30  31
ENDBRANCH  29  30
ENDBRANCH  28  29
ENDBRANCH  27  28
ENDBRANCH  26  27
ENDBRANCH  25  26
ENDBRANCH   1  25
TORSDOF 23
ENDMDL
MODEL 2
REMARK VINA RESULT:      -9.8      1.125      2.159
REMARK SMILES O=C(CCCNC(=O)N1CC[C@@H](C(=O)OCCOCCOCCOC(=O)c2ccc(-c3c4nc(c(-c5c(F)c(F)c(F)c(F)c5F)c5ccc([nH]5)c(-c5c(F)c(F)c(F)c(F)c5F)c5nc(c(-c6c(F)c(F)c(F)c(F)c6F)c6ccc3[nH]6)C=C5)C=C4)cc2)C1)NC1CC1
REMARK SMILES IDX 17 1 16 2 15 3 13 4 14 5 12 6 9 7 10 8 90 9 11 10 7 11 6 12
REMARK SMILES IDX 8 14 5 15 4 16 3 17 2 18 1 19 91 20 92 22 93 23 94 24 18 25
REMARK SMILES IDX 19 26 20 27 21 28 22 29 23 30 24 31 25 32 26 33 27 34 28 35
REMARK SMILES IDX 89 36 29 37 88 38 30 39 31 40 32 41 82 42 33 43 87 44 81 45
REMARK SMILES IDX 83 46 34 47 86 48 80 49 79 50 35 52 67 53 47 54 66 55 48 56
REMARK SMILES IDX 51 57 65 58 84 59 49 60 50 61 64 63 85 64 52 65 36 66 37 67
REMARK SMILES IDX 45 68 38 69 39 70 43 71 46 72 40 73 41 74 44 75 42 76 68 77
REMARK SMILES IDX 69 78 77 79 70 80 71 81 75 82 78 83 72 84 73 85 76 86 74 87
REMARK SMILES IDX 53 88 54 89 62 90 55 91 56 92 60 93 63 94 57 95 58 96 61 97
REMARK SMILES IDX 59 98
REMARK H PARENT 6 13 91 21 83 51 51 62
REMARK Flexibility Score: inf
ROOT
ATOM      1  C   UNL A   1      34.192  29.698  26.889  1.00  0.00     0.202 C 
ENDROOT
BRANCH   1   2
ATOM      2  C   UNL A   1      32.842  30.066  26.257  1.00  0.00     0.261 C 
BRANCH   2   3
ATOM      3  O   UNL A   1      31.885  28.997  26.212  1.00  0.00    -0.463 OA
BRANCH   3   4
ATOM      4  C   UNL A   1      31.379  28.632  25.005  1.00  0.00     0.310 C 
ATOM      5  O   UNL A   1      31.145  29.399  24.085  1.00  0.00    -0.252 OA
BRANCH   4   6
ATOM      6  C   UNL A   1      31.267  27.119  24.944  1.00  0.00     0.120 C 
ATOM      7  N   UNL A   1      32.706  25.875  23.550  1.00  0.00    -0.324 N 
ATOM      8  C   UNL A   1      33.478  26.264  24.711  1.00  0.00     0.122 C 
ATOM      9  C   UNL A   1      31.442  26.589  23.525  1.00  0.00     0.136 C 
ATOM     10  C   UNL A   1      32.394  26.451  25.750  1.00  0.00     0.039 C 
BRANCH   7  11
ATOM     11  C   UNL A   1      33.092  25.109  22.501  1.00  0.00     0.317 C 
ATOM     12  N   UNL A   1      32.835  23.780  22.524  1.00  0.00    -0.338 N 
ATOM     13  H   UNL A   1      33.477  23.206  22.046  1.00  0.00     0.165 HD
ATOM     14  O   UNL A   1      33.624  25.576  21.496  1.00  0.00    -0.249 OA
BRANCH  12  15
ATOM     15  C   UNL A   1      31.723  23.099  23.168  1.00  0.00     0.118 C 
BRANCH  15  16
ATOM     16  C   UNL A   1      32.162  21.846  23.926  1.00  0.00     0.031 C 
BRANCH  16  17
ATOM     17  C   UNL A   1      32.869  22.104  25.252  1.00  0.00     0.102 C 
BRANCH  17  18
ATOM     18  C   UNL A   1      34.272  21.541  25.267  1.00  0.00     0.220 C 
ATOM     19  O   UNL A   1      34.514  20.398  24.892  1.00  0.00    -0.275 OA
ATOM     20  N   UNL A   1      35.223  22.412  25.756  1.00  0.00    -0.353 N 
ATOM     21  H   UNL A   1      34.938  23.294  26.089  1.00  0.00     0.163 HD
BRANCH  20  22
ATOM     22  C   UNL A   1      36.607  22.073  25.798  1.00  0.00     0.082 C 
ATOM     23  C   UNL A   1      37.454  22.281  24.573  1.00  0.00     0.027 C 
ATOM     24  C   UNL A   1      37.670  23.138  25.786  1.00  0.00     0.027 C 
ENDBRANCH  20  22
ENDBRANCH  17  18
ENDBRANCH  16  17
ENDBRANCH  15  16
ENDBRANCH  12  15
ENDBRANCH   7  11
ENDBRANCH   4   6
ENDBRANCH   3   4
ENDBRANCH   2   3
ENDBRANCH   1   2
BRANCH   1  25
ATOM     25  O   UNL A   1      34.547  30.399  28.073  1.00  0.00    -0.376 OA
BRANCH  25  26
ATOM     26  C   UNL A   1      35.119  31.683  27.889  1.00  0.00     0.188 C 
BRANCH  26  27
ATOM     27  C   UNL A   1      34.189  32.847  28.292  1.00  0.00     0.188 C 
BRANCH  27  28
ATOM     28  O   UNL A   1      34.687  33.958  29.021  1.00  0.00    -0.376 OA
BRANCH  28  29
ATOM     29  C   UNL A   1      34.225  35.260  28.696  1.00  0.00     0.202 C 
BRANCH  29  30
ATOM     30  C   UNL A   1      33.023  35.833  29.463  1.00  0.00     0.261 C 
BRANCH  30  31
ATOM     31  O   UNL A   1      32.591  35.064  30.599  1.00  0.00    -0.460 OA
BRANCH  31  32
ATOM     32  C   UNL A   1      32.842  35.628  31.808  1.00  0.00     0.338 C 
ATOM     33  O   UNL A   1      32.172  36.458  32.391  1.00  0.00    -0.246 OA
BRANCH  32  34
ATOM     34  C   UNL A   1      33.993  34.956  32.448  1.00  0.00     0.060 A 
ATOM     35  C   UNL A   1      35.249  35.574  32.358  1.00  0.00     0.016 A 
ATOM     36  C   UNL A   1      33.866  33.706  33.057  1.00  0.00     0.016 A 
ATOM     37  C   UNL A   1      36.385  34.937  32.854  1.00  0.00     0.010 A 
ATOM     38  C   UNL A   1      35.012  33.054  33.531  1.00  0.00     0.010 A 
ATOM     39  C   UNL A   1      36.279  33.654  33.405  1.00  0.00    -0.014 A 
BRANCH  39  40
ATOM     40  C   UNL A   1      37.513  32.877  33.687  1.00  0.00     0.031 A 
ATOM     41  C   UNL A   1      38.269  33.152  34.957  1.00  0.00     0.074 A 
ATOM     42  C   UNL A   1      37.945  31.926  32.842  1.00  0.00     0.049 A 
ATOM     43  N   UNL A   1      39.378  32.618  35.399  1.00  0.00    -0.248 NA
ATOM     44  C   UNL A   1      37.694  34.172  35.847  1.00  0.00     0.031 C 
ATOM     45  C   UNL A   1      37.288  31.541  31.596  1.00  0.00     0.029 A 
ATOM     46  N   UNL A   1      39.054  31.119  32.904  1.00  0.00    -0.354 N 
ATOM     47  C   UNL A   1      39.637  33.237  36.613  1.00  0.00     0.074 A 
ATOM     48  C   UNL A   1      38.584  34.208  36.826  1.00  0.00     0.031 C 
ATOM     49  C   UNL A   1      38.018  30.581  30.999  1.00  0.00     0.029 A 
ATOM     50  C   UNL A   1      39.204  30.306  31.808  1.00  0.00     0.049 A 
ATOM     51  H   UNL A   1      39.682  31.122  33.663  1.00  0.00     0.167 HD
ATOM     52  C   UNL A   1      40.657  33.015  37.477  1.00  0.00     0.037 A 
ATOM     53  C   UNL A   1      40.199  29.455  31.487  1.00  0.00     0.037 A 
ATOM     54  C   UNL A   1      41.708  32.055  37.266  1.00  0.00     0.049 A 
ATOM     55  C   UNL A   1      41.359  29.271  32.431  1.00  0.00     0.074 A 
ATOM     56  C   UNL A   1      42.764  31.733  38.100  1.00  0.00     0.029 A 
ATOM     57  N   UNL A   1      41.844  31.271  36.129  1.00  0.00    -0.354 N 
ATOM     58  N   UNL A   1      41.577  29.832  33.596  1.00  0.00    -0.248 NA
ATOM     59  C   UNL A   1      42.410  28.330  32.016  1.00  0.00     0.031 C 
ATOM     60  C   UNL A   1      43.571  30.797  37.442  1.00  0.00     0.029 A 
ATOM     61  C   UNL A   1      42.986  30.492  36.224  1.00  0.00     0.049 A 
ATOM     62  H   UNL A   1      41.220  31.269  35.367  1.00  0.00     0.167 HD
ATOM     63  C   UNL A   1      42.773  29.299  34.062  1.00  0.00     0.074 A 
ATOM     64  C   UNL A   1      43.228  28.359  33.059  1.00  0.00     0.031 C 
ATOM     65  C   UNL A   1      43.434  29.564  35.217  1.00  0.00     0.037 A 
BRANCH  52  66
ATOM     66  C   UNL A   1      40.701  33.857  38.720  1.00  0.00     0.064 A 
ATOM     67  C   UNL A   1      40.000  33.500  39.882  1.00  0.00     0.173 A 
ATOM     68  C   UNL A   1      41.466  35.033  38.750  1.00  0.00     0.173 A 
ATOM     69  F   UNL A   1      39.240  32.394  39.899  1.00  0.00    -0.203 F 
ATOM     70  C   UNL A   1      40.037  34.306  41.016  1.00  0.00     0.198 A 
ATOM     71  C   UNL A   1      41.525  35.820  39.896  1.00  0.00     0.198 A 
ATOM     72  F   UNL A   1      42.158  35.417  37.667  1.00  0.00    -0.203 F 
ATOM     73  F   UNL A   1      39.315  33.974  42.096  1.00  0.00    -0.200 F 
ATOM     74  C   UNL A   1      40.803  35.462  41.025  1.00  0.00     0.200 A 
ATOM     75  F   UNL A   1      42.275  36.931  39.905  1.00  0.00    -0.200 F 
ATOM     76  F   UNL A   1      40.838  36.236  42.117  1.00  0.00    -0.200 F 
ENDBRANCH  52  66
BRANCH  53  77
ATOM     77  C   UNL A   1      40.148  28.719  30.198  1.00  0.00     0.064 A 
ATOM     78  C   UNL A   1      39.508  27.477  30.096  1.00  0.00     0.173 A 
ATOM     79  C   UNL A   1      40.743  29.244  29.040  1.00  0.00     0.173 A 
ATOM     80  F   UNL A   1      38.948  26.923  31.181  1.00  0.00    -0.203 F 
ATOM     81  C   UNL A   1      39.472  26.783  28.889  1.00  0.00     0.198 A 
ATOM     82  C   UNL A   1      40.684  28.562  27.828  1.00  0.00     0.198 A 
ATOM     83  F   UNL A   1      41.368  30.430  29.086  1.00  0.00    -0.203 F 
ATOM     84  F   UNL A   1      38.881  25.581  28.827  1.00  0.00    -0.200 F 
ATOM     85  C   UNL A   1      40.054  27.328  27.755  1.00  0.00     0.200 A 
ATOM     86  F   UNL A   1      41.237  29.098  26.731  1.00  0.00    -0.200 F 
ATOM     87  F   UNL A   1      40.011  26.665  26.591  1.00  0.00    -0.200 F 
ENDBRANCH  53  77
BRANCH  65  88
ATOM     88  C   UNL A   1      44.709  28.812  35.473  1.00  0.00     0.064 A 
ATOM     89  C   UNL A   1      45.957  29.323  35.088  1.00  0.00     0.173 A 
ATOM     90  C   UNL A   1      44.686  27.581  36.148  1.00  0.00     0.173 A 
ATOM     91  F   UNL A   1      46.034  30.489  34.429  1.00  0.00    -0.203 F 
ATOM     92  C   UNL A   1      47.131  28.620  35.348  1.00  0.00     0.198 A 
ATOM     93  C   UNL A   1      45.863  26.894  36.432  1.00  0.00     0.198 A 
ATOM     94  F   UNL A   1      43.519  27.049  36.544  1.00  0.00    -0.203 F 
ATOM     95  F   UNL A   1      48.308  29.106  34.929  1.00  0.00    -0.200 F 
ATOM     96  C   UNL A   1      47.084  27.410  36.025  1.00  0.00     0.200 A 
ATOM     97  F   UNL A   1      45.816  25.733  37.099  1.00  0.00    -0.200 F 
ATOM     98  F   UNL A   1      48.216  26.738  36.279  1.00  0.00    -0.200 F 
ENDBRANCH  65  88
ENDBRANCH  39  40
ENDBRANCH  32  34
ENDBRANCH  31  32
ENDBRANCH  30  31
ENDBRANCH  29  30
ENDBRANCH  28  29
ENDBRANCH  27  28
ENDBRANCH  26  27
ENDBRANCH  25  26
ENDBRANCH   1  25
TORSDOF 23
ENDMDL
MODEL 3
REMARK VINA RESULT:      -9.7      0.803      7.329
REMARK SMILES O=C(CCCNC(=O)N1CC[C@@H](C(=O)OCCOCCOCCOC(=O)c2ccc(-c3c4nc(c(-c5c(F)c(F)c(F)c(F)c5F)c5ccc([nH]5)c(-c5c(F)c(F)c(F)c(F)c5F)c5nc(c(-c6c(F)c(F)c(F)c(F)c6F)c6ccc3[nH]6)C=C5)C=C4)cc2)C1)NC1CC1
REMARK SMILES IDX 17 1 16 2 15 3 13 4 14 5 12 6 9 7 10 8 90 9 11 10 7 11 6 12
REMARK SMILES IDX 8 14 5 15 4 16 3 17 2 18 1 19 91 20 92 22 93 23 94 24 18 25
REMARK SMILES IDX 19 26 20 27 21 28 22 29 23 30 24 31 25 32 26 33 27 34 28 35
REMARK SMILES IDX 89 36 29 37 88 38 30 39 31 40 32 41 82 42 33 43 87 44 81 45
REMARK SMILES IDX 83 46 34 47 86 48 80 49 79 50 35 52 67 53 47 54 66 55 48 56
REMARK SMILES IDX 51 57 65 58 84 59 49 60 50 61 64 63 85 64 52 65 36 66 37 67
REMARK SMILES IDX 45 68 38 69 39 70 43 71 46 72 40 73 41 74 44 75 42 76 68 77
REMARK SMILES IDX 69 78 77 79 70 80 71 81 75 82 78 83 72 84 73 85 76 86 74 87
REMARK SMILES IDX 53 88 54 89 62 90 55 91 56 92 60 93 63 94 57 95 58 96 61 97
REMARK SMILES IDX 59 98
REMARK H PARENT 6 13 91 21 83 51 51 62
REMARK Flexibility Score: inf
ROOT
ATOM      1  C   UNL A   1      33.645  29.577  26.969  1.00  0.00     0.202 C 
ENDROOT
BRANCH   1   2
ATOM      2  C   UNL A   1      32.248  30.040  26.529  1.00  0.00     0.261 C 
BRANCH   2   3
ATOM      3  O   UNL A   1      31.413  29.005  25.987  1.00  0.00    -0.463 OA
BRANCH   3   4
ATOM      4  C   UNL A   1      31.667  28.560  24.729  1.00  0.00     0.310 C 
ATOM      5  O   UNL A   1      32.097  29.250  23.818  1.00  0.00    -0.252 OA
BRANCH   4   6
ATOM      6  C   UNL A   1      31.448  27.060  24.673  1.00  0.00     0.120 C 
ATOM      7  N   UNL A   1      32.772  25.715  23.257  1.00  0.00    -0.324 N 
ATOM      8  C   UNL A   1      33.589  26.050  24.405  1.00  0.00     0.122 C 
ATOM      9  C   UNL A   1      31.561  26.517  23.252  1.00  0.00     0.136 C 
ATOM     10  C   UNL A   1      32.539  26.314  25.461  1.00  0.00     0.039 C 
BRANCH   7  11
ATOM     11  C   UNL A   1      33.085  24.924  22.204  1.00  0.00     0.317 C 
ATOM     12  N   UNL A   1      33.079  23.579  22.363  1.00  0.00    -0.338 N 
ATOM     13  H   UNL A   1      33.713  23.073  21.804  1.00  0.00     0.165 HD
ATOM     14  O   UNL A   1      33.327  25.370  21.084  1.00  0.00    -0.249 OA
BRANCH  12  15
ATOM     15  C   UNL A   1      32.248  22.792  23.261  1.00  0.00     0.118 C 
BRANCH  15  16
ATOM     16  C   UNL A   1      33.001  22.336  24.509  1.00  0.00     0.031 C 
BRANCH  16  17
ATOM     17  C   UNL A   1      33.969  21.177  24.296  1.00  0.00     0.102 C 
BRANCH  17  18
ATOM     18  C   UNL A   1      33.324  19.839  24.578  1.00  0.00     0.220 C 
ATOM     19  O   UNL A   1      32.114  19.727  24.751  1.00  0.00    -0.275 OA
ATOM     20  N   UNL A   1      34.214  18.787  24.645  1.00  0.00    -0.353 N 
ATOM     21  H   UNL A   1      35.177  18.970  24.548  1.00  0.00     0.163 HD
BRANCH  20  22
ATOM     22  C   UNL A   1      33.784  17.444  24.850  1.00  0.00     0.082 C 
ATOM     23  C   UNL A   1      33.934  16.443  23.739  1.00  0.00     0.027 C 
ATOM     24  C   UNL A   1      34.774  16.319  24.976  1.00  0.00     0.027 C 
ENDBRANCH  20  22
ENDBRANCH  17  18
ENDBRANCH  16  17
ENDBRANCH  15  16
ENDBRANCH  12  15
ENDBRANCH   7  11
ENDBRANCH   4   6
ENDBRANCH   3   4
ENDBRANCH   2   3
ENDBRANCH   1   2
BRANCH   1  25
ATOM     25  O   UNL A   1      34.233  30.285  28.052  1.00  0.00    -0.376 OA
BRANCH  25  26
ATOM     26  C   UNL A   1      34.974  31.443  27.709  1.00  0.00     0.188 C 
BRANCH  26  27
ATOM     27  C   UNL A   1      34.258  32.768  28.048  1.00  0.00     0.188 C 
BRANCH  27  28
ATOM     28  O   UNL A   1      34.963  33.845  28.645  1.00  0.00    -0.376 OA
BRANCH  28  29
ATOM     29  C   UNL A   1      34.439  35.160  28.534  1.00  0.00     0.202 C 
BRANCH  29  30
ATOM     30  C   UNL A   1      33.161  35.517  29.308  1.00  0.00     0.261 C 
BRANCH  30  31
ATOM     31  O   UNL A   1      32.877  34.686  30.449  1.00  0.00    -0.460 OA
BRANCH  31  32
ATOM     32  C   UNL A   1      32.977  35.304  31.653  1.00  0.00     0.338 C 
ATOM     33  O   UNL A   1      32.177  36.065  32.164  1.00  0.00    -0.246 OA
BRANCH  32  34
ATOM     34  C   UNL A   1      34.151  34.787  32.388  1.00  0.00     0.060 A 
ATOM     35  C   UNL A   1      35.377  35.449  32.219  1.00  0.00     0.016 A 
ATOM     36  C   UNL A   1      34.077  33.631  33.166  1.00  0.00     0.016 A 
ATOM     37  C   UNL A   1      36.536  34.944  32.807  1.00  0.00     0.010 A 
ATOM     38  C   UNL A   1      35.247  33.110  33.734  1.00  0.00     0.010 A 
ATOM     39  C   UNL A   1      36.485  33.748  33.533  1.00  0.00    -0.014 A 
BRANCH  39  40
ATOM     40  C   UNL A   1      37.751  33.081  33.929  1.00  0.00     0.031 A 
ATOM     41  C   UNL A   1      38.336  32.037  33.019  1.00  0.00     0.074 A 
ATOM     42  C   UNL A   1      38.386  33.412  35.066  1.00  0.00     0.049 A 
ATOM     43  N   UNL A   1      39.414  31.311  33.169  1.00  0.00    -0.248 NA
ATOM     44  C   UNL A   1      37.602  31.778  31.771  1.00  0.00     0.031 C 
ATOM     45  C   UNL A   1      37.943  34.428  36.016  1.00  0.00     0.029 A 
ATOM     46  N   UNL A   1      39.541  32.912  35.617  1.00  0.00    -0.354 N 
ATOM     47  C   UNL A   1      39.485  30.505  32.040  1.00  0.00     0.074 A 
ATOM     48  C   UNL A   1      38.327  30.813  31.227  1.00  0.00     0.031 C 
ATOM     49  C   UNL A   1      38.807  34.464  37.047  1.00  0.00     0.029 A 
ATOM     50  C   UNL A   1      39.846  33.457  36.839  1.00  0.00     0.049 A 
ATOM     51  H   UNL A   1      40.097  32.228  35.177  1.00  0.00     0.167 HD
ATOM     52  C   UNL A   1      40.432  29.596  31.708  1.00  0.00     0.037 A 
ATOM     53  C   UNL A   1      40.839  33.158  37.701  1.00  0.00     0.037 A 
ATOM     54  C   UNL A   1      41.581  29.284  32.516  1.00  0.00     0.049 A 
ATOM     55  C   UNL A   1      41.845  32.094  37.341  1.00  0.00     0.074 A 
ATOM     56  C   UNL A   1      42.613  28.403  32.247  1.00  0.00     0.029 A 
ATOM     57  N   UNL A   1      41.841  29.833  33.764  1.00  0.00    -0.354 N 
ATOM     58  N   UNL A   1      41.928  31.365  36.255  1.00  0.00    -0.248 NA
ATOM     59  C   UNL A   1      42.899  31.817  38.328  1.00  0.00     0.031 C 
ATOM     60  C   UNL A   1      43.467  28.376  33.356  1.00  0.00     0.029 A 
ATOM     61  C   UNL A   1      42.998  29.285  34.292  1.00  0.00     0.049 A 
ATOM     62  H   UNL A   1      41.285  30.514  34.207  1.00  0.00     0.167 HD
ATOM     63  C   UNL A   1      43.050  30.561  36.416  1.00  0.00     0.074 A 
ATOM     64  C   UNL A   1      43.624  30.902  37.701  1.00  0.00     0.031 C 
ATOM     65  C   UNL A   1      43.558  29.626  35.575  1.00  0.00     0.037 A 
BRANCH  52  66
ATOM     66  C   UNL A   1      40.242  28.844  30.422  1.00  0.00     0.064 A 
ATOM     67  C   UNL A   1      39.562  27.617  30.375  1.00  0.00     0.173 A 
ATOM     68  C   UNL A   1      40.738  29.366  29.217  1.00  0.00     0.173 A 
ATOM     69  F   UNL A   1      39.084  27.068  31.502  1.00  0.00    -0.203 F 
ATOM     70  C   UNL A   1      39.416  26.925  29.176  1.00  0.00     0.198 A 
ATOM     71  C   UNL A   1      40.563  28.686  28.016  1.00  0.00     0.198 A 
ATOM     72  F   UNL A   1      41.393  30.536  29.206  1.00  0.00    -0.203 F 
ATOM     73  F   UNL A   1      38.811  25.729  29.164  1.00  0.00    -0.200 F 
ATOM     74  C   UNL A   1      39.911  27.462  27.997  1.00  0.00     0.200 A 
ATOM     75  F   UNL A   1      41.034  29.211  26.876  1.00  0.00    -0.200 F 
ATOM     76  F   UNL A   1      39.769  26.795  26.844  1.00  0.00    -0.200 F 
ENDBRANCH  52  66
BRANCH  53  77
ATOM     77  C   UNL A   1      40.922  33.870  39.001  1.00  0.00     0.064 A 
ATOM     78  C   UNL A   1      40.202  33.428  40.118  1.00  0.00     0.173 A 
ATOM     79  C   UNL A   1      41.725  35.012  39.151  1.00  0.00     0.173 A 
ATOM     80  F   UNL A   1      39.401  32.357  40.016  1.00  0.00    -0.203 F 
ATOM     81  C   UNL A   1      40.272  34.106  41.334  1.00  0.00     0.198 A 
ATOM     82  C   UNL A   1      41.815  35.673  40.373  1.00  0.00     0.198 A 
ATOM     83  F   UNL A   1      42.434  35.475  38.111  1.00  0.00    -0.203 F 
ATOM     84  F   UNL A   1      39.547  33.680  42.378  1.00  0.00    -0.200 F 
ATOM     85  C   UNL A   1      41.083  35.223  41.462  1.00  0.00     0.200 A 
ATOM     86  F   UNL A   1      42.610  36.745  40.496  1.00  0.00    -0.200 F 
ATOM     87  F   UNL A   1      41.158  35.868  42.634  1.00  0.00    -0.200 F 
ENDBRANCH  53  77
BRANCH  65  88
ATOM     88  C   UNL A   1      44.812  28.918  36.004  1.00  0.00     0.064 A 
ATOM     89  C   UNL A   1      44.772  27.711  36.718  1.00  0.00     0.173 A 
ATOM     90  C   UNL A   1      46.073  29.433  35.661  1.00  0.00     0.173 A 
ATOM     91  F   UNL A   1      43.592  27.183  37.081  1.00  0.00    -0.203 F 
ATOM     92  C   UNL A   1      45.944  27.060  37.094  1.00  0.00     0.198 A 
ATOM     93  C   UNL A   1      47.242  28.765  36.013  1.00  0.00     0.198 A 
ATOM     94  F   UNL A   1      46.170  30.581  34.973  1.00  0.00    -0.203 F 
ATOM     95  F   UNL A   1      45.880  25.933  37.817  1.00  0.00    -0.200 F 
ATOM     96  C   UNL A   1      47.177  27.583  36.736  1.00  0.00     0.200 A 
ATOM     97  F   UNL A   1      48.433  29.264  35.653  1.00  0.00    -0.200 F 
ATOM     98  F   UNL A   1      48.304  26.951  37.093  1.00  0.00    -0.200 F 
ENDBRANCH  65  88
ENDBRANCH  39  40
ENDBRANCH  32  34
ENDBRANCH  31  32
ENDBRANCH  30  31
ENDBRANCH  29  30
ENDBRANCH  28  29
ENDBRANCH  27  28
ENDBRANCH  26  27
ENDBRANCH  25  26
ENDBRANCH   1  25
TORSDOF 23
ENDMDL
