MODEL 1
REMARK VINA RESULT:      -6.4      0.000      0.000
REMARK SMILES Cc1c(CC(=O)N[C@@H](CCO)C(=O)OCCOCCOCCOC(=O)c2ccc(-c3c4nc(c(-c5c(F)c(F)c(F)c(F)c5F)c5ccc([nH]5)c(-c5c(F)c(F)c(F)c(F)c5F)c5nc(c(-c6c(F)c(F)c(F)c(F)c6F)c6ccc3[nH]6)C=C5)C=C4)cc2)cc(-c2ccc(S(C)(=O)=O)cc2)n1-c1ccc(F)cc1
REMARK SMILES IDX 17 1 16 2 15 3 14 4 12 5 13 6 8 7 7 8 5 9 6 10 4 12 3 13
REMARK SMILES IDX 1 14 2 15 101 16 89 17 90 18 102 19 103 20 108 21 104 22
REMARK SMILES IDX 107 23 105 24 106 25 91 26 92 27 100 28 93 29 99 30 94 31
REMARK SMILES IDX 95 32 96 33 97 34 98 35 9 36 10 37 11 38 18 40 19 41 20 42
REMARK SMILES IDX 21 43 22 44 23 45 24 46 25 47 26 48 27 49 88 50 28 51 87 52
REMARK SMILES IDX 29 53 30 54 31 55 81 56 32 57 86 58 80 59 82 60 33 61 85 62
REMARK SMILES IDX 79 63 78 64 34 66 66 67 46 68 65 69 47 70 50 71 64 72 83 73
REMARK SMILES IDX 48 74 49 75 63 77 84 78 51 79 35 80 36 81 44 82 37 83 38 84
REMARK SMILES IDX 42 85 45 86 39 87 40 88 43 89 41 90 67 91 68 92 76 93 69 94
REMARK SMILES IDX 70 95 74 96 77 97 71 98 72 99 75 100 73 101 52 102 53 103
REMARK SMILES IDX 61 104 54 105 55 106 59 107 62 108 56 109 57 110 60 111
REMARK SMILES IDX 58 112
REMARK H PARENT 7 11 11 39 82 65 50 76
REMARK Flexibility Score: inf
ROOT
ATOM      1  O   UNL A   1      40.406  27.664  28.680  1.00  0.00    -0.376 OA
ENDROOT
BRANCH   1   2
ATOM      2  C   UNL A   1      39.921  28.987  28.477  1.00  0.00     0.202 C 
BRANCH   2   3
ATOM      3  C   UNL A   1      38.734  29.591  29.236  1.00  0.00     0.261 C 
BRANCH   3   4
ATOM      4  O   UNL A   1      39.064  30.633  30.156  1.00  0.00    -0.462 OA
BRANCH   4   5
ATOM      5  C   UNL A   1      38.076  31.558  30.316  1.00  0.00     0.328 C 
ATOM      6  O   UNL A   1      37.509  32.151  29.404  1.00  0.00    -0.250 OA
BRANCH   5   7
ATOM      7  C   UNL A   1      37.719  31.786  31.784  1.00  0.00     0.194 C 
BRANCH   7   8
ATOM      8  N   UNL A   1      37.313  33.138  32.184  1.00  0.00    -0.342 N 
ATOM      9  C   UNL A   1      37.833  33.940  33.162  1.00  0.00     0.225 C 
ATOM     10  O   UNL A   1      37.200  34.953  33.473  1.00  0.00    -0.275 OA
ATOM     11  H   UNL A   1      36.560  33.521  31.676  1.00  0.00     0.164 HD
BRANCH   9  12
ATOM     12  C   UNL A   1      39.196  33.641  33.780  1.00  0.00     0.137 C 
BRANCH  12  13
ATOM     13  C   UNL A   1      40.342  34.153  32.971  1.00  0.00    -0.017 A 
ATOM     14  C   UNL A   1      41.625  35.493  34.771  1.00  0.00     0.065 C 
ATOM     15  C   UNL A   1      41.430  34.885  33.419  1.00  0.00     0.024 A 
ATOM     16  N   UNL A   1      42.336  35.005  32.371  1.00  0.00    -0.314 N 
ATOM     17  C   UNL A   1      40.523  33.961  31.576  1.00  0.00     0.033 A 
ATOM     18  C   UNL A   1      41.785  34.410  31.234  1.00  0.00     0.053 A 
BRANCH  16  19
ATOM     19  C   UNL A   1      43.640  35.569  32.452  1.00  0.00     0.046 A 
ATOM     20  C   UNL A   1      44.700  34.799  32.951  1.00  0.00     0.029 A 
ATOM     21  C   UNL A   1      43.833  36.918  32.124  1.00  0.00     0.029 A 
ATOM     22  C   UNL A   1      45.949  35.387  33.140  1.00  0.00     0.041 A 
ATOM     23  C   UNL A   1      45.084  37.499  32.324  1.00  0.00     0.041 A 
ATOM     24  C   UNL A   1      46.127  36.731  32.833  1.00  0.00     0.123 A 
ATOM     25  F   UNL A   1      47.320  37.300  33.045  1.00  0.00    -0.207 F 
ENDBRANCH  16  19
BRANCH  18  26
ATOM     26  C   UNL A   1      42.493  34.163  29.970  1.00  0.00    -0.001 A 
ATOM     27  C   UNL A   1      42.636  35.190  29.022  1.00  0.00     0.011 A 
ATOM     28  C   UNL A   1      43.048  32.906  29.704  1.00  0.00     0.011 A 
ATOM     29  C   UNL A   1      43.264  34.947  27.799  1.00  0.00     0.021 A 
ATOM     30  C   UNL A   1      43.682  32.657  28.483  1.00  0.00     0.021 A 
ATOM     31  C   UNL A   1      43.766  33.675  27.529  1.00  0.00     0.067 A 
BRANCH  31  32
ATOM     32  S   UNL A   1      44.546  33.363  25.964  1.00  0.00     0.175 S 
ATOM     33  C   UNL A   1      43.509  34.201  24.793  1.00  0.00     0.163 C 
ATOM     34  O   UNL A   1      45.837  34.040  25.993  1.00  0.00    -0.224 OA
ATOM     35  O   UNL A   1      44.455  31.946  25.696  1.00  0.00    -0.224 OA
ENDBRANCH  31  32
ENDBRANCH  18  26
ENDBRANCH  12  13
ENDBRANCH   9  12
ENDBRANCH   7   8
BRANCH   7  36
ATOM     36  C   UNL A   1      36.671  30.754  32.224  1.00  0.00     0.065 C 
BRANCH  36  37
ATOM     37  C   UNL A   1      37.261  29.473  32.812  1.00  0.00     0.159 C 
BRANCH  37  38
ATOM     38  O   UNL A   1      37.900  29.719  34.055  1.00  0.00    -0.396 OA
ATOM     39  H   UNL A   1      38.110  30.663  34.129  1.00  0.00     0.210 HD
ENDBRANCH  37  38
ENDBRANCH  36  37
ENDBRANCH   7  36
ENDBRANCH   5   7
ENDBRANCH   4   5
ENDBRANCH   3   4
ENDBRANCH   2   3
ENDBRANCH   1   2
BRANCH   1  40
ATOM     40  C   UNL A   1      39.792  26.542  28.075  1.00  0.00     0.188 C 
BRANCH  40  41
ATOM     41  C   UNL A   1      40.422  25.149  28.199  1.00  0.00     0.188 C 
BRANCH  41  42
ATOM     42  O   UNL A   1      39.746  24.069  27.605  1.00  0.00    -0.376 OA
BRANCH  42  43
ATOM     43  C   UNL A   1      40.468  22.841  27.518  1.00  0.00     0.202 C 
BRANCH  43  44
ATOM     44  C   UNL A   1      41.186  22.408  26.198  1.00  0.00     0.261 C 
BRANCH  44  45
ATOM     45  O   UNL A   1      42.426  23.073  25.723  1.00  0.00    -0.460 OA
BRANCH  45  46
ATOM     46  C   UNL A   1      43.627  22.555  26.176  1.00  0.00     0.338 C 
ATOM     47  O   UNL A   1      44.052  21.467  25.802  1.00  0.00    -0.246 OA
BRANCH  46  48
ATOM     48  C   UNL A   1      44.457  23.376  27.203  1.00  0.00     0.060 A 
ATOM     49  C   UNL A   1      43.828  24.259  28.076  1.00  0.00     0.016 A 
ATOM     50  C   UNL A   1      45.853  23.589  27.114  1.00  0.00     0.016 A 
ATOM     51  C   UNL A   1      44.572  25.237  28.860  1.00  0.00     0.010 A 
ATOM     52  C   UNL A   1      46.603  24.632  27.877  1.00  0.00     0.010 A 
ATOM     53  C   UNL A   1      45.997  25.510  28.799  1.00  0.00    -0.014 A 
BRANCH  53  54
ATOM     54  C   UNL A   1      46.541  26.988  29.389  1.00  0.00     0.031 A 
ATOM     55  C   UNL A   1      47.087  26.581  30.716  1.00  0.00     0.074 A 
ATOM     56  C   UNL A   1      46.591  28.395  29.201  1.00  0.00     0.049 A 
ATOM     57  N   UNL A   1      46.316  25.961  31.569  1.00  0.00    -0.248 NA
ATOM     58  C   UNL A   1      48.519  26.481  30.999  1.00  0.00     0.031 C 
ATOM     59  C   UNL A   1      45.972  29.199  28.128  1.00  0.00     0.029 A 
ATOM     60  N   UNL A   1      47.219  29.489  29.940  1.00  0.00    -0.354 N 
ATOM     61  C   UNL A   1      47.109  25.677  32.651  1.00  0.00     0.074 A 
ATOM     62  C   UNL A   1      48.470  25.791  32.145  1.00  0.00     0.031 C 
ATOM     63  C   UNL A   1      46.332  30.521  28.176  1.00  0.00     0.029 A 
ATOM     64  C   UNL A   1      47.197  30.818  29.322  1.00  0.00     0.049 A 
ATOM     65  H   UNL A   1      47.640  29.339  30.818  1.00  0.00     0.167 HD
ATOM     66  C   UNL A   1      46.609  26.089  33.852  1.00  0.00     0.037 A 
ATOM     67  C   UNL A   1      47.740  32.064  29.703  1.00  0.00     0.037 A 
ATOM     68  C   UNL A   1      47.249  27.284  34.321  1.00  0.00     0.049 A 
ATOM     69  C   UNL A   1      47.925  32.011  31.156  1.00  0.00     0.074 A 
ATOM     70  C   UNL A   1      48.572  27.683  34.349  1.00  0.00     0.029 A 
ATOM     71  N   UNL A   1      46.490  28.431  34.394  1.00  0.00    -0.354 N 
ATOM     72  N   UNL A   1      46.932  32.226  31.961  1.00  0.00    -0.248 NA
ATOM     73  C   UNL A   1      49.233  31.889  31.789  1.00  0.00     0.031 C 
ATOM     74  C   UNL A   1      48.547  29.012  33.882  1.00  0.00     0.029 A 
ATOM     75  C   UNL A   1      47.255  29.505  34.002  1.00  0.00     0.049 A 
ATOM     76  H   UNL A   1      45.550  28.475  34.683  1.00  0.00     0.167 HD
ATOM     77  C   UNL A   1      47.381  31.713  33.131  1.00  0.00     0.074 A 
ATOM     78  C   UNL A   1      48.828  31.803  33.059  1.00  0.00     0.031 C 
ATOM     79  C   UNL A   1      46.599  30.733  33.640  1.00  0.00     0.037 A 
BRANCH  66  80
ATOM     80  C   UNL A   1      45.150  25.765  34.002  1.00  0.00     0.064 A 
ATOM     81  C   UNL A   1      44.208  26.676  33.514  1.00  0.00     0.173 A 
ATOM     82  C   UNL A   1      44.680  24.715  34.819  1.00  0.00     0.173 A 
ATOM     83  F   UNL A   1      44.593  27.661  32.688  1.00  0.00    -0.203 F 
ATOM     84  C   UNL A   1      42.870  26.592  33.895  1.00  0.00     0.198 A 
ATOM     85  C   UNL A   1      43.359  24.676  35.253  1.00  0.00     0.198 A 
ATOM     86  F   UNL A   1      45.514  23.746  35.233  1.00  0.00    -0.203 F 
ATOM     87  F   UNL A   1      41.982  27.471  33.409  1.00  0.00    -0.200 F 
ATOM     88  C   UNL A   1      42.457  25.621  34.797  1.00  0.00     0.200 A 
ATOM     89  F   UNL A   1      42.970  23.736  36.126  1.00  0.00    -0.200 F 
ATOM     90  F   UNL A   1      41.185  25.589  35.219  1.00  0.00    -0.200 F 
ENDBRANCH  66  80
BRANCH  67  91
ATOM     91  C   UNL A   1      48.059  33.563  29.274  1.00  0.00     0.064 A 
ATOM     92  C   UNL A   1      49.234  33.898  28.489  1.00  0.00     0.173 A 
ATOM     93  C   UNL A   1      47.089  34.574  29.231  1.00  0.00     0.173 A 
ATOM     94  F   UNL A   1      50.310  33.102  28.452  1.00  0.00    -0.203 F 
ATOM     95  C   UNL A   1      49.351  35.029  27.656  1.00  0.00     0.198 A 
ATOM     96  C   UNL A   1      47.229  35.741  28.420  1.00  0.00     0.198 A 
ATOM     97  F   UNL A   1      45.944  34.426  29.909  1.00  0.00    -0.203 F 
ATOM     98  F   UNL A   1      50.424  35.179  26.861  1.00  0.00    -0.200 F 
ATOM     99  C   UNL A   1      48.332  35.945  27.604  1.00  0.00     0.200 A 
ATOM    100  F   UNL A   1      46.241  36.648  28.379  1.00  0.00    -0.200 F 
ATOM    101  F   UNL A   1      48.402  36.991  26.764  1.00  0.00    -0.200 F 
ENDBRANCH  67  91
BRANCH  79 102
ATOM    102  C   UNL A   1      45.098  30.971  33.599  1.00  0.00     0.064 A 
ATOM    103  C   UNL A   1      44.299  31.607  34.584  1.00  0.00     0.173 A 
ATOM    104  C   UNL A   1      44.406  30.428  32.509  1.00  0.00     0.173 A 
ATOM    105  F   UNL A   1      44.831  32.276  35.616  1.00  0.00    -0.203 F 
ATOM    106  C   UNL A   1      42.904  31.602  34.517  1.00  0.00     0.198 A 
ATOM    107  C   UNL A   1      43.016  30.481  32.414  1.00  0.00     0.198 A 
ATOM    108  F   UNL A   1      45.087  29.850  31.507  1.00  0.00    -0.203 F 
ATOM    109  F   UNL A   1      42.180  32.149  35.506  1.00  0.00    -0.200 F 
ATOM    110  C   UNL A   1      42.263  31.041  33.429  1.00  0.00     0.200 A 
ATOM    111  F   UNL A   1      42.409  29.985  31.327  1.00  0.00    -0.200 F 
ATOM    112  F   UNL A   1      40.926  31.060  33.347  1.00  0.00    -0.200 F 
ENDBRANCH  79 102
ENDBRANCH  53  54
ENDBRANCH  46  48
ENDBRANCH  45  46
ENDBRANCH  44  45
ENDBRANCH  43  44
ENDBRANCH  42  43
ENDBRANCH  41  42
ENDBRANCH  40  41
ENDBRANCH   1  40
TORSDOF 26
ENDMDL
MODEL 2
REMARK VINA RESULT:      -6.3      4.002      7.806
REMARK SMILES Cc1c(CC(=O)N[C@@H](CCO)C(=O)OCCOCCOCCOC(=O)c2ccc(-c3c4nc(c(-c5c(F)c(F)c(F)c(F)c5F)c5ccc([nH]5)c(-c5c(F)c(F)c(F)c(F)c5F)c5nc(c(-c6c(F)c(F)c(F)c(F)c6F)c6ccc3[nH]6)C=C5)C=C4)cc2)cc(-c2ccc(S(C)(=O)=O)cc2)n1-c1ccc(F)cc1
REMARK SMILES IDX 17 1 16 2 15 3 14 4 12 5 13 6 8 7 7 8 5 9 6 10 4 12 3 13
REMARK SMILES IDX 1 14 2 15 101 16 89 17 90 18 102 19 103 20 108 21 104 22
REMARK SMILES IDX 107 23 105 24 106 25 91 26 92 27 100 28 93 29 99 30 94 31
REMARK SMILES IDX 95 32 96 33 97 34 98 35 9 36 10 37 11 38 18 40 19 41 20 42
REMARK SMILES IDX 21 43 22 44 23 45 24 46 25 47 26 48 27 49 88 50 28 51 87 52
REMARK SMILES IDX 29 53 30 54 31 55 81 56 32 57 86 58 80 59 82 60 33 61 85 62
REMARK SMILES IDX 79 63 78 64 34 66 66 67 46 68 65 69 47 70 50 71 64 72 83 73
REMARK SMILES IDX 48 74 49 75 63 77 84 78 51 79 35 80 36 81 44 82 37 83 38 84
REMARK SMILES IDX 42 85 45 86 39 87 40 88 43 89 41 90 67 91 68 92 76 93 69 94
REMARK SMILES IDX 70 95 74 96 77 97 71 98 72 99 75 100 73 101 52 102 53 103
REMARK SMILES IDX 61 104 54 105 55 106 59 107 62 108 56 109 57 110 60 111
REMARK SMILES IDX 58 112
REMARK H PARENT 7 11 11 39 82 65 50 76
REMARK Flexibility Score: inf
ROOT
ATOM      1  O   UNL A   1      37.499  28.578  30.078  1.00  0.00    -0.376 OA
ENDROOT
BRANCH   1   2
ATOM      2  C   UNL A   1      36.784  29.808  30.017  1.00  0.00     0.202 C 
BRANCH   2   3
ATOM      3  C   UNL A   1      35.908  30.233  28.834  1.00  0.00     0.261 C 
BRANCH   3   4
ATOM      4  O   UNL A   1      36.269  31.471  28.220  1.00  0.00    -0.462 OA
BRANCH   4   5
ATOM      5  C   UNL A   1      35.338  32.455  28.379  1.00  0.00     0.328 C 
ATOM      6  O   UNL A   1      34.276  32.528  27.769  1.00  0.00    -0.250 OA
BRANCH   5   7
ATOM      7  C   UNL A   1      35.748  33.484  29.431  1.00  0.00     0.194 C 
BRANCH   7   8
ATOM      8  N   UNL A   1      36.933  34.304  29.154  1.00  0.00    -0.342 N 
ATOM      9  C   UNL A   1      38.206  34.171  29.636  1.00  0.00     0.225 C 
ATOM     10  O   UNL A   1      38.995  35.099  29.443  1.00  0.00    -0.275 OA
ATOM     11  H   UNL A   1      36.791  35.057  28.534  1.00  0.00     0.164 HD
BRANCH   9  12
ATOM     12  C   UNL A   1      38.658  32.877  30.308  1.00  0.00     0.137 C 
BRANCH  12  13
ATOM     13  C   UNL A   1      39.463  33.097  31.546  1.00  0.00    -0.017 A 
ATOM     14  C   UNL A   1      41.809  32.404  30.711  1.00  0.00     0.065 C 
ATOM     15  C   UNL A   1      40.834  32.969  31.694  1.00  0.00     0.024 A 
ATOM     16  N   UNL A   1      41.181  33.430  32.960  1.00  0.00    -0.314 N 
ATOM     17  C   UNL A   1      38.949  33.498  32.807  1.00  0.00     0.033 A 
ATOM     18  C   UNL A   1      40.014  33.783  33.641  1.00  0.00     0.053 A 
BRANCH  16  19
ATOM     19  C   UNL A   1      42.504  33.593  33.458  1.00  0.00     0.046 A 
ATOM     20  C   UNL A   1      43.026  32.657  34.362  1.00  0.00     0.029 A 
ATOM     21  C   UNL A   1      43.236  34.738  33.118  1.00  0.00     0.029 A 
ATOM     22  C   UNL A   1      44.274  32.878  34.939  1.00  0.00     0.041 A 
ATOM     23  C   UNL A   1      44.480  34.956  33.708  1.00  0.00     0.041 A 
ATOM     24  C   UNL A   1      44.985  34.028  34.614  1.00  0.00     0.123 A 
ATOM     25  F   UNL A   1      46.170  34.254  35.195  1.00  0.00    -0.207 F 
ENDBRANCH  16  19
BRANCH  18  26
ATOM     26  C   UNL A   1      39.957  34.481  34.933  1.00  0.00    -0.001 A 
ATOM     27  C   UNL A   1      40.593  35.723  35.100  1.00  0.00     0.011 A 
ATOM     28  C   UNL A   1      39.252  33.925  36.007  1.00  0.00     0.011 A 
ATOM     29  C   UNL A   1      40.583  36.367  36.339  1.00  0.00     0.021 A 
ATOM     30  C   UNL A   1      39.234  34.567  37.249  1.00  0.00     0.021 A 
ATOM     31  C   UNL A   1      39.919  35.774  37.412  1.00  0.00     0.067 A 
BRANCH  31  32
ATOM     32  S   UNL A   1      39.926  36.585  38.993  1.00  0.00     0.175 S 
ATOM     33  C   UNL A   1      39.438  35.314  40.130  1.00  0.00     0.163 C 
ATOM     34  O   UNL A   1      41.311  36.942  39.278  1.00  0.00    -0.224 OA
ATOM     35  O   UNL A   1      38.886  37.588  38.982  1.00  0.00    -0.224 OA
ENDBRANCH  31  32
ENDBRANCH  18  26
ENDBRANCH  12  13
ENDBRANCH   9  12
ENDBRANCH   7   8
BRANCH   7  36
ATOM     36  C   UNL A   1      34.544  34.371  29.779  1.00  0.00     0.065 C 
BRANCH  36  37
ATOM     37  C   UNL A   1      34.231  34.445  31.272  1.00  0.00     0.159 C 
BRANCH  37  38
ATOM     38  O   UNL A   1      35.376  34.155  32.058  1.00  0.00    -0.396 OA
ATOM     39  H   UNL A   1      35.124  33.579  32.796  1.00  0.00     0.210 HD
ENDBRANCH  37  38
ENDBRANCH  36  37
ENDBRANCH   7  36
ENDBRANCH   5   7
ENDBRANCH   4   5
ENDBRANCH   3   4
ENDBRANCH   2   3
ENDBRANCH   1   2
BRANCH   1  40
ATOM     40  C   UNL A   1      38.510  28.348  31.040  1.00  0.00     0.188 C 
BRANCH  40  41
ATOM     41  C   UNL A   1      38.337  28.836  32.483  1.00  0.00     0.188 C 
BRANCH  41  42
ATOM     42  O   UNL A   1      39.400  28.623  33.379  1.00  0.00    -0.376 OA
BRANCH  42  43
ATOM     43  C   UNL A   1      40.204  29.760  33.689  1.00  0.00     0.202 C 
BRANCH  43  44
ATOM     44  C   UNL A   1      40.271  30.342  35.139  1.00  0.00     0.261 C 
BRANCH  44  45
ATOM     45  O   UNL A   1      41.280  29.879  36.125  1.00  0.00    -0.460 OA
BRANCH  45  46
ATOM     46  C   UNL A   1      41.606  28.534  36.103  1.00  0.00     0.338 C 
ATOM     47  O   UNL A   1      40.895  27.680  36.623  1.00  0.00    -0.246 OA
BRANCH  46  48
ATOM     48  C   UNL A   1      42.924  28.095  35.406  1.00  0.00     0.060 A 
ATOM     49  C   UNL A   1      43.977  28.993  35.255  1.00  0.00     0.016 A 
ATOM     50  C   UNL A   1      43.050  26.954  34.579  1.00  0.00     0.016 A 
ATOM     51  C   UNL A   1      45.113  28.719  34.383  1.00  0.00     0.010 A 
ATOM     52  C   UNL A   1      44.189  26.704  33.643  1.00  0.00     0.010 A 
ATOM     53  C   UNL A   1      45.287  27.577  33.502  1.00  0.00    -0.014 A 
BRANCH  53  54
ATOM     54  C   UNL A   1      46.389  27.718  32.239  1.00  0.00     0.031 A 
ATOM     55  C   UNL A   1      45.687  28.695  31.358  1.00  0.00     0.074 A 
ATOM     56  C   UNL A   1      47.587  27.234  31.650  1.00  0.00     0.049 A 
ATOM     57  N   UNL A   1      44.479  28.433  30.935  1.00  0.00    -0.248 NA
ATOM     58  C   UNL A   1      46.089  30.096  31.232  1.00  0.00     0.031 C 
ATOM     59  C   UNL A   1      48.446  26.121  32.103  1.00  0.00     0.029 A 
ATOM     60  N   UNL A   1      48.357  27.619  30.469  1.00  0.00    -0.354 N 
ATOM     61  C   UNL A   1      44.093  29.528  30.205  1.00  0.00     0.074 A 
ATOM     62  C   UNL A   1      44.999  30.586  30.630  1.00  0.00     0.031 C 
ATOM     63  C   UNL A   1      49.601  26.007  31.372  1.00  0.00     0.029 A 
ATOM     64  C   UNL A   1      49.665  26.985  30.282  1.00  0.00     0.049 A 
ATOM     65  H   UNL A   1      48.011  28.279  29.825  1.00  0.00     0.167 HD
ATOM     66  C   UNL A   1      43.638  29.248  28.950  1.00  0.00     0.037 A 
ATOM     67  C   UNL A   1      50.683  27.149  29.318  1.00  0.00     0.037 A 
ATOM     68  C   UNL A   1      44.617  29.540  27.944  1.00  0.00     0.049 A 
ATOM     69  C   UNL A   1      50.043  27.712  28.127  1.00  0.00     0.074 A 
ATOM     70  C   UNL A   1      45.478  30.606  27.762  1.00  0.00     0.029 A 
ATOM     71  N   UNL A   1      45.146  28.482  27.238  1.00  0.00    -0.354 N 
ATOM     72  N   UNL A   1      49.409  26.952  27.290  1.00  0.00    -0.248 NA
ATOM     73  C   UNL A   1      50.212  29.100  27.711  1.00  0.00     0.031 C 
ATOM     74  C   UNL A   1      46.714  30.007  27.448  1.00  0.00     0.029 A 
ATOM     75  C   UNL A   1      46.488  28.704  27.030  1.00  0.00     0.049 A 
ATOM     76  H   UNL A   1      44.644  27.693  26.932  1.00  0.00     0.167 HD
ATOM     77  C   UNL A   1      48.658  27.837  26.594  1.00  0.00     0.074 A 
ATOM     78  C   UNL A   1      49.379  29.094  26.668  1.00  0.00     0.031 C 
ATOM     79  C   UNL A   1      47.327  27.598  26.653  1.00  0.00     0.037 A 
BRANCH  66  80
ATOM     80  C   UNL A   1      42.693  28.079  28.935  1.00  0.00     0.064 A 
ATOM     81  C   UNL A   1      43.225  26.788  28.979  1.00  0.00     0.173 A 
ATOM     82  C   UNL A   1      41.321  28.209  28.634  1.00  0.00     0.173 A 
ATOM     83  F   UNL A   1      44.511  26.603  29.314  1.00  0.00    -0.203 F 
ATOM     84  C   UNL A   1      42.442  25.681  28.654  1.00  0.00     0.198 A 
ATOM     85  C   UNL A   1      40.561  27.112  28.243  1.00  0.00     0.198 A 
ATOM     86  F   UNL A   1      40.722  29.412  28.680  1.00  0.00    -0.203 F 
ATOM     87  F   UNL A   1      42.970  24.451  28.711  1.00  0.00    -0.200 F 
ATOM     88  C   UNL A   1      41.126  25.849  28.245  1.00  0.00     0.200 A 
ATOM     89  F   UNL A   1      39.293  27.284  27.846  1.00  0.00    -0.200 F 
ATOM     90  F   UNL A   1      40.398  24.790  27.861  1.00  0.00    -0.200 F 
ENDBRANCH  66  80
BRANCH  67  91
ATOM     91  C   UNL A   1      52.181  26.814  28.896  1.00  0.00     0.064 A 
ATOM     92  C   UNL A   1      52.480  25.928  27.786  1.00  0.00     0.173 A 
ATOM     93  C   UNL A   1      53.276  27.619  29.240  1.00  0.00     0.173 A 
ATOM     94  F   UNL A   1      51.597  25.023  27.344  1.00  0.00    -0.203 F 
ATOM     95  C   UNL A   1      53.670  25.957  27.030  1.00  0.00     0.198 A 
ATOM     96  C   UNL A   1      54.497  27.615  28.499  1.00  0.00     0.198 A 
ATOM     97  F   UNL A   1      53.169  28.489  30.252  1.00  0.00    -0.203 F 
ATOM     98  F   UNL A   1      53.796  25.191  25.932  1.00  0.00    -0.200 F 
ATOM     99  C   UNL A   1      54.676  26.821  27.375  1.00  0.00     0.200 A 
ATOM    100  F   UNL A   1      55.490  28.448  28.845  1.00  0.00    -0.200 F 
ATOM    101  F   UNL A   1      55.786  26.906  26.624  1.00  0.00    -0.200 F 
ENDBRANCH  67  91
BRANCH  79 102
ATOM    102  C   UNL A   1      46.889  26.150  26.498  1.00  0.00     0.064 A 
ATOM    103  C   UNL A   1      46.687  25.436  25.289  1.00  0.00     0.173 A 
ATOM    104  C   UNL A   1      46.562  25.463  27.674  1.00  0.00     0.173 A 
ATOM    105  F   UNL A   1      47.070  25.918  24.098  1.00  0.00    -0.203 F 
ATOM    106  C   UNL A   1      46.107  24.165  25.271  1.00  0.00     0.198 A 
ATOM    107  C   UNL A   1      46.042  24.170  27.656  1.00  0.00     0.198 A 
ATOM    108  F   UNL A   1      46.766  26.047  28.866  1.00  0.00    -0.203 F 
ATOM    109  F   UNL A   1      45.864  23.552  24.102  1.00  0.00    -0.200 F 
ATOM    110  C   UNL A   1      45.787  23.532  26.456  1.00  0.00     0.200 A 
ATOM    111  F   UNL A   1      45.789  23.544  28.813  1.00  0.00    -0.200 F 
ATOM    112  F   UNL A   1      45.256  22.301  26.445  1.00  0.00    -0.200 F 
ENDBRANCH  79 102
ENDBRANCH  53  54
ENDBRANCH  46  48
ENDBRANCH  45  46
ENDBRANCH  44  45
ENDBRANCH  43  44
ENDBRANCH  42  43
ENDBRANCH  41  42
ENDBRANCH  40  41
ENDBRANCH   1  40
TORSDOF 26
ENDMDL
MODEL 3
REMARK VINA RESULT:      -5.9      6.637     12.145
REMARK SMILES Cc1c(CC(=O)N[C@@H](CCO)C(=O)OCCOCCOCCOC(=O)c2ccc(-c3c4nc(c(-c5c(F)c(F)c(F)c(F)c5F)c5ccc([nH]5)c(-c5c(F)c(F)c(F)c(F)c5F)c5nc(c(-c6c(F)c(F)c(F)c(F)c6F)c6ccc3[nH]6)C=C5)C=C4)cc2)cc(-c2ccc(S(C)(=O)=O)cc2)n1-c1ccc(F)cc1
REMARK SMILES IDX 17 1 16 2 15 3 14 4 12 5 13 6 8 7 7 8 5 9 6 10 4 12 3 13
REMARK SMILES IDX 1 14 2 15 101 16 89 17 90 18 102 19 103 20 108 21 104 22
REMARK SMILES IDX 107 23 105 24 106 25 91 26 92 27 100 28 93 29 99 30 94 31
REMARK SMILES IDX 95 32 96 33 97 34 98 35 9 36 10 37 11 38 18 40 19 41 20 42
REMARK SMILES IDX 21 43 22 44 23 45 24 46 25 47 26 48 27 49 88 50 28 51 87 52
REMARK SMILES IDX 29 53 30 54 31 55 81 56 32 57 86 58 80 59 82 60 33 61 85 62
REMARK SMILES IDX 79 63 78 64 34 66 66 67 46 68 65 69 47 70 50 71 64 72 83 73
REMARK SMILES IDX 48 74 49 75 63 77 84 78 51 79 35 80 36 81 44 82 37 83 38 84
REMARK SMILES IDX 42 85 45 86 39 87 40 88 43 89 41 90 67 91 68 92 76 93 69 94
REMARK SMILES IDX 70 95 74 96 77 97 71 98 72 99 75 100 73 101 52 102 53 103
REMARK SMILES IDX 61 104 54 105 55 106 59 107 62 108 56 109 57 110 60 111
REMARK SMILES IDX 58 112
REMARK H PARENT 7 11 11 39 82 65 50 76
REMARK Flexibility Score: inf
ROOT
ATOM      1  O   UNL A   1      45.155  40.576  32.291  1.00  0.00    -0.376 OA
ENDROOT
BRANCH   1   2
ATOM      2  C   UNL A   1      45.648  41.275  31.152  1.00  0.00     0.202 C 
BRANCH   2   3
ATOM      3  C   UNL A   1      45.049  41.151  29.746  1.00  0.00     0.261 C 
BRANCH   3   4
ATOM      4  O   UNL A   1      44.435  39.895  29.452  1.00  0.00    -0.462 OA
BRANCH   4   5
ATOM      5  C   UNL A   1      45.189  39.089  28.651  1.00  0.00     0.328 C 
ATOM      6  O   UNL A   1      46.219  38.518  28.992  1.00  0.00    -0.250 OA
BRANCH   5   7
ATOM      7  C   UNL A   1      44.603  38.948  27.246  1.00  0.00     0.194 C 
BRANCH   7   8
ATOM      8  N   UNL A   1      45.526  39.059  26.111  1.00  0.00    -0.342 N 
ATOM      9  C   UNL A   1      45.764  40.131  25.295  1.00  0.00     0.225 C 
ATOM     10  O   UNL A   1      46.420  39.938  24.268  1.00  0.00    -0.275 OA
ATOM     11  H   UNL A   1      46.047  38.248  25.908  1.00  0.00     0.164 HD
BRANCH   9  12
ATOM     12  C   UNL A   1      45.311  41.534  25.692  1.00  0.00     0.137 C 
BRANCH  12  13
ATOM     13  C   UNL A   1      45.332  42.509  24.561  1.00  0.00    -0.017 A 
ATOM     14  C   UNL A   1      47.691  43.523  24.859  1.00  0.00     0.065 C 
ATOM     15  C   UNL A   1      46.389  43.308  24.156  1.00  0.00     0.024 A 
ATOM     16  N   UNL A   1      46.032  43.934  22.967  1.00  0.00    -0.314 N 
ATOM     17  C   UNL A   1      44.252  42.779  23.680  1.00  0.00     0.033 A 
ATOM     18  C   UNL A   1      44.715  43.586  22.658  1.00  0.00     0.053 A 
BRANCH  16  19
ATOM     19  C   UNL A   1      46.882  44.734  22.153  1.00  0.00     0.046 A 
ATOM     20  C   UNL A   1      47.806  44.118  21.298  1.00  0.00     0.029 A 
ATOM     21  C   UNL A   1      46.855  46.129  22.286  1.00  0.00     0.029 A 
ATOM     22  C   UNL A   1      48.717  44.899  20.590  1.00  0.00     0.041 A 
ATOM     23  C   UNL A   1      47.776  46.902  21.580  1.00  0.00     0.041 A 
ATOM     24  C   UNL A   1      48.699  46.281  20.743  1.00  0.00     0.123 A 
ATOM     25  F   UNL A   1      49.596  47.026  20.086  1.00  0.00    -0.207 F 
ENDBRANCH  16  19
BRANCH  18  26
ATOM     26  C   UNL A   1      44.025  43.889  21.396  1.00  0.00    -0.001 A 
ATOM     27  C   UNL A   1      42.750  43.359  21.136  1.00  0.00     0.011 A 
ATOM     28  C   UNL A   1      44.623  44.725  20.446  1.00  0.00     0.011 A 
ATOM     29  C   UNL A   1      42.111  43.603  19.919  1.00  0.00     0.021 A 
ATOM     30  C   UNL A   1      43.987  44.978  19.226  1.00  0.00     0.021 A 
ATOM     31  C   UNL A   1      42.744  44.396  18.962  1.00  0.00     0.067 A 
BRANCH  31  32
ATOM     32  S   UNL A   1      41.939  44.688  17.406  1.00  0.00     0.175 S 
ATOM     33  C   UNL A   1      41.923  46.456  17.256  1.00  0.00     0.163 C 
ATOM     34  O   UNL A   1      42.814  44.153  16.371  1.00  0.00    -0.224 OA
ATOM     35  O   UNL A   1      40.569  44.245  17.525  1.00  0.00    -0.224 OA
ENDBRANCH  31  32
ENDBRANCH  18  26
ENDBRANCH  12  13
ENDBRANCH   9  12
ENDBRANCH   7   8
BRANCH   7  36
ATOM     36  C   UNL A   1      43.789  37.650  27.158  1.00  0.00     0.065 C 
BRANCH  36  37
ATOM     37  C   UNL A   1      42.330  37.795  27.584  1.00  0.00     0.159 C 
BRANCH  37  38
ATOM     38  O   UNL A   1      41.512  38.212  26.502  1.00  0.00    -0.396 OA
ATOM     39  H   UNL A   1      41.857  37.840  25.675  1.00  0.00     0.210 HD
ENDBRANCH  37  38
ENDBRANCH  36  37
ENDBRANCH   7  36
ENDBRANCH   5   7
ENDBRANCH   4   5
ENDBRANCH   3   4
ENDBRANCH   2   3
ENDBRANCH   1   2
BRANCH   1  40
ATOM     40  C   UNL A   1      44.601  41.254  33.401  1.00  0.00     0.188 C 
BRANCH  40  41
ATOM     41  C   UNL A   1      45.511  41.910  34.447  1.00  0.00     0.188 C 
BRANCH  41  42
ATOM     42  O   UNL A   1      45.830  41.168  35.597  1.00  0.00    -0.376 OA
BRANCH  42  43
ATOM     43  C   UNL A   1      46.884  40.214  35.463  1.00  0.00     0.202 C 
BRANCH  43  44
ATOM     44  C   UNL A   1      46.606  38.753  34.981  1.00  0.00     0.261 C 
BRANCH  44  45
ATOM     45  O   UNL A   1      46.608  37.603  35.921  1.00  0.00    -0.460 OA
BRANCH  45  46
ATOM     46  C   UNL A   1      46.375  36.351  35.379  1.00  0.00     0.338 C 
ATOM     47  O   UNL A   1      47.080  35.383  35.643  1.00  0.00    -0.246 OA
BRANCH  46  48
ATOM     48  C   UNL A   1      45.186  36.172  34.394  1.00  0.00     0.060 A 
ATOM     49  C   UNL A   1      43.897  36.543  34.766  1.00  0.00     0.016 A 
ATOM     50  C   UNL A   1      45.211  35.331  33.255  1.00  0.00     0.016 A 
ATOM     51  C   UNL A   1      42.723  36.151  33.995  1.00  0.00     0.010 A 
ATOM     52  C   UNL A   1      44.000  34.886  32.502  1.00  0.00     0.010 A 
ATOM     53  C   UNL A   1      42.687  35.281  32.832  1.00  0.00    -0.014 A 
BRANCH  53  54
ATOM     54  C   UNL A   1      41.219  34.566  32.429  1.00  0.00     0.031 A 
ATOM     55  C   UNL A   1      40.973  33.724  33.635  1.00  0.00     0.074 A 
ATOM     56  C   UNL A   1      40.234  34.363  31.427  1.00  0.00     0.049 A 
ATOM     57  N   UNL A   1      41.867  32.845  34.002  1.00  0.00    -0.248 NA
ATOM     58  C   UNL A   1      39.984  34.057  34.660  1.00  0.00     0.031 C 
ATOM     59  C   UNL A   1      40.234  34.846  30.030  1.00  0.00     0.029 A 
ATOM     60  N   UNL A   1      38.955  33.655  31.399  1.00  0.00    -0.354 N 
ATOM     61  C   UNL A   1      41.383  32.279  35.154  1.00  0.00     0.074 A 
ATOM     62  C   UNL A   1      40.379  33.221  35.628  1.00  0.00     0.031 C 
ATOM     63  C   UNL A   1      39.060  34.578  29.373  1.00  0.00     0.029 A 
ATOM     64  C   UNL A   1      38.119  33.824  30.207  1.00  0.00     0.049 A 
ATOM     65  H   UNL A   1      38.667  33.087  32.150  1.00  0.00     0.167 HD
ATOM     66  C   UNL A   1      41.338  30.915  35.146  1.00  0.00     0.037 A 
ATOM     67  C   UNL A   1      36.833  33.355  29.861  1.00  0.00     0.037 A 
ATOM     68  C   UNL A   1      40.008  30.422  34.933  1.00  0.00     0.049 A 
ATOM     69  C   UNL A   1      36.590  32.164  30.679  1.00  0.00     0.074 A 
ATOM     70  C   UNL A   1      38.780  30.800  35.442  1.00  0.00     0.029 A 
ATOM     71  N   UNL A   1      39.757  29.747  33.759  1.00  0.00    -0.354 N 
ATOM     72  N   UNL A   1      37.074  31.012  30.336  1.00  0.00    -0.248 NA
ATOM     73  C   UNL A   1      35.670  32.148  31.811  1.00  0.00     0.031 C 
ATOM     74  C   UNL A   1      37.932  30.835  34.318  1.00  0.00     0.029 A 
ATOM     75  C   UNL A   1      38.508  30.092  33.297  1.00  0.00     0.049 A 
ATOM     76  H   UNL A   1      40.373  29.116  33.320  1.00  0.00     0.167 HD
ATOM     77  C   UNL A   1      36.986  30.299  31.483  1.00  0.00     0.074 A 
ATOM     78  C   UNL A   1      35.892  30.898  32.225  1.00  0.00     0.031 C 
ATOM     79  C   UNL A   1      38.171  29.817  31.926  1.00  0.00     0.037 A 
BRANCH  66  80
ATOM     80  C   UNL A   1      42.594  30.307  34.591  1.00  0.00     0.064 A 
ATOM     81  C   UNL A   1      43.579  29.873  35.483  1.00  0.00     0.173 A 
ATOM     82  C   UNL A   1      42.936  30.373  33.224  1.00  0.00     0.173 A 
ATOM     83  F   UNL A   1      43.291  29.739  36.786  1.00  0.00    -0.203 F 
ATOM     84  C   UNL A   1      44.872  29.599  35.041  1.00  0.00     0.198 A 
ATOM     85  C   UNL A   1      44.243  30.167  32.797  1.00  0.00     0.198 A 
ATOM     86  F   UNL A   1      42.007  30.680  32.301  1.00  0.00    -0.203 F 
ATOM     87  F   UNL A   1      45.798  29.175  35.912  1.00  0.00    -0.200 F 
ATOM     88  C   UNL A   1      45.213  29.788  33.709  1.00  0.00     0.200 A 
ATOM     89  F   UNL A   1      44.564  30.355  31.509  1.00  0.00    -0.200 F 
ATOM     90  F   UNL A   1      46.476  29.596  33.301  1.00  0.00    -0.200 F 
ENDBRANCH  66  80
BRANCH  67  91
ATOM     91  C   UNL A   1      35.616  33.444  28.840  1.00  0.00     0.064 A 
ATOM     92  C   UNL A   1      35.237  32.319  28.004  1.00  0.00     0.173 A 
ATOM     93  C   UNL A   1      34.587  34.391  28.949  1.00  0.00     0.173 A 
ATOM     94  F   UNL A   1      36.098  31.336  27.708  1.00  0.00    -0.203 F 
ATOM     95  C   UNL A   1      33.948  32.106  27.474  1.00  0.00     0.198 A 
ATOM     96  C   UNL A   1      33.295  34.193  28.375  1.00  0.00     0.198 A 
ATOM     97  F   UNL A   1      34.776  35.496  29.680  1.00  0.00    -0.203 F 
ATOM     98  F   UNL A   1      33.659  30.963  26.829  1.00  0.00    -0.200 F 
ATOM     99  C   UNL A   1      32.964  33.038  27.680  1.00  0.00     0.200 A 
ATOM    100  F   UNL A   1      32.334  35.111  28.559  1.00  0.00    -0.200 F 
ATOM    101  F   UNL A   1      31.715  32.815  27.239  1.00  0.00    -0.200 F 
ENDBRANCH  67  91
BRANCH  79 102
ATOM    102  C   UNL A   1      39.089  29.206  30.880  1.00  0.00     0.064 A 
ATOM    103  C   UNL A   1      40.015  29.883  30.045  1.00  0.00     0.173 A 
ATOM    104  C   UNL A   1      38.950  27.832  30.648  1.00  0.00     0.173 A 
ATOM    105  F   UNL A   1      40.342  31.169  30.232  1.00  0.00    -0.203 F 
ATOM    106  C   UNL A   1      40.670  29.236  28.994  1.00  0.00     0.198 A 
ATOM    107  C   UNL A   1      39.653  27.176  29.638  1.00  0.00     0.198 A 
ATOM    108  F   UNL A   1      38.130  27.104  31.423  1.00  0.00    -0.203 F 
ATOM    109  F   UNL A   1      41.482  29.928  28.179  1.00  0.00    -0.200 F 
ATOM    110  C   UNL A   1      40.490  27.881  28.793  1.00  0.00     0.200 A 
ATOM    111  F   UNL A   1      39.515  25.852  29.490  1.00  0.00    -0.200 F 
ATOM    112  F   UNL A   1      41.139  27.252  27.804  1.00  0.00    -0.200 F 
ENDBRANCH  79 102
ENDBRANCH  53  54
ENDBRANCH  46  48
ENDBRANCH  45  46
ENDBRANCH  44  45
ENDBRANCH  43  44
ENDBRANCH  42  43
ENDBRANCH  41  42
ENDBRANCH  40  41
ENDBRANCH   1  40
TORSDOF 26
ENDMDL
