MODEL 1
REMARK VINA RESULT:     -11.6      0.000      0.000
REMARK SMILES Cc1ccc(CNc2ccc(C(=O)OCCOCCOCCOC(=O)c3ccc(-c4c5nc(c(-c6c(F)c(F)c(F)c(F)c6F)c6ccc([nH]6)c(-c6c(F)c(F)c(F)c(F)c6F)c6nc(c(-c7c(F)c(F)c(F)c(F)c7F)c7ccc4[nH]7)C=C6)C=C5)cc3)cc2Br)cc1
REMARK SMILES IDX 18 1 17 2 16 3 15 4 14 5 12 6 13 7 11 8 8 9 9 10 90 11 10 12
REMARK SMILES IDX 89 13 91 14 7 15 6 17 5 18 1 19 2 20 3 21 93 22 4 23 92 24
REMARK SMILES IDX 19 25 20 26 21 27 22 28 23 29 24 30 25 31 26 32 27 33 88 34
REMARK SMILES IDX 28 35 87 36 29 37 30 38 31 39 81 40 32 41 86 42 80 43 82 44
REMARK SMILES IDX 33 45 85 46 79 47 78 48 34 50 66 51 46 52 65 53 47 54 50 55
REMARK SMILES IDX 64 56 83 57 48 58 49 59 63 61 84 62 51 63 35 64 36 65 44 66
REMARK SMILES IDX 37 67 38 68 42 69 45 70 39 71 40 72 43 73 41 74 67 75 68 76
REMARK SMILES IDX 76 77 69 78 70 79 74 80 77 81 71 82 72 83 75 84 73 85 52 86
REMARK SMILES IDX 53 87 61 88 54 89 55 90 59 91 62 92 56 93 57 94 60 95 58 96
REMARK H PARENT 7 16 82 49 50 60
REMARK Flexibility Score: inf
ROOT
ATOM      1  C   UNL A   1      34.156  34.562  29.135  1.00  0.00     0.188 C 
ENDROOT
BRANCH   1   2
ATOM      2  O   UNL A   1      35.260  34.276  28.247  1.00  0.00    -0.376 OA
BRANCH   2   3
ATOM      3  C   UNL A   1      35.580  32.885  28.136  1.00  0.00     0.202 C 
BRANCH   3   4
ATOM      4  C   UNL A   1      34.427  31.911  28.543  1.00  0.00     0.261 C 
BRANCH   4   5
ATOM      5  O   UNL A   1      33.957  30.951  27.518  1.00  0.00    -0.460 OA
BRANCH   5   6
ATOM      6  C   UNL A   1      34.434  29.669  27.270  1.00  0.00     0.338 C 
ATOM      7  O   UNL A   1      35.447  29.233  27.792  1.00  0.00    -0.246 OA
BRANCH   6   8
ATOM      8  C   UNL A   1      33.464  28.744  26.346  1.00  0.00     0.061 A 
ATOM      9  C   UNL A   1      31.685  27.184  24.597  1.00  0.00     0.049 A 
ATOM     10  C   UNL A   1      31.358  27.533  25.926  1.00  0.00     0.028 A 
ATOM     11  C   UNL A   1      32.893  27.659  24.141  1.00  0.00     0.042 A 
ATOM     12  C   UNL A   1      32.240  28.272  26.795  1.00  0.00     0.018 A 
ATOM     13  C   UNL A   1      33.688  28.434  24.986  1.00  0.00     0.033 A 
ATOM     14  Br  UNL A   1      33.544  27.317  22.383  1.00  0.00    -0.049 Br
BRANCH   9  15
ATOM     15  N   UNL A   1      30.827  26.494  23.730  1.00  0.00    -0.380 N 
ATOM     16  H   UNL A   1      31.172  25.816  23.105  1.00  0.00     0.160 HD
BRANCH  15  17
ATOM     17  C   UNL A   1      29.402  26.816  23.787  1.00  0.00     0.148 C 
BRANCH  17  18
ATOM     18  C   UNL A   1      29.073  28.135  23.096  1.00  0.00    -0.029 A 
ATOM     19  C   UNL A   1      28.286  32.090  21.475  1.00  0.00     0.044 C 
ATOM     20  C   UNL A   1      28.536  30.706  22.005  1.00  0.00    -0.051 A 
ATOM     21  C   UNL A   1      29.755  30.068  21.758  1.00  0.00     0.004 A 
ATOM     22  C   UNL A   1      27.568  30.029  22.751  1.00  0.00     0.004 A 
ATOM     23  C   UNL A   1      30.023  28.805  22.306  1.00  0.00     0.006 A 
ATOM     24  C   UNL A   1      27.829  28.755  23.282  1.00  0.00     0.006 A 
ENDBRANCH  17  18
ENDBRANCH  15  17
ENDBRANCH   9  15
ENDBRANCH   6   8
ENDBRANCH   5   6
ENDBRANCH   4   5
ENDBRANCH   3   4
ENDBRANCH   2   3
ENDBRANCH   1   2
BRANCH   1  25
ATOM     25  C   UNL A   1      33.262  35.631  28.520  1.00  0.00     0.188 C 
BRANCH  25  26
ATOM     26  O   UNL A   1      32.363  36.183  29.476  1.00  0.00    -0.376 OA
BRANCH  26  27
ATOM     27  C   UNL A   1      33.003  36.572  30.702  1.00  0.00     0.202 C 
BRANCH  27  28
ATOM     28  C   UNL A   1      32.319  36.073  31.996  1.00  0.00     0.261 C 
BRANCH  28  29
ATOM     29  O   UNL A   1      33.340  35.679  32.943  1.00  0.00    -0.460 OA
BRANCH  29  30
ATOM     30  C   UNL A   1      33.726  34.374  33.052  1.00  0.00     0.338 C 
ATOM     31  O   UNL A   1      32.994  33.417  33.251  1.00  0.00    -0.246 OA
BRANCH  30  32
ATOM     32  C   UNL A   1      35.215  34.381  33.242  1.00  0.00     0.060 A 
ATOM     33  C   UNL A   1      36.095  34.795  32.245  1.00  0.00     0.016 A 
ATOM     34  C   UNL A   1      35.731  33.560  34.202  1.00  0.00     0.016 A 
ATOM     35  C   UNL A   1      37.392  34.186  32.113  1.00  0.00     0.010 A 
ATOM     36  C   UNL A   1      36.896  32.854  33.879  1.00  0.00     0.010 A 
ATOM     37  C   UNL A   1      37.809  33.053  32.835  1.00  0.00    -0.014 A 
BRANCH  37  38
ATOM     38  C   UNL A   1      38.975  32.046  32.349  1.00  0.00     0.031 A 
ATOM     39  C   UNL A   1      39.071  30.626  31.562  1.00  0.00     0.074 A 
ATOM     40  C   UNL A   1      40.227  32.452  32.676  1.00  0.00     0.049 A 
ATOM     41  N   UNL A   1      39.948  29.665  31.826  1.00  0.00    -0.248 NA
ATOM     42  C   UNL A   1      38.256  30.094  30.453  1.00  0.00     0.031 C 
ATOM     43  C   UNL A   1      41.500  31.978  32.143  1.00  0.00     0.029 A 
ATOM     44  N   UNL A   1      40.614  33.347  33.684  1.00  0.00    -0.354 N 
ATOM     45  C   UNL A   1      39.850  28.717  30.789  1.00  0.00     0.074 A 
ATOM     46  C   UNL A   1      38.520  28.798  30.347  1.00  0.00     0.031 C 
ATOM     47  C   UNL A   1      42.475  32.315  33.000  1.00  0.00     0.029 A 
ATOM     48  C   UNL A   1      41.842  32.887  34.171  1.00  0.00     0.049 A 
ATOM     49  H   UNL A   1      40.119  34.142  33.989  1.00  0.00     0.167 HD
ATOM     50  C   UNL A   1      40.916  28.216  30.086  1.00  0.00     0.037 A 
ATOM     51  C   UNL A   1      41.996  32.494  35.467  1.00  0.00     0.037 A 
ATOM     52  C   UNL A   1      42.123  28.410  30.840  1.00  0.00     0.049 A 
ATOM     53  C   UNL A   1      42.582  31.114  35.627  1.00  0.00     0.074 A 
ATOM     54  C   UNL A   1      43.292  29.118  30.662  1.00  0.00     0.029 A 
ATOM     55  N   UNL A   1      42.126  27.931  32.132  1.00  0.00    -0.354 N 
ATOM     56  N   UNL A   1      42.818  30.318  34.624  1.00  0.00    -0.248 NA
ATOM     57  C   UNL A   1      42.913  30.488  36.904  1.00  0.00     0.031 C 
ATOM     58  C   UNL A   1      43.964  29.134  31.916  1.00  0.00     0.029 A 
ATOM     59  C   UNL A   1      43.215  28.396  32.817  1.00  0.00     0.049 A 
ATOM     60  H   UNL A   1      41.439  27.335  32.509  1.00  0.00     0.167 HD
ATOM     61  C   UNL A   1      43.203  29.087  35.080  1.00  0.00     0.074 A 
ATOM     62  C   UNL A   1      43.309  29.262  36.512  1.00  0.00     0.031 C 
ATOM     63  C   UNL A   1      43.322  28.034  34.219  1.00  0.00     0.037 A 
BRANCH  50  64
ATOM     64  C   UNL A   1      40.931  27.656  28.635  1.00  0.00     0.064 A 
ATOM     65  C   UNL A   1      40.297  26.420  28.353  1.00  0.00     0.173 A 
ATOM     66  C   UNL A   1      41.619  28.191  27.514  1.00  0.00     0.173 A 
ATOM     67  F   UNL A   1      39.612  25.763  29.299  1.00  0.00    -0.203 F 
ATOM     68  C   UNL A   1      40.352  25.790  27.096  1.00  0.00     0.198 A 
ATOM     69  C   UNL A   1      41.606  27.600  26.238  1.00  0.00     0.198 A 
ATOM     70  F   UNL A   1      42.411  29.264  27.595  1.00  0.00    -0.203 F 
ATOM     71  F   UNL A   1      39.793  24.583  26.929  1.00  0.00    -0.200 F 
ATOM     72  C   UNL A   1      40.990  26.390  26.033  1.00  0.00     0.200 A 
ATOM     73  F   UNL A   1      42.239  28.206  25.222  1.00  0.00    -0.200 F 
ATOM     74  F   UNL A   1      41.035  25.797  24.830  1.00  0.00    -0.200 F 
ENDBRANCH  50  64
BRANCH  51  75
ATOM     75  C   UNL A   1      41.110  33.219  36.424  1.00  0.00     0.064 A 
ATOM     76  C   UNL A   1      39.900  32.588  36.783  1.00  0.00     0.173 A 
ATOM     77  C   UNL A   1      41.551  34.264  37.247  1.00  0.00     0.173 A 
ATOM     78  F   UNL A   1      39.435  31.569  36.041  1.00  0.00    -0.203 F 
ATOM     79  C   UNL A   1      39.227  32.904  37.962  1.00  0.00     0.198 A 
ATOM     80  C   UNL A   1      40.859  34.597  38.423  1.00  0.00     0.198 A 
ATOM     81  F   UNL A   1      42.719  34.877  36.999  1.00  0.00    -0.203 F 
ATOM     82  F   UNL A   1      38.157  32.186  38.333  1.00  0.00    -0.200 F 
ATOM     83  C   UNL A   1      39.718  33.894  38.792  1.00  0.00     0.200 A 
ATOM     84  F   UNL A   1      41.363  35.512  39.263  1.00  0.00    -0.200 F 
ATOM     85  F   UNL A   1      39.140  34.118  39.982  1.00  0.00    -0.200 F 
ENDBRANCH  51  75
BRANCH  63  86
ATOM     86  C   UNL A   1      43.428  26.560  34.551  1.00  0.00     0.064 A 
ATOM     87  C   UNL A   1      42.369  25.780  35.037  1.00  0.00     0.173 A 
ATOM     88  C   UNL A   1      44.588  25.834  34.163  1.00  0.00     0.173 A 
ATOM     89  F   UNL A   1      41.187  26.322  35.350  1.00  0.00    -0.203 F 
ATOM     90  C   UNL A   1      42.466  24.389  35.145  1.00  0.00     0.198 A 
ATOM     91  C   UNL A   1      44.653  24.442  34.206  1.00  0.00     0.198 A 
ATOM     92  F   UNL A   1      45.675  26.456  33.680  1.00  0.00    -0.203 F 
ATOM     93  F   UNL A   1      41.432  23.691  35.636  1.00  0.00    -0.200 F 
ATOM     94  C   UNL A   1      43.595  23.719  34.708  1.00  0.00     0.200 A 
ATOM     95  F   UNL A   1      45.732  23.810  33.723  1.00  0.00    -0.200 F 
ATOM     96  F   UNL A   1      43.651  22.381  34.750  1.00  0.00    -0.200 F 
ENDBRANCH  63  86
ENDBRANCH  37  38
ENDBRANCH  30  32
ENDBRANCH  29  30
ENDBRANCH  28  29
ENDBRANCH  27  28
ENDBRANCH  26  27
ENDBRANCH  25  26
ENDBRANCH   1  25
TORSDOF 20
ENDMDL
MODEL 2
REMARK VINA RESULT:     -11.2      3.164      5.772
REMARK SMILES Cc1ccc(CNc2ccc(C(=O)OCCOCCOCCOC(=O)c3ccc(-c4c5nc(c(-c6c(F)c(F)c(F)c(F)c6F)c6ccc([nH]6)c(-c6c(F)c(F)c(F)c(F)c6F)c6nc(c(-c7c(F)c(F)c(F)c(F)c7F)c7ccc4[nH]7)C=C6)C=C5)cc3)cc2Br)cc1
REMARK SMILES IDX 18 1 17 2 16 3 15 4 14 5 12 6 13 7 11 8 8 9 9 10 90 11 10 12
REMARK SMILES IDX 89 13 91 14 7 15 6 17 5 18 1 19 2 20 3 21 93 22 4 23 92 24
REMARK SMILES IDX 19 25 20 26 21 27 22 28 23 29 24 30 25 31 26 32 27 33 88 34
REMARK SMILES IDX 28 35 87 36 29 37 30 38 31 39 81 40 32 41 86 42 80 43 82 44
REMARK SMILES IDX 33 45 85 46 79 47 78 48 34 50 66 51 46 52 65 53 47 54 50 55
REMARK SMILES IDX 64 56 83 57 48 58 49 59 63 61 84 62 51 63 35 64 36 65 44 66
REMARK SMILES IDX 37 67 38 68 42 69 45 70 39 71 40 72 43 73 41 74 67 75 68 76
REMARK SMILES IDX 76 77 69 78 70 79 74 80 77 81 71 82 72 83 75 84 73 85 52 86
REMARK SMILES IDX 53 87 61 88 54 89 55 90 59 91 62 92 56 93 57 94 60 95 58 96
REMARK H PARENT 7 16 82 49 50 60
REMARK Flexibility Score: inf
ROOT
ATOM      1  C   UNL A   1      30.596  31.685  25.527  1.00  0.00     0.188 C 
ENDROOT
BRANCH   1   2
ATOM      2  O   UNL A   1      30.206  31.135  24.249  1.00  0.00    -0.376 OA
BRANCH   2   3
ATOM      3  C   UNL A   1      29.049  31.750  23.672  1.00  0.00     0.202 C 
BRANCH   3   4
ATOM      4  C   UNL A   1      28.780  31.370  22.180  1.00  0.00     0.261 C 
BRANCH   4   5
ATOM      5  O   UNL A   1      28.146  30.058  21.918  1.00  0.00    -0.460 OA
BRANCH   5   6
ATOM      6  C   UNL A   1      27.778  29.089  22.845  1.00  0.00     0.338 C 
ATOM      7  O   UNL A   1      26.655  29.026  23.317  1.00  0.00    -0.246 OA
BRANCH   6   8
ATOM      8  C   UNL A   1      28.913  27.961  23.145  1.00  0.00     0.061 A 
ATOM      9  C   UNL A   1      30.975  25.902  23.551  1.00  0.00     0.049 A 
ATOM     10  C   UNL A   1      29.614  25.712  23.873  1.00  0.00     0.028 A 
ATOM     11  C   UNL A   1      31.286  27.118  22.986  1.00  0.00     0.042 A 
ATOM     12  C   UNL A   1      28.605  26.729  23.702  1.00  0.00     0.018 A 
ATOM     13  C   UNL A   1      30.271  28.051  22.768  1.00  0.00     0.033 A 
ATOM     14  Br  UNL A   1      33.055  27.600  22.468  1.00  0.00    -0.049 Br
BRANCH   9  15
ATOM     15  N   UNL A   1      31.961  24.914  23.680  1.00  0.00    -0.380 N 
ATOM     16  H   UNL A   1      32.425  24.552  22.890  1.00  0.00     0.160 HD
BRANCH  15  17
ATOM     17  C   UNL A   1      32.276  24.441  25.027  1.00  0.00     0.148 C 
BRANCH  17  18
ATOM     18  C   UNL A   1      33.704  23.918  25.143  1.00  0.00    -0.029 A 
ATOM     19  C   UNL A   1      37.893  22.832  25.534  1.00  0.00     0.044 C 
ATOM     20  C   UNL A   1      36.437  23.170  25.386  1.00  0.00    -0.051 A 
ATOM     21  C   UNL A   1      35.599  23.180  26.504  1.00  0.00     0.004 A 
ATOM     22  C   UNL A   1      35.887  23.480  24.138  1.00  0.00     0.004 A 
ATOM     23  C   UNL A   1      34.254  23.560  26.385  1.00  0.00     0.006 A 
ATOM     24  C   UNL A   1      34.536  23.841  24.016  1.00  0.00     0.006 A 
ENDBRANCH  17  18
ENDBRANCH  15  17
ENDBRANCH   9  15
ENDBRANCH   6   8
ENDBRANCH   5   6
ENDBRANCH   4   5
ENDBRANCH   3   4
ENDBRANCH   2   3
ENDBRANCH   1   2
BRANCH   1  25
ATOM     25  C   UNL A   1      31.499  30.700  26.260  1.00  0.00     0.188 C 
BRANCH  25  26
ATOM     26  O   UNL A   1      32.604  31.353  26.875  1.00  0.00    -0.376 OA
BRANCH  26  27
ATOM     27  C   UNL A   1      32.350  32.734  27.183  1.00  0.00     0.202 C 
BRANCH  27  28
ATOM     28  C   UNL A   1      33.454  33.445  28.000  1.00  0.00     0.261 C 
BRANCH  28  29
ATOM     29  O   UNL A   1      34.078  32.481  28.881  1.00  0.00    -0.460 OA
BRANCH  29  30
ATOM     30  C   UNL A   1      35.436  32.447  29.030  1.00  0.00     0.338 C 
ATOM     31  O   UNL A   1      36.190  33.407  29.008  1.00  0.00    -0.246 OA
BRANCH  30  32
ATOM     32  C   UNL A   1      35.850  31.015  28.861  1.00  0.00     0.060 A 
ATOM     33  C   UNL A   1      36.203  30.205  29.939  1.00  0.00     0.016 A 
ATOM     34  C   UNL A   1      36.324  30.635  27.640  1.00  0.00     0.016 A 
ATOM     35  C   UNL A   1      37.207  29.186  29.792  1.00  0.00     0.010 A 
ATOM     36  C   UNL A   1      37.445  29.798  27.622  1.00  0.00     0.010 A 
ATOM     37  C   UNL A   1      38.012  29.029  28.648  1.00  0.00    -0.014 A 
BRANCH  37  38
ATOM     38  C   UNL A   1      39.455  28.305  28.647  1.00  0.00     0.031 A 
ATOM     39  C   UNL A   1      40.030  26.795  28.465  1.00  0.00     0.074 A 
ATOM     40  C   UNL A   1      40.496  29.146  28.866  1.00  0.00     0.049 A 
ATOM     41  N   UNL A   1      41.066  26.287  29.122  1.00  0.00    -0.248 NA
ATOM     42  C   UNL A   1      39.565  25.696  27.597  1.00  0.00     0.031 C 
ATOM     43  C   UNL A   1      41.916  28.912  28.626  1.00  0.00     0.029 A 
ATOM     44  N   UNL A   1      40.477  30.408  29.480  1.00  0.00    -0.354 N 
ATOM     45  C   UNL A   1      41.377  25.053  28.519  1.00  0.00     0.074 A 
ATOM     46  C   UNL A   1      40.159  24.582  28.005  1.00  0.00     0.031 C 
ATOM     47  C   UNL A   1      42.623  29.796  29.344  1.00  0.00     0.029 A 
ATOM     48  C   UNL A   1      41.687  30.528  30.173  1.00  0.00     0.049 A 
ATOM     49  H   UNL A   1      39.756  31.077  29.432  1.00  0.00     0.167 HD
ATOM     50  C   UNL A   1      42.634  24.675  28.120  1.00  0.00     0.037 A 
ATOM     51  C   UNL A   1      41.723  30.674  31.528  1.00  0.00     0.037 A 
ATOM     52  C   UNL A   1      43.615  25.464  28.812  1.00  0.00     0.049 A 
ATOM     53  C   UNL A   1      42.602  29.671  32.233  1.00  0.00     0.074 A 
ATOM     54  C   UNL A   1      44.583  26.375  28.445  1.00  0.00     0.029 A 
ATOM     55  N   UNL A   1      43.530  25.487  30.186  1.00  0.00    -0.354 N 
ATOM     56  N   UNL A   1      43.189  28.682  31.622  1.00  0.00    -0.248 NA
ATOM     57  C   UNL A   1      42.869  29.655  33.668  1.00  0.00     0.031 C 
ATOM     58  C   UNL A   1      45.018  27.022  29.635  1.00  0.00     0.029 A 
ATOM     59  C   UNL A   1      44.342  26.459  30.705  1.00  0.00     0.049 A 
ATOM     60  H   UNL A   1      42.963  24.886  30.722  1.00  0.00     0.167 HD
ATOM     61  C   UNL A   1      43.791  27.858  32.532  1.00  0.00     0.074 A 
ATOM     62  C   UNL A   1      43.617  28.543  33.794  1.00  0.00     0.031 C 
ATOM     63  C   UNL A   1      44.308  26.656  32.143  1.00  0.00     0.037 A 
BRANCH  50  64
ATOM     64  C   UNL A   1      43.023  23.676  26.994  1.00  0.00     0.064 A 
ATOM     65  C   UNL A   1      42.793  22.289  27.175  1.00  0.00     0.173 A 
ATOM     66  C   UNL A   1      43.709  23.967  25.786  1.00  0.00     0.173 A 
ATOM     67  F   UNL A   1      42.170  21.829  28.269  1.00  0.00    -0.203 F 
ATOM     68  C   UNL A   1      43.209  21.308  26.256  1.00  0.00     0.198 A 
ATOM     69  C   UNL A   1      44.053  22.994  24.831  1.00  0.00     0.198 A 
ATOM     70  F   UNL A   1      44.164  25.187  25.487  1.00  0.00    -0.203 F 
ATOM     71  F   UNL A   1      43.025  20.009  26.536  1.00  0.00    -0.200 F 
ATOM     72  C   UNL A   1      43.821  21.661  25.074  1.00  0.00     0.200 A 
ATOM     73  F   UNL A   1      44.652  23.367  23.690  1.00  0.00    -0.200 F 
ATOM     74  F   UNL A   1      44.209  20.730  24.191  1.00  0.00    -0.200 F 
ENDBRANCH  50  64
BRANCH  51  75
ATOM     75  C   UNL A   1      40.541  31.393  32.086  1.00  0.00     0.064 A 
ATOM     76  C   UNL A   1      40.398  32.756  31.746  1.00  0.00     0.173 A 
ATOM     77  C   UNL A   1      39.408  30.743  32.595  1.00  0.00     0.173 A 
ATOM     78  F   UNL A   1      41.445  33.428  31.238  1.00  0.00    -0.203 F 
ATOM     79  C   UNL A   1      39.164  33.402  31.801  1.00  0.00     0.198 A 
ATOM     80  C   UNL A   1      38.171  31.403  32.671  1.00  0.00     0.198 A 
ATOM     81  F   UNL A   1      39.453  29.435  32.891  1.00  0.00    -0.203 F 
ATOM     82  F   UNL A   1      39.047  34.655  31.339  1.00  0.00    -0.200 F 
ATOM     83  C   UNL A   1      38.047  32.719  32.243  1.00  0.00     0.200 A 
ATOM     84  F   UNL A   1      37.072  30.729  33.040  1.00  0.00    -0.200 F 
ATOM     85  F   UNL A   1      36.840  33.302  32.185  1.00  0.00    -0.200 F 
ENDBRANCH  51  75
BRANCH  63  86
ATOM     86  C   UNL A   1      44.726  25.489  33.015  1.00  0.00     0.064 A 
ATOM     87  C   UNL A   1      46.036  24.998  33.106  1.00  0.00     0.173 A 
ATOM     88  C   UNL A   1      43.814  24.967  33.974  1.00  0.00     0.173 A 
ATOM     89  F   UNL A   1      47.016  25.471  32.328  1.00  0.00    -0.203 F 
ATOM     90  C   UNL A   1      46.402  24.048  34.065  1.00  0.00     0.198 A 
ATOM     91  C   UNL A   1      44.201  24.075  34.972  1.00  0.00     0.198 A 
ATOM     92  F   UNL A   1      42.528  25.352  34.000  1.00  0.00    -0.203 F 
ATOM     93  F   UNL A   1      47.663  23.595  34.097  1.00  0.00    -0.200 F 
ATOM     94  C   UNL A   1      45.495  23.606  35.011  1.00  0.00     0.200 A 
ATOM     95  F   UNL A   1      43.321  23.705  35.913  1.00  0.00    -0.200 F 
ATOM     96  F   UNL A   1      45.873  22.749  35.969  1.00  0.00    -0.200 F 
ENDBRANCH  63  86
ENDBRANCH  37  38
ENDBRANCH  30  32
ENDBRANCH  29  30
ENDBRANCH  28  29
ENDBRANCH  27  28
ENDBRANCH  26  27
ENDBRANCH  25  26
ENDBRANCH   1  25
TORSDOF 20
ENDMDL
MODEL 3
REMARK VINA RESULT:     -11.1      1.513      2.967
REMARK SMILES Cc1ccc(CNc2ccc(C(=O)OCCOCCOCCOC(=O)c3ccc(-c4c5nc(c(-c6c(F)c(F)c(F)c(F)c6F)c6ccc([nH]6)c(-c6c(F)c(F)c(F)c(F)c6F)c6nc(c(-c7c(F)c(F)c(F)c(F)c7F)c7ccc4[nH]7)C=C6)C=C5)cc3)cc2Br)cc1
REMARK SMILES IDX 18 1 17 2 16 3 15 4 14 5 12 6 13 7 11 8 8 9 9 10 90 11 10 12
REMARK SMILES IDX 89 13 91 14 7 15 6 17 5 18 1 19 2 20 3 21 93 22 4 23 92 24
REMARK SMILES IDX 19 25 20 26 21 27 22 28 23 29 24 30 25 31 26 32 27 33 88 34
REMARK SMILES IDX 28 35 87 36 29 37 30 38 31 39 81 40 32 41 86 42 80 43 82 44
REMARK SMILES IDX 33 45 85 46 79 47 78 48 34 50 66 51 46 52 65 53 47 54 50 55
REMARK SMILES IDX 64 56 83 57 48 58 49 59 63 61 84 62 51 63 35 64 36 65 44 66
REMARK SMILES IDX 37 67 38 68 42 69 45 70 39 71 40 72 43 73 41 74 67 75 68 76
REMARK SMILES IDX 76 77 69 78 70 79 74 80 77 81 71 82 72 83 75 84 73 85 52 86
REMARK SMILES IDX 53 87 61 88 54 89 55 90 59 91 62 92 56 93 57 94 60 95 58 96
REMARK H PARENT 7 16 82 49 50 60
REMARK Flexibility Score: inf
ROOT
ATOM      1  C   UNL A   1      34.117  34.672  29.275  1.00  0.00     0.188 C 
ENDROOT
BRANCH   1   2
ATOM      2  O   UNL A   1      35.071  34.340  28.242  1.00  0.00    -0.376 OA
BRANCH   2   3
ATOM      3  C   UNL A   1      35.330  32.938  28.108  1.00  0.00     0.202 C 
BRANCH   3   4
ATOM      4  C   UNL A   1      34.107  32.013  28.410  1.00  0.00     0.261 C 
BRANCH   4   5
ATOM      5  O   UNL A   1      33.641  31.128  27.319  1.00  0.00    -0.460 OA
BRANCH   5   6
ATOM      6  C   UNL A   1      34.027  29.817  27.060  1.00  0.00     0.338 C 
ATOM      7  O   UNL A   1      34.911  29.259  27.687  1.00  0.00    -0.246 OA
BRANCH   6   8
ATOM      8  C   UNL A   1      33.117  29.039  25.958  1.00  0.00     0.061 A 
ATOM      9  C   UNL A   1      31.548  27.520  23.986  1.00  0.00     0.049 A 
ATOM     10  C   UNL A   1      32.434  28.563  23.637  1.00  0.00     0.028 A 
ATOM     11  C   UNL A   1      31.487  27.218  25.327  1.00  0.00     0.042 A 
ATOM     12  C   UNL A   1      33.182  29.328  24.603  1.00  0.00     0.018 A 
ATOM     13  C   UNL A   1      32.281  27.932  26.226  1.00  0.00     0.033 A 
ATOM     14  Br  UNL A   1      30.365  25.850  26.033  1.00  0.00    -0.049 Br
BRANCH   9  15
ATOM     15  N   UNL A   1      30.839  26.745  23.058  1.00  0.00    -0.380 N 
ATOM     16  H   UNL A   1      29.857  26.682  23.092  1.00  0.00     0.160 HD
BRANCH  15  17
ATOM     17  C   UNL A   1      31.609  26.036  22.037  1.00  0.00     0.148 C 
BRANCH  17  18
ATOM     18  C   UNL A   1      32.266  24.770  22.575  1.00  0.00    -0.029 A 
ATOM     19  C   UNL A   1      34.143  21.352  24.494  1.00  0.00     0.044 C 
ATOM     20  C   UNL A   1      33.502  22.517  23.794  1.00  0.00    -0.051 A 
ATOM     21  C   UNL A   1      32.111  22.596  23.690  1.00  0.00     0.004 A 
ATOM     22  C   UNL A   1      34.272  23.542  23.236  1.00  0.00     0.004 A 
ATOM     23  C   UNL A   1      31.502  23.713  23.099  1.00  0.00     0.006 A 
ATOM     24  C   UNL A   1      33.663  24.650  22.626  1.00  0.00     0.006 A 
ENDBRANCH  17  18
ENDBRANCH  15  17
ENDBRANCH   9  15
ENDBRANCH   6   8
ENDBRANCH   5   6
ENDBRANCH   4   5
ENDBRANCH   3   4
ENDBRANCH   2   3
ENDBRANCH   1   2
BRANCH   1  25
ATOM     25  C   UNL A   1      33.116  35.691  28.746  1.00  0.00     0.188 C 
BRANCH  25  26
ATOM     26  O   UNL A   1      32.339  36.262  29.794  1.00  0.00    -0.376 OA
BRANCH  26  27
ATOM     27  C   UNL A   1      33.122  36.663  30.930  1.00  0.00     0.202 C 
BRANCH  27  28
ATOM     28  C   UNL A   1      32.617  36.149  32.299  1.00  0.00     0.261 C 
BRANCH  28  29
ATOM     29  O   UNL A   1      33.751  35.690  33.073  1.00  0.00    -0.460 OA
BRANCH  29  30
ATOM     30  C   UNL A   1      34.105  34.371  33.078  1.00  0.00     0.338 C 
ATOM     31  O   UNL A   1      33.347  33.419  33.169  1.00  0.00    -0.246 OA
BRANCH  30  32
ATOM     32  C   UNL A   1      35.587  34.326  33.315  1.00  0.00     0.060 A 
ATOM     33  C   UNL A   1      36.511  34.738  32.357  1.00  0.00     0.016 A 
ATOM     34  C   UNL A   1      36.046  33.464  34.267  1.00  0.00     0.016 A 
ATOM     35  C   UNL A   1      37.792  34.092  32.249  1.00  0.00     0.010 A 
ATOM     36  C   UNL A   1      37.198  32.730  33.961  1.00  0.00     0.010 A 
ATOM     37  C   UNL A   1      38.151  32.927  32.952  1.00  0.00    -0.014 A 
BRANCH  37  38
ATOM     38  C   UNL A   1      39.300  31.898  32.475  1.00  0.00     0.031 A 
ATOM     39  C   UNL A   1      39.372  30.465  31.709  1.00  0.00     0.074 A 
ATOM     40  C   UNL A   1      40.559  32.291  32.789  1.00  0.00     0.049 A 
ATOM     41  N   UNL A   1      40.237  29.496  31.982  1.00  0.00    -0.248 NA
ATOM     42  C   UNL A   1      38.544  29.928  30.613  1.00  0.00     0.031 C 
ATOM     43  C   UNL A   1      41.823  31.792  32.256  1.00  0.00     0.029 A 
ATOM     44  N   UNL A   1      40.964  33.196  33.782  1.00  0.00    -0.354 N 
ATOM     45  C   UNL A   1      40.120  28.534  30.960  1.00  0.00     0.074 A 
ATOM     46  C   UNL A   1      38.790  28.627  30.524  1.00  0.00     0.031 C 
ATOM     47  C   UNL A   1      42.806  32.128  33.103  1.00  0.00     0.029 A 
ATOM     48  C   UNL A   1      42.189  32.726  34.269  1.00  0.00     0.049 A 
ATOM     49  H   UNL A   1      40.481  34.002  34.078  1.00  0.00     0.167 HD
ATOM     50  C   UNL A   1      41.175  28.008  30.259  1.00  0.00     0.037 A 
ATOM     51  C   UNL A   1      42.344  32.351  35.570  1.00  0.00     0.037 A 
ATOM     52  C   UNL A   1      42.389  28.197  31.004  1.00  0.00     0.049 A 
ATOM     53  C   UNL A   1      42.911  30.964  35.748  1.00  0.00     0.074 A 
ATOM     54  C   UNL A   1      43.567  28.886  30.809  1.00  0.00     0.029 A 
ATOM     55  N   UNL A   1      42.393  27.737  32.302  1.00  0.00    -0.354 N 
ATOM     56  N   UNL A   1      43.131  30.150  34.755  1.00  0.00    -0.248 NA
ATOM     57  C   UNL A   1      43.241  30.353  37.032  1.00  0.00     0.031 C 
ATOM     58  C   UNL A   1      44.246  28.911  32.060  1.00  0.00     0.029 A 
ATOM     59  C   UNL A   1      43.492  28.197  32.975  1.00  0.00     0.049 A 
ATOM     60  H   UNL A   1      41.699  27.156  32.692  1.00  0.00     0.167 HD
ATOM     61  C   UNL A   1      43.501  28.921  35.228  1.00  0.00     0.074 A 
ATOM     62  C   UNL A   1      43.618  29.116  36.657  1.00  0.00     0.031 C 
ATOM     63  C   UNL A   1      43.602  27.855  34.382  1.00  0.00     0.037 A 
BRANCH  50  64
ATOM     64  C   UNL A   1      41.175  27.427  28.817  1.00  0.00     0.064 A 
ATOM     65  C   UNL A   1      41.692  28.202  27.748  1.00  0.00     0.173 A 
ATOM     66  C   UNL A   1      40.605  26.202  28.383  1.00  0.00     0.173 A 
ATOM     67  F   UNL A   1      42.256  29.397  27.970  1.00  0.00    -0.203 F 
ATOM     68  C   UNL A   1      41.635  27.799  26.400  1.00  0.00     0.198 A 
ATOM     69  C   UNL A   1      40.621  25.765  27.046  1.00  0.00     0.198 A 
ATOM     70  F   UNL A   1      39.925  25.390  29.198  1.00  0.00    -0.203 F 
ATOM     71  F   UNL A   1      42.074  28.624  25.438  1.00  0.00    -0.200 F 
ATOM     72  C   UNL A   1      41.118  26.572  26.051  1.00  0.00     0.200 A 
ATOM     73  F   UNL A   1      40.107  24.565  26.735  1.00  0.00    -0.200 F 
ATOM     74  F   UNL A   1      41.073  26.180  24.770  1.00  0.00    -0.200 F 
ENDBRANCH  50  64
BRANCH  51  75
ATOM     75  C   UNL A   1      41.473  33.102  36.521  1.00  0.00     0.064 A 
ATOM     76  C   UNL A   1      41.946  34.353  36.973  1.00  0.00     0.173 A 
ATOM     77  C   UNL A   1      40.108  32.838  36.694  1.00  0.00     0.173 A 
ATOM     78  F   UNL A   1      43.243  34.669  36.820  1.00  0.00    -0.203 F 
ATOM     79  C   UNL A   1      41.084  35.331  37.466  1.00  0.00     0.198 A 
ATOM     80  C   UNL A   1      39.244  33.816  37.212  1.00  0.00     0.198 A 
ATOM     81  F   UNL A   1      39.576  31.693  36.241  1.00  0.00    -0.203 F 
ATOM     82  F   UNL A   1      41.556  36.551  37.756  1.00  0.00    -0.200 F 
ATOM     83  C   UNL A   1      39.730  35.070  37.565  1.00  0.00     0.200 A 
ATOM     84  F   UNL A   1      37.923  33.593  37.252  1.00  0.00    -0.200 F 
ATOM     85  F   UNL A   1      38.885  36.047  37.926  1.00  0.00    -0.200 F 
ENDBRANCH  51  75
BRANCH  63  86
ATOM     86  C   UNL A   1      43.689  26.384  34.735  1.00  0.00     0.064 A 
ATOM     87  C   UNL A   1      42.589  25.586  35.079  1.00  0.00     0.173 A 
ATOM     88  C   UNL A   1      44.904  25.678  34.511  1.00  0.00     0.173 A 
ATOM     89  F   UNL A   1      41.365  26.107  35.227  1.00  0.00    -0.203 F 
ATOM     90  C   UNL A   1      42.696  24.197  35.209  1.00  0.00     0.198 A 
ATOM     91  C   UNL A   1      44.988  24.289  34.572  1.00  0.00     0.198 A 
ATOM     92  F   UNL A   1      46.034  26.319  34.175  1.00  0.00    -0.203 F 
ATOM     93  F   UNL A   1      41.619  23.482  35.562  1.00  0.00    -0.200 F 
ATOM     94  C   UNL A   1      43.885  23.548  34.933  1.00  0.00     0.200 A 
ATOM     95  F   UNL A   1      46.134  23.675  34.243  1.00  0.00    -0.200 F 
ATOM     96  F   UNL A   1      43.960  22.211  34.991  1.00  0.00    -0.200 F 
ENDBRANCH  63  86
ENDBRANCH  37  38
ENDBRANCH  30  32
ENDBRANCH  29  30
ENDBRANCH  28  29
ENDBRANCH  27  28
ENDBRANCH  26  27
ENDBRANCH  25  26
ENDBRANCH   1  25
TORSDOF 20
ENDMDL
