MODEL 1
REMARK VINA RESULT:     -11.1      0.000      0.000
REMARK SMILES Cc1nsc(NC(=O)c2ccc(N)cc2)c1C(=O)OCCOCCOCCOC(=O)c1ccc(-c2c3nc(c(-c4c(F)c(F)c(F)c(F)c4F)c4ccc([nH]4)c(-c4c(F)c(F)c(F)c(F)c4F)c4nc(c(-c5c(F)c(F)c(F)c(F)c5F)c5ccc2[nH]5)C=C4)C=C3)cc1
REMARK SMILES IDX 23 1 22 2 21 3 20 4 19 5 17 6 18 7 16 8 1 9 2 10 3 11 4 12
REMARK SMILES IDX 5 13 6 14 7 15 8 17 9 18 10 19 15 20 11 21 14 22 12 23 13 24
REMARK SMILES IDX 24 27 25 28 26 29 27 30 28 31 29 32 30 33 31 34 32 35 93 36
REMARK SMILES IDX 33 37 92 38 34 39 35 40 36 41 86 42 37 43 91 44 85 45 87 46
REMARK SMILES IDX 38 47 90 48 84 49 83 50 39 52 71 53 51 54 70 55 52 56 55 57
REMARK SMILES IDX 69 58 88 59 53 60 54 61 68 63 89 64 56 65 40 66 41 67 49 68
REMARK SMILES IDX 42 69 43 70 47 71 50 72 44 73 45 74 48 75 46 76 72 77 73 78
REMARK SMILES IDX 81 79 74 80 75 81 79 82 82 83 76 84 77 85 80 86 78 87 57 88
REMARK SMILES IDX 58 89 66 90 59 91 60 92 64 93 67 94 61 95 62 96 65 97 63 98
REMARK H PARENT 6 16 13 25 13 26 87 51 55 62
REMARK Flexibility Score: inf
ROOT
ATOM      1  C   UNL A   1      37.949  21.742  25.459  1.00  0.00     0.188 C 
ENDROOT
BRANCH   1   2
ATOM      2  O   UNL A   1      36.748  22.456  25.699  1.00  0.00    -0.376 OA
BRANCH   2   3
ATOM      3  C   UNL A   1      36.566  23.760  25.166  1.00  0.00     0.202 C 
BRANCH   3   4
ATOM      4  C   UNL A   1      35.181  24.316  24.764  1.00  0.00     0.261 C 
BRANCH   4   5
ATOM      5  O   UNL A   1      34.313  24.697  25.840  1.00  0.00    -0.460 OA
BRANCH   5   6
ATOM      6  C   UNL A   1      33.652  25.880  25.705  1.00  0.00     0.343 C 
ATOM      7  O   UNL A   1      34.030  26.944  26.188  1.00  0.00    -0.246 OA
BRANCH   6   8
ATOM      8  C   UNL A   1      32.584  25.811  24.718  1.00  0.00     0.117 A 
ATOM      9  C   UNL A   1      33.670  27.132  22.724  1.00  0.00     0.069 C 
ATOM     10  C   UNL A   1      32.566  26.386  23.391  1.00  0.00     0.068 A 
ATOM     11  N   UNL A   1      31.410  26.292  22.732  1.00  0.00    -0.195 NA
ATOM     12  S   UNL A   1      30.282  25.616  23.721  1.00  0.00    -0.017 S 
ATOM     13  C   UNL A   1      31.324  25.303  25.028  1.00  0.00     0.131 A 
BRANCH  13  14
ATOM     14  N   UNL A   1      30.893  24.808  26.254  1.00  0.00    -0.312 N 
ATOM     15  C   UNL A   1      30.887  23.529  26.764  1.00  0.00     0.256 C 
ATOM     16  H   UNL A   1      30.529  25.492  26.862  1.00  0.00     0.171 HD
ATOM     17  O   UNL A   1      30.066  23.224  27.628  1.00  0.00    -0.269 OA
BRANCH  15  18
ATOM     18  C   UNL A   1      31.896  22.528  26.364  1.00  0.00     0.040 A 
ATOM     19  C   UNL A   1      32.909  22.153  27.250  1.00  0.00     0.016 A 
ATOM     20  C   UNL A   1      31.806  21.923  25.108  1.00  0.00     0.016 A 
ATOM     21  C   UNL A   1      33.907  21.278  26.827  1.00  0.00     0.026 A 
ATOM     22  C   UNL A   1      32.798  21.023  24.706  1.00  0.00     0.026 A 
ATOM     23  C   UNL A   1      33.887  20.743  25.537  1.00  0.00     0.031 A 
BRANCH  23  24
ATOM     24  N   UNL A   1      34.864  19.845  25.142  1.00  0.00    -0.399 N 
ATOM     25  H   UNL A   1      35.068  19.729  24.186  1.00  0.00     0.156 HD
ATOM     26  H   UNL A   1      35.355  19.322  25.816  1.00  0.00     0.156 HD
ENDBRANCH  23  24
ENDBRANCH  15  18
ENDBRANCH  13  14
ENDBRANCH   6   8
ENDBRANCH   5   6
ENDBRANCH   4   5
ENDBRANCH   3   4
ENDBRANCH   2   3
ENDBRANCH   1   2
BRANCH   1  27
ATOM     27  C   UNL A   1      39.304  22.287  25.960  1.00  0.00     0.188 C 
BRANCH  27  28
ATOM     28  O   UNL A   1      39.729  21.821  27.219  1.00  0.00    -0.376 OA
BRANCH  28  29
ATOM     29  C   UNL A   1      40.968  21.154  27.411  1.00  0.00     0.202 C 
BRANCH  29  30
ATOM     30  C   UNL A   1      41.707  20.330  26.356  1.00  0.00     0.261 C 
BRANCH  30  31
ATOM     31  O   UNL A   1      43.114  20.359  26.436  1.00  0.00    -0.460 OA
BRANCH  31  32
ATOM     32  C   UNL A   1      43.725  20.436  25.237  1.00  0.00     0.338 C 
ATOM     33  O   UNL A   1      43.826  19.559  24.396  1.00  0.00    -0.246 OA
BRANCH  32  34
ATOM     34  C   UNL A   1      44.269  21.784  25.085  1.00  0.00     0.060 A 
ATOM     35  C   UNL A   1      45.410  22.079  25.833  1.00  0.00     0.016 A 
ATOM     36  C   UNL A   1      43.447  22.769  24.524  1.00  0.00     0.016 A 
ATOM     37  C   UNL A   1      45.528  23.355  26.318  1.00  0.00     0.010 A 
ATOM     38  C   UNL A   1      43.559  24.040  25.016  1.00  0.00     0.010 A 
ATOM     39  C   UNL A   1      44.507  24.257  26.013  1.00  0.00    -0.014 A 
BRANCH  39  40
ATOM     40  C   UNL A   1      44.350  25.401  26.875  1.00  0.00     0.031 A 
ATOM     41  C   UNL A   1      45.396  26.420  26.705  1.00  0.00     0.074 A 
ATOM     42  C   UNL A   1      43.265  25.504  27.666  1.00  0.00     0.049 A 
ATOM     43  N   UNL A   1      46.268  26.810  27.572  1.00  0.00    -0.248 NA
ATOM     44  C   UNL A   1      45.592  26.959  25.352  1.00  0.00     0.031 C 
ATOM     45  C   UNL A   1      42.062  24.660  27.689  1.00  0.00     0.029 A 
ATOM     46  N   UNL A   1      42.964  26.477  28.561  1.00  0.00    -0.354 N 
ATOM     47  C   UNL A   1      47.012  27.786  26.923  1.00  0.00     0.074 A 
ATOM     48  C   UNL A   1      46.681  27.705  25.525  1.00  0.00     0.031 C 
ATOM     49  C   UNL A   1      41.084  25.295  28.374  1.00  0.00     0.029 A 
ATOM     50  C   UNL A   1      41.630  26.515  28.939  1.00  0.00     0.049 A 
ATOM     51  H   UNL A   1      43.637  27.102  28.915  1.00  0.00     0.167 HD
ATOM     52  C   UNL A   1      47.641  28.767  27.619  1.00  0.00     0.037 A 
ATOM     53  C   UNL A   1      41.029  27.555  29.564  1.00  0.00     0.037 A 
ATOM     54  C   UNL A   1      47.820  28.414  29.002  1.00  0.00     0.049 A 
ATOM     55  C   UNL A   1      42.104  28.382  30.178  1.00  0.00     0.074 A 
ATOM     56  C   UNL A   1      48.500  27.406  29.657  1.00  0.00     0.029 A 
ATOM     57  N   UNL A   1      46.937  28.924  29.922  1.00  0.00    -0.354 N 
ATOM     58  N   UNL A   1      42.850  27.975  31.170  1.00  0.00    -0.248 NA
ATOM     59  C   UNL A   1      42.675  29.452  29.369  1.00  0.00     0.031 C 
ATOM     60  C   UNL A   1      47.667  27.047  30.756  1.00  0.00     0.029 A 
ATOM     61  C   UNL A   1      46.554  27.889  30.739  1.00  0.00     0.049 A 
ATOM     62  H   UNL A   1      46.634  29.860  29.985  1.00  0.00     0.167 HD
ATOM     63  C   UNL A   1      44.128  28.429  30.867  1.00  0.00     0.074 A 
ATOM     64  C   UNL A   1      43.945  29.388  29.781  1.00  0.00     0.031 C 
ATOM     65  C   UNL A   1      45.237  27.773  31.318  1.00  0.00     0.037 A 
BRANCH  52  66
ATOM     66  C   UNL A   1      47.746  30.177  27.113  1.00  0.00     0.064 A 
ATOM     67  C   UNL A   1      48.995  30.819  27.118  1.00  0.00     0.173 A 
ATOM     68  C   UNL A   1      46.625  31.008  26.891  1.00  0.00     0.173 A 
ATOM     69  F   UNL A   1      50.117  30.123  27.355  1.00  0.00    -0.203 F 
ATOM     70  C   UNL A   1      49.106  32.203  26.966  1.00  0.00     0.198 A 
ATOM     71  C   UNL A   1      46.744  32.377  26.678  1.00  0.00     0.198 A 
ATOM     72  F   UNL A   1      45.369  30.553  26.987  1.00  0.00    -0.203 F 
ATOM     73  F   UNL A   1      50.301  32.791  27.097  1.00  0.00    -0.200 F 
ATOM     74  C   UNL A   1      47.980  32.979  26.748  1.00  0.00     0.200 A 
ATOM     75  F   UNL A   1      45.639  33.113  26.491  1.00  0.00    -0.200 F 
ATOM     76  F   UNL A   1      48.079  34.312  26.659  1.00  0.00    -0.200 F 
ENDBRANCH  52  66
BRANCH  53  77
ATOM     77  C   UNL A   1      39.665  28.071  29.293  1.00  0.00     0.064 A 
ATOM     78  C   UNL A   1      38.709  28.189  30.313  1.00  0.00     0.173 A 
ATOM     79  C   UNL A   1      39.354  28.700  28.068  1.00  0.00     0.173 A 
ATOM     80  F   UNL A   1      38.953  27.670  31.525  1.00  0.00    -0.203 F 
ATOM     81  C   UNL A   1      37.515  28.892  30.118  1.00  0.00     0.198 A 
ATOM     82  C   UNL A   1      38.161  29.394  27.874  1.00  0.00     0.198 A 
ATOM     83  F   UNL A   1      40.244  28.731  27.065  1.00  0.00    -0.203 F 
ATOM     84  F   UNL A   1      36.644  29.025  31.129  1.00  0.00    -0.200 F 
ATOM     85  C   UNL A   1      37.244  29.498  28.901  1.00  0.00     0.200 A 
ATOM     86  F   UNL A   1      37.934  30.008  26.703  1.00  0.00    -0.200 F 
ATOM     87  F   UNL A   1      36.123  30.214  28.731  1.00  0.00    -0.200 F 
ENDBRANCH  53  77
BRANCH  65  88
ATOM     88  C   UNL A   1      45.032  26.670  32.321  1.00  0.00     0.064 A 
ATOM     89  C   UNL A   1      44.899  26.891  33.705  1.00  0.00     0.173 A 
ATOM     90  C   UNL A   1      44.813  25.368  31.857  1.00  0.00     0.173 A 
ATOM     91  F   UNL A   1      44.982  28.126  34.213  1.00  0.00    -0.203 F 
ATOM     92  C   UNL A   1      44.613  25.848  34.583  1.00  0.00     0.198 A 
ATOM     93  C   UNL A   1      44.491  24.334  32.732  1.00  0.00     0.198 A 
ATOM     94  F   UNL A   1      44.863  25.109  30.541  1.00  0.00    -0.203 F 
ATOM     95  F   UNL A   1      44.504  26.086  35.898  1.00  0.00    -0.200 F 
ATOM     96  C   UNL A   1      44.404  24.570  34.095  1.00  0.00     0.200 A 
ATOM     97  F   UNL A   1      44.238  23.109  32.249  1.00  0.00    -0.200 F 
ATOM     98  F   UNL A   1      44.089  23.572  34.932  1.00  0.00    -0.200 F 
ENDBRANCH  65  88
ENDBRANCH  39  40
ENDBRANCH  32  34
ENDBRANCH  31  32
ENDBRANCH  30  31
ENDBRANCH  29  30
ENDBRANCH  28  29
ENDBRANCH  27  28
ENDBRANCH   1  27
TORSDOF 20
ENDMDL
MODEL 2
REMARK VINA RESULT:     -10.9      1.375      2.838
REMARK SMILES Cc1nsc(NC(=O)c2ccc(N)cc2)c1C(=O)OCCOCCOCCOC(=O)c1ccc(-c2c3nc(c(-c4c(F)c(F)c(F)c(F)c4F)c4ccc([nH]4)c(-c4c(F)c(F)c(F)c(F)c4F)c4nc(c(-c5c(F)c(F)c(F)c(F)c5F)c5ccc2[nH]5)C=C4)C=C3)cc1
REMARK SMILES IDX 23 1 22 2 21 3 20 4 19 5 17 6 18 7 16 8 1 9 2 10 3 11 4 12
REMARK SMILES IDX 5 13 6 14 7 15 8 17 9 18 10 19 15 20 11 21 14 22 12 23 13 24
REMARK SMILES IDX 24 27 25 28 26 29 27 30 28 31 29 32 30 33 31 34 32 35 93 36
REMARK SMILES IDX 33 37 92 38 34 39 35 40 36 41 86 42 37 43 91 44 85 45 87 46
REMARK SMILES IDX 38 47 90 48 84 49 83 50 39 52 71 53 51 54 70 55 52 56 55 57
REMARK SMILES IDX 69 58 88 59 53 60 54 61 68 63 89 64 56 65 40 66 41 67 49 68
REMARK SMILES IDX 42 69 43 70 47 71 50 72 44 73 45 74 48 75 46 76 72 77 73 78
REMARK SMILES IDX 81 79 74 80 75 81 79 82 82 83 76 84 77 85 80 86 78 87 57 88
REMARK SMILES IDX 58 89 66 90 59 91 60 92 64 93 67 94 61 95 62 96 65 97 63 98
REMARK H PARENT 6 16 13 25 13 26 87 51 55 62
REMARK Flexibility Score: inf
ROOT
ATOM      1  C   UNL A   1      38.801  22.653  26.085  1.00  0.00     0.188 C 
ENDROOT
BRANCH   1   2
ATOM      2  O   UNL A   1      37.610  21.901  25.935  1.00  0.00    -0.376 OA
BRANCH   2   3
ATOM      3  C   UNL A   1      36.871  21.955  24.723  1.00  0.00     0.202 C 
BRANCH   3   4
ATOM      4  C   UNL A   1      36.170  23.240  24.226  1.00  0.00     0.261 C 
BRANCH   4   5
ATOM      5  O   UNL A   1      34.738  23.256  24.311  1.00  0.00    -0.460 OA
BRANCH   5   6
ATOM      6  C   UNL A   1      34.171  24.344  24.900  1.00  0.00     0.343 C 
ATOM      7  O   UNL A   1      34.409  25.506  24.582  1.00  0.00    -0.246 OA
BRANCH   6   8
ATOM      8  C   UNL A   1      33.066  23.990  25.778  1.00  0.00     0.117 A 
ATOM      9  C   UNL A   1      34.251  22.298  27.402  1.00  0.00     0.069 C 
ATOM     10  C   UNL A   1      33.078  23.059  26.886  1.00  0.00     0.068 A 
ATOM     11  N   UNL A   1      31.895  22.811  27.450  1.00  0.00    -0.195 NA
ATOM     12  S   UNL A   1      30.722  23.595  26.604  1.00  0.00    -0.017 S 
ATOM     13  C   UNL A   1      31.759  24.402  25.525  1.00  0.00     0.131 A 
BRANCH  13  14
ATOM     14  N   UNL A   1      31.311  25.170  24.457  1.00  0.00    -0.312 N 
ATOM     15  C   UNL A   1      30.962  26.500  24.380  1.00  0.00     0.256 C 
ATOM     16  H   UNL A   1      31.228  24.678  23.608  1.00  0.00     0.171 HD
ATOM     17  O   UNL A   1      30.169  26.872  23.516  1.00  0.00    -0.269 OA
BRANCH  15  18
ATOM     18  C   UNL A   1      31.579  27.517  25.255  1.00  0.00     0.040 A 
ATOM     19  C   UNL A   1      31.366  27.484  26.635  1.00  0.00     0.016 A 
ATOM     20  C   UNL A   1      32.414  28.490  24.699  1.00  0.00     0.016 A 
ATOM     21  C   UNL A   1      31.877  28.503  27.437  1.00  0.00     0.026 A 
ATOM     22  C   UNL A   1      32.944  29.490  25.519  1.00  0.00     0.026 A 
ATOM     23  C   UNL A   1      32.629  29.540  26.880  1.00  0.00     0.031 A 
BRANCH  23  24
ATOM     24  N   UNL A   1      33.162  30.526  27.693  1.00  0.00    -0.399 N 
ATOM     25  H   UNL A   1      33.740  30.280  28.451  1.00  0.00     0.156 HD
ATOM     26  H   UNL A   1      32.963  31.473  27.515  1.00  0.00     0.156 HD
ENDBRANCH  23  24
ENDBRANCH  15  18
ENDBRANCH  13  14
ENDBRANCH   6   8
ENDBRANCH   5   6
ENDBRANCH   4   5
ENDBRANCH   3   4
ENDBRANCH   2   3
ENDBRANCH   1   2
BRANCH   1  27
ATOM     27  C   UNL A   1      40.022  22.061  26.822  1.00  0.00     0.188 C 
BRANCH  27  28
ATOM     28  O   UNL A   1      40.028  20.662  26.982  1.00  0.00    -0.376 OA
BRANCH  28  29
ATOM     29  C   UNL A   1      40.771  19.797  26.136  1.00  0.00     0.202 C 
BRANCH  29  30
ATOM     30  C   UNL A   1      42.218  19.358  26.362  1.00  0.00     0.261 C 
BRANCH  30  31
ATOM     31  O   UNL A   1      43.178  20.388  26.339  1.00  0.00    -0.460 OA
BRANCH  31  32
ATOM     32  C   UNL A   1      43.886  20.447  25.193  1.00  0.00     0.338 C 
ATOM     33  O   UNL A   1      44.085  19.546  24.396  1.00  0.00    -0.246 OA
BRANCH  32  34
ATOM     34  C   UNL A   1      44.398  21.807  25.038  1.00  0.00     0.060 A 
ATOM     35  C   UNL A   1      45.546  22.123  25.766  1.00  0.00     0.016 A 
ATOM     36  C   UNL A   1      43.544  22.778  24.500  1.00  0.00     0.016 A 
ATOM     37  C   UNL A   1      45.646  23.398  26.257  1.00  0.00     0.010 A 
ATOM     38  C   UNL A   1      43.638  24.048  24.996  1.00  0.00     0.010 A 
ATOM     39  C   UNL A   1      44.600  24.280  25.976  1.00  0.00    -0.014 A 
BRANCH  39  40
ATOM     40  C   UNL A   1      44.435  25.415  26.848  1.00  0.00     0.031 A 
ATOM     41  C   UNL A   1      45.477  26.440  26.690  1.00  0.00     0.074 A 
ATOM     42  C   UNL A   1      43.347  25.506  27.636  1.00  0.00     0.049 A 
ATOM     43  N   UNL A   1      46.345  26.827  27.563  1.00  0.00    -0.248 NA
ATOM     44  C   UNL A   1      45.675  26.993  25.342  1.00  0.00     0.031 C 
ATOM     45  C   UNL A   1      42.149  24.656  27.648  1.00  0.00     0.029 A 
ATOM     46  N   UNL A   1      43.040  26.470  28.539  1.00  0.00    -0.354 N 
ATOM     47  C   UNL A   1      47.085  27.812  26.924  1.00  0.00     0.074 A 
ATOM     48  C   UNL A   1      46.759  27.742  25.525  1.00  0.00     0.031 C 
ATOM     49  C   UNL A   1      41.165  25.280  28.336  1.00  0.00     0.029 A 
ATOM     50  C   UNL A   1      41.704  26.498  28.914  1.00  0.00     0.049 A 
ATOM     51  H   UNL A   1      43.709  27.095  28.901  1.00  0.00     0.167 HD
ATOM     52  C   UNL A   1      47.707  28.791  27.631  1.00  0.00     0.037 A 
ATOM     53  C   UNL A   1      41.096  27.530  29.546  1.00  0.00     0.037 A 
ATOM     54  C   UNL A   1      47.884  28.426  29.011  1.00  0.00     0.049 A 
ATOM     55  C   UNL A   1      42.166  28.357  30.170  1.00  0.00     0.074 A 
ATOM     56  C   UNL A   1      48.568  27.416  29.659  1.00  0.00     0.029 A 
ATOM     57  N   UNL A   1      46.997  28.924  29.933  1.00  0.00    -0.354 N 
ATOM     58  N   UNL A   1      42.911  27.944  31.161  1.00  0.00    -0.248 NA
ATOM     59  C   UNL A   1      42.734  29.436  29.372  1.00  0.00     0.031 C 
ATOM     60  C   UNL A   1      47.733  27.044  30.753  1.00  0.00     0.029 A 
ATOM     61  C   UNL A   1      46.617  27.880  30.740  1.00  0.00     0.049 A 
ATOM     62  H   UNL A   1      46.689  29.857  30.003  1.00  0.00     0.167 HD
ATOM     63  C   UNL A   1      44.187  28.407  30.866  1.00  0.00     0.074 A 
ATOM     64  C   UNL A   1      44.003  29.375  29.787  1.00  0.00     0.031 C 
ATOM     65  C   UNL A   1      45.299  27.752  31.314  1.00  0.00     0.037 A 
BRANCH  52  66
ATOM     66  C   UNL A   1      47.808  30.205  27.137  1.00  0.00     0.064 A 
ATOM     67  C   UNL A   1      49.056  30.850  27.142  1.00  0.00     0.173 A 
ATOM     68  C   UNL A   1      46.684  31.036  26.928  1.00  0.00     0.173 A 
ATOM     69  F   UNL A   1      50.180  30.154  27.368  1.00  0.00    -0.203 F 
ATOM     70  C   UNL A   1      49.163  32.235  27.003  1.00  0.00     0.198 A 
ATOM     71  C   UNL A   1      46.799  32.407  26.728  1.00  0.00     0.198 A 
ATOM     72  F   UNL A   1      45.430  30.577  27.026  1.00  0.00    -0.203 F 
ATOM     73  F   UNL A   1      50.357  32.825  27.134  1.00  0.00    -0.200 F 
ATOM     74  C   UNL A   1      48.034  33.011  26.797  1.00  0.00     0.200 A 
ATOM     75  F   UNL A   1      45.692  33.143  26.553  1.00  0.00    -0.200 F 
ATOM     76  F   UNL A   1      48.130  34.345  26.720  1.00  0.00    -0.200 F 
ENDBRANCH  52  66
BRANCH  53  77
ATOM     77  C   UNL A   1      39.731  28.042  29.275  1.00  0.00     0.064 A 
ATOM     78  C   UNL A   1      38.770  28.142  30.293  1.00  0.00     0.173 A 
ATOM     79  C   UNL A   1      39.421  28.683  28.057  1.00  0.00     0.173 A 
ATOM     80  F   UNL A   1      39.012  27.610  31.499  1.00  0.00    -0.203 F 
ATOM     81  C   UNL A   1      37.572  28.842  30.101  1.00  0.00     0.198 A 
ATOM     82  C   UNL A   1      38.225  29.374  27.866  1.00  0.00     0.198 A 
ATOM     83  F   UNL A   1      40.315  28.731  27.058  1.00  0.00    -0.203 F 
ATOM     84  F   UNL A   1      36.697  28.957  31.110  1.00  0.00    -0.200 F 
ATOM     85  C   UNL A   1      37.303  29.460  28.891  1.00  0.00     0.200 A 
ATOM     86  F   UNL A   1      37.999  30.000  26.702  1.00  0.00    -0.200 F 
ATOM     87  F   UNL A   1      36.180  30.172  28.724  1.00  0.00    -0.200 F 
ENDBRANCH  53  77
BRANCH  65  88
ATOM     88  C   UNL A   1      45.095  26.640  32.307  1.00  0.00     0.064 A 
ATOM     89  C   UNL A   1      44.853  25.303  31.939  1.00  0.00     0.173 A 
ATOM     90  C   UNL A   1      45.299  26.903  33.666  1.00  0.00     0.173 A 
ATOM     91  F   UNL A   1      44.758  24.953  30.652  1.00  0.00    -0.203 F 
ATOM     92  C   UNL A   1      44.768  24.292  32.894  1.00  0.00     0.198 A 
ATOM     93  C   UNL A   1      45.250  25.885  34.615  1.00  0.00     0.198 A 
ATOM     94  F   UNL A   1      45.599  28.148  34.070  1.00  0.00    -0.203 F 
ATOM     95  F   UNL A   1      44.523  23.028  32.515  1.00  0.00    -0.200 F 
ATOM     96  C   UNL A   1      44.972  24.582  34.231  1.00  0.00     0.200 A 
ATOM     97  F   UNL A   1      45.501  26.163  35.902  1.00  0.00    -0.200 F 
ATOM     98  F   UNL A   1      44.931  23.604  35.147  1.00  0.00    -0.200 F 
ENDBRANCH  65  88
ENDBRANCH  39  40
ENDBRANCH  32  34
ENDBRANCH  31  32
ENDBRANCH  30  31
ENDBRANCH  29  30
ENDBRANCH  28  29
ENDBRANCH  27  28
ENDBRANCH   1  27
TORSDOF 20
ENDMDL
MODEL 3
REMARK VINA RESULT:     -10.9      4.196      9.374
REMARK SMILES Cc1nsc(NC(=O)c2ccc(N)cc2)c1C(=O)OCCOCCOCCOC(=O)c1ccc(-c2c3nc(c(-c4c(F)c(F)c(F)c(F)c4F)c4ccc([nH]4)c(-c4c(F)c(F)c(F)c(F)c4F)c4nc(c(-c5c(F)c(F)c(F)c(F)c5F)c5ccc2[nH]5)C=C4)C=C3)cc1
REMARK SMILES IDX 23 1 22 2 21 3 20 4 19 5 17 6 18 7 16 8 1 9 2 10 3 11 4 12
REMARK SMILES IDX 5 13 6 14 7 15 8 17 9 18 10 19 15 20 11 21 14 22 12 23 13 24
REMARK SMILES IDX 24 27 25 28 26 29 27 30 28 31 29 32 30 33 31 34 32 35 93 36
REMARK SMILES IDX 33 37 92 38 34 39 35 40 36 41 86 42 37 43 91 44 85 45 87 46
REMARK SMILES IDX 38 47 90 48 84 49 83 50 39 52 71 53 51 54 70 55 52 56 55 57
REMARK SMILES IDX 69 58 88 59 53 60 54 61 68 63 89 64 56 65 40 66 41 67 49 68
REMARK SMILES IDX 42 69 43 70 47 71 50 72 44 73 45 74 48 75 46 76 72 77 73 78
REMARK SMILES IDX 81 79 74 80 75 81 79 82 82 83 76 84 77 85 80 86 78 87 57 88
REMARK SMILES IDX 58 89 66 90 59 91 60 92 64 93 67 94 61 95 62 96 65 97 63 98
REMARK H PARENT 6 16 13 25 13 26 87 51 55 62
REMARK Flexibility Score: inf
ROOT
ATOM      1  C   UNL A   1      33.435  30.709  27.594  1.00  0.00     0.188 C 
ENDROOT
BRANCH   1   2
ATOM      2  O   UNL A   1      32.966  30.671  26.257  1.00  0.00    -0.376 OA
BRANCH   2   3
ATOM      3  C   UNL A   1      31.690  30.121  25.958  1.00  0.00     0.202 C 
BRANCH   3   4
ATOM      4  C   UNL A   1      31.495  28.937  24.985  1.00  0.00     0.261 C 
BRANCH   4   5
ATOM      5  O   UNL A   1      31.924  27.651  25.455  1.00  0.00    -0.460 OA
BRANCH   5   6
ATOM      6  C   UNL A   1      33.218  27.308  25.206  1.00  0.00     0.343 C 
ATOM      7  O   UNL A   1      34.130  27.410  26.022  1.00  0.00    -0.246 OA
BRANCH   6   8
ATOM      8  C   UNL A   1      33.369  26.573  23.959  1.00  0.00     0.117 A 
ATOM      9  C   UNL A   1      33.873  28.537  22.289  1.00  0.00     0.069 C 
ATOM     10  C   UNL A   1      33.638  27.108  22.642  1.00  0.00     0.068 A 
ATOM     11  N   UNL A   1      33.599  26.231  21.638  1.00  0.00    -0.195 NA
ATOM     12  S   UNL A   1      33.131  24.767  22.224  1.00  0.00    -0.017 S 
ATOM     13  C   UNL A   1      33.085  25.212  23.864  1.00  0.00     0.131 A 
BRANCH  13  14
ATOM     14  N   UNL A   1      32.632  24.374  24.876  1.00  0.00    -0.312 N 
ATOM     15  C   UNL A   1      33.133  23.188  25.363  1.00  0.00     0.256 C 
ATOM     16  H   UNL A   1      31.809  24.682  25.322  1.00  0.00     0.171 HD
ATOM     17  O   UNL A   1      32.374  22.383  25.902  1.00  0.00    -0.269 OA
BRANCH  15  18
ATOM     18  C   UNL A   1      34.577  22.884  25.333  1.00  0.00     0.040 A 
ATOM     19  C   UNL A   1      35.043  21.723  24.710  1.00  0.00     0.016 A 
ATOM     20  C   UNL A   1      35.484  23.787  25.895  1.00  0.00     0.016 A 
ATOM     21  C   UNL A   1      36.398  21.402  24.771  1.00  0.00     0.026 A 
ATOM     22  C   UNL A   1      36.845  23.467  25.924  1.00  0.00     0.026 A 
ATOM     23  C   UNL A   1      37.302  22.246  25.419  1.00  0.00     0.031 A 
BRANCH  23  24
ATOM     24  N   UNL A   1      38.651  21.934  25.440  1.00  0.00    -0.399 N 
ATOM     25  H   UNL A   1      39.000  21.302  26.110  1.00  0.00     0.156 HD
ATOM     26  H   UNL A   1      39.262  22.344  24.786  1.00  0.00     0.156 HD
ENDBRANCH  23  24
ENDBRANCH  15  18
ENDBRANCH  13  14
ENDBRANCH   6   8
ENDBRANCH   5   6
ENDBRANCH   4   5
ENDBRANCH   3   4
ENDBRANCH   2   3
ENDBRANCH   1   2
BRANCH   1  27
ATOM     27  C   UNL A   1      34.782  31.382  27.938  1.00  0.00     0.188 C 
BRANCH  27  28
ATOM     28  O   UNL A   1      34.918  32.728  27.546  1.00  0.00    -0.376 OA
BRANCH  28  29
ATOM     29  C   UNL A   1      35.166  33.774  28.473  1.00  0.00     0.202 C 
BRANCH  29  30
ATOM     30  C   UNL A   1      34.097  34.559  29.234  1.00  0.00     0.261 C 
BRANCH  30  31
ATOM     31  O   UNL A   1      33.736  34.034  30.491  1.00  0.00    -0.460 OA
BRANCH  31  32
ATOM     32  C   UNL A   1      34.042  34.841  31.526  1.00  0.00     0.338 C 
ATOM     33  O   UNL A   1      33.633  35.971  31.734  1.00  0.00    -0.246 OA
BRANCH  32  34
ATOM     34  C   UNL A   1      34.972  34.132  32.403  1.00  0.00     0.060 A 
ATOM     35  C   UNL A   1      36.073  34.861  32.857  1.00  0.00     0.016 A 
ATOM     36  C   UNL A   1      34.919  32.733  32.429  1.00  0.00     0.016 A 
ATOM     37  C   UNL A   1      37.255  34.183  33.004  1.00  0.00     0.010 A 
ATOM     38  C   UNL A   1      36.100  32.058  32.569  1.00  0.00     0.010 A 
ATOM     39  C   UNL A   1      37.257  32.820  32.705  1.00  0.00    -0.014 A 
BRANCH  39  40
ATOM     40  C   UNL A   1      38.524  32.213  32.381  1.00  0.00     0.031 A 
ATOM     41  C   UNL A   1      39.409  32.033  33.540  1.00  0.00     0.074 A 
ATOM     42  C   UNL A   1      38.763  31.783  31.127  1.00  0.00     0.049 A 
ATOM     43  N   UNL A   1      40.559  32.578  33.749  1.00  0.00    -0.248 NA
ATOM     44  C   UNL A   1      38.876  31.270  34.679  1.00  0.00     0.031 C 
ATOM     45  C   UNL A   1      37.832  31.692  29.995  1.00  0.00     0.029 A 
ATOM     46  N   UNL A   1      39.895  31.227  30.629  1.00  0.00    -0.354 N 
ATOM     47  C   UNL A   1      40.979  32.078  34.974  1.00  0.00     0.074 A 
ATOM     48  C   UNL A   1      39.842  31.436  35.579  1.00  0.00     0.031 C 
ATOM     49  C   UNL A   1      38.370  30.904  29.036  1.00  0.00     0.029 A 
ATOM     50  C   UNL A   1      39.720  30.549  29.432  1.00  0.00     0.049 A 
ATOM     51  H   UNL A   1      40.768  31.300  31.079  1.00  0.00     0.167 HD
ATOM     52  C   UNL A   1      42.299  31.991  35.281  1.00  0.00     0.037 A 
ATOM     53  C   UNL A   1      40.603  29.668  28.901  1.00  0.00     0.037 A 
ATOM     54  C   UNL A   1      43.100  32.852  34.451  1.00  0.00     0.049 A 
ATOM     55  C   UNL A   1      41.922  29.927  29.540  1.00  0.00     0.074 A 
ATOM     56  C   UNL A   1      43.156  34.218  34.253  1.00  0.00     0.029 A 
ATOM     57  N   UNL A   1      43.757  32.294  33.381  1.00  0.00    -0.354 N 
ATOM     58  N   UNL A   1      42.613  31.019  29.352  1.00  0.00    -0.248 NA
ATOM     59  C   UNL A   1      42.231  29.200  30.765  1.00  0.00     0.031 C 
ATOM     60  C   UNL A   1      43.407  34.382  32.859  1.00  0.00     0.029 A 
ATOM     61  C   UNL A   1      43.541  33.111  32.298  1.00  0.00     0.049 A 
ATOM     62  H   UNL A   1      44.285  31.463  33.388  1.00  0.00     0.167 HD
ATOM     63  C   UNL A   1      43.131  31.336  30.602  1.00  0.00     0.074 A 
ATOM     64  C   UNL A   1      42.916  30.144  31.418  1.00  0.00     0.031 C 
ATOM     65  C   UNL A   1      43.414  32.628  30.944  1.00  0.00     0.037 A 
BRANCH  52  66
ATOM     66  C   UNL A   1      42.872  30.853  36.074  1.00  0.00     0.064 A 
ATOM     67  C   UNL A   1      43.713  31.128  37.166  1.00  0.00     0.173 A 
ATOM     68  C   UNL A   1      42.853  29.511  35.632  1.00  0.00     0.173 A 
ATOM     69  F   UNL A   1      43.828  32.378  37.638  1.00  0.00    -0.203 F 
ATOM     70  C   UNL A   1      44.517  30.139  37.735  1.00  0.00     0.198 A 
ATOM     71  C   UNL A   1      43.609  28.516  36.241  1.00  0.00     0.198 A 
ATOM     72  F   UNL A   1      42.198  29.134  34.526  1.00  0.00    -0.203 F 
ATOM     73  F   UNL A   1      45.393  30.467  38.693  1.00  0.00    -0.200 F 
ATOM     74  C   UNL A   1      44.465  28.835  37.272  1.00  0.00     0.200 A 
ATOM     75  F   UNL A   1      43.560  27.264  35.762  1.00  0.00    -0.200 F 
ATOM     76  F   UNL A   1      45.277  27.899  37.779  1.00  0.00    -0.200 F 
ENDBRANCH  52  66
BRANCH  53  77
ATOM     77  C   UNL A   1      40.268  28.393  28.222  1.00  0.00     0.064 A 
ATOM     78  C   UNL A   1      40.808  28.065  26.970  1.00  0.00     0.173 A 
ATOM     79  C   UNL A   1      39.605  27.354  28.909  1.00  0.00     0.173 A 
ATOM     80  F   UNL A   1      41.504  28.979  26.279  1.00  0.00    -0.203 F 
ATOM     81  C   UNL A   1      40.692  26.775  26.438  1.00  0.00     0.198 A 
ATOM     82  C   UNL A   1      39.484  26.072  28.375  1.00  0.00     0.198 A 
ATOM     83  F   UNL A   1      39.141  27.538  30.154  1.00  0.00    -0.203 F 
ATOM     84  F   UNL A   1      41.261  26.483  25.260  1.00  0.00    -0.200 F 
ATOM     85  C   UNL A   1      40.034  25.780  27.143  1.00  0.00     0.200 A 
ATOM     86  F   UNL A   1      38.879  25.110  29.088  1.00  0.00    -0.200 F 
ATOM     87  F   UNL A   1      39.966  24.532  26.656  1.00  0.00    -0.200 F 
ENDBRANCH  53  77
BRANCH  65  88
ATOM     88  C   UNL A   1      43.346  33.665  29.856  1.00  0.00     0.064 A 
ATOM     89  C   UNL A   1      44.395  33.914  28.952  1.00  0.00     0.173 A 
ATOM     90  C   UNL A   1      42.132  34.322  29.626  1.00  0.00     0.173 A 
ATOM     91  F   UNL A   1      45.549  33.243  29.038  1.00  0.00    -0.203 F 
ATOM     92  C   UNL A   1      44.248  34.817  27.900  1.00  0.00     0.198 A 
ATOM     93  C   UNL A   1      41.975  35.196  28.553  1.00  0.00     0.198 A 
ATOM     94  F   UNL A   1      41.075  34.075  30.417  1.00  0.00    -0.203 F 
ATOM     95  F   UNL A   1      45.269  35.044  27.061  1.00  0.00    -0.200 F 
ATOM     96  C   UNL A   1      43.036  35.453  27.699  1.00  0.00     0.200 A 
ATOM     97  F   UNL A   1      40.784  35.769  28.331  1.00  0.00    -0.200 F 
ATOM     98  F   UNL A   1      42.879  36.291  26.664  1.00  0.00    -0.200 F 
ENDBRANCH  65  88
ENDBRANCH  39  40
ENDBRANCH  32  34
ENDBRANCH  31  32
ENDBRANCH  30  31
ENDBRANCH  29  30
ENDBRANCH  28  29
ENDBRANCH  27  28
ENDBRANCH   1  27
TORSDOF 20
ENDMDL
