MODEL 1
REMARK VINA RESULT:     -10.1      0.000      0.000
REMARK SMILES C=CC[NH2+]CC(=O)N1CCC[C@@H]1C(=O)OCCOCCOCCOC(=O)c1ccc(-c2c3nc(c(-c4c(F)c(F)c(F)c(F)c4F)c4ccc([nH]4)c(-c4c(F)c(F)c(F)c(F)c4F)c4nc(c(-c5c(F)c(F)c(F)c(F)c5F)c5ccc2[nH]5)C=C4)C=C3)cc1
REMARK SMILES IDX 18 1 17 2 16 3 15 4 13 5 14 6 12 7 8 8 9 9 10 10 11 11 6 12
REMARK SMILES IDX 7 13 5 14 4 15 3 18 2 19 1 20 19 21 20 22 21 23 22 24 23 25
REMARK SMILES IDX 24 26 25 27 26 28 27 29 28 30 89 31 29 32 88 33 30 34 31 35
REMARK SMILES IDX 32 36 82 37 33 38 87 39 81 40 83 41 34 42 86 43 80 44 79 45
REMARK SMILES IDX 35 47 67 48 47 49 66 50 48 51 51 52 65 53 84 54 49 55 50 56
REMARK SMILES IDX 64 58 85 59 52 60 36 61 37 62 45 63 38 64 39 65 43 66 46 67
REMARK SMILES IDX 40 68 41 69 44 70 42 71 68 72 69 73 77 74 70 75 71 76 75 77
REMARK SMILES IDX 78 78 72 79 73 80 76 81 74 82 53 83 54 84 62 85 55 86 56 87
REMARK SMILES IDX 60 88 63 89 57 90 58 91 61 92 59 93
REMARK H PARENT 4 16 4 17 83 46 51 57
REMARK Flexibility Score: inf
ROOT
ATOM      1  O   UNL A   1      38.282  21.816  25.541  1.00  0.00    -0.376 OA
ENDROOT
BRANCH   1   2
ATOM      2  C   UNL A   1      37.774  23.147  25.419  1.00  0.00     0.202 C 
BRANCH   2   3
ATOM      3  C   UNL A   1      36.314  23.315  24.967  1.00  0.00     0.261 C 
BRANCH   3   4
ATOM      4  O   UNL A   1      35.369  23.303  26.057  1.00  0.00    -0.462 OA
BRANCH   4   5
ATOM      5  C   UNL A   1      34.628  22.176  26.179  1.00  0.00     0.328 C 
ATOM      6  O   UNL A   1      35.105  21.047  26.275  1.00  0.00    -0.250 OA
BRANCH   5   7
ATOM      7  C   UNL A   1      33.114  22.416  26.233  1.00  0.00     0.195 C 
ATOM      8  N   UNL A   1      32.643  22.883  24.937  1.00  0.00    -0.324 N 
ATOM      9  C   UNL A   1      31.415  23.628  25.166  1.00  0.00     0.121 C 
ATOM     10  C   UNL A   1      31.713  24.404  26.422  1.00  0.00     0.024 C 
ATOM     11  C   UNL A   1      32.515  23.409  27.245  1.00  0.00     0.039 C 
BRANCH   8  12
ATOM     12  C   UNL A   1      32.770  22.005  23.857  1.00  0.00     0.278 C 
ATOM     13  O   UNL A   1      33.421  22.276  22.851  1.00  0.00    -0.268 OA
BRANCH  12  14
ATOM     14  C   UNL A   1      32.094  20.628  24.105  1.00  0.00     0.362 C 
BRANCH  14  15
ATOM     15  N   UNL A   1      33.083  19.507  24.169  1.00  0.00    -0.335 N 
ATOM     16  H   UNL A   1      33.979  19.812  23.789  1.00  0.00     0.347 HD
ATOM     17  H   UNL A   1      33.225  19.214  25.137  1.00  0.00     0.347 HD
BRANCH  15  18
ATOM     18  C   UNL A   1      32.563  18.402  23.380  1.00  0.00     0.289 C 
BRANCH  18  19
ATOM     19  C   UNL A   1      33.458  17.273  23.012  1.00  0.00     0.025 C 
ATOM     20  C   UNL A   1      34.415  16.871  23.865  1.00  0.00     0.010 C 
ENDBRANCH  18  19
ENDBRANCH  15  18
ENDBRANCH  14  15
ENDBRANCH  12  14
ENDBRANCH   8  12
ENDBRANCH   5   7
ENDBRANCH   4   5
ENDBRANCH   3   4
ENDBRANCH   2   3
ENDBRANCH   1   2
BRANCH   1  21
ATOM     21  C   UNL A   1      39.506  21.638  26.243  1.00  0.00     0.188 C 
BRANCH  21  22
ATOM     22  C   UNL A   1      40.153  20.253  26.157  1.00  0.00     0.188 C 
BRANCH  22  23
ATOM     23  O   UNL A   1      41.454  20.183  26.700  1.00  0.00    -0.376 OA
BRANCH  23  24
ATOM     24  C   UNL A   1      42.580  20.096  25.836  1.00  0.00     0.202 C 
BRANCH  24  25
ATOM     25  C   UNL A   1      43.456  21.352  25.610  1.00  0.00     0.261 C 
BRANCH  25  26
ATOM     26  O   UNL A   1      42.815  22.523  25.066  1.00  0.00    -0.460 OA
BRANCH  26  27
ATOM     27  C   UNL A   1      43.545  23.667  25.003  1.00  0.00     0.338 C 
ATOM     28  O   UNL A   1      44.401  23.931  24.190  1.00  0.00    -0.246 OA
BRANCH  27  29
ATOM     29  C   UNL A   1      42.906  24.670  25.911  1.00  0.00     0.060 A 
ATOM     30  C   UNL A   1      43.403  25.984  25.894  1.00  0.00     0.016 A 
ATOM     31  C   UNL A   1      41.789  24.367  26.695  1.00  0.00     0.016 A 
ATOM     32  C   UNL A   1      42.826  26.977  26.696  1.00  0.00     0.010 A 
ATOM     33  C   UNL A   1      41.225  25.355  27.514  1.00  0.00     0.010 A 
ATOM     34  C   UNL A   1      41.764  26.655  27.552  1.00  0.00    -0.014 A 
BRANCH  34  35
ATOM     35  C   UNL A   1      41.383  27.575  28.660  1.00  0.00     0.031 A 
ATOM     36  C   UNL A   1      42.174  27.485  29.940  1.00  0.00     0.074 A 
ATOM     37  C   UNL A   1      40.377  28.462  28.562  1.00  0.00     0.049 A 
ATOM     38  N   UNL A   1      41.973  28.071  31.093  1.00  0.00    -0.248 NA
ATOM     39  C   UNL A   1      43.351  26.602  29.912  1.00  0.00     0.031 C 
ATOM     40  C   UNL A   1      39.569  28.705  27.370  1.00  0.00     0.029 A 
ATOM     41  N   UNL A   1      39.852  29.318  29.503  1.00  0.00    -0.354 N 
ATOM     42  C   UNL A   1      42.984  27.612  31.928  1.00  0.00     0.074 A 
ATOM     43  C   UNL A   1      43.782  26.682  31.161  1.00  0.00     0.031 C 
ATOM     44  C   UNL A   1      38.634  29.630  27.659  1.00  0.00     0.029 A 
ATOM     45  C   UNL A   1      38.750  30.014  29.066  1.00  0.00     0.049 A 
ATOM     46  H   UNL A   1      40.231  29.422  30.407  1.00  0.00     0.167 HD
ATOM     47  C   UNL A   1      43.230  27.937  33.219  1.00  0.00     0.037 A 
ATOM     48  C   UNL A   1      37.913  30.834  29.735  1.00  0.00     0.037 A 
ATOM     49  C   UNL A   1      42.441  28.863  33.986  1.00  0.00     0.049 A 
ATOM     50  C   UNL A   1      38.155  31.114  31.202  1.00  0.00     0.074 A 
ATOM     51  C   UNL A   1      42.619  29.266  35.298  1.00  0.00     0.029 A 
ATOM     52  N   UNL A   1      41.320  29.526  33.512  1.00  0.00    -0.354 N 
ATOM     53  N   UNL A   1      39.118  30.685  31.983  1.00  0.00    -0.248 NA
ATOM     54  C   UNL A   1      37.190  31.994  31.881  1.00  0.00     0.031 C 
ATOM     55  C   UNL A   1      41.570  30.123  35.638  1.00  0.00     0.029 A 
ATOM     56  C   UNL A   1      40.780  30.313  34.516  1.00  0.00     0.049 A 
ATOM     57  H   UNL A   1      40.961  29.448  32.599  1.00  0.00     0.167 HD
ATOM     58  C   UNL A   1      38.899  31.275  33.224  1.00  0.00     0.074 A 
ATOM     59  C   UNL A   1      37.717  32.098  33.093  1.00  0.00     0.031 C 
ATOM     60  C   UNL A   1      39.617  31.150  34.368  1.00  0.00     0.037 A 
BRANCH  47  61
ATOM     61  C   UNL A   1      44.383  27.257  33.900  1.00  0.00     0.064 A 
ATOM     62  C   UNL A   1      45.668  27.820  33.921  1.00  0.00     0.173 A 
ATOM     63  C   UNL A   1      44.187  26.044  34.577  1.00  0.00     0.173 A 
ATOM     64  F   UNL A   1      45.913  28.969  33.275  1.00  0.00    -0.203 F 
ATOM     65  C   UNL A   1      46.719  27.180  34.575  1.00  0.00     0.198 A 
ATOM     66  C   UNL A   1      45.232  25.425  35.257  1.00  0.00     0.198 A 
ATOM     67  F   UNL A   1      42.978  25.463  34.588  1.00  0.00    -0.203 F 
ATOM     68  F   UNL A   1      47.949  27.711  34.540  1.00  0.00    -0.200 F 
ATOM     69  C   UNL A   1      46.497  25.989  35.250  1.00  0.00     0.200 A 
ATOM     70  F   UNL A   1      45.011  24.281  35.922  1.00  0.00    -0.200 F 
ATOM     71  F   UNL A   1      47.507  25.382  35.888  1.00  0.00    -0.200 F 
ENDBRANCH  47  61
BRANCH  48  72
ATOM     72  C   UNL A   1      36.739  31.440  29.046  1.00  0.00     0.064 A 
ATOM     73  C   UNL A   1      36.712  32.805  28.721  1.00  0.00     0.173 A 
ATOM     74  C   UNL A   1      35.595  30.682  28.755  1.00  0.00     0.173 A 
ATOM     75  F   UNL A   1      37.764  33.584  29.012  1.00  0.00    -0.203 F 
ATOM     76  C   UNL A   1      35.579  33.391  28.156  1.00  0.00     0.198 A 
ATOM     77  C   UNL A   1      34.476  31.262  28.157  1.00  0.00     0.198 A 
ATOM     78  F   UNL A   1      35.560  29.376  29.054  1.00  0.00    -0.203 F 
ATOM     79  F   UNL A   1      35.557  34.709  27.919  1.00  0.00    -0.200 F 
ATOM     80  C   UNL A   1      34.465  32.618  27.870  1.00  0.00     0.200 A 
ATOM     81  F   UNL A   1      33.404  30.509  27.876  1.00  0.00    -0.200 F 
ATOM     82  F   UNL A   1      33.374  33.182  27.333  1.00  0.00    -0.200 F 
ENDBRANCH  48  72
BRANCH  60  83
ATOM     83  C   UNL A   1      39.196  31.970  35.557  1.00  0.00     0.064 A 
ATOM     84  C   UNL A   1      38.359  31.457  36.559  1.00  0.00     0.173 A 
ATOM     85  C   UNL A   1      39.689  33.275  35.723  1.00  0.00     0.173 A 
ATOM     86  F   UNL A   1      37.852  30.220  36.447  1.00  0.00    -0.203 F 
ATOM     87  C   UNL A   1      38.012  32.227  37.667  1.00  0.00     0.198 A 
ATOM     88  C   UNL A   1      39.370  34.029  36.848  1.00  0.00     0.198 A 
ATOM     89  F   UNL A   1      40.504  33.812  34.801  1.00  0.00    -0.203 F 
ATOM     90  F   UNL A   1      37.173  31.733  38.587  1.00  0.00    -0.200 F 
ATOM     91  C   UNL A   1      38.524  33.508  37.815  1.00  0.00     0.200 A 
ATOM     92  F   UNL A   1      39.883  35.258  36.999  1.00  0.00    -0.200 F 
ATOM     93  F   UNL A   1      38.200  34.241  38.889  1.00  0.00    -0.200 F 
ENDBRANCH  60  83
ENDBRANCH  34  35
ENDBRANCH  27  29
ENDBRANCH  26  27
ENDBRANCH  25  26
ENDBRANCH  24  25
ENDBRANCH  23  24
ENDBRANCH  22  23
ENDBRANCH  21  22
ENDBRANCH   1  21
TORSDOF 22
ENDMDL
MODEL 2
REMARK VINA RESULT:      -9.9      0.882      2.079
REMARK SMILES C=CC[NH2+]CC(=O)N1CCC[C@@H]1C(=O)OCCOCCOCCOC(=O)c1ccc(-c2c3nc(c(-c4c(F)c(F)c(F)c(F)c4F)c4ccc([nH]4)c(-c4c(F)c(F)c(F)c(F)c4F)c4nc(c(-c5c(F)c(F)c(F)c(F)c5F)c5ccc2[nH]5)C=C4)C=C3)cc1
REMARK SMILES IDX 18 1 17 2 16 3 15 4 13 5 14 6 12 7 8 8 9 9 10 10 11 11 6 12
REMARK SMILES IDX 7 13 5 14 4 15 3 18 2 19 1 20 19 21 20 22 21 23 22 24 23 25
REMARK SMILES IDX 24 26 25 27 26 28 27 29 28 30 89 31 29 32 88 33 30 34 31 35
REMARK SMILES IDX 32 36 82 37 33 38 87 39 81 40 83 41 34 42 86 43 80 44 79 45
REMARK SMILES IDX 35 47 67 48 47 49 66 50 48 51 51 52 65 53 84 54 49 55 50 56
REMARK SMILES IDX 64 58 85 59 52 60 36 61 37 62 45 63 38 64 39 65 43 66 46 67
REMARK SMILES IDX 40 68 41 69 44 70 42 71 68 72 69 73 77 74 70 75 71 76 75 77
REMARK SMILES IDX 78 78 72 79 73 80 76 81 74 82 53 83 54 84 62 85 55 86 56 87
REMARK SMILES IDX 60 88 63 89 57 90 58 91 61 92 59 93
REMARK H PARENT 4 16 4 17 83 46 51 57
REMARK Flexibility Score: inf
ROOT
ATOM      1  O   UNL A   1      37.791  21.722  25.648  1.00  0.00    -0.376 OA
ENDROOT
BRANCH   1   2
ATOM      2  C   UNL A   1      36.983  22.608  26.427  1.00  0.00     0.202 C 
BRANCH   2   3
ATOM      3  C   UNL A   1      36.475  23.891  25.750  1.00  0.00     0.261 C 
BRANCH   3   4
ATOM      4  O   UNL A   1      35.468  23.652  24.745  1.00  0.00    -0.462 OA
BRANCH   4   5
ATOM      5  C   UNL A   1      34.363  22.991  25.166  1.00  0.00     0.328 C 
ATOM      6  O   UNL A   1      33.670  23.347  26.117  1.00  0.00    -0.250 OA
BRANCH   5   7
ATOM      7  C   UNL A   1      34.004  21.759  24.327  1.00  0.00     0.195 C 
ATOM      8  N   UNL A   1      32.610  21.835  23.912  1.00  0.00    -0.324 N 
ATOM      9  C   UNL A   1      32.161  20.475  23.658  1.00  0.00     0.121 C 
ATOM     10  C   UNL A   1      32.795  19.689  24.775  1.00  0.00     0.024 C 
ATOM     11  C   UNL A   1      34.160  20.343  24.909  1.00  0.00     0.039 C 
BRANCH   8  12
ATOM     12  C   UNL A   1      32.251  22.889  23.068  1.00  0.00     0.278 C 
ATOM     13  O   UNL A   1      32.893  23.187  22.064  1.00  0.00    -0.268 OA
BRANCH  12  14
ATOM     14  C   UNL A   1      30.914  23.570  23.474  1.00  0.00     0.362 C 
BRANCH  14  15
ATOM     15  N   UNL A   1      30.834  23.842  24.943  1.00  0.00    -0.335 N 
ATOM     16  H   UNL A   1      30.019  23.372  25.339  1.00  0.00     0.347 HD
ATOM     17  H   UNL A   1      31.669  23.493  25.415  1.00  0.00     0.347 HD
BRANCH  15  18
ATOM     18  C   UNL A   1      30.713  25.278  25.129  1.00  0.00     0.289 C 
BRANCH  18  19
ATOM     19  C   UNL A   1      31.579  25.970  26.120  1.00  0.00     0.025 C 
ATOM     20  C   UNL A   1      31.389  27.274  26.381  1.00  0.00     0.010 C 
ENDBRANCH  18  19
ENDBRANCH  15  18
ENDBRANCH  14  15
ENDBRANCH  12  14
ENDBRANCH   8  12
ENDBRANCH   5   7
ENDBRANCH   4   5
ENDBRANCH   3   4
ENDBRANCH   2   3
ENDBRANCH   1   2
BRANCH   1  21
ATOM     21  C   UNL A   1      39.203  21.852  25.753  1.00  0.00     0.188 C 
BRANCH  21  22
ATOM     22  C   UNL A   1      39.985  20.588  26.120  1.00  0.00     0.188 C 
BRANCH  22  23
ATOM     23  O   UNL A   1      41.195  20.828  26.804  1.00  0.00    -0.376 OA
BRANCH  23  24
ATOM     24  C   UNL A   1      42.425  20.371  26.254  1.00  0.00     0.202 C 
BRANCH  24  25
ATOM     25  C   UNL A   1      43.371  21.388  25.572  1.00  0.00     0.261 C 
BRANCH  25  26
ATOM     26  O   UNL A   1      42.782  22.586  25.027  1.00  0.00    -0.460 OA
BRANCH  26  27
ATOM     27  C   UNL A   1      43.540  23.713  25.021  1.00  0.00     0.338 C 
ATOM     28  O   UNL A   1      44.437  23.973  24.251  1.00  0.00    -0.246 OA
BRANCH  27  29
ATOM     29  C   UNL A   1      42.887  24.712  25.923  1.00  0.00     0.060 A 
ATOM     30  C   UNL A   1      43.383  26.026  25.920  1.00  0.00     0.016 A 
ATOM     31  C   UNL A   1      41.758  24.404  26.689  1.00  0.00     0.016 A 
ATOM     32  C   UNL A   1      42.793  27.015  26.717  1.00  0.00     0.010 A 
ATOM     33  C   UNL A   1      41.181  25.389  27.503  1.00  0.00     0.010 A 
ATOM     34  C   UNL A   1      41.718  26.689  27.555  1.00  0.00    -0.014 A 
BRANCH  34  35
ATOM     35  C   UNL A   1      41.320  27.604  28.660  1.00  0.00     0.031 A 
ATOM     36  C   UNL A   1      42.100  27.519  29.947  1.00  0.00     0.074 A 
ATOM     37  C   UNL A   1      40.306  28.482  28.555  1.00  0.00     0.049 A 
ATOM     38  N   UNL A   1      41.884  28.101  31.099  1.00  0.00    -0.248 NA
ATOM     39  C   UNL A   1      43.285  26.647  29.928  1.00  0.00     0.031 C 
ATOM     40  C   UNL A   1      39.506  28.719  27.357  1.00  0.00     0.029 A 
ATOM     41  N   UNL A   1      39.765  29.332  29.493  1.00  0.00    -0.354 N 
ATOM     42  C   UNL A   1      42.892  27.650  31.942  1.00  0.00     0.074 A 
ATOM     43  C   UNL A   1      43.705  26.729  31.181  1.00  0.00     0.031 C 
ATOM     44  C   UNL A   1      38.561  29.636  27.639  1.00  0.00     0.029 A 
ATOM     45  C   UNL A   1      38.661  30.018  29.048  1.00  0.00     0.049 A 
ATOM     46  H   UNL A   1      40.136  29.438  30.400  1.00  0.00     0.167 HD
ATOM     47  C   UNL A   1      43.124  27.976  33.236  1.00  0.00     0.037 A 
ATOM     48  C   UNL A   1      37.811  30.830  29.711  1.00  0.00     0.037 A 
ATOM     49  C   UNL A   1      42.320  28.894  33.998  1.00  0.00     0.049 A 
ATOM     50  C   UNL A   1      38.038  31.110  31.180  1.00  0.00     0.074 A 
ATOM     51  C   UNL A   1      42.483  29.296  35.311  1.00  0.00     0.029 A 
ATOM     52  N   UNL A   1      41.197  29.547  33.515  1.00  0.00    -0.354 N 
ATOM     53  N   UNL A   1      38.998  30.689  31.969  1.00  0.00    -0.248 NA
ATOM     54  C   UNL A   1      37.059  31.980  31.851  1.00  0.00     0.031 C 
ATOM     55  C   UNL A   1      41.423  30.144  35.644  1.00  0.00     0.029 A 
ATOM     56  C   UNL A   1      40.642  30.329  34.515  1.00  0.00     0.049 A 
ATOM     57  H   UNL A   1      40.847  29.468  32.598  1.00  0.00     0.167 HD
ATOM     58  C   UNL A   1      38.763  31.275  33.208  1.00  0.00     0.074 A 
ATOM     59  C   UNL A   1      37.575  32.087  33.068  1.00  0.00     0.031 C 
ATOM     60  C   UNL A   1      39.472  31.155  34.358  1.00  0.00     0.037 A 
BRANCH  47  61
ATOM     61  C   UNL A   1      44.277  27.306  33.926  1.00  0.00     0.064 A 
ATOM     62  C   UNL A   1      45.541  27.909  34.013  1.00  0.00     0.173 A 
ATOM     63  C   UNL A   1      44.101  26.058  34.544  1.00  0.00     0.173 A 
ATOM     64  F   UNL A   1      45.767  29.092  33.425  1.00  0.00    -0.203 F 
ATOM     65  C   UNL A   1      46.591  27.276  34.674  1.00  0.00     0.198 A 
ATOM     66  C   UNL A   1      45.144  25.446  35.232  1.00  0.00     0.198 A 
ATOM     67  F   UNL A   1      42.913  25.439  34.491  1.00  0.00    -0.203 F 
ATOM     68  F   UNL A   1      47.803  27.848  34.702  1.00  0.00    -0.200 F 
ATOM     69  C   UNL A   1      46.389  26.051  35.291  1.00  0.00     0.200 A 
ATOM     70  F   UNL A   1      44.942  24.268  35.841  1.00  0.00    -0.200 F 
ATOM     71  F   UNL A   1      47.398  25.450  35.937  1.00  0.00    -0.200 F 
ENDBRANCH  47  61
BRANCH  48  72
ATOM     72  C   UNL A   1      36.637  31.426  29.012  1.00  0.00     0.064 A 
ATOM     73  C   UNL A   1      36.579  32.800  28.733  1.00  0.00     0.173 A 
ATOM     74  C   UNL A   1      35.523  30.647  28.666  1.00  0.00     0.173 A 
ATOM     75  F   UNL A   1      37.601  33.598  29.076  1.00  0.00    -0.203 F 
ATOM     76  C   UNL A   1      35.444  33.374  28.159  1.00  0.00     0.198 A 
ATOM     77  C   UNL A   1      34.404  31.216  28.060  1.00  0.00     0.198 A 
ATOM     78  F   UNL A   1      35.519  29.331  28.920  1.00  0.00    -0.203 F 
ATOM     79  F   UNL A   1      35.390  34.698  27.966  1.00  0.00    -0.200 F 
ATOM     80  C   UNL A   1      34.360  32.580  27.818  1.00  0.00     0.200 A 
ATOM     81  F   UNL A   1      33.361  30.443  27.726  1.00  0.00    -0.200 F 
ATOM     82  F   UNL A   1      33.268  33.132  27.272  1.00  0.00    -0.200 F 
ENDBRANCH  48  72
BRANCH  60  83
ATOM     83  C   UNL A   1      39.034  31.970  35.544  1.00  0.00     0.064 A 
ATOM     84  C   UNL A   1      38.234  31.432  36.564  1.00  0.00     0.173 A 
ATOM     85  C   UNL A   1      39.473  33.296  35.689  1.00  0.00     0.173 A 
ATOM     86  F   UNL A   1      37.779  30.174  36.473  1.00  0.00    -0.203 F 
ATOM     87  C   UNL A   1      37.870  32.199  37.669  1.00  0.00     0.198 A 
ATOM     88  C   UNL A   1      39.138  34.048  36.811  1.00  0.00     0.198 A 
ATOM     89  F   UNL A   1      40.250  33.857  34.750  1.00  0.00    -0.203 F 
ATOM     90  F   UNL A   1      37.067  31.680  38.607  1.00  0.00    -0.200 F 
ATOM     91  C   UNL A   1      38.330  33.503  37.796  1.00  0.00     0.200 A 
ATOM     92  F   UNL A   1      39.600  35.300  36.941  1.00  0.00    -0.200 F 
ATOM     93  F   UNL A   1      37.990  34.233  38.866  1.00  0.00    -0.200 F 
ENDBRANCH  60  83
ENDBRANCH  34  35
ENDBRANCH  27  29
ENDBRANCH  26  27
ENDBRANCH  25  26
ENDBRANCH  24  25
ENDBRANCH  23  24
ENDBRANCH  22  23
ENDBRANCH  21  22
ENDBRANCH   1  21
TORSDOF 22
ENDMDL
MODEL 3
REMARK VINA RESULT:      -9.7      1.982      3.284
REMARK SMILES C=CC[NH2+]CC(=O)N1CCC[C@@H]1C(=O)OCCOCCOCCOC(=O)c1ccc(-c2c3nc(c(-c4c(F)c(F)c(F)c(F)c4F)c4ccc([nH]4)c(-c4c(F)c(F)c(F)c(F)c4F)c4nc(c(-c5c(F)c(F)c(F)c(F)c5F)c5ccc2[nH]5)C=C4)C=C3)cc1
REMARK SMILES IDX 18 1 17 2 16 3 15 4 13 5 14 6 12 7 8 8 9 9 10 10 11 11 6 12
REMARK SMILES IDX 7 13 5 14 4 15 3 18 2 19 1 20 19 21 20 22 21 23 22 24 23 25
REMARK SMILES IDX 24 26 25 27 26 28 27 29 28 30 89 31 29 32 88 33 30 34 31 35
REMARK SMILES IDX 32 36 82 37 33 38 87 39 81 40 83 41 34 42 86 43 80 44 79 45
REMARK SMILES IDX 35 47 67 48 47 49 66 50 48 51 51 52 65 53 84 54 49 55 50 56
REMARK SMILES IDX 64 58 85 59 52 60 36 61 37 62 45 63 38 64 39 65 43 66 46 67
REMARK SMILES IDX 40 68 41 69 44 70 42 71 68 72 69 73 77 74 70 75 71 76 75 77
REMARK SMILES IDX 78 78 72 79 73 80 76 81 74 82 53 83 54 84 62 85 55 86 56 87
REMARK SMILES IDX 60 88 63 89 57 90 58 91 61 92 59 93
REMARK H PARENT 4 16 4 17 83 46 51 57
REMARK Flexibility Score: inf
ROOT
ATOM      1  O   UNL A   1      36.941  21.397  25.710  1.00  0.00    -0.376 OA
ENDROOT
BRANCH   1   2
ATOM      2  C   UNL A   1      35.790  22.218  25.497  1.00  0.00     0.202 C 
BRANCH   2   3
ATOM      3  C   UNL A   1      35.981  23.742  25.556  1.00  0.00     0.261 C 
BRANCH   3   4
ATOM      4  O   UNL A   1      35.449  24.434  24.407  1.00  0.00    -0.462 OA
BRANCH   4   5
ATOM      5  C   UNL A   1      34.251  25.038  24.588  1.00  0.00     0.328 C 
ATOM      6  O   UNL A   1      34.025  25.865  25.469  1.00  0.00    -0.250 OA
BRANCH   5   7
ATOM      7  C   UNL A   1      33.180  24.640  23.565  1.00  0.00     0.195 C 
ATOM      8  N   UNL A   1      32.372  25.802  23.220  1.00  0.00    -0.324 N 
ATOM      9  C   UNL A   1      31.085  25.310  22.756  1.00  0.00     0.121 C 
ATOM     10  C   UNL A   1      30.789  24.175  23.700  1.00  0.00     0.024 C 
ATOM     11  C   UNL A   1      32.156  23.539  23.892  1.00  0.00     0.039 C 
BRANCH   8  12
ATOM     12  C   UNL A   1      33.020  26.863  22.581  1.00  0.00     0.278 C 
ATOM     13  O   UNL A   1      33.651  26.726  21.537  1.00  0.00    -0.268 OA
BRANCH  12  14
ATOM     14  C   UNL A   1      32.772  28.234  23.269  1.00  0.00     0.362 C 
BRANCH  14  15
ATOM     15  N   UNL A   1      32.113  29.222  22.358  1.00  0.00    -0.335 N 
ATOM     16  H   UNL A   1      32.344  30.171  22.649  1.00  0.00     0.347 HD
ATOM     17  H   UNL A   1      32.436  29.090  21.399  1.00  0.00     0.347 HD
BRANCH  15  18
ATOM     18  C   UNL A   1      30.676  29.018  22.438  1.00  0.00     0.289 C 
BRANCH  18  19
ATOM     19  C   UNL A   1      29.755  29.995  21.800  1.00  0.00     0.025 C 
ATOM     20  C   UNL A   1      28.906  30.709  22.559  1.00  0.00     0.010 C 
ENDBRANCH  18  19
ENDBRANCH  15  18
ENDBRANCH  14  15
ENDBRANCH  12  14
ENDBRANCH   8  12
ENDBRANCH   5   7
ENDBRANCH   4   5
ENDBRANCH   3   4
ENDBRANCH   2   3
ENDBRANCH   1   2
BRANCH   1  21
ATOM     21  C   UNL A   1      38.206  22.041  25.788  1.00  0.00     0.188 C 
BRANCH  21  22
ATOM     22  C   UNL A   1      39.438  21.134  25.860  1.00  0.00     0.188 C 
BRANCH  22  23
ATOM     23  O   UNL A   1      40.609  21.776  26.315  1.00  0.00    -0.376 OA
BRANCH  23  24
ATOM     24  C   UNL A   1      41.874  21.147  26.146  1.00  0.00     0.202 C 
BRANCH  24  25
ATOM     25  C   UNL A   1      43.042  21.956  25.533  1.00  0.00     0.261 C 
BRANCH  25  26
ATOM     26  O   UNL A   1      42.733  23.238  24.951  1.00  0.00    -0.460 OA
BRANCH  26  27
ATOM     27  C   UNL A   1      43.588  24.264  25.200  1.00  0.00     0.338 C 
ATOM     28  O   UNL A   1      44.605  24.516  24.597  1.00  0.00    -0.246 OA
BRANCH  27  29
ATOM     29  C   UNL A   1      42.910  25.208  26.143  1.00  0.00     0.060 A 
ATOM     30  C   UNL A   1      43.319  26.552  26.136  1.00  0.00     0.016 A 
ATOM     31  C   UNL A   1      41.838  24.819  26.951  1.00  0.00     0.016 A 
ATOM     32  C   UNL A   1      42.701  27.491  26.971  1.00  0.00     0.010 A 
ATOM     33  C   UNL A   1      41.233  25.755  27.802  1.00  0.00     0.010 A 
ATOM     34  C   UNL A   1      41.687  27.087  27.849  1.00  0.00    -0.014 A 
BRANCH  34  35
ATOM     35  C   UNL A   1      41.277  27.962  28.982  1.00  0.00     0.031 A 
ATOM     36  C   UNL A   1      42.055  27.843  30.268  1.00  0.00     0.074 A 
ATOM     37  C   UNL A   1      40.256  28.834  28.903  1.00  0.00     0.049 A 
ATOM     38  N   UNL A   1      41.830  28.385  31.438  1.00  0.00    -0.248 NA
ATOM     39  C   UNL A   1      43.248  26.981  30.224  1.00  0.00     0.031 C 
ATOM     40  C   UNL A   1      39.457  29.103  27.711  1.00  0.00     0.029 A 
ATOM     41  N   UNL A   1      39.705  29.648  29.866  1.00  0.00    -0.354 N 
ATOM     42  C   UNL A   1      42.840  27.916  32.269  1.00  0.00     0.074 A 
ATOM     43  C   UNL A   1      43.663  27.026  31.480  1.00  0.00     0.031 C 
ATOM     44  C   UNL A   1      38.503  30.002  28.019  1.00  0.00     0.029 A 
ATOM     45  C   UNL A   1      38.596  30.339  29.440  1.00  0.00     0.049 A 
ATOM     46  H   UNL A   1      40.072  29.728  30.777  1.00  0.00     0.167 HD
ATOM     47  C   UNL A   1      43.066  28.201  33.573  1.00  0.00     0.037 A 
ATOM     48  C   UNL A   1      37.737  31.122  30.127  1.00  0.00     0.037 A 
ATOM     49  C   UNL A   1      42.252  29.086  34.362  1.00  0.00     0.049 A 
ATOM     50  C   UNL A   1      37.958  31.356  31.605  1.00  0.00     0.074 A 
ATOM     51  C   UNL A   1      42.408  29.447  35.688  1.00  0.00     0.029 A 
ATOM     52  N   UNL A   1      41.125  29.745  33.897  1.00  0.00    -0.354 N 
ATOM     53  N   UNL A   1      38.919  30.917  32.382  1.00  0.00    -0.248 NA
ATOM     54  C   UNL A   1      36.970  32.195  32.302  1.00  0.00     0.031 C 
ATOM     55  C   UNL A   1      41.340  30.274  36.045  1.00  0.00     0.029 A 
ATOM     56  C   UNL A   1      40.560  30.489  34.920  1.00  0.00     0.049 A 
ATOM     57  H   UNL A   1      40.777  29.693  32.977  1.00  0.00     0.167 HD
ATOM     58  C   UNL A   1      38.677  31.461  33.640  1.00  0.00     0.074 A 
ATOM     59  C   UNL A   1      37.481  32.267  33.523  1.00  0.00     0.031 C 
ATOM     60  C   UNL A   1      39.384  31.310  34.787  1.00  0.00     0.037 A 
BRANCH  47  61
ATOM     61  C   UNL A   1      44.224  27.519  34.244  1.00  0.00     0.064 A 
ATOM     62  C   UNL A   1      45.490  28.116  34.325  1.00  0.00     0.173 A 
ATOM     63  C   UNL A   1      44.049  26.265  34.850  1.00  0.00     0.173 A 
ATOM     64  F   UNL A   1      45.715  29.305  33.748  1.00  0.00    -0.203 F 
ATOM     65  C   UNL A   1      46.544  27.472  34.969  1.00  0.00     0.198 A 
ATOM     66  C   UNL A   1      45.096  25.641  35.521  1.00  0.00     0.198 A 
ATOM     67  F   UNL A   1      42.857  25.651  34.802  1.00  0.00    -0.203 F 
ATOM     68  F   UNL A   1      47.759  28.039  34.992  1.00  0.00    -0.200 F 
ATOM     69  C   UNL A   1      46.343  26.241  35.574  1.00  0.00     0.200 A 
ATOM     70  F   UNL A   1      44.895  24.457  36.119  1.00  0.00    -0.200 F 
ATOM     71  F   UNL A   1      47.357  25.629  36.203  1.00  0.00    -0.200 F 
ENDBRANCH  47  61
BRANCH  48  72
ATOM     72  C   UNL A   1      36.560  31.730  29.445  1.00  0.00     0.064 A 
ATOM     73  C   UNL A   1      35.485  30.941  29.009  1.00  0.00     0.173 A 
ATOM     74  C   UNL A   1      36.513  33.103  29.159  1.00  0.00     0.173 A 
ATOM     75  F   UNL A   1      35.496  29.616  29.223  1.00  0.00    -0.203 F 
ATOM     76  C   UNL A   1      34.424  31.496  28.293  1.00  0.00     0.198 A 
ATOM     77  C   UNL A   1      35.435  33.662  28.475  1.00  0.00     0.198 A 
ATOM     78  F   UNL A   1      37.518  33.903  29.542  1.00  0.00    -0.203 F 
ATOM     79  F   UNL A   1      33.445  30.707  27.830  1.00  0.00    -0.200 F 
ATOM     80  C   UNL A   1      34.398  32.857  28.031  1.00  0.00     0.200 A 
ATOM     81  F   UNL A   1      35.411  34.980  28.230  1.00  0.00    -0.200 F 
ATOM     82  F   UNL A   1      33.382  33.389  27.338  1.00  0.00    -0.200 F 
ENDBRANCH  48  72
BRANCH  60  83
ATOM     83  C   UNL A   1      38.935  32.081  35.998  1.00  0.00     0.064 A 
ATOM     84  C   UNL A   1      38.141  31.503  36.999  1.00  0.00     0.173 A 
ATOM     85  C   UNL A   1      39.358  33.408  36.185  1.00  0.00     0.173 A 
ATOM     86  F   UNL A   1      37.701  30.243  36.869  1.00  0.00    -0.203 F 
ATOM     87  C   UNL A   1      37.768  32.231  38.128  1.00  0.00     0.198 A 
ATOM     88  C   UNL A   1      39.013  34.120  37.329  1.00  0.00     0.198 A 
ATOM     89  F   UNL A   1      40.129  34.008  35.264  1.00  0.00    -0.203 F 
ATOM     90  F   UNL A   1      36.970  31.673  39.048  1.00  0.00    -0.200 F 
ATOM     91  C   UNL A   1      38.211  33.535  38.296  1.00  0.00     0.200 A 
ATOM     92  F   UNL A   1      39.461  35.372  37.499  1.00  0.00    -0.200 F 
ATOM     93  F   UNL A   1      37.863  34.227  39.388  1.00  0.00    -0.200 F 
ENDBRANCH  60  83
ENDBRANCH  34  35
ENDBRANCH  27  29
ENDBRANCH  26  27
ENDBRANCH  25  26
ENDBRANCH  24  25
ENDBRANCH  23  24
ENDBRANCH  22  23
ENDBRANCH  21  22
ENDBRANCH   1  21
TORSDOF 22
ENDMDL
