MODEL 1
REMARK VINA RESULT:     -14.5      0.000      0.000
REMARK SMILES COc1ccc(-c2cc(Cl)cc3c2O[C@@H](C(F)(F)F)C(C(=O)OCCOCCOCCOC(=O)c2ccc(-c4c5nc(c(-c6c(F)c(F)c(F)c(F)c6F)c6ccc([nH]6)c(-c6c(F)c(F)c(F)c(F)c6F)c6nc(c(-c7c(F)c(F)c(F)c(F)c7F)c7ccc4[nH]7)C=C6)C=C5)cc2)=C3)cc1C
REMARK SMILES IDX 27 1 26 2 25 3 24 4 23 5 21 6 22 7 20 8 7 9 8 10 13 11 9 12
REMARK SMILES IDX 12 13 14 14 10 15 11 16 98 17 15 18 6 19 3 20 4 21 100 22
REMARK SMILES IDX 5 23 99 24 101 25 2 26 1 27 16 28 17 29 18 30 19 31 28 32
REMARK SMILES IDX 29 33 30 34 31 35 32 36 33 37 34 38 35 39 36 40 97 41 37 42
REMARK SMILES IDX 96 43 38 44 39 45 40 46 90 47 41 48 95 49 89 50 91 51 42 52
REMARK SMILES IDX 94 53 88 54 87 55 43 57 75 58 55 59 74 60 56 61 59 62 73 63
REMARK SMILES IDX 92 64 57 65 58 66 72 68 93 69 60 70 44 71 45 72 53 73 46 74
REMARK SMILES IDX 47 75 51 76 54 77 48 78 49 79 52 80 50 81 76 82 77 83 85 84
REMARK SMILES IDX 78 85 79 86 83 87 86 88 80 89 81 90 84 91 82 92 61 93 62 94
REMARK SMILES IDX 70 95 63 96 64 97 68 98 71 99 65 100 66 101 69 102 67 103
REMARK H PARENT 91 56 59 67
REMARK Flexibility Score: inf
ROOT
ATOM      1  C   UNL A   1      32.878  31.115  27.132  1.00  0.00     0.188 C 
ENDROOT
BRANCH   1   2
ATOM      2  O   UNL A   1      32.153  29.922  27.023  1.00  0.00    -0.376 OA
BRANCH   2   3
ATOM      3  C   UNL A   1      32.644  28.587  27.159  1.00  0.00     0.202 C 
BRANCH   3   4
ATOM      4  C   UNL A   1      33.446  27.240  26.256  1.00  0.00     0.261 C 
BRANCH   4   5
ATOM      5  O   UNL A   1      34.042  26.892  24.403  1.00  0.00    -0.460 OA
BRANCH   5   6
ATOM      6  C   UNL A   1      33.430  26.469  22.806  1.00  0.00     0.338 C 
ATOM      7  O   UNL A   1      33.857  26.921  21.735  1.00  0.00    -0.246 OA
BRANCH   6   8
ATOM      8  C   UNL A   1      32.291  25.231  22.356  1.00  0.00     0.087 C 
ATOM      9  C   UNL A   1      34.513  22.067  24.619  1.00  0.00     0.026 A 
ATOM     10  C   UNL A   1      34.114  20.747  24.497  1.00  0.00     0.033 A 
ATOM     11  C   UNL A   1      33.520  23.098  23.830  1.00  0.00     0.135 A 
ATOM     12  C   UNL A   1      32.933  20.470  23.779  1.00  0.00     0.042 A 
ATOM     13  C   UNL A   1      32.671  22.738  22.811  1.00  0.00     0.019 A 
ATOM     14  O   UNL A   1      33.081  24.472  24.188  1.00  0.00    -0.475 OA
ATOM     15  Cl  UNL A   1      32.244  18.894  24.003  1.00  0.00    -0.084 Cl
ATOM     16  C   UNL A   1      32.252  21.412  22.928  1.00  0.00     0.032 A 
ATOM     17  C   UNL A   1      32.216  23.912  21.903  1.00  0.00     0.027 C 
ATOM     18  C   UNL A   1      31.708  25.146  23.665  1.00  0.00     0.316 C 
BRANCH   9  19
ATOM     19  C   UNL A   1      35.973  22.233  25.718  1.00  0.00    -0.014 A 
ATOM     20  C   UNL A   1      39.618  22.493  26.181  1.00  0.00     0.121 A 
ATOM     21  C   UNL A   1      38.752  23.936  26.486  1.00  0.00     0.047 A 
ATOM     22  C   UNL A   1      38.835  20.950  25.739  1.00  0.00    -0.008 A 
ATOM     23  C   UNL A   1      36.980  23.918  26.293  1.00  0.00     0.013 A 
ATOM     24  C   UNL A   1      37.051  20.761  25.513  1.00  0.00     0.016 A 
ATOM     25  C   UNL A   1      39.821  19.820  25.765  1.00  0.00     0.048 C 
BRANCH  20  26
ATOM     26  O   UNL A   1      40.932  22.449  26.606  1.00  0.00    -0.496 OA
ATOM     27  C   UNL A   1      41.065  22.186  28.000  1.00  0.00     0.278 C 
ENDBRANCH  20  26
ENDBRANCH   9  19
BRANCH  18  28
ATOM     28  C   UNL A   1      30.870  26.566  23.281  1.00  0.00     0.430 C 
ATOM     29  F   UNL A   1      30.842  26.909  21.941  1.00  0.00    -0.167 F 
ATOM     30  F   UNL A   1      29.544  26.355  23.548  1.00  0.00    -0.167 F 
ATOM     31  F   UNL A   1      31.184  27.693  23.931  1.00  0.00    -0.167 F 
ENDBRANCH  18  28
ENDBRANCH   6   8
ENDBRANCH   5   6
ENDBRANCH   4   5
ENDBRANCH   3   4
ENDBRANCH   2   3
ENDBRANCH   1   2
BRANCH   1  32
ATOM     32  C   UNL A   1      34.253  30.963  27.635  1.00  0.00     0.188 C 
BRANCH  32  33
ATOM     33  O   UNL A   1      34.822  32.244  27.738  1.00  0.00    -0.376 OA
BRANCH  33  34
ATOM     34  C   UNL A   1      34.055  33.121  28.521  1.00  0.00     0.202 C 
BRANCH  34  35
ATOM     35  C   UNL A   1      34.573  33.047  29.958  1.00  0.00     0.261 C 
BRANCH  35  36
ATOM     36  O   UNL A   1      35.932  32.510  29.921  1.00  0.00    -0.460 OA
BRANCH  36  37
ATOM     37  C   UNL A   1      36.201  31.413  30.689  1.00  0.00     0.338 C 
ATOM     38  O   UNL A   1      35.950  31.308  31.879  1.00  0.00    -0.246 OA
BRANCH  37  39
ATOM     39  C   UNL A   1      37.101  30.466  29.982  1.00  0.00     0.060 A 
ATOM     40  C   UNL A   1      37.319  29.224  30.491  1.00  0.00     0.016 A 
ATOM     41  C   UNL A   1      38.042  30.786  29.067  1.00  0.00     0.016 A 
ATOM     42  C   UNL A   1      38.704  28.701  30.566  1.00  0.00     0.010 A 
ATOM     43  C   UNL A   1      39.293  30.087  29.141  1.00  0.00     0.010 A 
ATOM     44  C   UNL A   1      39.929  29.240  30.220  1.00  0.00    -0.014 A 
BRANCH  44  45
ATOM     45  C   UNL A   1      41.812  28.827  30.488  1.00  0.00     0.031 A 
ATOM     46  C   UNL A   1      42.721  27.443  29.457  1.00  0.00     0.074 A 
ATOM     47  C   UNL A   1      42.810  29.523  31.142  1.00  0.00     0.049 A 
ATOM     48  N   UNL A   1      43.332  26.381  29.912  1.00  0.00    -0.248 NA
ATOM     49  C   UNL A   1      42.333  26.885  27.915  1.00  0.00     0.031 C 
ATOM     50  C   UNL A   1      44.271  29.296  31.144  1.00  0.00     0.029 A 
ATOM     51  N   UNL A   1      42.755  30.658  31.952  1.00  0.00    -0.354 N 
ATOM     52  C   UNL A   1      43.527  25.433  28.892  1.00  0.00     0.074 A 
ATOM     53  C   UNL A   1      42.558  25.599  27.902  1.00  0.00     0.031 C 
ATOM     54  C   UNL A   1      44.816  29.923  32.214  1.00  0.00     0.029 A 
ATOM     55  C   UNL A   1      43.706  30.490  32.951  1.00  0.00     0.049 A 
ATOM     56  H   UNL A   1      42.155  31.432  31.838  1.00  0.00     0.167 HD
ATOM     57  C   UNL A   1      44.744  24.865  28.722  1.00  0.00     0.037 A 
ATOM     58  C   UNL A   1      43.263  30.149  34.190  1.00  0.00     0.037 A 
ATOM     59  C   UNL A   1      45.547  25.349  29.822  1.00  0.00     0.049 A 
ATOM     60  C   UNL A   1      43.793  28.695  34.505  1.00  0.00     0.074 A 
ATOM     61  C   UNL A   1      46.334  26.483  29.946  1.00  0.00     0.029 A 
ATOM     62  N   UNL A   1      45.069  25.077  31.102  1.00  0.00    -0.354 N 
ATOM     63  N   UNL A   1      44.134  27.799  33.600  1.00  0.00    -0.248 NA
ATOM     64  C   UNL A   1      44.185  28.234  35.841  1.00  0.00     0.031 C 
ATOM     65  C   UNL A   1      46.395  26.822  31.328  1.00  0.00     0.029 A 
ATOM     66  C   UNL A   1      45.603  25.934  32.035  1.00  0.00     0.049 A 
ATOM     67  H   UNL A   1      44.430  24.359  31.312  1.00  0.00     0.167 HD
ATOM     68  C   UNL A   1      44.791  26.721  34.163  1.00  0.00     0.074 A 
ATOM     69  C   UNL A   1      44.795  27.060  35.575  1.00  0.00     0.031 C 
ATOM     70  C   UNL A   1      45.345  25.677  33.444  1.00  0.00     0.037 A 
BRANCH  57  71
ATOM     71  C   UNL A   1      45.217  24.340  27.376  1.00  0.00     0.064 A 
ATOM     72  C   UNL A   1      44.950  23.001  27.042  1.00  0.00     0.173 A 
ATOM     73  C   UNL A   1      45.972  25.046  26.401  1.00  0.00     0.173 A 
ATOM     74  F   UNL A   1      44.220  22.223  27.849  1.00  0.00    -0.203 F 
ATOM     75  C   UNL A   1      45.429  22.404  25.873  1.00  0.00     0.198 A 
ATOM     76  C   UNL A   1      46.509  24.428  25.261  1.00  0.00     0.198 A 
ATOM     77  F   UNL A   1      46.188  26.366  26.485  1.00  0.00    -0.203 F 
ATOM     78  F   UNL A   1      45.115  21.129  25.612  1.00  0.00    -0.200 F 
ATOM     79  C   UNL A   1      46.225  23.108  24.993  1.00  0.00     0.200 A 
ATOM     80  F   UNL A   1      47.294  25.125  24.425  1.00  0.00    -0.200 F 
ATOM     81  F   UNL A   1      46.692  22.523  23.882  1.00  0.00    -0.200 F 
ENDBRANCH  57  71
BRANCH  58  82
ATOM     82  C   UNL A   1      41.762  30.788  34.436  1.00  0.00     0.064 A 
ATOM     83  C   UNL A   1      39.801  30.433  34.044  1.00  0.00     0.173 A 
ATOM     84  C   UNL A   1      42.036  32.389  35.246  1.00  0.00     0.173 A 
ATOM     85  F   UNL A   1      39.153  29.325  33.567  1.00  0.00    -0.203 F 
ATOM     86  C   UNL A   1      38.542  31.588  34.467  1.00  0.00     0.198 A 
ATOM     87  C   UNL A   1      40.572  33.464  35.537  1.00  0.00     0.198 A 
ATOM     88  F   UNL A   1      43.288  32.810  35.159  1.00  0.00    -0.203 F 
ATOM     89  F   UNL A   1      37.265  31.177  34.502  1.00  0.00    -0.200 F 
ATOM     90  C   UNL A   1      38.947  33.027  35.176  1.00  0.00     0.200 A 
ATOM     91  F   UNL A   1      40.615  34.811  35.612  1.00  0.00    -0.200 F 
ATOM     92  F   UNL A   1      37.982  33.840  35.635  1.00  0.00    -0.200 F 
ENDBRANCH  58  82
BRANCH  70  93
ATOM     93  C   UNL A   1      45.850  24.301  33.939  1.00  0.00     0.064 A 
ATOM     94  C   UNL A   1      45.059  23.155  34.038  1.00  0.00     0.173 A 
ATOM     95  C   UNL A   1      47.230  24.065  34.269  1.00  0.00     0.173 A 
ATOM     96  F   UNL A   1      43.796  23.129  33.606  1.00  0.00    -0.203 F 
ATOM     97  C   UNL A   1      45.553  21.943  34.545  1.00  0.00     0.198 A 
ATOM     98  C   UNL A   1      47.741  22.829  34.650  1.00  0.00     0.198 A 
ATOM     99  F   UNL A   1      48.176  25.010  34.247  1.00  0.00    -0.203 F 
ATOM    100  F   UNL A   1      44.709  20.920  34.732  1.00  0.00    -0.200 F 
ATOM    101  C   UNL A   1      46.892  21.776  34.840  1.00  0.00     0.200 A 
ATOM    102  F   UNL A   1      49.062  22.687  34.839  1.00  0.00    -0.200 F 
ATOM    103  F   UNL A   1      47.360  20.607  35.293  1.00  0.00    -0.200 F 
ENDBRANCH  70  93
ENDBRANCH  44  45
ENDBRANCH  37  39
ENDBRANCH  36  37
ENDBRANCH  35  36
ENDBRANCH  34  35
ENDBRANCH  33  34
ENDBRANCH  32  33
ENDBRANCH   1  32
TORSDOF 20
ENDMDL
MODEL 2
REMARK VINA RESULT:     -13.6      1.209      1.874
REMARK SMILES COc1ccc(-c2cc(Cl)cc3c2O[C@@H](C(F)(F)F)C(C(=O)OCCOCCOCCOC(=O)c2ccc(-c4c5nc(c(-c6c(F)c(F)c(F)c(F)c6F)c6ccc([nH]6)c(-c6c(F)c(F)c(F)c(F)c6F)c6nc(c(-c7c(F)c(F)c(F)c(F)c7F)c7ccc4[nH]7)C=C6)C=C5)cc2)=C3)cc1C
REMARK SMILES IDX 27 1 26 2 25 3 24 4 23 5 21 6 22 7 20 8 7 9 8 10 13 11 9 12
REMARK SMILES IDX 12 13 14 14 10 15 11 16 98 17 15 18 6 19 3 20 4 21 100 22
REMARK SMILES IDX 5 23 99 24 101 25 2 26 1 27 16 28 17 29 18 30 19 31 28 32
REMARK SMILES IDX 29 33 30 34 31 35 32 36 33 37 34 38 35 39 36 40 97 41 37 42
REMARK SMILES IDX 96 43 38 44 39 45 40 46 90 47 41 48 95 49 89 50 91 51 42 52
REMARK SMILES IDX 94 53 88 54 87 55 43 57 75 58 55 59 74 60 56 61 59 62 73 63
REMARK SMILES IDX 92 64 57 65 58 66 72 68 93 69 60 70 44 71 45 72 53 73 46 74
REMARK SMILES IDX 47 75 51 76 54 77 48 78 49 79 52 80 50 81 76 82 77 83 85 84
REMARK SMILES IDX 78 85 79 86 83 87 86 88 80 89 81 90 84 91 82 92 61 93 62 94
REMARK SMILES IDX 70 95 63 96 64 97 68 98 71 99 65 100 66 101 69 102 67 103
REMARK H PARENT 91 56 59 67
REMARK Flexibility Score: inf
ROOT
ATOM      1  C   UNL A   1      33.344  31.018  27.252  1.00  0.00     0.188 C 
ENDROOT
BRANCH   1   2
ATOM      2  O   UNL A   1      32.894  29.692  27.222  1.00  0.00    -0.376 OA
BRANCH   2   3
ATOM      3  C   UNL A   1      33.682  28.506  27.107  1.00  0.00     0.202 C 
BRANCH   3   4
ATOM      4  C   UNL A   1      34.059  27.118  26.009  1.00  0.00     0.261 C 
BRANCH   4   5
ATOM      5  O   UNL A   1      33.747  26.645  24.114  1.00  0.00    -0.460 OA
BRANCH   5   6
ATOM      6  C   UNL A   1      32.641  25.756  23.071  1.00  0.00     0.338 C 
ATOM      7  O   UNL A   1      32.600  25.842  21.836  1.00  0.00    -0.246 OA
BRANCH   6   8
ATOM      8  C   UNL A   1      31.548  24.461  23.475  1.00  0.00     0.087 C 
ATOM      9  C   UNL A   1      34.888  21.740  24.702  1.00  0.00     0.026 A 
ATOM     10  C   UNL A   1      34.603  20.421  25.009  1.00  0.00     0.033 A 
ATOM     11  C   UNL A   1      33.543  22.618  24.398  1.00  0.00     0.135 A 
ATOM     12  C   UNL A   1      33.251  20.024  25.062  1.00  0.00     0.042 A 
ATOM     13  C   UNL A   1      32.329  22.087  24.039  1.00  0.00     0.019 A 
ATOM     14  O   UNL A   1      33.230  24.035  24.719  1.00  0.00    -0.475 OA
ATOM     15  Cl  UNL A   1      32.918  18.516  25.849  1.00  0.00    -0.084 Cl
ATOM     16  C   UNL A   1      32.150  20.803  24.558  1.00  0.00     0.032 A 
ATOM     17  C   UNL A   1      31.369  23.084  23.335  1.00  0.00     0.027 C 
ATOM     18  C   UNL A   1      31.729  24.611  24.890  1.00  0.00     0.316 C 
BRANCH   9  19
ATOM     19  C   UNL A   1      36.684  22.093  24.839  1.00  0.00    -0.014 A 
ATOM     20  C   UNL A   1      39.673  22.736  26.894  1.00  0.00     0.121 A 
ATOM     21  C   UNL A   1      39.647  21.209  26.125  1.00  0.00     0.047 A 
ATOM     22  C   UNL A   1      38.397  23.968  26.679  1.00  0.00    -0.008 A 
ATOM     23  C   UNL A   1      38.245  20.797  25.104  1.00  0.00     0.013 A 
ATOM     24  C   UNL A   1      36.918  23.712  25.672  1.00  0.00     0.016 A 
ATOM     25  C   UNL A   1      38.807  25.278  27.285  1.00  0.00     0.048 C 
BRANCH  20  26
ATOM     26  O   UNL A   1      40.876  23.144  27.437  1.00  0.00    -0.496 OA
ATOM     27  C   UNL A   1      41.791  23.645  26.467  1.00  0.00     0.278 C 
ENDBRANCH  20  26
ENDBRANCH   9  19
BRANCH  18  28
ATOM     28  C   UNL A   1      30.690  25.943  24.787  1.00  0.00     0.430 C 
ATOM     29  F   UNL A   1      29.957  26.052  23.619  1.00  0.00    -0.167 F 
ATOM     30  F   UNL A   1      29.706  25.780  25.726  1.00  0.00    -0.167 F 
ATOM     31  F   UNL A   1      31.188  27.165  25.010  1.00  0.00    -0.167 F 
ENDBRANCH  18  28
ENDBRANCH   6   8
ENDBRANCH   5   6
ENDBRANCH   4   5
ENDBRANCH   3   4
ENDBRANCH   2   3
ENDBRANCH   1   2
BRANCH   1  32
ATOM     32  C   UNL A   1      34.559  31.245  28.052  1.00  0.00     0.188 C 
BRANCH  32  33
ATOM     33  O   UNL A   1      35.135  32.456  27.632  1.00  0.00    -0.376 OA
BRANCH  33  34
ATOM     34  C   UNL A   1      34.666  33.564  28.353  1.00  0.00     0.202 C 
BRANCH  34  35
ATOM     35  C   UNL A   1      35.511  33.693  29.621  1.00  0.00     0.261 C 
BRANCH  35  36
ATOM     36  O   UNL A   1      36.770  32.983  29.400  1.00  0.00    -0.460 OA
BRANCH  36  37
ATOM     37  C   UNL A   1      37.563  32.747  30.487  1.00  0.00     0.338 C 
ATOM     38  O   UNL A   1      37.973  33.600  31.258  1.00  0.00    -0.246 OA
BRANCH  37  39
ATOM     39  C   UNL A   1      38.118  31.369  30.462  1.00  0.00     0.060 A 
ATOM     40  C   UNL A   1      38.238  30.662  31.617  1.00  0.00     0.016 A 
ATOM     41  C   UNL A   1      38.871  30.827  29.481  1.00  0.00     0.016 A 
ATOM     42  C   UNL A   1      39.501  29.939  31.900  1.00  0.00     0.010 A 
ATOM     43  C   UNL A   1      39.977  30.005  29.883  1.00  0.00     0.010 A 
ATOM     44  C   UNL A   1      40.690  29.823  31.204  1.00  0.00    -0.014 A 
BRANCH  44  45
ATOM     45  C   UNL A   1      42.492  29.166  31.532  1.00  0.00     0.031 A 
ATOM     46  C   UNL A   1      43.360  27.895  30.332  1.00  0.00     0.074 A 
ATOM     47  C   UNL A   1      43.484  29.620  32.378  1.00  0.00     0.049 A 
ATOM     48  N   UNL A   1      43.824  26.710  30.627  1.00  0.00    -0.248 NA
ATOM     49  C   UNL A   1      43.068  27.666  28.688  1.00  0.00     0.031 C 
ATOM     50  C   UNL A   1      44.911  29.238  32.447  1.00  0.00     0.029 A 
ATOM     51  N   UNL A   1      43.460  30.593  33.378  1.00  0.00    -0.354 N 
ATOM     52  C   UNL A   1      44.023  25.942  29.465  1.00  0.00     0.074 A 
ATOM     53  C   UNL A   1      43.172  26.386  28.453  1.00  0.00     0.031 C 
ATOM     54  C   UNL A   1      45.409  29.602  33.653  1.00  0.00     0.029 A 
ATOM     55  C   UNL A   1      44.294  30.146  34.397  1.00  0.00     0.049 A 
ATOM     56  H   UNL A   1      42.950  31.435  33.365  1.00  0.00     0.167 HD
ATOM     57  C   UNL A   1      45.193  25.283  29.284  1.00  0.00     0.037 A 
ATOM     58  C   UNL A   1      43.706  29.641  35.514  1.00  0.00     0.037 A 
ATOM     59  C   UNL A   1      45.930  25.473  30.513  1.00  0.00     0.049 A 
ATOM     60  C   UNL A   1      44.065  28.105  35.592  1.00  0.00     0.074 A 
ATOM     61  C   UNL A   1      46.805  26.475  30.904  1.00  0.00     0.029 A 
ATOM     62  N   UNL A   1      45.311  25.032  31.679  1.00  0.00    -0.354 N 
ATOM     63  N   UNL A   1      44.405  27.353  34.563  1.00  0.00    -0.248 NA
ATOM     64  C   UNL A   1      44.285  27.375  36.843  1.00  0.00     0.031 C 
ATOM     65  C   UNL A   1      46.768  26.554  32.326  1.00  0.00     0.029 A 
ATOM     66  C   UNL A   1      45.833  25.646  32.794  1.00  0.00     0.049 A 
ATOM     67  H   UNL A   1      44.590  24.363  31.704  1.00  0.00     0.167 HD
ATOM     68  C   UNL A   1      44.901  26.127  34.964  1.00  0.00     0.074 A 
ATOM     69  C   UNL A   1      44.804  26.207  36.410  1.00  0.00     0.031 C 
ATOM     70  C   UNL A   1      45.420  25.173  34.106  1.00  0.00     0.037 A 
BRANCH  57  71
ATOM     71  C   UNL A   1      45.739  24.957  27.903  1.00  0.00     0.064 A 
ATOM     72  C   UNL A   1      46.415  25.963  27.191  1.00  0.00     0.173 A 
ATOM     73  C   UNL A   1      45.598  23.734  27.195  1.00  0.00     0.173 A 
ATOM     74  F   UNL A   1      46.654  27.157  27.744  1.00  0.00    -0.203 F 
ATOM     75  C   UNL A   1      46.866  25.786  25.880  1.00  0.00     0.198 A 
ATOM     76  C   UNL A   1      45.990  23.580  25.857  1.00  0.00     0.198 A 
ATOM     77  F   UNL A   1      45.115  22.626  27.776  1.00  0.00    -0.203 F 
ATOM     78  F   UNL A   1      47.523  26.784  25.273  1.00  0.00    -0.200 F 
ATOM     79  C   UNL A   1      46.637  24.606  25.204  1.00  0.00     0.200 A 
ATOM     80  F   UNL A   1      45.744  22.430  25.211  1.00  0.00    -0.200 F 
ATOM     81  F   UNL A   1      47.060  24.451  23.943  1.00  0.00    -0.200 F 
ENDBRANCH  57  71
BRANCH  58  82
ATOM     82  C   UNL A   1      42.255  30.387  35.761  1.00  0.00     0.064 A 
ATOM     83  C   UNL A   1      40.299  30.275  35.222  1.00  0.00     0.173 A 
ATOM     84  C   UNL A   1      42.617  31.841  36.786  1.00  0.00     0.173 A 
ATOM     85  F   UNL A   1      39.588  29.303  34.571  1.00  0.00    -0.203 F 
ATOM     86  C   UNL A   1      39.124  31.484  35.724  1.00  0.00     0.198 A 
ATOM     87  C   UNL A   1      41.239  33.007  37.137  1.00  0.00     0.198 A 
ATOM     88  F   UNL A   1      43.904  32.146  36.821  1.00  0.00    -0.203 F 
ATOM     89  F   UNL A   1      37.815  31.197  35.638  1.00  0.00    -0.200 F 
ATOM     90  C   UNL A   1      39.608  32.777  36.635  1.00  0.00     0.200 A 
ATOM     91  F   UNL A   1      41.396  34.324  37.388  1.00  0.00    -0.200 F 
ATOM     92  F   UNL A   1      38.691  33.617  37.145  1.00  0.00    -0.200 F 
ENDBRANCH  58  82
BRANCH  70  93
ATOM     93  C   UNL A   1      45.745  23.684  34.373  1.00  0.00     0.064 A 
ATOM     94  C   UNL A   1      44.806  22.651  34.351  1.00  0.00     0.173 A 
ATOM     95  C   UNL A   1      47.089  23.220  34.589  1.00  0.00     0.173 A 
ATOM     96  F   UNL A   1      43.537  22.858  33.990  1.00  0.00    -0.203 F 
ATOM     97  C   UNL A   1      45.144  21.323  34.654  1.00  0.00     0.198 A 
ATOM     98  C   UNL A   1      47.437  21.885  34.763  1.00  0.00     0.198 A 
ATOM     99  F   UNL A   1      48.157  24.024  34.650  1.00  0.00    -0.203 F 
ATOM    100  F   UNL A   1      44.172  20.405  34.740  1.00  0.00    -0.200 F 
ATOM    101  C   UNL A   1      46.455  20.938  34.848  1.00  0.00     0.200 A 
ATOM    102  F   UNL A   1      48.730  21.542  34.857  1.00  0.00    -0.200 F 
ATOM    103  F   UNL A   1      46.771  19.663  35.104  1.00  0.00    -0.200 F 
ENDBRANCH  70  93
ENDBRANCH  44  45
ENDBRANCH  37  39
ENDBRANCH  36  37
ENDBRANCH  35  36
ENDBRANCH  34  35
ENDBRANCH  33  34
ENDBRANCH  32  33
ENDBRANCH   1  32
TORSDOF 20
ENDMDL
MODEL 3
REMARK VINA RESULT:     -12.6      5.299     10.768
REMARK SMILES COc1ccc(-c2cc(Cl)cc3c2O[C@@H](C(F)(F)F)C(C(=O)OCCOCCOCCOC(=O)c2ccc(-c4c5nc(c(-c6c(F)c(F)c(F)c(F)c6F)c6ccc([nH]6)c(-c6c(F)c(F)c(F)c(F)c6F)c6nc(c(-c7c(F)c(F)c(F)c(F)c7F)c7ccc4[nH]7)C=C6)C=C5)cc2)=C3)cc1C
REMARK SMILES IDX 27 1 26 2 25 3 24 4 23 5 21 6 22 7 20 8 7 9 8 10 13 11 9 12
REMARK SMILES IDX 12 13 14 14 10 15 11 16 98 17 15 18 6 19 3 20 4 21 100 22
REMARK SMILES IDX 5 23 99 24 101 25 2 26 1 27 16 28 17 29 18 30 19 31 28 32
REMARK SMILES IDX 29 33 30 34 31 35 32 36 33 37 34 38 35 39 36 40 97 41 37 42
REMARK SMILES IDX 96 43 38 44 39 45 40 46 90 47 41 48 95 49 89 50 91 51 42 52
REMARK SMILES IDX 94 53 88 54 87 55 43 57 75 58 55 59 74 60 56 61 59 62 73 63
REMARK SMILES IDX 92 64 57 65 58 66 72 68 93 69 60 70 44 71 45 72 53 73 46 74
REMARK SMILES IDX 47 75 51 76 54 77 48 78 49 79 52 80 50 81 76 82 77 83 85 84
REMARK SMILES IDX 78 85 79 86 83 87 86 88 80 89 81 90 84 91 82 92 61 93 62 94
REMARK SMILES IDX 70 95 63 96 64 97 68 98 71 99 65 100 66 101 69 102 67 103
REMARK H PARENT 91 56 59 67
REMARK Flexibility Score: inf
ROOT
ATOM      1  C   UNL A   1      46.406  26.602  31.778  1.00  0.00     0.188 C 
ENDROOT
BRANCH   1   2
ATOM      2  O   UNL A   1      46.899  27.542  30.865  1.00  0.00    -0.376 OA
BRANCH   2   3
ATOM      3  C   UNL A   1      46.279  27.998  29.661  1.00  0.00     0.202 C 
BRANCH   3   4
ATOM      4  C   UNL A   1      44.698  28.522  28.955  1.00  0.00     0.261 C 
BRANCH   4   5
ATOM      5  O   UNL A   1      43.943  28.809  27.149  1.00  0.00    -0.460 OA
BRANCH   5   6
ATOM      6  C   UNL A   1      42.630  28.289  26.097  1.00  0.00     0.338 C 
ATOM      7  O   UNL A   1      42.189  28.933  25.134  1.00  0.00    -0.246 OA
BRANCH   6   8
ATOM      8  C   UNL A   1      41.821  26.749  26.025  1.00  0.00     0.087 C 
ATOM      9  C   UNL A   1      45.671  24.512  25.534  1.00  0.00     0.026 A 
ATOM     10  C   UNL A   1      45.632  23.155  25.268  1.00  0.00     0.033 A 
ATOM     11  C   UNL A   1      44.188  25.142  25.807  1.00  0.00     0.135 A 
ATOM     12  C   UNL A   1      44.382  22.503  25.304  1.00  0.00     0.042 A 
ATOM     13  C   UNL A   1      43.009  24.566  25.401  1.00  0.00     0.019 A 
ATOM     14  O   UNL A   1      43.756  26.208  26.747  1.00  0.00    -0.475 OA
ATOM     15  Cl  UNL A   1      44.416  20.771  25.389  1.00  0.00    -0.084 Cl
ATOM     16  C   UNL A   1      43.109  23.176  25.326  1.00  0.00     0.032 A 
ATOM     17  C   UNL A   1      41.805  25.543  25.321  1.00  0.00     0.027 C 
ATOM     18  C   UNL A   1      42.255  26.343  27.331  1.00  0.00     0.316 C 
BRANCH   9  19
ATOM     19  C   UNL A   1      47.396  25.139  25.595  1.00  0.00    -0.014 A 
ATOM     20  C   UNL A   1      49.840  27.842  25.064  1.00  0.00     0.121 A 
ATOM     21  C   UNL A   1      49.511  27.485  26.703  1.00  0.00     0.047 A 
ATOM     22  C   UNL A   1      49.121  26.944  23.698  1.00  0.00    -0.008 A 
ATOM     23  C   UNL A   1      48.343  26.190  27.072  1.00  0.00     0.013 A 
ATOM     24  C   UNL A   1      47.929  25.600  23.900  1.00  0.00     0.016 A 
ATOM     25  C   UNL A   1      49.771  27.326  22.401  1.00  0.00     0.048 C 
BRANCH  20  26
ATOM     26  O   UNL A   1      50.941  28.636  24.804  1.00  0.00    -0.496 OA
ATOM     27  C   UNL A   1      52.180  27.985  25.072  1.00  0.00     0.278 C 
ENDBRANCH  20  26
ENDBRANCH   9  19
BRANCH  18  28
ATOM     28  C   UNL A   1      41.046  27.358  27.944  1.00  0.00     0.430 C 
ATOM     29  F   UNL A   1      39.899  27.465  27.179  1.00  0.00    -0.167 F 
ATOM     30  F   UNL A   1      40.567  26.791  29.095  1.00  0.00    -0.167 F 
ATOM     31  F   UNL A   1      41.369  28.612  28.279  1.00  0.00    -0.167 F 
ENDBRANCH  18  28
ENDBRANCH   6   8
ENDBRANCH   5   6
ENDBRANCH   4   5
ENDBRANCH   3   4
ENDBRANCH   2   3
ENDBRANCH   1   2
BRANCH   1  32
ATOM     32  C   UNL A   1      45.001  26.797  32.173  1.00  0.00     0.188 C 
BRANCH  32  33
ATOM     33  O   UNL A   1      44.622  25.709  32.979  1.00  0.00    -0.376 OA
BRANCH  33  34
ATOM     34  C   UNL A   1      45.630  24.738  33.095  1.00  0.00     0.202 C 
BRANCH  34  35
ATOM     35  C   UNL A   1      45.717  24.322  34.564  1.00  0.00     0.261 C 
BRANCH  35  36
ATOM     36  O   UNL A   1      44.355  24.166  35.071  1.00  0.00    -0.460 OA
BRANCH  36  37
ATOM     37  C   UNL A   1      44.073  24.692  36.300  1.00  0.00     0.338 C 
ATOM     38  O   UNL A   1      44.591  24.347  37.350  1.00  0.00    -0.246 OA
BRANCH  37  39
ATOM     39  C   UNL A   1      42.849  25.532  36.260  1.00  0.00     0.060 A 
ATOM     40  C   UNL A   1      42.043  25.512  35.164  1.00  0.00     0.016 A 
ATOM     41  C   UNL A   1      42.594  26.614  37.028  1.00  0.00     0.016 A 
ATOM     42  C   UNL A   1      41.560  26.790  34.591  1.00  0.00     0.010 A 
ATOM     43  C   UNL A   1      41.968  27.737  36.391  1.00  0.00     0.010 A 
ATOM     44  C   UNL A   1      41.771  28.112  34.939  1.00  0.00    -0.014 A 
BRANCH  44  45
ATOM     45  C   UNL A   1      41.455  29.872  34.171  1.00  0.00     0.031 A 
ATOM     46  C   UNL A   1      40.158  30.155  32.741  1.00  0.00     0.074 A 
ATOM     47  C   UNL A   1      41.806  31.132  34.613  1.00  0.00     0.049 A 
ATOM     48  N   UNL A   1      40.378  30.646  31.551  1.00  0.00    -0.248 NA
ATOM     49  C   UNL A   1      38.784  29.240  32.401  1.00  0.00     0.031 C 
ATOM     50  C   UNL A   1      41.367  32.457  34.126  1.00  0.00     0.029 A 
ATOM     51  N   UNL A   1      42.630  31.537  35.664  1.00  0.00    -0.354 N 
ATOM     52  C   UNL A   1      39.317  30.349  30.677  1.00  0.00     0.074 A 
ATOM     53  C   UNL A   1      38.665  29.192  31.102  1.00  0.00     0.031 C 
ATOM     54  C   UNL A   1      42.245  33.398  34.547  1.00  0.00     0.029 A 
ATOM     55  C   UNL A   1      43.296  32.681  35.238  1.00  0.00     0.049 A 
ATOM     56  H   UNL A   1      42.723  31.096  36.540  1.00  0.00     0.167 HD
ATOM     57  C   UNL A   1      38.775  31.329  29.915  1.00  0.00     0.037 A 
ATOM     58  C   UNL A   1      44.599  32.550  34.875  1.00  0.00     0.037 A 
ATOM     59  C   UNL A   1      39.602  32.492  30.146  1.00  0.00     0.049 A 
ATOM     60  C   UNL A   1      44.697  32.848  33.327  1.00  0.00     0.074 A 
ATOM     61  C   UNL A   1      39.522  33.490  31.104  1.00  0.00     0.029 A 
ATOM     62  N   UNL A   1      40.956  32.355  29.853  1.00  0.00    -0.354 N 
ATOM     63  N   UNL A   1      43.704  32.732  32.468  1.00  0.00    -0.248 NA
ATOM     64  C   UNL A   1      45.841  33.505  32.686  1.00  0.00     0.031 C 
ATOM     65  C   UNL A   1      40.833  34.009  31.303  1.00  0.00     0.029 A 
ATOM     66  C   UNL A   1      41.716  33.292  30.513  1.00  0.00     0.049 A 
ATOM     67  H   UNL A   1      41.325  31.673  29.247  1.00  0.00     0.167 HD
ATOM     68  C   UNL A   1      44.013  33.293  31.243  1.00  0.00     0.074 A 
ATOM     69  C   UNL A   1      45.369  33.767  31.449  1.00  0.00     0.031 C 
ATOM     70  C   UNL A   1      43.129  33.400  30.184  1.00  0.00     0.037 A 
BRANCH  57  71
ATOM     71  C   UNL A   1      37.333  31.285  29.434  1.00  0.00     0.064 A 
ATOM     72  C   UNL A   1      37.005  30.433  28.366  1.00  0.00     0.173 A 
ATOM     73  C   UNL A   1      36.249  32.067  29.913  1.00  0.00     0.173 A 
ATOM     74  F   UNL A   1      37.916  29.612  27.834  1.00  0.00    -0.203 F 
ATOM     75  C   UNL A   1      35.730  30.397  27.794  1.00  0.00     0.198 A 
ATOM     76  C   UNL A   1      34.989  32.080  29.295  1.00  0.00     0.198 A 
ATOM     77  F   UNL A   1      36.345  32.819  31.019  1.00  0.00    -0.203 F 
ATOM     78  F   UNL A   1      35.485  29.543  26.791  1.00  0.00    -0.200 F 
ATOM     79  C   UNL A   1      34.728  31.233  28.241  1.00  0.00     0.200 A 
ATOM     80  F   UNL A   1      34.032  32.912  29.735  1.00  0.00    -0.200 F 
ATOM     81  F   UNL A   1      33.514  31.202  27.677  1.00  0.00    -0.200 F 
ENDBRANCH  57  71
BRANCH  58  82
ATOM     82  C   UNL A   1      45.300  31.340  35.751  1.00  0.00     0.064 A 
ATOM     83  C   UNL A   1      45.365  29.315  35.892  1.00  0.00     0.173 A 
ATOM     84  C   UNL A   1      46.231  32.165  37.073  1.00  0.00     0.173 A 
ATOM     85  F   UNL A   1      44.916  28.328  35.055  1.00  0.00    -0.203 F 
ATOM     86  C   UNL A   1      46.246  28.498  37.178  1.00  0.00     0.198 A 
ATOM     87  C   UNL A   1      47.025  31.107  38.350  1.00  0.00     0.198 A 
ATOM     88  F   UNL A   1      45.892  33.434  37.234  1.00  0.00    -0.203 F 
ATOM     89  F   UNL A   1      46.543  27.196  37.041  1.00  0.00    -0.200 F 
ATOM     90  C   UNL A   1      47.025  29.386  38.337  1.00  0.00     0.200 A 
ATOM     91  F   UNL A   1      47.273  31.496  39.619  1.00  0.00    -0.200 F 
ATOM     92  F   UNL A   1      47.820  28.771  39.228  1.00  0.00    -0.200 F 
ENDBRANCH  58  82
BRANCH  70  93
ATOM     93  C   UNL A   1      43.408  33.741  28.701  1.00  0.00     0.064 A 
ATOM     94  C   UNL A   1      43.016  34.924  28.072  1.00  0.00     0.173 A 
ATOM     95  C   UNL A   1      44.185  32.880  27.850  1.00  0.00     0.173 A 
ATOM     96  F   UNL A   1      42.442  35.925  28.744  1.00  0.00    -0.203 F 
ATOM     97  C   UNL A   1      43.248  35.162  26.708  1.00  0.00     0.198 A 
ATOM     98  C   UNL A   1      44.520  33.178  26.534  1.00  0.00     0.198 A 
ATOM     99  F   UNL A   1      44.672  31.694  28.231  1.00  0.00    -0.203 F 
ATOM    100  F   UNL A   1      42.734  36.260  26.140  1.00  0.00    -0.200 F 
ATOM    101  C   UNL A   1      44.006  34.298  25.943  1.00  0.00     0.200 A 
ATOM    102  F   UNL A   1      45.336  32.358  25.854  1.00  0.00    -0.200 F 
ATOM    103  F   UNL A   1      44.249  34.549  24.652  1.00  0.00    -0.200 F 
ENDBRANCH  70  93
ENDBRANCH  44  45
ENDBRANCH  37  39
ENDBRANCH  36  37
ENDBRANCH  35  36
ENDBRANCH  34  35
ENDBRANCH  33  34
ENDBRANCH  32  33
ENDBRANCH   1  32
TORSDOF 20
ENDMDL
