MODEL 1
REMARK VINA RESULT:     -10.5      0.000      0.000
REMARK SMILES O=CN[C@@H](Cc1cc(Cl)ccc1[N+](=O)[O-])C(=O)OCCOCCOCCOC(=O)c1ccc(-c2c3nc(c(-c4c(F)c(F)c(F)c(F)c4F)c4ccc([nH]4)c(-c4c(F)c(F)c(F)c(F)c4F)c4nc(c(-c5c(F)c(F)c(F)c(F)c5F)c5ccc2[nH]5)C=C4)C=C3)cc1
REMARK SMILES IDX 22 1 21 2 20 3 19 4 18 5 16 6 17 7 4 8 3 9 1 10 2 11 5 13
REMARK SMILES IDX 6 14 7 15 12 16 8 17 11 18 9 19 10 20 13 21 14 22 15 23
REMARK SMILES IDX 23 24 24 25 25 26 26 27 27 28 28 29 29 30 30 31 31 32 92 33
REMARK SMILES IDX 32 34 91 35 33 36 34 37 35 38 85 39 36 40 90 41 84 42 86 43
REMARK SMILES IDX 37 44 89 45 83 46 82 47 38 49 70 50 50 51 69 52 51 53 54 54
REMARK SMILES IDX 68 55 87 56 52 57 53 58 67 60 88 61 55 62 39 63 40 64 48 65
REMARK SMILES IDX 41 66 42 67 46 68 49 69 43 70 44 71 47 72 45 73 71 74 72 75
REMARK SMILES IDX 80 76 73 77 74 78 78 79 81 80 75 81 76 82 79 83 77 84 56 85
REMARK SMILES IDX 57 86 65 87 58 88 59 89 63 90 66 91 60 92 61 93 64 94 62 95
REMARK H PARENT 3 12 86 48 54 59
REMARK Flexibility Score: inf
ROOT
ATOM      1  C   UNL A   1      33.235  29.022  25.610  1.00  0.00     0.188 C 
ENDROOT
BRANCH   1   2
ATOM      2  O   UNL A   1      32.643  29.081  24.317  1.00  0.00    -0.376 OA
BRANCH   2   3
ATOM      3  C   UNL A   1      31.302  28.642  24.143  1.00  0.00     0.202 C 
BRANCH   3   4
ATOM      4  C   UNL A   1      30.996  27.663  23.001  1.00  0.00     0.261 C 
BRANCH   4   5
ATOM      5  O   UNL A   1      31.413  26.298  23.222  1.00  0.00    -0.462 OA
BRANCH   5   6
ATOM      6  C   UNL A   1      30.478  25.441  23.717  1.00  0.00     0.329 C 
ATOM      7  O   UNL A   1      29.273  25.669  23.747  1.00  0.00    -0.250 OA
BRANCH   6   8
ATOM      8  C   UNL A   1      31.089  24.190  24.395  1.00  0.00     0.196 C 
BRANCH   8   9
ATOM      9  N   UNL A   1      30.270  23.560  25.428  1.00  0.00    -0.345 N 
ATOM     10  O   UNL A   1      29.907  23.002  27.601  1.00  0.00    -0.279 OA
ATOM     11  C   UNL A   1      30.673  23.366  26.719  1.00  0.00     0.337 C 
ATOM     12  H   UNL A   1      29.370  23.252  25.177  1.00  0.00     0.164 HD
ENDBRANCH   8   9
BRANCH   8  13
ATOM     13  C   UNL A   1      31.481  23.182  23.292  1.00  0.00     0.079 C 
BRANCH  13  14
ATOM     14  C   UNL A   1      32.577  22.229  23.744  1.00  0.00     0.034 A 
ATOM     15  C   UNL A   1      32.187  20.891  23.986  1.00  0.00     0.031 A 
ATOM     16  C   UNL A   1      33.913  22.585  24.042  1.00  0.00     0.272 A 
ATOM     17  C   UNL A   1      33.053  19.974  24.579  1.00  0.00     0.041 A 
ATOM     18  C   UNL A   1      34.787  21.642  24.620  1.00  0.00     0.087 A 
ATOM     19  Cl  UNL A   1      32.493  18.390  24.945  1.00  0.00    -0.084 Cl
ATOM     20  C   UNL A   1      34.350  20.346  24.904  1.00  0.00     0.027 A 
BRANCH  16  21
ATOM     21  N   UNL A   1      34.480  23.919  23.764  1.00  0.00     0.062 N 
ATOM     22  O   UNL A   1      35.058  24.068  22.677  1.00  0.00    -0.258 OA
ATOM     23  O   UNL A   1      34.355  24.810  24.611  1.00  0.00    -0.258 OA
ENDBRANCH  16  21
ENDBRANCH  13  14
ENDBRANCH   8  13
ENDBRANCH   6   8
ENDBRANCH   5   6
ENDBRANCH   4   5
ENDBRANCH   3   4
ENDBRANCH   2   3
ENDBRANCH   1   2
BRANCH   1  24
ATOM     24  C   UNL A   1      33.276  30.283  26.491  1.00  0.00     0.188 C 
BRANCH  24  25
ATOM     25  O   UNL A   1      32.038  30.653  27.055  1.00  0.00    -0.376 OA
BRANCH  25  26
ATOM     26  C   UNL A   1      31.435  31.830  26.545  1.00  0.00     0.202 C 
BRANCH  26  27
ATOM     27  C   UNL A   1      32.142  33.176  26.793  1.00  0.00     0.261 C 
BRANCH  27  28
ATOM     28  O   UNL A   1      32.464  33.494  28.161  1.00  0.00    -0.460 OA
BRANCH  28  29
ATOM     29  C   UNL A   1      33.502  34.337  28.379  1.00  0.00     0.338 C 
ATOM     30  O   UNL A   1      33.457  35.549  28.444  1.00  0.00    -0.246 OA
BRANCH  29  31
ATOM     31  C   UNL A   1      34.688  33.520  28.753  1.00  0.00     0.060 A 
ATOM     32  C   UNL A   1      34.486  32.264  29.345  1.00  0.00     0.016 A 
ATOM     33  C   UNL A   1      35.986  33.976  28.515  1.00  0.00     0.016 A 
ATOM     34  C   UNL A   1      35.579  31.480  29.727  1.00  0.00     0.010 A 
ATOM     35  C   UNL A   1      37.081  33.200  28.921  1.00  0.00     0.010 A 
ATOM     36  C   UNL A   1      36.885  31.961  29.558  1.00  0.00    -0.014 A 
BRANCH  36  37
ATOM     37  C   UNL A   1      38.019  31.255  30.213  1.00  0.00     0.031 A 
ATOM     38  C   UNL A   1      38.329  31.566  31.654  1.00  0.00     0.074 A 
ATOM     39  C   UNL A   1      38.743  30.323  29.565  1.00  0.00     0.049 A 
ATOM     40  N   UNL A   1      39.261  31.077  32.434  1.00  0.00    -0.248 NA
ATOM     41  C   UNL A   1      37.469  32.569  32.302  1.00  0.00     0.031 C 
ATOM     42  C   UNL A   1      38.534  29.902  28.183  1.00  0.00     0.029 A 
ATOM     43  N   UNL A   1      39.806  29.563  29.992  1.00  0.00    -0.354 N 
ATOM     44  C   UNL A   1      39.099  31.712  33.660  1.00  0.00     0.074 A 
ATOM     45  C   UNL A   1      38.007  32.649  33.509  1.00  0.00     0.031 C 
ATOM     46  C   UNL A   1      39.444  28.961  27.872  1.00  0.00     0.029 A 
ATOM     47  C   UNL A   1      40.317  28.733  29.024  1.00  0.00     0.049 A 
ATOM     48  H   UNL A   1      40.168  29.609  30.907  1.00  0.00     0.167 HD
ATOM     49  C   UNL A   1      39.789  31.524  34.810  1.00  0.00     0.037 A 
ATOM     50  C   UNL A   1      41.376  27.899  29.060  1.00  0.00     0.037 A 
ATOM     51  C   UNL A   1      40.880  30.596  34.965  1.00  0.00     0.049 A 
ATOM     52  C   UNL A   1      42.174  27.759  30.333  1.00  0.00     0.074 A 
ATOM     53  C   UNL A   1      41.625  30.321  36.098  1.00  0.00     0.029 A 
ATOM     54  N   UNL A   1      41.391  29.802  33.950  1.00  0.00    -0.354 N 
ATOM     55  N   UNL A   1      41.989  28.334  31.497  1.00  0.00    -0.248 NA
ATOM     56  C   UNL A   1      43.325  26.845  30.298  1.00  0.00     0.031 C 
ATOM     57  C   UNL A   1      42.627  29.408  35.754  1.00  0.00     0.029 A 
ATOM     58  C   UNL A   1      42.463  29.060  34.423  1.00  0.00     0.049 A 
ATOM     59  H   UNL A   1      41.045  29.770  33.029  1.00  0.00     0.167 HD
ATOM     60  C   UNL A   1      42.977  27.830  32.335  1.00  0.00     0.074 A 
ATOM     61  C   UNL A   1      43.746  26.887  31.552  1.00  0.00     0.031 C 
ATOM     62  C   UNL A   1      43.225  28.122  33.637  1.00  0.00     0.037 A 
BRANCH  49  63
ATOM     63  C   UNL A   1      39.400  32.363  35.996  1.00  0.00     0.064 A 
ATOM     64  C   UNL A   1      39.957  33.632  36.219  1.00  0.00     0.173 A 
ATOM     65  C   UNL A   1      38.434  31.903  36.903  1.00  0.00     0.173 A 
ATOM     66  F   UNL A   1      40.895  34.114  35.388  1.00  0.00    -0.203 F 
ATOM     67  C   UNL A   1      39.581  34.396  37.321  1.00  0.00     0.198 A 
ATOM     68  C   UNL A   1      38.037  32.685  37.985  1.00  0.00     0.198 A 
ATOM     69  F   UNL A   1      37.866  30.700  36.735  1.00  0.00    -0.203 F 
ATOM     70  F   UNL A   1      40.165  35.583  37.542  1.00  0.00    -0.200 F 
ATOM     71  C   UNL A   1      38.616  33.926  38.199  1.00  0.00     0.200 A 
ATOM     72  F   UNL A   1      37.092  32.234  38.823  1.00  0.00    -0.200 F 
ATOM     73  F   UNL A   1      38.250  34.666  39.254  1.00  0.00    -0.200 F 
ENDBRANCH  49  63
BRANCH  50  74
ATOM     74  C   UNL A   1      41.759  27.127  27.845  1.00  0.00     0.064 A 
ATOM     75  C   UNL A   1      41.249  25.842  27.610  1.00  0.00     0.173 A 
ATOM     76  C   UNL A   1      42.670  27.645  26.912  1.00  0.00     0.173 A 
ATOM     77  F   UNL A   1      40.399  25.289  28.488  1.00  0.00    -0.203 F 
ATOM     78  C   UNL A   1      41.651  25.098  26.502  1.00  0.00     0.198 A 
ATOM     79  C   UNL A   1      43.045  26.913  25.787  1.00  0.00     0.198 A 
ATOM     80  F   UNL A   1      43.194  28.866  27.091  1.00  0.00    -0.203 F 
ATOM     81  F   UNL A   1      41.189  23.851  26.332  1.00  0.00    -0.200 F 
ATOM     82  C   UNL A   1      42.542  25.637  25.587  1.00  0.00     0.200 A 
ATOM     83  F   UNL A   1      43.899  27.442  24.900  1.00  0.00    -0.200 F 
ATOM     84  F   UNL A   1      42.925  24.923  24.520  1.00  0.00    -0.200 F 
ENDBRANCH  50  74
BRANCH  62  85
ATOM     85  C   UNL A   1      44.352  27.388  34.311  1.00  0.00     0.064 A 
ATOM     86  C   UNL A   1      45.645  27.928  34.394  1.00  0.00     0.173 A 
ATOM     87  C   UNL A   1      44.131  26.133  34.901  1.00  0.00     0.173 A 
ATOM     88  F   UNL A   1      45.916  29.118  33.838  1.00  0.00    -0.203 F 
ATOM     89  C   UNL A   1      46.680  27.223  35.006  1.00  0.00     0.198 A 
ATOM     90  C   UNL A   1      45.159  25.448  35.545  1.00  0.00     0.198 A 
ATOM     91  F   UNL A   1      42.913  25.572  34.863  1.00  0.00    -0.203 F 
ATOM     92  F   UNL A   1      47.920  27.732  35.016  1.00  0.00    -0.200 F 
ATOM     93  C   UNL A   1      46.435  25.987  35.585  1.00  0.00     0.200 A 
ATOM     94  F   UNL A   1      44.915  24.262  36.120  1.00  0.00    -0.200 F 
ATOM     95  F   UNL A   1      47.430  25.313  36.175  1.00  0.00    -0.200 F 
ENDBRANCH  62  85
ENDBRANCH  36  37
ENDBRANCH  29  31
ENDBRANCH  28  29
ENDBRANCH  27  28
ENDBRANCH  26  27
ENDBRANCH  25  26
ENDBRANCH  24  25
ENDBRANCH   1  24
TORSDOF 21
ENDMDL
MODEL 2
REMARK VINA RESULT:     -10.2      2.287      3.770
REMARK SMILES O=CN[C@@H](Cc1cc(Cl)ccc1[N+](=O)[O-])C(=O)OCCOCCOCCOC(=O)c1ccc(-c2c3nc(c(-c4c(F)c(F)c(F)c(F)c4F)c4ccc([nH]4)c(-c4c(F)c(F)c(F)c(F)c4F)c4nc(c(-c5c(F)c(F)c(F)c(F)c5F)c5ccc2[nH]5)C=C4)C=C3)cc1
REMARK SMILES IDX 22 1 21 2 20 3 19 4 18 5 16 6 17 7 4 8 3 9 1 10 2 11 5 13
REMARK SMILES IDX 6 14 7 15 12 16 8 17 11 18 9 19 10 20 13 21 14 22 15 23
REMARK SMILES IDX 23 24 24 25 25 26 26 27 27 28 28 29 29 30 30 31 31 32 92 33
REMARK SMILES IDX 32 34 91 35 33 36 34 37 35 38 85 39 36 40 90 41 84 42 86 43
REMARK SMILES IDX 37 44 89 45 83 46 82 47 38 49 70 50 50 51 69 52 51 53 54 54
REMARK SMILES IDX 68 55 87 56 52 57 53 58 67 60 88 61 55 62 39 63 40 64 48 65
REMARK SMILES IDX 41 66 42 67 46 68 49 69 43 70 44 71 47 72 45 73 71 74 72 75
REMARK SMILES IDX 80 76 73 77 74 78 78 79 81 80 75 81 76 82 79 83 77 84 56 85
REMARK SMILES IDX 57 86 65 87 58 88 59 89 63 90 66 91 60 92 61 93 64 94 62 95
REMARK H PARENT 3 12 86 48 54 59
REMARK Flexibility Score: inf
ROOT
ATOM      1  C   UNL A   1      35.135  30.694  27.995  1.00  0.00     0.188 C 
ENDROOT
BRANCH   1   2
ATOM      2  O   UNL A   1      34.113  29.991  27.298  1.00  0.00    -0.376 OA
BRANCH   2   3
ATOM      3  C   UNL A   1      32.998  30.707  26.787  1.00  0.00     0.202 C 
BRANCH   3   4
ATOM      4  C   UNL A   1      32.172  30.069  25.660  1.00  0.00     0.261 C 
BRANCH   4   5
ATOM      5  O   UNL A   1      32.931  29.362  24.655  1.00  0.00    -0.462 OA
BRANCH   5   6
ATOM      6  C   UNL A   1      32.228  28.588  23.783  1.00  0.00     0.329 C 
ATOM      7  O   UNL A   1      31.201  28.942  23.212  1.00  0.00    -0.250 OA
BRANCH   6   8
ATOM      8  C   UNL A   1      32.758  27.137  23.685  1.00  0.00     0.196 C 
BRANCH   8   9
ATOM      9  N   UNL A   1      33.329  26.751  22.396  1.00  0.00    -0.345 N 
ATOM     10  O   UNL A   1      33.158  25.699  20.390  1.00  0.00    -0.279 OA
ATOM     11  C   UNL A   1      32.752  25.865  21.531  1.00  0.00     0.337 C 
ATOM     12  H   UNL A   1      34.187  27.155  22.134  1.00  0.00     0.164 HD
ENDBRANCH   8   9
BRANCH   8  13
ATOM     13  C   UNL A   1      33.760  26.906  24.838  1.00  0.00     0.079 C 
BRANCH  13  14
ATOM     14  C   UNL A   1      33.505  25.598  25.571  1.00  0.00     0.034 A 
ATOM     15  C   UNL A   1      34.531  24.627  25.501  1.00  0.00     0.031 A 
ATOM     16  C   UNL A   1      32.302  25.232  26.218  1.00  0.00     0.272 A 
ATOM     17  C   UNL A   1      34.341  23.328  25.970  1.00  0.00     0.041 A 
ATOM     18  C   UNL A   1      32.130  23.922  26.711  1.00  0.00     0.087 A 
ATOM     19  Cl  UNL A   1      35.586  22.160  25.765  1.00  0.00    -0.084 Cl
ATOM     20  C   UNL A   1      33.142  22.969  26.568  1.00  0.00     0.027 A 
BRANCH  16  21
ATOM     21  N   UNL A   1      31.181  26.167  26.438  1.00  0.00     0.062 N 
ATOM     22  O   UNL A   1      31.371  27.095  27.237  1.00  0.00    -0.258 OA
ATOM     23  O   UNL A   1      30.122  25.983  25.827  1.00  0.00    -0.258 OA
ENDBRANCH  16  21
ENDBRANCH  13  14
ENDBRANCH   8  13
ENDBRANCH   6   8
ENDBRANCH   5   6
ENDBRANCH   4   5
ENDBRANCH   3   4
ENDBRANCH   2   3
ENDBRANCH   1   2
BRANCH   1  24
ATOM     24  C   UNL A   1      35.149  32.234  27.983  1.00  0.00     0.188 C 
BRANCH  24  25
ATOM     25  O   UNL A   1      34.379  32.842  28.995  1.00  0.00    -0.376 OA
BRANCH  25  26
ATOM     26  C   UNL A   1      33.581  33.948  28.606  1.00  0.00     0.202 C 
BRANCH  26  27
ATOM     27  C   UNL A   1      33.480  35.147  29.569  1.00  0.00     0.261 C 
BRANCH  27  28
ATOM     28  O   UNL A   1      32.432  35.095  30.557  1.00  0.00    -0.460 OA
BRANCH  28  29
ATOM     29  C   UNL A   1      32.696  35.623  31.777  1.00  0.00     0.338 C 
ATOM     30  O   UNL A   1      31.997  36.389  32.407  1.00  0.00    -0.246 OA
BRANCH  29  31
ATOM     31  C   UNL A   1      33.893  34.931  32.327  1.00  0.00     0.060 A 
ATOM     32  C   UNL A   1      35.137  35.577  32.269  1.00  0.00     0.016 A 
ATOM     33  C   UNL A   1      33.792  33.664  32.906  1.00  0.00     0.016 A 
ATOM     34  C   UNL A   1      36.284  34.944  32.759  1.00  0.00     0.010 A 
ATOM     35  C   UNL A   1      34.948  33.021  33.375  1.00  0.00     0.010 A 
ATOM     36  C   UNL A   1      36.205  33.644  33.276  1.00  0.00    -0.014 A 
BRANCH  36  37
ATOM     37  C   UNL A   1      37.455  32.878  33.534  1.00  0.00     0.031 A 
ATOM     38  C   UNL A   1      38.222  33.154  34.801  1.00  0.00     0.074 A 
ATOM     39  C   UNL A   1      37.890  31.925  32.689  1.00  0.00     0.049 A 
ATOM     40  N   UNL A   1      39.330  32.613  35.242  1.00  0.00    -0.248 NA
ATOM     41  C   UNL A   1      37.662  34.185  35.689  1.00  0.00     0.031 C 
ATOM     42  C   UNL A   1      37.232  31.534  31.447  1.00  0.00     0.029 A 
ATOM     43  N   UNL A   1      38.996  31.112  32.755  1.00  0.00    -0.354 N 
ATOM     44  C   UNL A   1      39.598  33.237  36.456  1.00  0.00     0.074 A 
ATOM     45  C   UNL A   1      38.560  34.223  36.661  1.00  0.00     0.031 C 
ATOM     46  C   UNL A   1      37.949  30.558  30.861  1.00  0.00     0.029 A 
ATOM     47  C   UNL A   1      39.133  30.275  31.675  1.00  0.00     0.049 A 
ATOM     48  H   UNL A   1      39.633  31.128  33.507  1.00  0.00     0.167 HD
ATOM     49  C   UNL A   1      40.609  33.001  37.326  1.00  0.00     0.037 A 
ATOM     50  C   UNL A   1      40.108  29.394  31.370  1.00  0.00     0.037 A 
ATOM     51  C   UNL A   1      41.648  32.023  37.124  1.00  0.00     0.049 A 
ATOM     52  C   UNL A   1      41.263  29.200  32.322  1.00  0.00     0.074 A 
ATOM     53  C   UNL A   1      42.701  31.699  37.961  1.00  0.00     0.029 A 
ATOM     54  N   UNL A   1      41.771  31.222  35.999  1.00  0.00    -0.354 N 
ATOM     55  N   UNL A   1      41.486  29.765  33.484  1.00  0.00    -0.248 NA
ATOM     56  C   UNL A   1      42.298  28.235  31.921  1.00  0.00     0.031 C 
ATOM     57  C   UNL A   1      43.497  30.747  37.315  1.00  0.00     0.029 A 
ATOM     58  C   UNL A   1      42.902  30.426  36.106  1.00  0.00     0.049 A 
ATOM     59  H   UNL A   1      41.148  31.219  35.237  1.00  0.00     0.167 HD
ATOM     60  C   UNL A   1      42.665  29.205  33.963  1.00  0.00     0.074 A 
ATOM     61  C   UNL A   1      43.099  28.240  32.976  1.00  0.00     0.031 C 
ATOM     62  C   UNL A   1      43.328  29.467  35.118  1.00  0.00     0.037 A 
BRANCH  49  63
ATOM     63  C   UNL A   1      40.659  33.839  38.573  1.00  0.00     0.064 A 
ATOM     64  C   UNL A   1      41.446  34.998  38.655  1.00  0.00     0.173 A 
ATOM     65  C   UNL A   1      39.883  33.494  39.690  1.00  0.00     0.173 A 
ATOM     66  F   UNL A   1      42.217  35.366  37.620  1.00  0.00    -0.203 F 
ATOM     67  C   UNL A   1      41.476  35.763  39.818  1.00  0.00     0.198 A 
ATOM     68  C   UNL A   1      39.890  34.281  40.839  1.00  0.00     0.198 A 
ATOM     69  F   UNL A   1      39.108  32.399  39.664  1.00  0.00    -0.203 F 
ATOM     70  F   UNL A   1      42.275  36.837  39.892  1.00  0.00    -0.200 F 
ATOM     71  C   UNL A   1      40.692  35.409  40.906  1.00  0.00     0.200 A 
ATOM     72  F   UNL A   1      39.119  33.944  41.883  1.00  0.00    -0.200 F 
ATOM     73  F   UNL A   1      40.716  36.151  42.022  1.00  0.00    -0.200 F 
ENDBRANCH  49  63
BRANCH  50  74
ATOM     74  C   UNL A   1      40.047  28.623  30.097  1.00  0.00     0.064 A 
ATOM     75  C   UNL A   1      39.432  27.364  30.038  1.00  0.00     0.173 A 
ATOM     76  C   UNL A   1      40.632  29.116  28.921  1.00  0.00     0.173 A 
ATOM     77  F   UNL A   1      38.885  26.835  31.143  1.00  0.00    -0.203 F 
ATOM     78  C   UNL A   1      39.424  26.620  28.860  1.00  0.00     0.198 A 
ATOM     79  C   UNL A   1      40.594  28.385  27.735  1.00  0.00     0.198 A 
ATOM     80  F   UNL A   1      41.239  30.312  28.922  1.00  0.00    -0.203 F 
ATOM     81  F   UNL A   1      38.878  25.396  28.847  1.00  0.00    -0.200 F 
ATOM     82  C   UNL A   1      39.998  27.134  27.708  1.00  0.00     0.200 A 
ATOM     83  F   UNL A   1      41.141  28.890  26.622  1.00  0.00    -0.200 F 
ATOM     84  F   UNL A   1      39.987  26.419  26.575  1.00  0.00    -0.200 F 
ENDBRANCH  50  74
BRANCH  62  85
ATOM     85  C   UNL A   1      44.576  28.673  35.396  1.00  0.00     0.064 A 
ATOM     86  C   UNL A   1      44.531  27.403  35.992  1.00  0.00     0.173 A 
ATOM     87  C   UNL A   1      45.836  29.183  35.041  1.00  0.00     0.173 A 
ATOM     88  F   UNL A   1      43.356  26.873  36.361  1.00  0.00    -0.203 F 
ATOM     89  C   UNL A   1      45.700  26.693  36.258  1.00  0.00     0.198 A 
ATOM     90  C   UNL A   1      47.000  28.454  35.274  1.00  0.00     0.198 A 
ATOM     91  F   UNL A   1      45.939  30.387  34.459  1.00  0.00    -0.203 F 
ATOM     92  F   UNL A   1      45.634  25.511  36.885  1.00  0.00    -0.200 F 
ATOM     93  C   UNL A   1      46.932  27.215  35.894  1.00  0.00     0.200 A 
ATOM     94  F   UNL A   1      48.187  28.953  34.905  1.00  0.00    -0.200 F 
ATOM     95  F   UNL A   1      48.054  26.530  36.148  1.00  0.00    -0.200 F 
ENDBRANCH  62  85
ENDBRANCH  36  37
ENDBRANCH  29  31
ENDBRANCH  28  29
ENDBRANCH  27  28
ENDBRANCH  26  27
ENDBRANCH  25  26
ENDBRANCH  24  25
ENDBRANCH   1  24
TORSDOF 21
ENDMDL
MODEL 3
REMARK VINA RESULT:     -10.1      5.718     11.282
REMARK SMILES O=CN[C@@H](Cc1cc(Cl)ccc1[N+](=O)[O-])C(=O)OCCOCCOCCOC(=O)c1ccc(-c2c3nc(c(-c4c(F)c(F)c(F)c(F)c4F)c4ccc([nH]4)c(-c4c(F)c(F)c(F)c(F)c4F)c4nc(c(-c5c(F)c(F)c(F)c(F)c5F)c5ccc2[nH]5)C=C4)C=C3)cc1
REMARK SMILES IDX 22 1 21 2 20 3 19 4 18 5 16 6 17 7 4 8 3 9 1 10 2 11 5 13
REMARK SMILES IDX 6 14 7 15 12 16 8 17 11 18 9 19 10 20 13 21 14 22 15 23
REMARK SMILES IDX 23 24 24 25 25 26 26 27 27 28 28 29 29 30 30 31 31 32 92 33
REMARK SMILES IDX 32 34 91 35 33 36 34 37 35 38 85 39 36 40 90 41 84 42 86 43
REMARK SMILES IDX 37 44 89 45 83 46 82 47 38 49 70 50 50 51 69 52 51 53 54 54
REMARK SMILES IDX 68 55 87 56 52 57 53 58 67 60 88 61 55 62 39 63 40 64 48 65
REMARK SMILES IDX 41 66 42 67 46 68 49 69 43 70 44 71 47 72 45 73 71 74 72 75
REMARK SMILES IDX 80 76 73 77 74 78 78 79 81 80 75 81 76 82 79 83 77 84 56 85
REMARK SMILES IDX 57 86 65 87 58 88 59 89 63 90 66 91 60 92 61 93 64 94 62 95
REMARK H PARENT 3 12 86 48 54 59
REMARK Flexibility Score: inf
ROOT
ATOM      1  C   UNL A   1      39.802  22.125  26.425  1.00  0.00     0.188 C 
ENDROOT
BRANCH   1   2
ATOM      2  O   UNL A   1      38.959  23.267  26.514  1.00  0.00    -0.376 OA
BRANCH   2   3
ATOM      3  C   UNL A   1      37.675  23.237  25.906  1.00  0.00     0.202 C 
BRANCH   3   4
ATOM      4  C   UNL A   1      37.387  22.150  24.859  1.00  0.00     0.261 C 
BRANCH   4   5
ATOM      5  O   UNL A   1      35.990  21.888  24.601  1.00  0.00    -0.462 OA
BRANCH   5   6
ATOM      6  C   UNL A   1      35.311  22.823  23.881  1.00  0.00     0.329 C 
ATOM      7  O   UNL A   1      35.645  23.221  22.769  1.00  0.00    -0.250 OA
BRANCH   6   8
ATOM      8  C   UNL A   1      34.141  23.470  24.662  1.00  0.00     0.196 C 
BRANCH   8   9
ATOM      9  N   UNL A   1      33.615  22.692  25.782  1.00  0.00    -0.345 N 
ATOM     10  O   UNL A   1      33.076  22.502  27.981  1.00  0.00    -0.279 OA
ATOM     11  C   UNL A   1      33.680  23.082  27.090  1.00  0.00     0.337 C 
ATOM     12  H   UNL A   1      33.186  21.829  25.581  1.00  0.00     0.164 HD
ENDBRANCH   8   9
BRANCH   8  13
ATOM     13  C   UNL A   1      34.578  24.882  25.112  1.00  0.00     0.079 C 
BRANCH  13  14
ATOM     14  C   UNL A   1      33.470  25.910  24.943  1.00  0.00     0.034 A 
ATOM     15  C   UNL A   1      33.057  26.587  26.114  1.00  0.00     0.031 A 
ATOM     16  C   UNL A   1      32.754  26.167  23.751  1.00  0.00     0.272 A 
ATOM     17  C   UNL A   1      31.932  27.410  26.123  1.00  0.00     0.041 A 
ATOM     18  C   UNL A   1      31.632  27.021  23.767  1.00  0.00     0.087 A 
ATOM     19  Cl  UNL A   1      31.414  28.126  27.598  1.00  0.00    -0.084 Cl
ATOM     20  C   UNL A   1      31.213  27.624  24.955  1.00  0.00     0.027 A 
BRANCH  16  21
ATOM     21  N   UNL A   1      33.125  25.597  22.441  1.00  0.00     0.062 N 
ATOM     22  O   UNL A   1      34.022  26.175  21.810  1.00  0.00    -0.258 OA
ATOM     23  O   UNL A   1      32.534  24.588  22.040  1.00  0.00    -0.258 OA
ENDBRANCH  16  21
ENDBRANCH  13  14
ENDBRANCH   8  13
ENDBRANCH   6   8
ENDBRANCH   5   6
ENDBRANCH   4   5
ENDBRANCH   3   4
ENDBRANCH   2   3
ENDBRANCH   1   2
BRANCH   1  24
ATOM     24  C   UNL A   1      40.874  21.880  27.502  1.00  0.00     0.188 C 
BRANCH  24  25
ATOM     25  O   UNL A   1      41.923  21.023  27.111  1.00  0.00    -0.376 OA
BRANCH  25  26
ATOM     26  C   UNL A   1      41.554  19.716  26.702  1.00  0.00     0.202 C 
BRANCH  26  27
ATOM     27  C   UNL A   1      42.585  18.880  25.919  1.00  0.00     0.261 C 
BRANCH  27  28
ATOM     28  O   UNL A   1      43.049  19.430  24.670  1.00  0.00    -0.460 OA
BRANCH  28  29
ATOM     29  C   UNL A   1      44.387  19.561  24.504  1.00  0.00     0.338 C 
ATOM     30  O   UNL A   1      45.141  18.755  23.997  1.00  0.00    -0.246 OA
BRANCH  29  31
ATOM     31  C   UNL A   1      44.758  20.960  24.844  1.00  0.00     0.060 A 
ATOM     32  C   UNL A   1      45.320  21.227  26.102  1.00  0.00     0.016 A 
ATOM     33  C   UNL A   1      44.567  22.001  23.933  1.00  0.00     0.016 A 
ATOM     34  C   UNL A   1      45.661  22.535  26.460  1.00  0.00     0.010 A 
ATOM     35  C   UNL A   1      44.886  23.316  24.302  1.00  0.00     0.010 A 
ATOM     36  C   UNL A   1      45.406  23.596  25.580  1.00  0.00    -0.014 A 
BRANCH  36  37
ATOM     37  C   UNL A   1      45.509  24.998  26.068  1.00  0.00     0.031 A 
ATOM     38  C   UNL A   1      46.840  25.698  25.979  1.00  0.00     0.074 A 
ATOM     39  C   UNL A   1      44.440  25.663  26.545  1.00  0.00     0.049 A 
ATOM     40  N   UNL A   1      47.171  26.913  26.335  1.00  0.00    -0.248 NA
ATOM     41  C   UNL A   1      47.949  24.915  25.412  1.00  0.00     0.031 C 
ATOM     42  C   UNL A   1      43.090  25.120  26.659  1.00  0.00     0.029 A 
ATOM     43  N   UNL A   1      44.330  26.946  27.026  1.00  0.00    -0.354 N 
ATOM     44  C   UNL A   1      48.523  27.040  26.036  1.00  0.00     0.074 A 
ATOM     45  C   UNL A   1      48.959  25.766  25.507  1.00  0.00     0.031 C 
ATOM     46  C   UNL A   1      42.284  26.062  27.182  1.00  0.00     0.029 A 
ATOM     47  C   UNL A   1      43.069  27.265  27.466  1.00  0.00     0.049 A 
ATOM     48  H   UNL A   1      45.085  27.578  27.053  1.00  0.00     0.167 HD
ATOM     49  C   UNL A   1      49.325  28.122  26.177  1.00  0.00     0.037 A 
ATOM     50  C   UNL A   1      42.605  28.392  28.044  1.00  0.00     0.037 A 
ATOM     51  C   UNL A   1      48.898  29.391  26.708  1.00  0.00     0.049 A 
ATOM     52  C   UNL A   1      43.536  29.560  28.257  1.00  0.00     0.074 A 
ATOM     53  C   UNL A   1      49.635  30.551  26.868  1.00  0.00     0.029 A 
ATOM     54  N   UNL A   1      47.622  29.661  27.177  1.00  0.00    -0.354 N 
ATOM     55  N   UNL A   1      44.801  29.683  27.935  1.00  0.00    -0.248 NA
ATOM     56  C   UNL A   1      42.969  30.751  28.906  1.00  0.00     0.031 C 
ATOM     57  C   UNL A   1      48.823  31.504  27.493  1.00  0.00     0.029 A 
ATOM     58  C   UNL A   1      47.559  30.961  27.657  1.00  0.00     0.049 A 
ATOM     59  H   UNL A   1      46.870  29.025  27.170  1.00  0.00     0.167 HD
ATOM     60  C   UNL A   1      45.170  30.969  28.314  1.00  0.00     0.074 A 
ATOM     61  C   UNL A   1      43.990  31.594  28.871  1.00  0.00     0.031 C 
ATOM     62  C   UNL A   1      46.379  31.578  28.210  1.00  0.00     0.037 A 
BRANCH  49  63
ATOM     63  C   UNL A   1      50.767  27.972  25.775  1.00  0.00     0.064 A 
ATOM     64  C   UNL A   1      51.177  28.083  24.438  1.00  0.00     0.173 A 
ATOM     65  C   UNL A   1      51.753  27.747  26.747  1.00  0.00     0.173 A 
ATOM     66  F   UNL A   1      50.273  28.285  23.468  1.00  0.00    -0.203 F 
ATOM     67  C   UNL A   1      52.518  27.945  24.086  1.00  0.00     0.198 A 
ATOM     68  C   UNL A   1      53.096  27.643  26.395  1.00  0.00     0.198 A 
ATOM     69  F   UNL A   1      51.417  27.638  28.041  1.00  0.00    -0.203 F 
ATOM     70  F   UNL A   1      52.880  28.003  22.797  1.00  0.00    -0.200 F 
ATOM     71  C   UNL A   1      53.477  27.733  25.065  1.00  0.00     0.200 A 
ATOM     72  F   UNL A   1      54.023  27.455  27.346  1.00  0.00    -0.200 F 
ATOM     73  F   UNL A   1      54.768  27.609  24.726  1.00  0.00    -0.200 F 
ENDBRANCH  49  63
BRANCH  50  74
ATOM     74  C   UNL A   1      41.182  28.478  28.477  1.00  0.00     0.064 A 
ATOM     75  C   UNL A   1      40.786  28.068  29.758  1.00  0.00     0.173 A 
ATOM     76  C   UNL A   1      40.184  28.940  27.606  1.00  0.00     0.173 A 
ATOM     77  F   UNL A   1      41.697  27.589  30.619  1.00  0.00    -0.203 F 
ATOM     78  C   UNL A   1      39.447  28.097  30.143  1.00  0.00     0.198 A 
ATOM     79  C   UNL A   1      38.850  28.999  28.003  1.00  0.00     0.198 A 
ATOM     80  F   UNL A   1      40.506  29.337  26.366  1.00  0.00    -0.203 F 
ATOM     81  F   UNL A   1      39.090  27.647  31.355  1.00  0.00    -0.200 F 
ATOM     82  C   UNL A   1      38.481  28.569  29.268  1.00  0.00     0.200 A 
ATOM     83  F   UNL A   1      37.922  29.466  27.157  1.00  0.00    -0.200 F 
ATOM     84  F   UNL A   1      37.194  28.600  29.640  1.00  0.00    -0.200 F 
ENDBRANCH  50  74
BRANCH  62  85
ATOM     85  C   UNL A   1      46.479  33.005  28.675  1.00  0.00     0.064 A 
ATOM     86  C   UNL A   1      46.794  33.333  30.003  1.00  0.00     0.173 A 
ATOM     87  C   UNL A   1      46.278  34.062  27.773  1.00  0.00     0.173 A 
ATOM     88  F   UNL A   1      46.986  32.363  30.910  1.00  0.00    -0.203 F 
ATOM     89  C   UNL A   1      46.864  34.661  30.417  1.00  0.00     0.198 A 
ATOM     90  C   UNL A   1      46.385  35.389  28.182  1.00  0.00     0.198 A 
ATOM     91  F   UNL A   1      45.985  33.809  26.488  1.00  0.00    -0.203 F 
ATOM     92  F   UNL A   1      47.104  34.947  31.705  1.00  0.00    -0.200 F 
ATOM     93  C   UNL A   1      46.665  35.688  29.507  1.00  0.00     0.200 A 
ATOM     94  F   UNL A   1      46.211  36.379  27.295  1.00  0.00    -0.200 F 
ATOM     95  F   UNL A   1      46.735  36.964  29.907  1.00  0.00    -0.200 F 
ENDBRANCH  62  85
ENDBRANCH  36  37
ENDBRANCH  29  31
ENDBRANCH  28  29
ENDBRANCH  27  28
ENDBRANCH  26  27
ENDBRANCH  25  26
ENDBRANCH  24  25
ENDBRANCH   1  24
TORSDOF 21
ENDMDL
