MODEL 1
REMARK VINA RESULT:     -13.7      0.000      0.000
REMARK SMILES Cc1c(NC(=O)[C@@H]2CC=CC[C@@H]2C(=O)OCCOCCOCCOC(=O)c2ccc(-c3c4nc(c(-c5c(F)c(F)c(F)c(F)c5F)c5ccc([nH]5)c(-c5c(F)c(F)c(F)c(F)c5F)c5nc(c(-c6c(F)c(F)c(F)c(F)c6F)c6ccc3[nH]6)C=C5)C=C4)cc2)cccc1C(=O)N1CCOCC1
REMARK SMILES IDX 19 1 18 2 17 3 16 4 15 5 13 6 14 7 12 8 7 9 8 10 9 11 11 12
REMARK SMILES IDX 10 13 5 14 4 15 6 17 3 18 1 19 2 20 93 21 90 22 92 23 91 24
REMARK SMILES IDX 94 25 95 26 96 27 97 28 101 29 98 30 100 31 99 32 20 33
REMARK SMILES IDX 21 34 22 35 23 36 24 37 25 38 26 39 27 40 28 41 89 42 29 43
REMARK SMILES IDX 88 44 30 45 31 46 32 47 82 48 33 49 87 50 81 51 83 52 34 53
REMARK SMILES IDX 86 54 80 55 79 56 35 58 67 59 47 60 66 61 48 62 51 63 65 64
REMARK SMILES IDX 84 65 49 66 50 67 64 69 85 70 52 71 36 72 37 73 45 74 38 75
REMARK SMILES IDX 39 76 43 77 46 78 40 79 41 80 44 81 42 82 68 83 69 84 77 85
REMARK SMILES IDX 70 86 71 87 75 88 78 89 72 90 73 91 76 92 74 93 53 94 54 95
REMARK SMILES IDX 62 96 55 97 56 98 60 99 63 100 57 101 58 102 61 103 59 104
REMARK H PARENT 4 16 83 57 51 68
REMARK Flexibility Score: inf
ROOT
ATOM      1  C   UNL A   1      41.398  19.886  26.789  1.00  0.00     0.188 C 
ENDROOT
BRANCH   1   2
ATOM      2  O   UNL A   1      40.401  20.404  25.884  1.00  0.00    -0.376 OA
BRANCH   2   3
ATOM      3  C   UNL A   1      39.579  21.562  26.141  1.00  0.00     0.202 C 
BRANCH   3   4
ATOM      4  C   UNL A   1      37.937  21.825  25.805  1.00  0.00     0.261 C 
BRANCH   4   5
ATOM      5  O   UNL A   1      36.869  21.789  24.315  1.00  0.00    -0.463 OA
BRANCH   5   6
ATOM      6  C   UNL A   1      35.753  22.483  23.614  1.00  0.00     0.310 C 
ATOM      7  O   UNL A   1      35.759  23.003  22.486  1.00  0.00    -0.252 OA
BRANCH   6   8
ATOM      8  C   UNL A   1      34.330  22.591  24.115  1.00  0.00     0.116 C 
ATOM      9  C   UNL A   1      34.082  23.244  25.427  1.00  0.00     0.097 C 
ATOM     10  C   UNL A   1      34.309  22.309  26.581  1.00  0.00     0.041 C 
ATOM     11  C   UNL A   1      33.462  21.071  26.365  1.00  0.00    -0.030 C 
ATOM     12  C   UNL A   1      33.416  21.371  23.882  1.00  0.00     0.043 C 
ATOM     13  C   UNL A   1      33.041  20.668  25.154  1.00  0.00    -0.030 C 
BRANCH   9  14
ATOM     14  C   UNL A   1      34.836  24.527  25.298  1.00  0.00     0.228 C 
ATOM     15  N   UNL A   1      34.212  25.399  24.402  1.00  0.00    -0.326 N 
ATOM     16  H   UNL A   1      34.479  25.491  23.458  1.00  0.00     0.169 HD
ATOM     17  O   UNL A   1      35.960  24.721  25.744  1.00  0.00    -0.274 OA
BRANCH  15  18
ATOM     18  C   UNL A   1      33.160  26.137  24.985  1.00  0.00     0.044 A 
ATOM     19  C   UNL A   1      31.797  25.146  23.149  1.00  0.00     0.047 C 
ATOM     20  C   UNL A   1      31.930  26.088  24.317  1.00  0.00    -0.015 A 
ATOM     21  C   UNL A   1      30.948  27.012  24.695  1.00  0.00     0.045 A 
ATOM     22  C   UNL A   1      33.423  27.087  25.979  1.00  0.00     0.026 A 
ATOM     23  C   UNL A   1      31.290  28.080  25.549  1.00  0.00     0.014 A 
ATOM     24  C   UNL A   1      32.523  28.119  26.190  1.00  0.00     0.003 A 
BRANCH  21  25
ATOM     25  C   UNL A   1      29.604  27.045  24.074  1.00  0.00     0.254 C 
ATOM     26  O   UNL A   1      28.778  26.224  24.469  1.00  0.00    -0.269 OA
ATOM     27  N   UNL A   1      29.291  28.032  23.148  1.00  0.00    -0.334 N 
ATOM     28  C   UNL A   1      30.189  28.672  22.168  1.00  0.00     0.148 C 
ATOM     29  C   UNL A   1      27.888  28.399  23.012  1.00  0.00     0.148 C 
ATOM     30  C   UNL A   1      29.886  30.176  21.980  1.00  0.00     0.181 C 
ATOM     31  C   UNL A   1      27.757  29.920  22.977  1.00  0.00     0.181 C 
ATOM     32  O   UNL A   1      28.482  30.446  21.854  1.00  0.00    -0.378 OA
ENDBRANCH  21  25
ENDBRANCH  15  18
ENDBRANCH   9  14
ENDBRANCH   6   8
ENDBRANCH   5   6
ENDBRANCH   4   5
ENDBRANCH   3   4
ENDBRANCH   2   3
ENDBRANCH   1   2
BRANCH   1  33
ATOM     33  C   UNL A   1      42.335  18.769  26.373  1.00  0.00     0.188 C 
BRANCH  33  34
ATOM     34  O   UNL A   1      42.787  19.056  25.076  1.00  0.00    -0.376 OA
BRANCH  34  35
ATOM     35  C   UNL A   1      44.166  19.202  24.867  1.00  0.00     0.202 C 
BRANCH  35  36
ATOM     36  C   UNL A   1      44.622  20.647  25.089  1.00  0.00     0.261 C 
BRANCH  36  37
ATOM     37  O   UNL A   1      43.581  21.639  24.834  1.00  0.00    -0.460 OA
BRANCH  37  38
ATOM     38  C   UNL A   1      43.923  22.962  24.651  1.00  0.00     0.338 C 
ATOM     39  O   UNL A   1      44.803  23.334  23.877  1.00  0.00    -0.246 OA
BRANCH  38  40
ATOM     40  C   UNL A   1      43.061  23.885  25.445  1.00  0.00     0.060 A 
ATOM     41  C   UNL A   1      42.352  25.041  25.072  1.00  0.00     0.016 A 
ATOM     42  C   UNL A   1      43.085  23.637  26.762  1.00  0.00     0.016 A 
ATOM     43  C   UNL A   1      41.946  26.076  26.042  1.00  0.00     0.010 A 
ATOM     44  C   UNL A   1      42.896  24.720  27.593  1.00  0.00     0.010 A 
ATOM     45  C   UNL A   1      42.334  26.043  27.383  1.00  0.00    -0.014 A 
BRANCH  45  46
ATOM     46  C   UNL A   1      42.087  27.340  28.592  1.00  0.00     0.031 A 
ATOM     47  C   UNL A   1      40.698  28.480  28.868  1.00  0.00     0.074 A 
ATOM     48  C   UNL A   1      43.126  27.576  29.411  1.00  0.00     0.049 A 
ATOM     49  N   UNL A   1      40.750  29.798  28.794  1.00  0.00    -0.248 NA
ATOM     50  C   UNL A   1      39.182  28.178  29.008  1.00  0.00     0.031 C 
ATOM     51  C   UNL A   1      43.185  28.420  30.596  1.00  0.00     0.029 A 
ATOM     52  N   UNL A   1      44.417  27.049  29.307  1.00  0.00    -0.354 N 
ATOM     53  C   UNL A   1      39.443  30.308  29.014  1.00  0.00     0.074 A 
ATOM     54  C   UNL A   1      38.515  29.284  28.764  1.00  0.00     0.031 C 
ATOM     55  C   UNL A   1      44.481  28.611  30.910  1.00  0.00     0.029 A 
ATOM     56  C   UNL A   1      45.273  28.015  29.841  1.00  0.00     0.049 A 
ATOM     57  H   UNL A   1      44.670  26.175  28.933  1.00  0.00     0.167 HD
ATOM     58  C   UNL A   1      39.150  31.338  29.861  1.00  0.00     0.037 A 
ATOM     59  C   UNL A   1      46.143  28.653  29.011  1.00  0.00     0.037 A 
ATOM     60  C   UNL A   1      40.381  31.744  30.467  1.00  0.00     0.049 A 
ATOM     61  C   UNL A   1      45.841  30.129  28.994  1.00  0.00     0.074 A 
ATOM     62  C   UNL A   1      41.006  31.332  31.630  1.00  0.00     0.029 A 
ATOM     63  N   UNL A   1      41.359  32.238  29.631  1.00  0.00    -0.354 N 
ATOM     64  N   UNL A   1      44.652  30.638  29.188  1.00  0.00    -0.248 NA
ATOM     65  C   UNL A   1      46.878  31.143  28.876  1.00  0.00     0.031 C 
ATOM     66  C   UNL A   1      42.388  31.606  31.489  1.00  0.00     0.029 A 
ATOM     67  C   UNL A   1      42.584  32.182  30.246  1.00  0.00     0.049 A 
ATOM     68  H   UNL A   1      41.202  32.580  28.721  1.00  0.00     0.167 HD
ATOM     69  C   UNL A   1      44.759  32.000  29.294  1.00  0.00     0.074 A 
ATOM     70  C   UNL A   1      46.167  32.266  29.078  1.00  0.00     0.031 C 
ATOM     71  C   UNL A   1      43.705  32.812  29.595  1.00  0.00     0.037 A 
BRANCH  58  72
ATOM     72  C   UNL A   1      37.748  31.568  30.426  1.00  0.00     0.064 A 
ATOM     73  C   UNL A   1      36.719  32.120  29.636  1.00  0.00     0.173 A 
ATOM     74  C   UNL A   1      37.391  31.328  31.775  1.00  0.00     0.173 A 
ATOM     75  F   UNL A   1      36.891  32.347  28.330  1.00  0.00    -0.203 F 
ATOM     76  C   UNL A   1      35.473  32.483  30.164  1.00  0.00     0.198 A 
ATOM     77  C   UNL A   1      36.159  31.733  32.313  1.00  0.00     0.198 A 
ATOM     78  F   UNL A   1      38.252  30.732  32.619  1.00  0.00    -0.203 F 
ATOM     79  F   UNL A   1      34.544  33.022  29.361  1.00  0.00    -0.200 F 
ATOM     80  C   UNL A   1      35.201  32.316  31.507  1.00  0.00     0.200 A 
ATOM     81  F   UNL A   1      35.918  31.579  33.624  1.00  0.00    -0.200 F 
ATOM     82  F   UNL A   1      34.026  32.709  32.017  1.00  0.00    -0.200 F 
ENDBRANCH  58  72
BRANCH  59  83
ATOM     83  C   UNL A   1      46.644  27.802  27.879  1.00  0.00     0.064 A 
ATOM     84  C   UNL A   1      47.714  26.908  28.143  1.00  0.00     0.173 A 
ATOM     85  C   UNL A   1      45.943  27.594  26.684  1.00  0.00     0.173 A 
ATOM     86  F   UNL A   1      48.447  27.051  29.261  1.00  0.00    -0.203 F 
ATOM     87  C   UNL A   1      47.971  25.795  27.343  1.00  0.00     0.198 A 
ATOM     88  C   UNL A   1      46.234  26.496  25.855  1.00  0.00     0.198 A 
ATOM     89  F   UNL A   1      44.891  28.363  26.371  1.00  0.00    -0.203 F 
ATOM     90  F   UNL A   1      48.877  24.884  27.730  1.00  0.00    -0.200 F 
ATOM     91  C   UNL A   1      47.224  25.584  26.203  1.00  0.00     0.200 A 
ATOM     92  F   UNL A   1      45.449  26.229  24.800  1.00  0.00    -0.200 F 
ATOM     93  F   UNL A   1      47.394  24.460  25.490  1.00  0.00    -0.200 F 
ENDBRANCH  59  83
BRANCH  71  94
ATOM     94  C   UNL A   1      43.605  34.304  29.365  1.00  0.00     0.064 A 
ATOM     95  C   UNL A   1      43.765  35.253  30.381  1.00  0.00     0.173 A 
ATOM     96  C   UNL A   1      43.539  34.839  28.045  1.00  0.00     0.173 A 
ATOM     97  F   UNL A   1      43.980  34.894  31.652  1.00  0.00    -0.203 F 
ATOM     98  C   UNL A   1      43.777  36.623  30.113  1.00  0.00     0.198 A 
ATOM     99  C   UNL A   1      43.661  36.196  27.776  1.00  0.00     0.198 A 
ATOM    100  F   UNL A   1      43.391  34.063  26.960  1.00  0.00    -0.203 F 
ATOM    101  F   UNL A   1      43.853  37.489  31.132  1.00  0.00    -0.200 F 
ATOM    102  C   UNL A   1      43.748  37.093  28.814  1.00  0.00     0.200 A 
ATOM    103  F   UNL A   1      43.715  36.620  26.505  1.00  0.00    -0.200 F 
ATOM    104  F   UNL A   1      43.820  38.405  28.564  1.00  0.00    -0.200 F 
ENDBRANCH  71  94
ENDBRANCH  45  46
ENDBRANCH  38  40
ENDBRANCH  37  38
ENDBRANCH  36  37
ENDBRANCH  35  36
ENDBRANCH  34  35
ENDBRANCH  33  34
ENDBRANCH   1  33
TORSDOF 20
ENDMDL
MODEL 2
REMARK VINA RESULT:     -13.1      4.132      9.589
REMARK SMILES Cc1c(NC(=O)[C@@H]2CC=CC[C@@H]2C(=O)OCCOCCOCCOC(=O)c2ccc(-c3c4nc(c(-c5c(F)c(F)c(F)c(F)c5F)c5ccc([nH]5)c(-c5c(F)c(F)c(F)c(F)c5F)c5nc(c(-c6c(F)c(F)c(F)c(F)c6F)c6ccc3[nH]6)C=C5)C=C4)cc2)cccc1C(=O)N1CCOCC1
REMARK SMILES IDX 19 1 18 2 17 3 16 4 15 5 13 6 14 7 12 8 7 9 8 10 9 11 11 12
REMARK SMILES IDX 10 13 5 14 4 15 6 17 3 18 1 19 2 20 93 21 90 22 92 23 91 24
REMARK SMILES IDX 94 25 95 26 96 27 97 28 101 29 98 30 100 31 99 32 20 33
REMARK SMILES IDX 21 34 22 35 23 36 24 37 25 38 26 39 27 40 28 41 89 42 29 43
REMARK SMILES IDX 88 44 30 45 31 46 32 47 82 48 33 49 87 50 81 51 83 52 34 53
REMARK SMILES IDX 86 54 80 55 79 56 35 58 67 59 47 60 66 61 48 62 51 63 65 64
REMARK SMILES IDX 84 65 49 66 50 67 64 69 85 70 52 71 36 72 37 73 45 74 38 75
REMARK SMILES IDX 39 76 43 77 46 78 40 79 41 80 44 81 42 82 68 83 69 84 77 85
REMARK SMILES IDX 70 86 71 87 75 88 78 89 72 90 73 91 76 92 74 93 53 94 54 95
REMARK SMILES IDX 62 96 55 97 56 98 60 99 63 100 57 101 58 102 61 103 59 104
REMARK H PARENT 4 16 83 57 51 68
REMARK Flexibility Score: inf
ROOT
ATOM      1  C   UNL A   1      34.383  33.056  28.845  1.00  0.00     0.188 C 
ENDROOT
BRANCH   1   2
ATOM      2  O   UNL A   1      34.912  32.102  27.902  1.00  0.00    -0.376 OA
BRANCH   2   3
ATOM      3  C   UNL A   1      34.177  30.984  27.363  1.00  0.00     0.202 C 
BRANCH   3   4
ATOM      4  C   UNL A   1      32.521  30.832  27.024  1.00  0.00     0.261 C 
BRANCH   4   5
ATOM      5  O   UNL A   1      31.365  29.456  26.664  1.00  0.00    -0.463 OA
BRANCH   5   6
ATOM      6  C   UNL A   1      31.274  27.988  26.428  1.00  0.00     0.310 C 
ATOM      7  O   UNL A   1      30.970  27.096  27.238  1.00  0.00    -0.252 OA
BRANCH   6   8
ATOM      8  C   UNL A   1      31.434  27.299  25.091  1.00  0.00     0.116 C 
ATOM      9  C   UNL A   1      32.791  27.215  24.488  1.00  0.00     0.097 C 
ATOM     10  C   UNL A   1      33.173  28.477  23.768  1.00  0.00     0.041 C 
ATOM     11  C   UNL A   1      32.092  28.794  22.755  1.00  0.00    -0.030 C 
ATOM     12  C   UNL A   1      30.337  27.559  24.039  1.00  0.00     0.043 C 
ATOM     13  C   UNL A   1      30.825  28.358  22.867  1.00  0.00    -0.030 C 
BRANCH   9  14
ATOM     14  C   UNL A   1      33.612  26.674  25.612  1.00  0.00     0.228 C 
ATOM     15  N   UNL A   1      33.242  25.365  25.932  1.00  0.00    -0.326 N 
ATOM     16  H   UNL A   1      32.625  25.139  26.666  1.00  0.00     0.169 HD
ATOM     17  O   UNL A   1      34.363  27.343  26.310  1.00  0.00    -0.274 OA
BRANCH  15  18
ATOM     18  C   UNL A   1      33.841  24.397  25.097  1.00  0.00     0.044 A 
ATOM     19  C   UNL A   1      31.488  23.720  24.633  1.00  0.00     0.047 C 
ATOM     20  C   UNL A   1      32.969  23.491  24.482  1.00  0.00    -0.015 A 
ATOM     21  C   UNL A   1      33.530  22.358  23.878  1.00  0.00     0.045 A 
ATOM     22  C   UNL A   1      35.223  24.180  25.139  1.00  0.00     0.026 A 
ATOM     23  C   UNL A   1      34.888  22.054  24.096  1.00  0.00     0.014 A 
ATOM     24  C   UNL A   1      35.734  22.961  24.725  1.00  0.00     0.003 A 
BRANCH  21  25
ATOM     25  C   UNL A   1      32.711  21.340  23.180  1.00  0.00     0.254 C 
ATOM     26  O   UNL A   1      32.335  21.601  22.038  1.00  0.00    -0.269 OA
ATOM     27  N   UNL A   1      32.468  20.113  23.782  1.00  0.00    -0.334 N 
ATOM     28  C   UNL A   1      32.303  19.828  25.221  1.00  0.00     0.148 C 
ATOM     29  C   UNL A   1      32.202  18.980  22.907  1.00  0.00     0.148 C 
ATOM     30  C   UNL A   1      32.932  18.476  25.633  1.00  0.00     0.181 C 
ATOM     31  C   UNL A   1      33.005  17.769  23.378  1.00  0.00     0.181 C 
ATOM     32  O   UNL A   1      32.619  17.418  24.716  1.00  0.00    -0.378 OA
ENDBRANCH  21  25
ENDBRANCH  15  18
ENDBRANCH   9  14
ENDBRANCH   6   8
ENDBRANCH   5   6
ENDBRANCH   4   5
ENDBRANCH   3   4
ENDBRANCH   2   3
ENDBRANCH   1   2
BRANCH   1  33
ATOM     33  C   UNL A   1      35.094  33.350  30.152  1.00  0.00     0.188 C 
BRANCH  33  34
ATOM     34  O   UNL A   1      34.963  32.218  30.970  1.00  0.00    -0.376 OA
BRANCH  34  35
ATOM     35  C   UNL A   1      36.120  31.504  31.313  1.00  0.00     0.202 C 
BRANCH  35  36
ATOM     36  C   UNL A   1      36.256  30.219  30.490  1.00  0.00     0.261 C 
BRANCH  36  37
ATOM     37  O   UNL A   1      37.582  30.030  29.907  1.00  0.00    -0.460 OA
BRANCH  37  38
ATOM     38  C   UNL A   1      37.726  29.289  28.754  1.00  0.00     0.338 C 
ATOM     39  O   UNL A   1      36.894  29.274  27.849  1.00  0.00    -0.246 OA
BRANCH  38  40
ATOM     40  C   UNL A   1      39.029  28.565  28.706  1.00  0.00     0.060 A 
ATOM     41  C   UNL A   1      39.685  27.771  29.665  1.00  0.00     0.016 A 
ATOM     42  C   UNL A   1      39.750  28.837  27.609  1.00  0.00     0.016 A 
ATOM     43  C   UNL A   1      41.140  27.526  29.638  1.00  0.00     0.010 A 
ATOM     44  C   UNL A   1      41.121  28.778  27.746  1.00  0.00     0.010 A 
ATOM     45  C   UNL A   1      41.991  28.154  28.728  1.00  0.00    -0.014 A 
BRANCH  45  46
ATOM     46  C   UNL A   1      43.781  28.103  28.738  1.00  0.00     0.031 A 
ATOM     47  C   UNL A   1      45.024  29.410  28.507  1.00  0.00     0.074 A 
ATOM     48  C   UNL A   1      44.327  26.883  28.873  1.00  0.00     0.049 A 
ATOM     49  N   UNL A   1      45.929  29.459  27.546  1.00  0.00    -0.248 NA
ATOM     50  C   UNL A   1      45.144  30.795  29.196  1.00  0.00     0.031 C 
ATOM     51  C   UNL A   1      45.720  26.522  29.096  1.00  0.00     0.029 A 
ATOM     52  N   UNL A   1      43.662  25.654  28.830  1.00  0.00    -0.354 N 
ATOM     53  C   UNL A   1      46.660  30.668  27.684  1.00  0.00     0.074 A 
ATOM     54  C   UNL A   1      45.899  31.567  28.447  1.00  0.00     0.031 C 
ATOM     55  C   UNL A   1      45.855  25.204  28.850  1.00  0.00     0.029 A 
ATOM     56  C   UNL A   1      44.582  24.735  28.320  1.00  0.00     0.049 A 
ATOM     57  H   UNL A   1      42.734  25.473  29.104  1.00  0.00     0.167 HD
ATOM     58  C   UNL A   1      48.022  30.754  27.639  1.00  0.00     0.037 A 
ATOM     59  C   UNL A   1      44.355  24.190  27.093  1.00  0.00     0.037 A 
ATOM     60  C   UNL A   1      48.520  29.423  27.463  1.00  0.00     0.049 A 
ATOM     61  C   UNL A   1      45.470  24.568  26.154  1.00  0.00     0.074 A 
ATOM     62  C   UNL A   1      48.888  28.457  28.382  1.00  0.00     0.029 A 
ATOM     63  N   UNL A   1      48.165  28.770  26.303  1.00  0.00    -0.354 N 
ATOM     64  N   UNL A   1      46.165  25.672  26.245  1.00  0.00    -0.248 NA
ATOM     65  C   UNL A   1      45.963  23.674  25.117  1.00  0.00     0.031 C 
ATOM     66  C   UNL A   1      48.768  27.199  27.744  1.00  0.00     0.029 A 
ATOM     67  C   UNL A   1      48.333  27.416  26.449  1.00  0.00     0.049 A 
ATOM     68  H   UNL A   1      47.838  29.211  25.486  1.00  0.00     0.167 HD
ATOM     69  C   UNL A   1      47.212  25.617  25.363  1.00  0.00     0.074 A 
ATOM     70  C   UNL A   1      47.033  24.355  24.673  1.00  0.00     0.031 C 
ATOM     71  C   UNL A   1      48.178  26.578  25.287  1.00  0.00     0.037 A 
BRANCH  58  72
ATOM     72  C   UNL A   1      48.795  31.934  28.229  1.00  0.00     0.064 A 
ATOM     73  C   UNL A   1      49.180  33.032  27.433  1.00  0.00     0.173 A 
ATOM     74  C   UNL A   1      49.246  31.991  29.570  1.00  0.00     0.173 A 
ATOM     75  F   UNL A   1      48.778  33.144  26.162  1.00  0.00    -0.203 F 
ATOM     76  C   UNL A   1      50.016  34.052  27.905  1.00  0.00     0.198 A 
ATOM     77  C   UNL A   1      50.120  32.990  30.029  1.00  0.00     0.198 A 
ATOM     78  F   UNL A   1      48.886  31.049  30.458  1.00  0.00    -0.203 F 
ATOM     79  F   UNL A   1      50.360  35.059  27.089  1.00  0.00    -0.200 F 
ATOM     80  C   UNL A   1      50.509  34.019  29.194  1.00  0.00     0.200 A 
ATOM     81  F   UNL A   1      50.603  32.933  31.280  1.00  0.00    -0.200 F 
ATOM     82  F   UNL A   1      51.346  34.972  29.626  1.00  0.00    -0.200 F 
ENDBRANCH  58  72
BRANCH  59  83
ATOM     83  C   UNL A   1      42.900  24.001  26.767  1.00  0.00     0.064 A 
ATOM     84  C   UNL A   1      42.276  22.799  27.190  1.00  0.00     0.173 A 
ATOM     85  C   UNL A   1      42.047  25.035  26.364  1.00  0.00     0.173 A 
ATOM     86  F   UNL A   1      43.026  21.754  27.577  1.00  0.00    -0.203 F 
ATOM     87  C   UNL A   1      40.893  22.691  27.342  1.00  0.00     0.198 A 
ATOM     88  C   UNL A   1      40.650  24.907  26.474  1.00  0.00     0.198 A 
ATOM     89  F   UNL A   1      42.545  26.221  25.988  1.00  0.00    -0.203 F 
ATOM     90  F   UNL A   1      40.363  21.597  27.911  1.00  0.00    -0.200 F 
ATOM     91  C   UNL A   1      40.081  23.749  26.991  1.00  0.00     0.200 A 
ATOM     92  F   UNL A   1      39.860  25.964  26.230  1.00  0.00    -0.200 F 
ATOM     93  F   UNL A   1      38.762  23.690  27.235  1.00  0.00    -0.200 F 
ENDBRANCH  59  83
BRANCH  71  94
ATOM     94  C   UNL A   1      49.132  26.828  24.139  1.00  0.00     0.064 A 
ATOM     95  C   UNL A   1      48.754  27.452  22.944  1.00  0.00     0.173 A 
ATOM     96  C   UNL A   1      50.533  26.620  24.294  1.00  0.00     0.173 A 
ATOM     97  F   UNL A   1      47.492  27.835  22.720  1.00  0.00    -0.203 F 
ATOM     98  C   UNL A   1      49.684  27.767  21.953  1.00  0.00     0.198 A 
ATOM     99  C   UNL A   1      51.465  27.036  23.350  1.00  0.00     0.198 A 
ATOM    100  F   UNL A   1      51.060  26.039  25.383  1.00  0.00    -0.203 F 
ATOM    101  F   UNL A   1      49.256  28.289  20.796  1.00  0.00    -0.200 F 
ATOM    102  C   UNL A   1      51.037  27.581  22.163  1.00  0.00     0.200 A 
ATOM    103  F   UNL A   1      52.774  26.921  23.613  1.00  0.00    -0.200 F 
ATOM    104  F   UNL A   1      51.926  27.941  21.230  1.00  0.00    -0.200 F 
ENDBRANCH  71  94
ENDBRANCH  45  46
ENDBRANCH  38  40
ENDBRANCH  37  38
ENDBRANCH  36  37
ENDBRANCH  35  36
ENDBRANCH  34  35
ENDBRANCH  33  34
ENDBRANCH   1  33
TORSDOF 20
ENDMDL
MODEL 3
REMARK VINA RESULT:     -12.8      1.705      4.549
REMARK SMILES Cc1c(NC(=O)[C@@H]2CC=CC[C@@H]2C(=O)OCCOCCOCCOC(=O)c2ccc(-c3c4nc(c(-c5c(F)c(F)c(F)c(F)c5F)c5ccc([nH]5)c(-c5c(F)c(F)c(F)c(F)c5F)c5nc(c(-c6c(F)c(F)c(F)c(F)c6F)c6ccc3[nH]6)C=C5)C=C4)cc2)cccc1C(=O)N1CCOCC1
REMARK SMILES IDX 19 1 18 2 17 3 16 4 15 5 13 6 14 7 12 8 7 9 8 10 9 11 11 12
REMARK SMILES IDX 10 13 5 14 4 15 6 17 3 18 1 19 2 20 93 21 90 22 92 23 91 24
REMARK SMILES IDX 94 25 95 26 96 27 97 28 101 29 98 30 100 31 99 32 20 33
REMARK SMILES IDX 21 34 22 35 23 36 24 37 25 38 26 39 27 40 28 41 89 42 29 43
REMARK SMILES IDX 88 44 30 45 31 46 32 47 82 48 33 49 87 50 81 51 83 52 34 53
REMARK SMILES IDX 86 54 80 55 79 56 35 58 67 59 47 60 66 61 48 62 51 63 65 64
REMARK SMILES IDX 84 65 49 66 50 67 64 69 85 70 52 71 36 72 37 73 45 74 38 75
REMARK SMILES IDX 39 76 43 77 46 78 40 79 41 80 44 81 42 82 68 83 69 84 77 85
REMARK SMILES IDX 70 86 71 87 75 88 78 89 72 90 73 91 76 92 74 93 53 94 54 95
REMARK SMILES IDX 62 96 55 97 56 98 60 99 63 100 57 101 58 102 61 103 59 104
REMARK H PARENT 4 16 83 57 51 68
REMARK Flexibility Score: inf
ROOT
ATOM      1  C   UNL A   1      39.106  22.572  26.035  1.00  0.00     0.188 C 
ENDROOT
BRANCH   1   2
ATOM      2  O   UNL A   1      37.721  22.584  25.632  1.00  0.00    -0.376 OA
BRANCH   2   3
ATOM      3  C   UNL A   1      37.076  23.671  24.938  1.00  0.00     0.202 C 
BRANCH   3   4
ATOM      4  C   UNL A   1      35.442  24.129  24.914  1.00  0.00     0.261 C 
BRANCH   4   5
ATOM      5  O   UNL A   1      34.384  25.304  25.841  1.00  0.00    -0.463 OA
BRANCH   5   6
ATOM      6  C   UNL A   1      33.121  26.093  25.786  1.00  0.00     0.310 C 
ATOM      7  O   UNL A   1      32.550  26.696  26.709  1.00  0.00    -0.252 OA
BRANCH   6   8
ATOM      8  C   UNL A   1      32.333  26.406  24.533  1.00  0.00     0.116 C 
ATOM      9  C   UNL A   1      31.571  25.312  23.876  1.00  0.00     0.097 C 
ATOM     10  C   UNL A   1      32.440  24.463  22.993  1.00  0.00     0.041 C 
ATOM     11  C   UNL A   1      33.148  25.369  22.006  1.00  0.00    -0.030 C 
ATOM     12  C   UNL A   1      32.995  27.358  23.515  1.00  0.00     0.043 C 
ATOM     13  C   UNL A   1      33.372  26.675  22.233  1.00  0.00    -0.030 C 
BRANCH   9  14
ATOM     14  C   UNL A   1      30.799  24.727  25.012  1.00  0.00     0.228 C 
ATOM     15  N   UNL A   1      30.845  23.330  24.997  1.00  0.00    -0.326 N 
ATOM     16  H   UNL A   1      30.134  22.768  24.613  1.00  0.00     0.169 HD
ATOM     17  O   UNL A   1      30.047  25.361  25.742  1.00  0.00    -0.274 OA
BRANCH  15  18
ATOM     18  C   UNL A   1      32.015  22.806  25.589  1.00  0.00     0.044 A 
ATOM     19  C   UNL A   1      32.225  21.555  23.443  1.00  0.00     0.047 C 
ATOM     20  C   UNL A   1      32.697  21.834  24.846  1.00  0.00    -0.015 A 
ATOM     21  C   UNL A   1      33.689  21.094  25.502  1.00  0.00     0.045 A 
ATOM     22  C   UNL A   1      32.284  23.023  26.945  1.00  0.00     0.026 A 
ATOM     23  C   UNL A   1      33.813  21.184  26.902  1.00  0.00     0.014 A 
ATOM     24  C   UNL A   1      33.113  22.145  27.624  1.00  0.00     0.003 A 
BRANCH  21  25
ATOM     25  C   UNL A   1      34.490  20.054  24.816  1.00  0.00     0.254 C 
ATOM     26  O   UNL A   1      35.643  20.344  24.500  1.00  0.00    -0.269 OA
ATOM     27  N   UNL A   1      33.964  18.783  24.630  1.00  0.00    -0.334 N 
ATOM     28  C   UNL A   1      32.556  18.412  24.390  1.00  0.00     0.148 C 
ATOM     29  C   UNL A   1      34.907  17.679  24.515  1.00  0.00     0.148 C 
ATOM     30  C   UNL A   1      32.162  17.093  25.094  1.00  0.00     0.181 C 
ATOM     31  C   UNL A   1      34.436  16.510  25.377  1.00  0.00     0.181 C 
ATOM     32  O   UNL A   1      33.147  16.062  24.929  1.00  0.00    -0.378 OA
ENDBRANCH  21  25
ENDBRANCH  15  18
ENDBRANCH   9  14
ENDBRANCH   6   8
ENDBRANCH   5   6
ENDBRANCH   4   5
ENDBRANCH   3   4
ENDBRANCH   2   3
ENDBRANCH   1   2
BRANCH   1  33
ATOM     33  C   UNL A   1      39.705  21.383  26.761  1.00  0.00     0.188 C 
BRANCH  33  34
ATOM     34  O   UNL A   1      40.447  20.645  25.826  1.00  0.00    -0.376 OA
BRANCH  34  35
ATOM     35  C   UNL A   1      41.171  19.532  26.277  1.00  0.00     0.202 C 
BRANCH  35  36
ATOM     36  C   UNL A   1      42.628  19.576  25.806  1.00  0.00     0.261 C 
BRANCH  36  37
ATOM     37  O   UNL A   1      43.002  20.834  25.165  1.00  0.00    -0.460 OA
BRANCH  37  38
ATOM     38  C   UNL A   1      43.806  21.732  25.834  1.00  0.00     0.338 C 
ATOM     39  O   UNL A   1      45.028  21.624  25.909  1.00  0.00    -0.246 OA
BRANCH  38  40
ATOM     40  C   UNL A   1      43.031  22.878  26.393  1.00  0.00     0.060 A 
ATOM     41  C   UNL A   1      42.647  24.104  25.820  1.00  0.00     0.016 A 
ATOM     42  C   UNL A   1      42.782  22.765  27.705  1.00  0.00     0.016 A 
ATOM     43  C   UNL A   1      42.305  25.290  26.628  1.00  0.00     0.010 A 
ATOM     44  C   UNL A   1      42.683  23.943  28.414  1.00  0.00     0.010 A 
ATOM     45  C   UNL A   1      42.447  25.320  28.017  1.00  0.00    -0.014 A 
BRANCH  45  46
ATOM     46  C   UNL A   1      42.273  26.756  29.072  1.00  0.00     0.031 A 
ATOM     47  C   UNL A   1      40.919  27.955  29.259  1.00  0.00     0.074 A 
ATOM     48  C   UNL A   1      43.346  27.061  29.820  1.00  0.00     0.049 A 
ATOM     49  N   UNL A   1      40.994  29.253  29.028  1.00  0.00    -0.248 NA
ATOM     50  C   UNL A   1      39.403  27.709  29.486  1.00  0.00     0.031 C 
ATOM     51  C   UNL A   1      43.466  28.037  30.894  1.00  0.00     0.029 A 
ATOM     52  N   UNL A   1      44.621  26.494  29.735  1.00  0.00    -0.354 N 
ATOM     53  C   UNL A   1      39.708  29.817  29.231  1.00  0.00     0.074 A 
ATOM     54  C   UNL A   1      38.750  28.795  29.136  1.00  0.00     0.031 C 
ATOM     55  C   UNL A   1      44.778  28.231  31.138  1.00  0.00     0.029 A 
ATOM     56  C   UNL A   1      45.516  27.494  30.121  1.00  0.00     0.049 A 
ATOM     57  H   UNL A   1      44.843  25.576  29.459  1.00  0.00     0.167 HD
ATOM     58  C   UNL A   1      39.468  30.947  29.959  1.00  0.00     0.037 A 
ATOM     59  C   UNL A   1      46.367  28.008  29.191  1.00  0.00     0.037 A 
ATOM     60  C   UNL A   1      40.728  31.391  30.470  1.00  0.00     0.049 A 
ATOM     61  C   UNL A   1      46.095  29.479  29.010  1.00  0.00     0.074 A 
ATOM     62  C   UNL A   1      41.388  31.103  31.651  1.00  0.00     0.029 A 
ATOM     63  N   UNL A   1      41.684  31.758  29.547  1.00  0.00    -0.354 N 
ATOM     64  N   UNL A   1      44.925  30.036  29.183  1.00  0.00    -0.248 NA
ATOM     65  C   UNL A   1      47.148  30.447  28.736  1.00  0.00     0.031 C 
ATOM     66  C   UNL A   1      42.769  31.324  31.430  1.00  0.00     0.029 A 
ATOM     67  C   UNL A   1      42.930  31.746  30.122  1.00  0.00     0.049 A 
ATOM     68  H   UNL A   1      41.500  31.995  28.610  1.00  0.00     0.167 HD
ATOM     69  C   UNL A   1      45.064  31.398  29.123  1.00  0.00     0.074 A 
ATOM     70  C   UNL A   1      46.468  31.602  28.828  1.00  0.00     0.031 C 
ATOM     71  C   UNL A   1      44.039  32.266  29.363  1.00  0.00     0.037 A 
BRANCH  58  72
ATOM     72  C   UNL A   1      38.093  31.277  30.542  1.00  0.00     0.064 A 
ATOM     73  C   UNL A   1      37.077  31.849  29.749  1.00  0.00     0.173 A 
ATOM     74  C   UNL A   1      37.754  31.114  31.907  1.00  0.00     0.173 A 
ATOM     75  F   UNL A   1      37.232  32.010  28.430  1.00  0.00    -0.203 F 
ATOM     76  C   UNL A   1      35.864  32.301  30.285  1.00  0.00     0.198 A 
ATOM     77  C   UNL A   1      36.557  31.608  32.451  1.00  0.00     0.198 A 
ATOM     78  F   UNL A   1      38.600  30.509  32.758  1.00  0.00    -0.203 F 
ATOM     79  F   UNL A   1      34.948  32.854  29.478  1.00  0.00    -0.200 F 
ATOM     80  C   UNL A   1      35.614  32.207  31.640  1.00  0.00     0.200 A 
ATOM     81  F   UNL A   1      36.337  31.523  33.772  1.00  0.00    -0.200 F 
ATOM     82  F   UNL A   1      34.473  32.685  32.154  1.00  0.00    -0.200 F 
ENDBRANCH  58  72
BRANCH  59  83
ATOM     83  C   UNL A   1      46.808  27.018  28.150  1.00  0.00     0.064 A 
ATOM     84  C   UNL A   1      46.119  27.007  26.910  1.00  0.00     0.173 A 
ATOM     85  C   UNL A   1      48.028  26.332  28.189  1.00  0.00     0.173 A 
ATOM     86  F   UNL A   1      44.933  27.628  26.796  1.00  0.00    -0.203 F 
ATOM     87  C   UNL A   1      46.681  26.475  25.750  1.00  0.00     0.198 A 
ATOM     88  C   UNL A   1      48.572  25.756  27.026  1.00  0.00     0.198 A 
ATOM     89  F   UNL A   1      48.769  26.323  29.306  1.00  0.00    -0.203 F 
ATOM     90  F   UNL A   1      46.069  26.644  24.568  1.00  0.00    -0.200 F 
ATOM     91  C   UNL A   1      47.913  25.856  25.807  1.00  0.00     0.200 A 
ATOM     92  F   UNL A   1      49.811  25.241  27.053  1.00  0.00    -0.200 F 
ATOM     93  F   UNL A   1      48.505  25.439  24.677  1.00  0.00    -0.200 F 
ENDBRANCH  59  83
BRANCH  71  94
ATOM     94  C   UNL A   1      43.960  33.723  28.961  1.00  0.00     0.064 A 
ATOM     95  C   UNL A   1      43.743  34.150  27.647  1.00  0.00     0.173 A 
ATOM     96  C   UNL A   1      43.903  34.752  29.948  1.00  0.00     0.173 A 
ATOM     97  F   UNL A   1      43.631  33.282  26.635  1.00  0.00    -0.203 F 
ATOM     98  C   UNL A   1      43.565  35.498  27.331  1.00  0.00     0.198 A 
ATOM     99  C   UNL A   1      43.616  36.075  29.638  1.00  0.00     0.198 A 
ATOM    100  F   UNL A   1      44.085  34.508  31.254  1.00  0.00    -0.203 F 
ATOM    101  F   UNL A   1      43.441  35.859  26.047  1.00  0.00    -0.200 F 
ATOM    102  C   UNL A   1      43.479  36.455  28.325  1.00  0.00     0.200 A 
ATOM    103  F   UNL A   1      43.454  36.969  30.625  1.00  0.00    -0.200 F 
ATOM    104  F   UNL A   1      43.248  37.736  28.016  1.00  0.00    -0.200 F 
ENDBRANCH  71  94
ENDBRANCH  45  46
ENDBRANCH  38  40
ENDBRANCH  37  38
ENDBRANCH  36  37
ENDBRANCH  35  36
ENDBRANCH  34  35
ENDBRANCH  33  34
ENDBRANCH   1  33
TORSDOF 20
ENDMDL
