MODEL 1
REMARK VINA RESULT:     -11.6      0.000      0.000
REMARK SMILES CCn1c(C(=O)OCCOCCOCCOC(=O)c2ccc(-c3c4nc(c(-c5c(F)c(F)c(F)c(F)c5F)c5ccc([nH]5)c(-c5c(F)c(F)c(F)c(F)c5F)c5nc(c(-c6c(F)c(F)c(F)c(F)c6F)c6ccc3[nH]6)C=C5)C=C4)cc2)c(CC(=O)Nc2ccccc2OC)c2ccccc21
REMARK SMILES IDX 11 1 10 2 9 3 8 4 7 5 5 6 6 7 4 8 3 9 100 10 82 11 95 12
REMARK SMILES IDX 99 13 96 14 98 15 97 16 2 17 1 18 83 19 84 20 85 21 86 22
REMARK SMILES IDX 87 24 88 25 92 26 89 27 91 28 90 29 93 30 94 31 12 32 13 33
REMARK SMILES IDX 14 34 15 35 16 36 17 37 18 38 19 39 20 40 81 41 21 42 80 43
REMARK SMILES IDX 22 44 23 45 24 46 74 47 25 48 79 49 73 50 75 51 26 52 78 53
REMARK SMILES IDX 72 54 71 55 27 57 59 58 39 59 58 60 40 61 43 62 57 63 76 64
REMARK SMILES IDX 41 65 42 66 56 68 77 69 44 70 28 71 29 72 37 73 30 74 31 75
REMARK SMILES IDX 35 76 38 77 32 78 33 79 36 80 34 81 60 82 61 83 69 84 62 85
REMARK SMILES IDX 63 86 67 87 70 88 64 89 65 90 68 91 66 92 45 93 46 94 54 95
REMARK SMILES IDX 47 96 48 97 52 98 55 99 49 100 50 101 53 102 51 103
REMARK H PARENT 86 23 75 56 43 67
REMARK Flexibility Score: inf
ROOT
ATOM      1  C   UNL A   1      40.633  21.115  26.206  1.00  0.00     0.188 C 
ENDROOT
BRANCH   1   2
ATOM      2  O   UNL A   1      39.325  20.754  25.771  1.00  0.00    -0.376 OA
BRANCH   2   3
ATOM      3  C   UNL A   1      38.417  21.815  25.490  1.00  0.00     0.202 C 
BRANCH   3   4
ATOM      4  C   UNL A   1      37.006  21.386  25.063  1.00  0.00     0.261 C 
BRANCH   4   5
ATOM      5  O   UNL A   1      36.214  22.456  24.479  1.00  0.00    -0.459 OA
BRANCH   5   6
ATOM      6  C   UNL A   1      35.751  23.403  25.336  1.00  0.00     0.355 C 
ATOM      7  O   UNL A   1      36.489  24.043  26.067  1.00  0.00    -0.244 OA
BRANCH   6   8
ATOM      8  C   UNL A   1      34.294  23.518  25.388  1.00  0.00     0.132 A 
ATOM      9  N   UNL A   1      33.351  22.657  25.921  1.00  0.00    -0.335 N 
ATOM     10  C   UNL A   1      32.141  23.318  26.084  1.00  0.00     0.049 A 
ATOM     11  C   UNL A   1      33.564  24.631  24.925  1.00  0.00     0.002 A 
ATOM     12  C   UNL A   1      32.280  24.582  25.524  1.00  0.00     0.004 A 
ATOM     13  C   UNL A   1      30.927  22.909  26.661  1.00  0.00     0.027 A 
ATOM     14  C   UNL A   1      31.219  25.502  25.622  1.00  0.00     0.010 A 
ATOM     15  C   UNL A   1      29.873  23.827  26.714  1.00  0.00     0.002 A 
ATOM     16  C   UNL A   1      30.023  25.117  26.220  1.00  0.00     0.001 A 
BRANCH   9  17
ATOM     17  C   UNL A   1      33.519  21.247  26.240  1.00  0.00     0.119 C 
ATOM     18  C   UNL A   1      32.956  20.371  25.132  1.00  0.00     0.027 C 
ENDBRANCH   9  17
BRANCH  11  19
ATOM     19  C   UNL A   1      34.091  25.749  24.082  1.00  0.00     0.139 C 
BRANCH  19  20
ATOM     20  C   UNL A   1      33.475  25.998  22.708  1.00  0.00     0.229 C 
ATOM     21  O   UNL A   1      33.618  25.183  21.788  1.00  0.00    -0.274 OA
ATOM     22  N   UNL A   1      32.552  26.999  22.526  1.00  0.00    -0.323 N 
ATOM     23  H   UNL A   1      32.072  26.991  21.668  1.00  0.00     0.170 HD
BRANCH  22  24
ATOM     24  C   UNL A   1      32.209  28.031  23.412  1.00  0.00     0.083 A 
ATOM     25  C   UNL A   1      33.216  28.546  24.244  1.00  0.00     0.030 A 
ATOM     26  C   UNL A   1      30.933  28.609  23.456  1.00  0.00     0.142 A 
ATOM     27  C   UNL A   1      32.954  29.524  25.196  1.00  0.00     0.002 A 
ATOM     28  C   UNL A   1      30.687  29.609  24.414  1.00  0.00     0.048 A 
ATOM     29  C   UNL A   1      31.677  30.045  25.296  1.00  0.00     0.004 A 
BRANCH  26  30
ATOM     30  O   UNL A   1      29.815  28.352  22.716  1.00  0.00    -0.495 OA
ATOM     31  C   UNL A   1      28.642  27.786  23.269  1.00  0.00     0.278 C 
ENDBRANCH  26  30
ENDBRANCH  22  24
ENDBRANCH  19  20
ENDBRANCH  11  19
ENDBRANCH   6   8
ENDBRANCH   5   6
ENDBRANCH   4   5
ENDBRANCH   3   4
ENDBRANCH   2   3
ENDBRANCH   1   2
BRANCH   1  32
ATOM     32  C   UNL A   1      41.202  20.327  27.401  1.00  0.00     0.188 C 
BRANCH  32  33
ATOM     33  O   UNL A   1      42.338  19.511  27.119  1.00  0.00    -0.376 OA
BRANCH  33  34
ATOM     34  C   UNL A   1      42.641  19.303  25.739  1.00  0.00     0.202 C 
BRANCH  34  35
ATOM     35  C   UNL A   1      43.999  18.639  25.476  1.00  0.00     0.261 C 
BRANCH  35  36
ATOM     36  O   UNL A   1      44.626  19.301  24.359  1.00  0.00    -0.460 OA
BRANCH  36  37
ATOM     37  C   UNL A   1      45.668  20.099  24.683  1.00  0.00     0.338 C 
ATOM     38  O   UNL A   1      46.839  19.904  24.401  1.00  0.00    -0.246 OA
BRANCH  37  39
ATOM     39  C   UNL A   1      45.113  21.419  25.074  1.00  0.00     0.060 A 
ATOM     40  C   UNL A   1      44.465  22.319  24.222  1.00  0.00     0.016 A 
ATOM     41  C   UNL A   1      45.391  21.804  26.377  1.00  0.00     0.016 A 
ATOM     42  C   UNL A   1      44.169  23.633  24.666  1.00  0.00     0.010 A 
ATOM     43  C   UNL A   1      45.066  23.082  26.815  1.00  0.00     0.010 A 
ATOM     44  C   UNL A   1      44.516  24.050  25.960  1.00  0.00    -0.014 A 
BRANCH  44  45
ATOM     45  C   UNL A   1      44.050  25.318  26.582  1.00  0.00     0.031 A 
ATOM     46  C   UNL A   1      44.919  26.443  26.206  1.00  0.00     0.074 A 
ATOM     47  C   UNL A   1      42.969  25.698  27.316  1.00  0.00     0.049 A 
ATOM     48  N   UNL A   1      45.964  26.790  26.877  1.00  0.00    -0.248 NA
ATOM     49  C   UNL A   1      44.691  27.208  24.977  1.00  0.00     0.031 C 
ATOM     50  C   UNL A   1      41.824  24.904  27.743  1.00  0.00     0.029 A 
ATOM     51  N   UNL A   1      42.621  26.957  27.782  1.00  0.00    -0.354 N 
ATOM     52  C   UNL A   1      46.349  27.990  26.324  1.00  0.00     0.074 A 
ATOM     53  C   UNL A   1      45.716  28.067  25.029  1.00  0.00     0.031 C 
ATOM     54  C   UNL A   1      40.814  25.699  28.173  1.00  0.00     0.029 A 
ATOM     55  C   UNL A   1      41.328  27.053  28.295  1.00  0.00     0.049 A 
ATOM     56  H   UNL A   1      43.237  27.724  27.752  1.00  0.00     0.167 HD
ATOM     57  C   UNL A   1      46.849  28.962  27.131  1.00  0.00     0.037 A 
ATOM     58  C   UNL A   1      40.754  28.070  28.990  1.00  0.00     0.037 A 
ATOM     59  C   UNL A   1      46.989  28.504  28.496  1.00  0.00     0.049 A 
ATOM     60  C   UNL A   1      41.813  28.625  29.856  1.00  0.00     0.074 A 
ATOM     61  C   UNL A   1      47.854  27.724  29.234  1.00  0.00     0.029 A 
ATOM     62  N   UNL A   1      45.845  28.621  29.235  1.00  0.00    -0.354 N 
ATOM     63  N   UNL A   1      42.338  27.970  30.855  1.00  0.00    -0.248 NA
ATOM     64  C   UNL A   1      42.441  29.904  29.541  1.00  0.00     0.031 C 
ATOM     65  C   UNL A   1      47.165  27.345  30.431  1.00  0.00     0.029 A 
ATOM     66  C   UNL A   1      45.895  27.901  30.403  1.00  0.00     0.049 A 
ATOM     67  H   UNL A   1      45.069  29.160  28.959  1.00  0.00     0.167 HD
ATOM     68  C   UNL A   1      43.597  28.507  30.961  1.00  0.00     0.074 A 
ATOM     69  C   UNL A   1      43.525  29.809  30.315  1.00  0.00     0.031 C 
ATOM     70  C   UNL A   1      44.669  27.685  31.137  1.00  0.00     0.037 A 
BRANCH  57  71
ATOM     71  C   UNL A   1      46.795  30.432  26.838  1.00  0.00     0.064 A 
ATOM     72  C   UNL A   1      47.984  31.178  26.929  1.00  0.00     0.173 A 
ATOM     73  C   UNL A   1      45.604  31.177  26.723  1.00  0.00     0.173 A 
ATOM     74  F   UNL A   1      49.163  30.559  27.098  1.00  0.00    -0.203 F 
ATOM     75  C   UNL A   1      47.978  32.572  26.915  1.00  0.00     0.198 A 
ATOM     76  C   UNL A   1      45.607  32.568  26.643  1.00  0.00     0.198 A 
ATOM     77  F   UNL A   1      44.399  30.597  26.795  1.00  0.00    -0.203 F 
ATOM     78  F   UNL A   1      49.122  33.244  27.101  1.00  0.00    -0.200 F 
ATOM     79  C   UNL A   1      46.791  33.266  26.760  1.00  0.00     0.200 A 
ATOM     80  F   UNL A   1      44.445  33.226  26.524  1.00  0.00    -0.200 F 
ATOM     81  F   UNL A   1      46.781  34.605  26.771  1.00  0.00    -0.200 F 
ENDBRANCH  57  71
BRANCH  58  82
ATOM     82  C   UNL A   1      39.345  28.463  29.227  1.00  0.00     0.064 A 
ATOM     83  C   UNL A   1      38.744  28.372  30.496  1.00  0.00     0.173 A 
ATOM     84  C   UNL A   1      38.665  29.230  28.268  1.00  0.00     0.173 A 
ATOM     85  F   UNL A   1      39.342  27.701  31.490  1.00  0.00    -0.203 F 
ATOM     86  C   UNL A   1      37.551  29.035  30.797  1.00  0.00     0.198 A 
ATOM     87  C   UNL A   1      37.462  29.884  28.564  1.00  0.00     0.198 A 
ATOM     88  F   UNL A   1      39.226  29.453  27.074  1.00  0.00    -0.203 F 
ATOM     89  F   UNL A   1      37.055  28.984  32.041  1.00  0.00    -0.200 F 
ATOM     90  C   UNL A   1      36.916  29.798  29.833  1.00  0.00     0.200 A 
ATOM     91  F   UNL A   1      36.874  30.656  27.640  1.00  0.00    -0.200 F 
ATOM     92  F   UNL A   1      35.808  30.487  30.142  1.00  0.00    -0.200 F 
ENDBRANCH  58  82
BRANCH  70  93
ATOM     93  C   UNL A   1      44.464  26.435  31.934  1.00  0.00     0.064 A 
ATOM     94  C   UNL A   1      44.393  25.142  31.390  1.00  0.00     0.173 A 
ATOM     95  C   UNL A   1      44.329  26.550  33.323  1.00  0.00     0.173 A 
ATOM     96  F   UNL A   1      44.564  24.936  30.081  1.00  0.00    -0.203 F 
ATOM     97  C   UNL A   1      44.160  24.025  32.192  1.00  0.00     0.198 A 
ATOM     98  C   UNL A   1      44.126  25.430  34.128  1.00  0.00     0.198 A 
ATOM     99  F   UNL A   1      44.403  27.756  33.907  1.00  0.00    -0.203 F 
ATOM    100  F   UNL A   1      44.071  22.805  31.638  1.00  0.00    -0.200 F 
ATOM    101  C   UNL A   1      44.031  24.170  33.562  1.00  0.00     0.200 A 
ATOM    102  F   UNL A   1      44.024  25.575  35.457  1.00  0.00    -0.200 F 
ATOM    103  F   UNL A   1      43.827  23.095  34.337  1.00  0.00    -0.200 F 
ENDBRANCH  70  93
ENDBRANCH  44  45
ENDBRANCH  37  39
ENDBRANCH  36  37
ENDBRANCH  35  36
ENDBRANCH  34  35
ENDBRANCH  33  34
ENDBRANCH  32  33
ENDBRANCH   1  32
TORSDOF 22
ENDMDL
MODEL 2
REMARK VINA RESULT:     -11.0      2.712      4.687
REMARK SMILES CCn1c(C(=O)OCCOCCOCCOC(=O)c2ccc(-c3c4nc(c(-c5c(F)c(F)c(F)c(F)c5F)c5ccc([nH]5)c(-c5c(F)c(F)c(F)c(F)c5F)c5nc(c(-c6c(F)c(F)c(F)c(F)c6F)c6ccc3[nH]6)C=C5)C=C4)cc2)c(CC(=O)Nc2ccccc2OC)c2ccccc21
REMARK SMILES IDX 11 1 10 2 9 3 8 4 7 5 5 6 6 7 4 8 3 9 100 10 82 11 95 12
REMARK SMILES IDX 99 13 96 14 98 15 97 16 2 17 1 18 83 19 84 20 85 21 86 22
REMARK SMILES IDX 87 24 88 25 92 26 89 27 91 28 90 29 93 30 94 31 12 32 13 33
REMARK SMILES IDX 14 34 15 35 16 36 17 37 18 38 19 39 20 40 81 41 21 42 80 43
REMARK SMILES IDX 22 44 23 45 24 46 74 47 25 48 79 49 73 50 75 51 26 52 78 53
REMARK SMILES IDX 72 54 71 55 27 57 59 58 39 59 58 60 40 61 43 62 57 63 76 64
REMARK SMILES IDX 41 65 42 66 56 68 77 69 44 70 28 71 29 72 37 73 30 74 31 75
REMARK SMILES IDX 35 76 38 77 32 78 33 79 36 80 34 81 60 82 61 83 69 84 62 85
REMARK SMILES IDX 63 86 67 87 70 88 64 89 65 90 68 91 66 92 45 93 46 94 54 95
REMARK SMILES IDX 47 96 48 97 52 98 55 99 49 100 50 101 53 102 51 103
REMARK H PARENT 86 23 75 56 43 67
REMARK Flexibility Score: inf
ROOT
ATOM      1  C   UNL A   1      35.402  21.566  26.002  1.00  0.00     0.188 C 
ENDROOT
BRANCH   1   2
ATOM      2  O   UNL A   1      33.988  21.524  26.169  1.00  0.00    -0.376 OA
BRANCH   2   3
ATOM      3  C   UNL A   1      33.393  22.558  26.947  1.00  0.00     0.202 C 
BRANCH   3   4
ATOM      4  C   UNL A   1      32.573  23.592  26.162  1.00  0.00     0.261 C 
BRANCH   4   5
ATOM      5  O   UNL A   1      33.116  24.939  26.211  1.00  0.00    -0.459 OA
BRANCH   5   6
ATOM      6  C   UNL A   1      33.671  25.411  25.064  1.00  0.00     0.355 C 
ATOM      7  O   UNL A   1      34.764  25.043  24.665  1.00  0.00    -0.244 OA
BRANCH   6   8
ATOM      8  C   UNL A   1      32.904  26.467  24.405  1.00  0.00     0.132 A 
ATOM      9  N   UNL A   1      32.080  26.410  23.296  1.00  0.00    -0.335 N 
ATOM     10  C   UNL A   1      31.276  27.540  23.241  1.00  0.00     0.049 A 
ATOM     11  C   UNL A   1      32.825  27.798  24.861  1.00  0.00     0.002 A 
ATOM     12  C   UNL A   1      31.687  28.391  24.260  1.00  0.00     0.004 A 
ATOM     13  C   UNL A   1      30.231  27.898  22.373  1.00  0.00     0.027 A 
ATOM     14  C   UNL A   1      30.981  29.588  24.487  1.00  0.00     0.010 A 
ATOM     15  C   UNL A   1      29.568  29.110  22.594  1.00  0.00     0.002 A 
ATOM     16  C   UNL A   1      29.924  29.937  23.652  1.00  0.00     0.001 A 
BRANCH   9  17
ATOM     17  C   UNL A   1      32.044  25.376  22.272  1.00  0.00     0.119 C 
ATOM     18  C   UNL A   1      32.888  25.773  21.072  1.00  0.00     0.027 C 
ENDBRANCH   9  17
BRANCH  11  19
ATOM     19  C   UNL A   1      33.686  28.430  25.909  1.00  0.00     0.139 C 
BRANCH  19  20
ATOM     20  C   UNL A   1      33.100  28.696  27.293  1.00  0.00     0.229 C 
ATOM     21  O   UNL A   1      31.998  28.236  27.618  1.00  0.00    -0.274 OA
ATOM     22  N   UNL A   1      33.875  29.240  28.287  1.00  0.00    -0.323 N 
ATOM     23  H   UNL A   1      33.488  29.222  29.192  1.00  0.00     0.170 HD
BRANCH  22  24
ATOM     24  C   UNL A   1      35.147  29.818  28.175  1.00  0.00     0.083 A 
ATOM     25  C   UNL A   1      36.252  28.958  28.052  1.00  0.00     0.030 A 
ATOM     26  C   UNL A   1      35.357  31.202  28.116  1.00  0.00     0.142 A 
ATOM     27  C   UNL A   1      37.555  29.438  28.000  1.00  0.00     0.002 A 
ATOM     28  C   UNL A   1      36.681  31.673  28.047  1.00  0.00     0.048 A 
ATOM     29  C   UNL A   1      37.772  30.804  28.017  1.00  0.00     0.004 A 
BRANCH  26  30
ATOM     30  O   UNL A   1      34.468  32.238  28.137  1.00  0.00    -0.495 OA
ATOM     31  C   UNL A   1      34.863  33.591  28.022  1.00  0.00     0.278 C 
ENDBRANCH  26  30
ENDBRANCH  22  24
ENDBRANCH  19  20
ENDBRANCH  11  19
ENDBRANCH   6   8
ENDBRANCH   5   6
ENDBRANCH   4   5
ENDBRANCH   3   4
ENDBRANCH   2   3
ENDBRANCH   1   2
BRANCH   1  32
ATOM     32  C   UNL A   1      35.921  21.668  24.555  1.00  0.00     0.188 C 
BRANCH  32  33
ATOM     33  O   UNL A   1      37.324  21.470  24.387  1.00  0.00    -0.376 OA
BRANCH  33  34
ATOM     34  C   UNL A   1      37.890  20.346  25.062  1.00  0.00     0.202 C 
BRANCH  34  35
ATOM     35  C   UNL A   1      39.314  20.568  25.590  1.00  0.00     0.261 C 
BRANCH  35  36
ATOM     36  O   UNL A   1      39.291  21.661  26.529  1.00  0.00    -0.460 OA
BRANCH  36  37
ATOM     37  C   UNL A   1      40.484  21.949  27.095  1.00  0.00     0.338 C 
ATOM     38  O   UNL A   1      41.526  21.337  26.930  1.00  0.00    -0.246 OA
BRANCH  37  39
ATOM     39  C   UNL A   1      40.407  23.338  27.614  1.00  0.00     0.060 A 
ATOM     40  C   UNL A   1      39.316  24.203  27.480  1.00  0.00     0.016 A 
ATOM     41  C   UNL A   1      41.584  23.818  28.168  1.00  0.00     0.016 A 
ATOM     42  C   UNL A   1      39.444  25.570  27.834  1.00  0.00     0.010 A 
ATOM     43  C   UNL A   1      41.690  25.151  28.545  1.00  0.00     0.010 A 
ATOM     44  C   UNL A   1      40.657  26.076  28.324  1.00  0.00    -0.014 A 
BRANCH  44  45
ATOM     45  C   UNL A   1      40.816  27.426  28.926  1.00  0.00     0.031 A 
ATOM     46  C   UNL A   1      41.688  28.274  28.100  1.00  0.00     0.074 A 
ATOM     47  C   UNL A   1      40.271  28.087  29.984  1.00  0.00     0.049 A 
ATOM     48  N   UNL A   1      42.968  28.333  28.244  1.00  0.00    -0.248 NA
ATOM     49  C   UNL A   1      41.155  29.065  26.987  1.00  0.00     0.031 C 
ATOM     50  C   UNL A   1      39.259  27.633  30.928  1.00  0.00     0.029 A 
ATOM     51  N   UNL A   1      40.466  29.397  30.397  1.00  0.00    -0.354 N 
ATOM     52  C   UNL A   1      43.361  29.382  27.445  1.00  0.00     0.074 A 
ATOM     53  C   UNL A   1      42.280  29.617  26.517  1.00  0.00     0.031 C 
ATOM     54  C   UNL A   1      38.749  28.673  31.632  1.00  0.00     0.029 A 
ATOM     55  C   UNL A   1      39.575  29.839  31.374  1.00  0.00     0.049 A 
ATOM     56  H   UNL A   1      41.178  29.970  30.030  1.00  0.00     0.167 HD
ATOM     57  C   UNL A   1      44.372  30.189  27.859  1.00  0.00     0.037 A 
ATOM     58  C   UNL A   1      39.611  30.978  32.115  1.00  0.00     0.037 A 
ATOM     59  C   UNL A   1      44.960  29.720  29.095  1.00  0.00     0.049 A 
ATOM     60  C   UNL A   1      41.036  31.234  32.406  1.00  0.00     0.074 A 
ATOM     61  C   UNL A   1      45.838  28.741  29.507  1.00  0.00     0.029 A 
ATOM     62  N   UNL A   1      44.298  30.144  30.214  1.00  0.00    -0.354 N 
ATOM     63  N   UNL A   1      41.758  30.469  33.178  1.00  0.00    -0.248 NA
ATOM     64  C   UNL A   1      41.759  32.296  31.715  1.00  0.00     0.031 C 
ATOM     65  C   UNL A   1      45.649  28.569  30.916  1.00  0.00     0.029 A 
ATOM     66  C   UNL A   1      44.661  29.445  31.338  1.00  0.00     0.049 A 
ATOM     67  H   UNL A   1      43.634  30.870  30.213  1.00  0.00     0.167 HD
ATOM     68  C   UNL A   1      43.032  30.649  32.701  1.00  0.00     0.074 A 
ATOM     69  C   UNL A   1      43.011  31.919  31.990  1.00  0.00     0.031 C 
ATOM     70  C   UNL A   1      43.847  29.571  32.525  1.00  0.00     0.037 A 
BRANCH  57  71
ATOM     71  C   UNL A   1      44.555  31.618  27.440  1.00  0.00     0.064 A 
ATOM     72  C   UNL A   1      45.717  31.964  26.729  1.00  0.00     0.173 A 
ATOM     73  C   UNL A   1      43.778  32.693  27.918  1.00  0.00     0.173 A 
ATOM     74  F   UNL A   1      46.550  31.012  26.283  1.00  0.00    -0.203 F 
ATOM     75  C   UNL A   1      46.080  33.295  26.519  1.00  0.00     0.198 A 
ATOM     76  C   UNL A   1      44.108  34.019  27.651  1.00  0.00     0.198 A 
ATOM     77  F   UNL A   1      42.743  32.502  28.747  1.00  0.00    -0.203 F 
ATOM     78  F   UNL A   1      47.244  33.580  25.921  1.00  0.00    -0.200 F 
ATOM     79  C   UNL A   1      45.270  34.321  26.970  1.00  0.00     0.200 A 
ATOM     80  F   UNL A   1      43.328  35.003  28.121  1.00  0.00    -0.200 F 
ATOM     81  F   UNL A   1      45.629  35.599  26.791  1.00  0.00    -0.200 F 
ENDBRANCH  57  71
BRANCH  58  82
ATOM     82  C   UNL A   1      38.573  31.736  32.853  1.00  0.00     0.064 A 
ATOM     83  C   UNL A   1      38.321  31.525  34.222  1.00  0.00     0.173 A 
ATOM     84  C   UNL A   1      38.031  32.902  32.291  1.00  0.00     0.173 A 
ATOM     85  F   UNL A   1      38.837  30.464  34.857  1.00  0.00    -0.203 F 
ATOM     86  C   UNL A   1      37.596  32.442  34.988  1.00  0.00     0.198 A 
ATOM     87  C   UNL A   1      37.293  33.814  33.055  1.00  0.00     0.198 A 
ATOM     88  F   UNL A   1      38.318  33.227  31.026  1.00  0.00    -0.203 F 
ATOM     89  F   UNL A   1      37.446  32.239  36.305  1.00  0.00    -0.200 F 
ATOM     90  C   UNL A   1      37.090  33.590  34.406  1.00  0.00     0.200 A 
ATOM     91  F   UNL A   1      36.842  34.946  32.497  1.00  0.00    -0.200 F 
ATOM     92  F   UNL A   1      36.453  34.501  35.156  1.00  0.00    -0.200 F 
ENDBRANCH  58  82
BRANCH  70  93
ATOM     93  C   UNL A   1      43.702  28.428  33.479  1.00  0.00     0.064 A 
ATOM     94  C   UNL A   1      43.101  27.196  33.168  1.00  0.00     0.173 A 
ATOM     95  C   UNL A   1      44.196  28.584  34.781  1.00  0.00     0.173 A 
ATOM     96  F   UNL A   1      42.651  26.943  31.936  1.00  0.00    -0.203 F 
ATOM     97  C   UNL A   1      42.966  26.189  34.122  1.00  0.00     0.198 A 
ATOM     98  C   UNL A   1      44.088  27.565  35.726  1.00  0.00     0.198 A 
ATOM     99  F   UNL A   1      44.795  29.730  35.137  1.00  0.00    -0.203 F 
ATOM    100  F   UNL A   1      42.363  25.033  33.800  1.00  0.00    -0.200 F 
ATOM    101  C   UNL A   1      43.464  26.372  35.401  1.00  0.00     0.200 A 
ATOM    102  F   UNL A   1      44.592  27.741  36.955  1.00  0.00    -0.200 F 
ATOM    103  F   UNL A   1      43.354  25.397  36.313  1.00  0.00    -0.200 F 
ENDBRANCH  70  93
ENDBRANCH  44  45
ENDBRANCH  37  39
ENDBRANCH  36  37
ENDBRANCH  35  36
ENDBRANCH  34  35
ENDBRANCH  33  34
ENDBRANCH  32  33
ENDBRANCH   1  32
TORSDOF 22
ENDMDL
MODEL 3
REMARK VINA RESULT:     -10.6      4.712      9.239
REMARK SMILES CCn1c(C(=O)OCCOCCOCCOC(=O)c2ccc(-c3c4nc(c(-c5c(F)c(F)c(F)c(F)c5F)c5ccc([nH]5)c(-c5c(F)c(F)c(F)c(F)c5F)c5nc(c(-c6c(F)c(F)c(F)c(F)c6F)c6ccc3[nH]6)C=C5)C=C4)cc2)c(CC(=O)Nc2ccccc2OC)c2ccccc21
REMARK SMILES IDX 11 1 10 2 9 3 8 4 7 5 5 6 6 7 4 8 3 9 100 10 82 11 95 12
REMARK SMILES IDX 99 13 96 14 98 15 97 16 2 17 1 18 83 19 84 20 85 21 86 22
REMARK SMILES IDX 87 24 88 25 92 26 89 27 91 28 90 29 93 30 94 31 12 32 13 33
REMARK SMILES IDX 14 34 15 35 16 36 17 37 18 38 19 39 20 40 81 41 21 42 80 43
REMARK SMILES IDX 22 44 23 45 24 46 74 47 25 48 79 49 73 50 75 51 26 52 78 53
REMARK SMILES IDX 72 54 71 55 27 57 59 58 39 59 58 60 40 61 43 62 57 63 76 64
REMARK SMILES IDX 41 65 42 66 56 68 77 69 44 70 28 71 29 72 37 73 30 74 31 75
REMARK SMILES IDX 35 76 38 77 32 78 33 79 36 80 34 81 60 82 61 83 69 84 62 85
REMARK SMILES IDX 63 86 67 87 70 88 64 89 65 90 68 91 66 92 45 93 46 94 54 95
REMARK SMILES IDX 47 96 48 97 52 98 55 99 49 100 50 101 53 102 51 103
REMARK H PARENT 86 23 75 56 43 67
REMARK Flexibility Score: inf
ROOT
ATOM      1  C   UNL A   1      42.991  28.789  33.225  1.00  0.00     0.188 C 
ENDROOT
BRANCH   1   2
ATOM      2  O   UNL A   1      41.752  28.471  33.853  1.00  0.00    -0.376 OA
BRANCH   2   3
ATOM      3  C   UNL A   1      40.686  28.044  33.010  1.00  0.00     0.202 C 
BRANCH   3   4
ATOM      4  C   UNL A   1      39.450  28.955  32.989  1.00  0.00     0.261 C 
BRANCH   4   5
ATOM      5  O   UNL A   1      39.520  30.067  33.921  1.00  0.00    -0.459 OA
BRANCH   5   6
ATOM      6  C   UNL A   1      39.395  31.312  33.390  1.00  0.00     0.355 C 
ATOM      7  O   UNL A   1      40.357  31.968  33.026  1.00  0.00    -0.244 OA
BRANCH   6   8
ATOM      8  C   UNL A   1      38.032  31.840  33.387  1.00  0.00     0.132 A 
ATOM      9  N   UNL A   1      37.357  32.567  34.351  1.00  0.00    -0.335 N 
ATOM     10  C   UNL A   1      36.236  33.170  33.794  1.00  0.00     0.049 A 
ATOM     11  C   UNL A   1      37.139  31.740  32.301  1.00  0.00     0.002 A 
ATOM     12  C   UNL A   1      36.125  32.712  32.486  1.00  0.00     0.004 A 
ATOM     13  C   UNL A   1      35.298  34.067  34.331  1.00  0.00     0.027 A 
ATOM     14  C   UNL A   1      35.113  33.230  31.657  1.00  0.00     0.010 A 
ATOM     15  C   UNL A   1      34.278  34.540  33.499  1.00  0.00     0.002 A 
ATOM     16  C   UNL A   1      34.197  34.144  32.170  1.00  0.00     0.001 A 
BRANCH   9  17
ATOM     17  C   UNL A   1      37.685  32.686  35.763  1.00  0.00     0.119 C 
ATOM     18  C   UNL A   1      38.582  33.887  36.011  1.00  0.00     0.027 C 
ENDBRANCH   9  17
BRANCH  11  19
ATOM     19  C   UNL A   1      37.309  30.877  31.090  1.00  0.00     0.139 C 
BRANCH  19  20
ATOM     20  C   UNL A   1      38.242  31.338  29.974  1.00  0.00     0.229 C 
ATOM     21  O   UNL A   1      39.457  31.109  30.023  1.00  0.00    -0.274 OA
ATOM     22  N   UNL A   1      37.734  31.798  28.783  1.00  0.00    -0.323 N 
ATOM     23  H   UNL A   1      38.384  31.912  28.053  1.00  0.00     0.170 HD
BRANCH  22  24
ATOM     24  C   UNL A   1      36.405  32.125  28.478  1.00  0.00     0.083 A 
ATOM     25  C   UNL A   1      36.057  33.485  28.428  1.00  0.00     0.030 A 
ATOM     26  C   UNL A   1      35.434  31.166  28.159  1.00  0.00     0.142 A 
ATOM     27  C   UNL A   1      34.752  33.902  28.196  1.00  0.00     0.002 A 
ATOM     28  C   UNL A   1      34.121  31.604  27.912  1.00  0.00     0.048 A 
ATOM     29  C   UNL A   1      33.773  32.954  27.956  1.00  0.00     0.004 A 
BRANCH  26  30
ATOM     30  O   UNL A   1      35.526  29.807  28.062  1.00  0.00    -0.495 OA
ATOM     31  C   UNL A   1      34.733  29.046  27.171  1.00  0.00     0.278 C 
ENDBRANCH  26  30
ENDBRANCH  22  24
ENDBRANCH  19  20
ENDBRANCH  11  19
ENDBRANCH   6   8
ENDBRANCH   5   6
ENDBRANCH   4   5
ENDBRANCH   3   4
ENDBRANCH   2   3
ENDBRANCH   1   2
BRANCH   1  32
ATOM     32  C   UNL A   1      44.131  29.255  34.150  1.00  0.00     0.188 C 
BRANCH  32  33
ATOM     33  O   UNL A   1      43.824  29.281  35.544  1.00  0.00    -0.376 OA
BRANCH  33  34
ATOM     34  C   UNL A   1      44.938  29.289  36.438  1.00  0.00     0.202 C 
BRANCH  34  35
ATOM     35  C   UNL A   1      44.963  28.124  37.437  1.00  0.00     0.261 C 
BRANCH  35  36
ATOM     36  O   UNL A   1      44.174  27.043  36.902  1.00  0.00    -0.460 OA
BRANCH  36  37
ATOM     37  C   UNL A   1      44.831  25.869  36.775  1.00  0.00     0.338 C 
ATOM     38  O   UNL A   1      44.828  24.950  37.577  1.00  0.00    -0.246 OA
BRANCH  37  39
ATOM     39  C   UNL A   1      45.218  25.727  35.348  1.00  0.00     0.060 A 
ATOM     40  C   UNL A   1      46.500  25.920  34.824  1.00  0.00     0.016 A 
ATOM     41  C   UNL A   1      44.162  25.500  34.479  1.00  0.00     0.016 A 
ATOM     42  C   UNL A   1      46.698  25.961  33.421  1.00  0.00     0.010 A 
ATOM     43  C   UNL A   1      44.370  25.506  33.105  1.00  0.00     0.010 A 
ATOM     44  C   UNL A   1      45.619  25.806  32.538  1.00  0.00    -0.014 A 
BRANCH  44  45
ATOM     45  C   UNL A   1      45.762  25.611  31.071  1.00  0.00     0.031 A 
ATOM     46  C   UNL A   1      46.955  26.301  30.559  1.00  0.00     0.074 A 
ATOM     47  C   UNL A   1      45.123  24.870  30.124  1.00  0.00     0.049 A 
ATOM     48  N   UNL A   1      46.949  27.521  30.143  1.00  0.00    -0.248 NA
ATOM     49  C   UNL A   1      48.271  25.654  30.560  1.00  0.00     0.031 C 
ATOM     50  C   UNL A   1      44.007  23.946  30.279  1.00  0.00     0.029 A 
ATOM     51  N   UNL A   1      45.413  24.729  28.775  1.00  0.00    -0.354 N 
ATOM     52  C   UNL A   1      48.182  27.696  29.560  1.00  0.00     0.074 A 
ATOM     53  C   UNL A   1      49.028  26.641  30.065  1.00  0.00     0.031 C 
ATOM     54  C   UNL A   1      43.863  23.169  29.179  1.00  0.00     0.029 A 
ATOM     55  C   UNL A   1      44.714  23.708  28.132  1.00  0.00     0.049 A 
ATOM     56  H   UNL A   1      46.062  25.303  28.308  1.00  0.00     0.167 HD
ATOM     57  C   UNL A   1      48.286  28.465  28.444  1.00  0.00     0.037 A 
ATOM     58  C   UNL A   1      44.624  23.436  26.803  1.00  0.00     0.037 A 
ATOM     59  C   UNL A   1      47.023  29.081  28.100  1.00  0.00     0.049 A 
ATOM     60  C   UNL A   1      44.595  24.743  26.116  1.00  0.00     0.074 A 
ATOM     61  C   UNL A   1      46.251  30.143  28.520  1.00  0.00     0.029 A 
ATOM     62  N   UNL A   1      46.208  28.281  27.350  1.00  0.00    -0.354 N 
ATOM     63  N   UNL A   1      43.603  25.583  26.217  1.00  0.00    -0.248 NA
ATOM     64  C   UNL A   1      45.765  25.230  25.393  1.00  0.00     0.031 C 
ATOM     65  C   UNL A   1      44.926  29.926  28.021  1.00  0.00     0.029 A 
ATOM     66  C   UNL A   1      44.915  28.739  27.305  1.00  0.00     0.049 A 
ATOM     67  H   UNL A   1      46.514  27.464  26.893  1.00  0.00     0.167 HD
ATOM     68  C   UNL A   1      44.196  26.802  26.003  1.00  0.00     0.074 A 
ATOM     69  C   UNL A   1      45.431  26.519  25.287  1.00  0.00     0.031 C 
ATOM     70  C   UNL A   1      43.884  27.856  26.808  1.00  0.00     0.037 A 
BRANCH  57  71
ATOM     71  C   UNL A   1      49.358  28.327  27.404  1.00  0.00     0.064 A 
ATOM     72  C   UNL A   1      50.144  29.452  27.100  1.00  0.00     0.173 A 
ATOM     73  C   UNL A   1      49.478  27.231  26.527  1.00  0.00     0.173 A 
ATOM     74  F   UNL A   1      50.057  30.565  27.844  1.00  0.00    -0.203 F 
ATOM     75  C   UNL A   1      50.985  29.480  25.987  1.00  0.00     0.198 A 
ATOM     76  C   UNL A   1      50.368  27.237  25.454  1.00  0.00     0.198 A 
ATOM     77  F   UNL A   1      48.666  26.169  26.608  1.00  0.00    -0.203 F 
ATOM     78  F   UNL A   1      51.644  30.605  25.679  1.00  0.00    -0.200 F 
ATOM     79  C   UNL A   1      51.106  28.368  25.172  1.00  0.00     0.200 A 
ATOM     80  F   UNL A   1      50.449  26.163  24.656  1.00  0.00    -0.200 F 
ATOM     81  F   UNL A   1      51.893  28.402  24.090  1.00  0.00    -0.200 F 
ENDBRANCH  57  71
BRANCH  58  82
ATOM     82  C   UNL A   1      44.275  22.211  26.045  1.00  0.00     0.064 A 
ATOM     83  C   UNL A   1      45.248  21.421  25.405  1.00  0.00     0.173 A 
ATOM     84  C   UNL A   1      43.008  21.628  26.208  1.00  0.00     0.173 A 
ATOM     85  F   UNL A   1      46.500  21.874  25.247  1.00  0.00    -0.203 F 
ATOM     86  C   UNL A   1      44.979  20.118  24.981  1.00  0.00     0.198 A 
ATOM     87  C   UNL A   1      42.733  20.327  25.771  1.00  0.00     0.198 A 
ATOM     88  F   UNL A   1      42.063  22.273  26.903  1.00  0.00    -0.203 F 
ATOM     89  F   UNL A   1      45.959  19.375  24.446  1.00  0.00    -0.200 F 
ATOM     90  C   UNL A   1      43.724  19.568  25.173  1.00  0.00     0.200 A 
ATOM     91  F   UNL A   1      41.529  19.784  25.998  1.00  0.00    -0.200 F 
ATOM     92  F   UNL A   1      43.487  18.294  24.827  1.00  0.00    -0.200 F 
ENDBRANCH  58  82
BRANCH  70  93
ATOM     93  C   UNL A   1      42.486  27.935  27.338  1.00  0.00     0.064 A 
ATOM     94  C   UNL A   1      42.050  27.348  28.538  1.00  0.00     0.173 A 
ATOM     95  C   UNL A   1      41.534  28.642  26.593  1.00  0.00     0.173 A 
ATOM     96  F   UNL A   1      42.904  26.701  29.337  1.00  0.00    -0.203 F 
ATOM     97  C   UNL A   1      40.721  27.431  28.950  1.00  0.00     0.198 A 
ATOM     98  C   UNL A   1      40.212  28.750  27.020  1.00  0.00     0.198 A 
ATOM     99  F   UNL A   1      41.890  29.240  25.445  1.00  0.00    -0.203 F 
ATOM    100  F   UNL A   1      40.331  26.835  30.088  1.00  0.00    -0.200 F 
ATOM    101  C   UNL A   1      39.802  28.137  28.192  1.00  0.00     0.200 A 
ATOM    102  F   UNL A   1      39.332  29.454  26.293  1.00  0.00    -0.200 F 
ATOM    103  F   UNL A   1      38.529  28.235  28.597  1.00  0.00    -0.200 F 
ENDBRANCH  70  93
ENDBRANCH  44  45
ENDBRANCH  37  39
ENDBRANCH  36  37
ENDBRANCH  35  36
ENDBRANCH  34  35
ENDBRANCH  33  34
ENDBRANCH  32  33
ENDBRANCH   1  32
TORSDOF 22
ENDMDL
