MODEL 1
REMARK VINA RESULT:     -11.0      0.000      0.000
REMARK SMILES CCOc1ccc(-c2nc(C(=O)OCCOCCOCCOC(=O)c3ccc(-c4c5nc(c(-c6c(F)c(F)c(F)c(F)c6F)c6ccc([nH]6)c(-c6c(F)c(F)c(F)c(F)c6F)c6nc(c(-c7c(F)c(F)c(F)c(F)c7F)c7ccc4[nH]7)C=C6)C=C5)cc3)cc(=O)[nH]2)cc1
REMARK SMILES IDX 17 1 16 2 15 3 14 4 13 5 11 6 12 7 10 8 8 9 9 10 91 11 89 12
REMARK SMILES IDX 88 14 90 15 7 16 4 17 5 18 93 19 6 20 92 21 3 22 2 23 1 24
REMARK SMILES IDX 18 25 19 26 20 27 21 28 22 29 23 30 24 31 25 32 26 33 87 34
REMARK SMILES IDX 27 35 86 36 28 37 29 38 30 39 80 40 31 41 85 42 79 43 81 44
REMARK SMILES IDX 32 45 84 46 78 47 77 48 33 50 65 51 45 52 64 53 46 54 49 55
REMARK SMILES IDX 63 56 82 57 47 58 48 59 62 61 83 62 50 63 34 64 35 65 43 66
REMARK SMILES IDX 36 67 37 68 41 69 44 70 38 71 39 72 42 73 40 74 66 75 67 76
REMARK SMILES IDX 75 77 68 78 69 79 73 80 76 81 70 82 71 83 74 84 72 85 51 86
REMARK SMILES IDX 52 87 60 88 53 89 54 90 58 91 61 92 55 93 56 94 59 95 57 96
REMARK H PARENT 91 13 81 49 49 60
REMARK Flexibility Score: inf
ROOT
ATOM      1  C   UNL A   1      41.247  19.383  26.159  1.00  0.00     0.188 C 
ENDROOT
BRANCH   1   2
ATOM      2  O   UNL A   1      40.895  19.959  27.413  1.00  0.00    -0.376 OA
BRANCH   2   3
ATOM      3  C   UNL A   1      40.776  21.374  27.532  1.00  0.00     0.202 C 
BRANCH   3   4
ATOM      4  C   UNL A   1      40.280  22.191  26.331  1.00  0.00     0.261 C 
BRANCH   4   5
ATOM      5  O   UNL A   1      38.869  22.068  26.088  1.00  0.00    -0.459 OA
BRANCH   5   6
ATOM      6  C   UNL A   1      38.153  23.223  26.171  1.00  0.00     0.357 C 
ATOM      7  O   UNL A   1      38.609  24.336  26.390  1.00  0.00    -0.244 OA
BRANCH   6   8
ATOM      8  C   UNL A   1      36.722  22.975  25.796  1.00  0.00     0.156 A 
ATOM      9  C   UNL A   1      34.646  23.851  25.441  1.00  0.00     0.141 A 
ATOM     10  N   UNL A   1      35.888  24.071  25.717  1.00  0.00    -0.223 NA
ATOM     11  N   UNL A   1      34.141  22.602  25.202  1.00  0.00    -0.306 N 
ATOM     12  C   UNL A   1      34.932  21.491  25.209  1.00  0.00     0.251 A 
ATOM     13  H   UNL A   1      33.179  22.502  25.020  1.00  0.00     0.171 HD
ATOM     14  C   UNL A   1      36.342  21.714  25.553  1.00  0.00     0.107 A 
ATOM     15  O   UNL A   1      34.509  20.374  24.938  1.00  0.00    -0.269 OA
BRANCH   9  16
ATOM     16  C   UNL A   1      33.693  24.969  25.333  1.00  0.00     0.018 A 
ATOM     17  C   UNL A   1      31.999  27.170  25.220  1.00  0.00     0.119 A 
ATOM     18  C   UNL A   1      31.640  26.054  25.980  1.00  0.00     0.047 A 
ATOM     19  C   UNL A   1      33.211  27.195  24.532  1.00  0.00     0.047 A 
ATOM     20  C   UNL A   1      32.484  24.940  26.030  1.00  0.00     0.016 A 
ATOM     21  C   UNL A   1      34.061  26.091  24.586  1.00  0.00     0.016 A 
BRANCH  17  22
ATOM     22  O   UNL A   1      31.215  28.286  25.308  1.00  0.00    -0.494 OA
BRANCH  22  23
ATOM     23  C   UNL A   1      31.371  29.189  24.208  1.00  0.00     0.226 C 
ATOM     24  C   UNL A   1      30.039  29.494  23.540  1.00  0.00     0.049 C 
ENDBRANCH  22  23
ENDBRANCH  17  22
ENDBRANCH   9  16
ENDBRANCH   6   8
ENDBRANCH   5   6
ENDBRANCH   4   5
ENDBRANCH   3   4
ENDBRANCH   2   3
ENDBRANCH   1   2
BRANCH   1  25
ATOM     25  C   UNL A   1      42.701  18.930  25.906  1.00  0.00     0.188 C 
BRANCH  25  26
ATOM     26  O   UNL A   1      43.414  19.741  25.004  1.00  0.00    -0.376 OA
BRANCH  26  27
ATOM     27  C   UNL A   1      43.982  20.963  25.437  1.00  0.00     0.202 C 
BRANCH  27  28
ATOM     28  C   UNL A   1      44.127  22.226  24.563  1.00  0.00     0.261 C 
BRANCH  28  29
ATOM     29  O   UNL A   1      43.405  23.399  24.942  1.00  0.00    -0.460 OA
BRANCH  29  30
ATOM     30  C   UNL A   1      44.128  24.524  25.118  1.00  0.00     0.338 C 
ATOM     31  O   UNL A   1      45.123  24.877  24.499  1.00  0.00    -0.246 OA
BRANCH  30  32
ATOM     32  C   UNL A   1      43.424  25.378  26.088  1.00  0.00     0.060 A 
ATOM     33  C   UNL A   1      43.800  26.722  26.192  1.00  0.00     0.016 A 
ATOM     34  C   UNL A   1      42.418  24.854  26.904  1.00  0.00     0.016 A 
ATOM     35  C   UNL A   1      43.182  27.544  27.134  1.00  0.00     0.010 A 
ATOM     36  C   UNL A   1      41.809  25.677  27.857  1.00  0.00     0.010 A 
ATOM     37  C   UNL A   1      42.204  27.019  27.989  1.00  0.00    -0.014 A 
BRANCH  37  38
ATOM     38  C   UNL A   1      41.722  27.835  29.127  1.00  0.00     0.031 A 
ATOM     39  C   UNL A   1      42.447  27.741  30.438  1.00  0.00     0.074 A 
ATOM     40  C   UNL A   1      40.677  28.669  28.992  1.00  0.00     0.049 A 
ATOM     41  N   UNL A   1      42.190  28.327  31.578  1.00  0.00    -0.248 NA
ATOM     42  C   UNL A   1      43.630  26.867  30.461  1.00  0.00     0.031 C 
ATOM     43  C   UNL A   1      39.921  28.884  27.762  1.00  0.00     0.029 A 
ATOM     44  N   UNL A   1      40.065  29.482  29.915  1.00  0.00    -0.354 N 
ATOM     45  C   UNL A   1      43.175  27.895  32.454  1.00  0.00     0.074 A 
ATOM     46  C   UNL A   1      44.020  26.975  31.722  1.00  0.00     0.031 C 
ATOM     47  C   UNL A   1      38.924  29.751  28.011  1.00  0.00     0.029 A 
ATOM     48  C   UNL A   1      38.955  30.124  29.425  1.00  0.00     0.049 A 
ATOM     49  H   UNL A   1      40.390  29.593  30.837  1.00  0.00     0.167 HD
ATOM     50  C   UNL A   1      43.363  28.239  33.749  1.00  0.00     0.037 A 
ATOM     51  C   UNL A   1      38.048  30.895  30.058  1.00  0.00     0.037 A 
ATOM     52  C   UNL A   1      42.508  29.133  34.483  1.00  0.00     0.049 A 
ATOM     53  C   UNL A   1      38.224  31.193  31.526  1.00  0.00     0.074 A 
ATOM     54  C   UNL A   1      42.615  29.547  35.798  1.00  0.00     0.029 A 
ATOM     55  N   UNL A   1      41.371  29.738  33.965  1.00  0.00    -0.354 N 
ATOM     56  N   UNL A   1      39.172  30.802  32.343  1.00  0.00    -0.248 NA
ATOM     57  C   UNL A   1      37.204  32.043  32.156  1.00  0.00     0.031 C 
ATOM     58  C   UNL A   1      41.515  30.360  36.092  1.00  0.00     0.029 A 
ATOM     59  C   UNL A   1      40.754  30.501  34.942  1.00  0.00     0.049 A 
ATOM     60  H   UNL A   1      41.052  29.640  33.038  1.00  0.00     0.167 HD
ATOM     61  C   UNL A   1      38.877  31.374  33.575  1.00  0.00     0.074 A 
ATOM     62  C   UNL A   1      37.667  32.150  33.394  1.00  0.00     0.031 C 
ATOM     63  C   UNL A   1      39.549  31.269  34.749  1.00  0.00     0.037 A 
BRANCH  50  64
ATOM     64  C   UNL A   1      44.524  27.607  34.460  1.00  0.00     0.064 A 
ATOM     65  C   UNL A   1      45.767  28.252  34.561  1.00  0.00     0.173 A 
ATOM     66  C   UNL A   1      44.395  26.336  35.041  1.00  0.00     0.173 A 
ATOM     67  F   UNL A   1      45.947  29.460  34.006  1.00  0.00    -0.203 F 
ATOM     68  C   UNL A   1      46.846  27.633  35.184  1.00  0.00     0.198 A 
ATOM     69  C   UNL A   1      45.469  25.734  35.690  1.00  0.00     0.198 A 
ATOM     70  F   UNL A   1      43.229  25.677  34.974  1.00  0.00    -0.203 F 
ATOM     71  F   UNL A   1      48.040  28.242  35.215  1.00  0.00    -0.200 F 
ATOM     72  C   UNL A   1      46.695  26.376  35.752  1.00  0.00     0.200 A 
ATOM     73  F   UNL A   1      45.318  24.523  36.247  1.00  0.00    -0.200 F 
ATOM     74  F   UNL A   1      47.736  25.780  36.348  1.00  0.00    -0.200 F 
ENDBRANCH  50  64
BRANCH  51  75
ATOM     75  C   UNL A   1      36.873  31.411  29.311  1.00  0.00     0.064 A 
ATOM     76  C   UNL A   1      36.776  32.759  28.942  1.00  0.00     0.173 A 
ATOM     77  C   UNL A   1      35.813  30.559  28.957  1.00  0.00     0.173 A 
ATOM     78  F   UNL A   1      37.745  33.617  29.288  1.00  0.00    -0.203 F 
ATOM     79  C   UNL A   1      35.661  33.239  28.256  1.00  0.00     0.198 A 
ATOM     80  C   UNL A   1      34.712  31.035  28.250  1.00  0.00     0.198 A 
ATOM     81  F   UNL A   1      35.853  29.262  29.297  1.00  0.00    -0.203 F 
ATOM     82  F   UNL A   1      35.573  34.541  27.955  1.00  0.00    -0.200 F 
ATOM     83  C   UNL A   1      34.634  32.375  27.904  1.00  0.00     0.200 A 
ATOM     84  F   UNL A   1      33.725  30.196  27.908  1.00  0.00    -0.200 F 
ATOM     85  F   UNL A   1      33.563  32.838  27.244  1.00  0.00    -0.200 F 
ENDBRANCH  51  75
BRANCH  63  86
ATOM     86  C   UNL A   1      39.013  32.033  35.926  1.00  0.00     0.064 A 
ATOM     87  C   UNL A   1      38.174  31.433  36.876  1.00  0.00     0.173 A 
ATOM     88  C   UNL A   1      39.385  33.372  36.130  1.00  0.00     0.173 A 
ATOM     89  F   UNL A   1      37.778  30.161  36.720  1.00  0.00    -0.203 F 
ATOM     90  C   UNL A   1      37.710  32.151  37.975  1.00  0.00     0.198 A 
ATOM     91  C   UNL A   1      38.943  34.076  37.246  1.00  0.00     0.198 A 
ATOM     92  F   UNL A   1      40.191  33.990  35.255  1.00  0.00    -0.203 F 
ATOM     93  F   UNL A   1      36.874  31.571  38.848  1.00  0.00    -0.200 F 
ATOM     94  C   UNL A   1      38.101  33.469  38.164  1.00  0.00     0.200 A 
ATOM     95  F   UNL A   1      39.334  35.344  37.433  1.00  0.00    -0.200 F 
ATOM     96  F   UNL A   1      37.660  34.154  39.229  1.00  0.00    -0.200 F 
ENDBRANCH  63  86
ENDBRANCH  37  38
ENDBRANCH  30  32
ENDBRANCH  29  30
ENDBRANCH  28  29
ENDBRANCH  27  28
ENDBRANCH  26  27
ENDBRANCH  25  26
ENDBRANCH   1  25
TORSDOF 20
ENDMDL
MODEL 2
REMARK VINA RESULT:     -10.7      1.558      3.590
REMARK SMILES CCOc1ccc(-c2nc(C(=O)OCCOCCOCCOC(=O)c3ccc(-c4c5nc(c(-c6c(F)c(F)c(F)c(F)c6F)c6ccc([nH]6)c(-c6c(F)c(F)c(F)c(F)c6F)c6nc(c(-c7c(F)c(F)c(F)c(F)c7F)c7ccc4[nH]7)C=C6)C=C5)cc3)cc(=O)[nH]2)cc1
REMARK SMILES IDX 17 1 16 2 15 3 14 4 13 5 11 6 12 7 10 8 8 9 9 10 91 11 89 12
REMARK SMILES IDX 88 14 90 15 7 16 4 17 5 18 93 19 6 20 92 21 3 22 2 23 1 24
REMARK SMILES IDX 18 25 19 26 20 27 21 28 22 29 23 30 24 31 25 32 26 33 87 34
REMARK SMILES IDX 27 35 86 36 28 37 29 38 30 39 80 40 31 41 85 42 79 43 81 44
REMARK SMILES IDX 32 45 84 46 78 47 77 48 33 50 65 51 45 52 64 53 46 54 49 55
REMARK SMILES IDX 63 56 82 57 47 58 48 59 62 61 83 62 50 63 34 64 35 65 43 66
REMARK SMILES IDX 36 67 37 68 41 69 44 70 38 71 39 72 42 73 40 74 66 75 67 76
REMARK SMILES IDX 75 77 68 78 69 79 73 80 76 81 70 82 71 83 74 84 72 85 51 86
REMARK SMILES IDX 52 87 60 88 53 89 54 90 58 91 61 92 55 93 56 94 59 95 57 96
REMARK H PARENT 91 13 81 49 49 60
REMARK Flexibility Score: inf
ROOT
ATOM      1  C   UNL A   1      41.230  19.437  26.097  1.00  0.00     0.188 C 
ENDROOT
BRANCH   1   2
ATOM      2  O   UNL A   1      40.844  19.979  27.356  1.00  0.00    -0.376 OA
BRANCH   2   3
ATOM      3  C   UNL A   1      40.714  21.389  27.508  1.00  0.00     0.202 C 
BRANCH   3   4
ATOM      4  C   UNL A   1      40.086  22.214  26.376  1.00  0.00     0.261 C 
BRANCH   4   5
ATOM      5  O   UNL A   1      38.658  22.080  26.283  1.00  0.00    -0.459 OA
BRANCH   5   6
ATOM      6  C   UNL A   1      37.968  23.239  26.099  1.00  0.00     0.357 C 
ATOM      7  O   UNL A   1      38.360  24.361  26.385  1.00  0.00    -0.244 OA
BRANCH   6   8
ATOM      8  C   UNL A   1      36.702  22.974  25.339  1.00  0.00     0.156 A 
ATOM      9  C   UNL A   1      35.120  21.458  24.705  1.00  0.00     0.141 A 
ATOM     10  N   UNL A   1      36.182  21.698  25.398  1.00  0.00    -0.223 NA
ATOM     11  N   UNL A   1      34.485  22.410  23.953  1.00  0.00    -0.306 N 
ATOM     12  C   UNL A   1      34.921  23.701  23.906  1.00  0.00     0.251 A 
ATOM     13  H   UNL A   1      33.692  22.155  23.429  1.00  0.00     0.171 HD
ATOM     14  C   UNL A   1      36.148  23.988  24.660  1.00  0.00     0.107 A 
ATOM     15  O   UNL A   1      34.332  24.578  23.286  1.00  0.00    -0.269 OA
BRANCH   9  16
ATOM     16  C   UNL A   1      34.500  20.123  24.720  1.00  0.00     0.018 A 
ATOM     17  C   UNL A   1      33.384  17.580  24.591  1.00  0.00     0.119 A 
ATOM     18  C   UNL A   1      32.555  18.704  24.592  1.00  0.00     0.047 A 
ATOM     19  C   UNL A   1      34.770  17.724  24.635  1.00  0.00     0.047 A 
ATOM     20  C   UNL A   1      33.112  19.985  24.669  1.00  0.00     0.016 A 
ATOM     21  C   UNL A   1      35.331  18.999  24.702  1.00  0.00     0.016 A 
BRANCH  17  22
ATOM     22  O   UNL A   1      32.810  16.358  24.378  1.00  0.00    -0.494 OA
BRANCH  22  23
ATOM     23  C   UNL A   1      32.432  15.680  25.581  1.00  0.00     0.226 C 
ATOM     24  C   UNL A   1      32.769  14.198  25.519  1.00  0.00     0.049 C 
ENDBRANCH  22  23
ENDBRANCH  17  22
ENDBRANCH   9  16
ENDBRANCH   6   8
ENDBRANCH   5   6
ENDBRANCH   4   5
ENDBRANCH   3   4
ENDBRANCH   2   3
ENDBRANCH   1   2
BRANCH   1  25
ATOM     25  C   UNL A   1      42.655  18.876  25.909  1.00  0.00     0.188 C 
BRANCH  25  26
ATOM     26  O   UNL A   1      43.444  19.590  24.988  1.00  0.00    -0.376 OA
BRANCH  26  27
ATOM     27  C   UNL A   1      44.137  20.756  25.393  1.00  0.00     0.202 C 
BRANCH  27  28
ATOM     28  C   UNL A   1      44.214  22.063  24.578  1.00  0.00     0.261 C 
BRANCH  28  29
ATOM     29  O   UNL A   1      43.492  23.201  25.054  1.00  0.00    -0.460 OA
BRANCH  29  30
ATOM     30  C   UNL A   1      44.184  24.355  25.159  1.00  0.00     0.338 C 
ATOM     31  O   UNL A   1      45.138  24.718  24.483  1.00  0.00    -0.246 OA
BRANCH  30  32
ATOM     32  C   UNL A   1      43.495  25.219  26.131  1.00  0.00     0.060 A 
ATOM     33  C   UNL A   1      43.860  26.567  26.203  1.00  0.00     0.016 A 
ATOM     34  C   UNL A   1      42.514  24.699  26.980  1.00  0.00     0.016 A 
ATOM     35  C   UNL A   1      43.256  27.400  27.145  1.00  0.00     0.010 A 
ATOM     36  C   UNL A   1      41.919  25.532  27.932  1.00  0.00     0.010 A 
ATOM     37  C   UNL A   1      42.304  26.881  28.032  1.00  0.00    -0.014 A 
BRANCH  37  38
ATOM     38  C   UNL A   1      41.842  27.712  29.168  1.00  0.00     0.031 A 
ATOM     39  C   UNL A   1      42.582  27.626  30.470  1.00  0.00     0.074 A 
ATOM     40  C   UNL A   1      40.800  28.551  29.037  1.00  0.00     0.049 A 
ATOM     41  N   UNL A   1      42.342  28.226  31.607  1.00  0.00    -0.248 NA
ATOM     42  C   UNL A   1      43.760  26.745  30.488  1.00  0.00     0.031 C 
ATOM     43  C   UNL A   1      40.031  28.757  27.813  1.00  0.00     0.029 A 
ATOM     44  N   UNL A   1      40.204  29.377  29.958  1.00  0.00    -0.354 N 
ATOM     45  C   UNL A   1      43.336  27.797  32.476  1.00  0.00     0.074 A 
ATOM     46  C   UNL A   1      44.166  26.864  31.743  1.00  0.00     0.031 C 
ATOM     47  C   UNL A   1      39.042  29.633  28.066  1.00  0.00     0.029 A 
ATOM     48  C   UNL A   1      39.093  30.021  29.476  1.00  0.00     0.049 A 
ATOM     49  H   UNL A   1      40.542  29.495  30.875  1.00  0.00     0.167 HD
ATOM     50  C   UNL A   1      43.542  28.153  33.765  1.00  0.00     0.037 A 
ATOM     51  C   UNL A   1      38.199  30.805  30.111  1.00  0.00     0.037 A 
ATOM     52  C   UNL A   1      42.701  29.059  34.499  1.00  0.00     0.049 A 
ATOM     53  C   UNL A   1      38.394  31.117  31.573  1.00  0.00     0.074 A 
ATOM     54  C   UNL A   1      42.827  29.486  35.809  1.00  0.00     0.029 A 
ATOM     55  N   UNL A   1      41.562  29.667  33.989  1.00  0.00    -0.354 N 
ATOM     56  N   UNL A   1      39.350  30.728  32.383  1.00  0.00    -0.248 NA
ATOM     57  C   UNL A   1      37.387  31.979  32.207  1.00  0.00     0.031 C 
ATOM     58  C   UNL A   1      41.736  30.310  36.107  1.00  0.00     0.029 A 
ATOM     59  C   UNL A   1      40.962  30.444  34.966  1.00  0.00     0.049 A 
ATOM     60  H   UNL A   1      41.231  29.561  33.067  1.00  0.00     0.167 HD
ATOM     61  C   UNL A   1      39.074  31.315  33.612  1.00  0.00     0.074 A 
ATOM     62  C   UNL A   1      37.867  32.097  33.438  1.00  0.00     0.031 C 
ATOM     63  C   UNL A   1      39.759  31.217  34.779  1.00  0.00     0.037 A 
BRANCH  50  64
ATOM     64  C   UNL A   1      44.707  27.520  34.468  1.00  0.00     0.064 A 
ATOM     65  C   UNL A   1      45.977  28.118  34.474  1.00  0.00     0.173 A 
ATOM     66  C   UNL A   1      44.555  26.297  35.137  1.00  0.00     0.173 A 
ATOM     67  F   UNL A   1      46.180  29.279  33.832  1.00  0.00    -0.203 F 
ATOM     68  C   UNL A   1      47.059  27.497  35.092  1.00  0.00     0.198 A 
ATOM     69  C   UNL A   1      45.631  25.694  35.781  1.00  0.00     0.198 A 
ATOM     70  F   UNL A   1      43.362  25.684  35.163  1.00  0.00    -0.203 F 
ATOM     71  F   UNL A   1      48.275  28.056  35.032  1.00  0.00    -0.200 F 
ATOM     72  C   UNL A   1      46.884  26.287  35.748  1.00  0.00     0.200 A 
ATOM     73  F   UNL A   1      45.458  24.530  36.424  1.00  0.00    -0.200 F 
ATOM     74  F   UNL A   1      47.926  25.688  36.340  1.00  0.00    -0.200 F 
ENDBRANCH  50  64
BRANCH  51  75
ATOM     75  C   UNL A   1      37.018  31.320  29.373  1.00  0.00     0.064 A 
ATOM     76  C   UNL A   1      35.926  30.494  29.076  1.00  0.00     0.173 A 
ATOM     77  C   UNL A   1      36.964  32.655  28.940  1.00  0.00     0.173 A 
ATOM     78  F   UNL A   1      35.946  29.204  29.437  1.00  0.00    -0.203 F 
ATOM     79  C   UNL A   1      34.828  30.980  28.367  1.00  0.00     0.198 A 
ATOM     80  C   UNL A   1      35.856  33.146  28.254  1.00  0.00     0.198 A 
ATOM     81  F   UNL A   1      37.990  33.483  29.189  1.00  0.00    -0.203 F 
ATOM     82  F   UNL A   1      33.817  30.159  28.057  1.00  0.00    -0.200 F 
ATOM     83  C   UNL A   1      34.791  32.307  27.964  1.00  0.00     0.200 A 
ATOM     84  F   UNL A   1      35.823  34.429  27.871  1.00  0.00    -0.200 F 
ATOM     85  F   UNL A   1      33.735  32.774  27.283  1.00  0.00    -0.200 F 
ENDBRANCH  51  75
BRANCH  63  86
ATOM     86  C   UNL A   1      39.243  31.998  35.954  1.00  0.00     0.064 A 
ATOM     87  C   UNL A   1      39.651  33.317  36.202  1.00  0.00     0.173 A 
ATOM     88  C   UNL A   1      38.289  31.433  36.816  1.00  0.00     0.173 A 
ATOM     89  F   UNL A   1      40.571  33.897  35.416  1.00  0.00    -0.203 F 
ATOM     90  C   UNL A   1      39.140  34.034  37.280  1.00  0.00     0.198 A 
ATOM     91  C   UNL A   1      37.758  32.164  37.875  1.00  0.00     0.198 A 
ATOM     92  F   UNL A   1      37.859  30.179  36.620  1.00  0.00    -0.203 F 
ATOM     93  F   UNL A   1      39.577  35.277  37.523  1.00  0.00    -0.200 F 
ATOM     94  C   UNL A   1      38.188  33.460  38.111  1.00  0.00     0.200 A 
ATOM     95  F   UNL A   1      36.828  31.612  38.667  1.00  0.00    -0.200 F 
ATOM     96  F   UNL A   1      37.691  34.156  39.143  1.00  0.00    -0.200 F 
ENDBRANCH  63  86
ENDBRANCH  37  38
ENDBRANCH  30  32
ENDBRANCH  29  30
ENDBRANCH  28  29
ENDBRANCH  27  28
ENDBRANCH  26  27
ENDBRANCH  25  26
ENDBRANCH   1  25
TORSDOF 20
ENDMDL
MODEL 3
REMARK VINA RESULT:     -10.7      3.947      9.462
REMARK SMILES CCOc1ccc(-c2nc(C(=O)OCCOCCOCCOC(=O)c3ccc(-c4c5nc(c(-c6c(F)c(F)c(F)c(F)c6F)c6ccc([nH]6)c(-c6c(F)c(F)c(F)c(F)c6F)c6nc(c(-c7c(F)c(F)c(F)c(F)c7F)c7ccc4[nH]7)C=C6)C=C5)cc3)cc(=O)[nH]2)cc1
REMARK SMILES IDX 17 1 16 2 15 3 14 4 13 5 11 6 12 7 10 8 8 9 9 10 91 11 89 12
REMARK SMILES IDX 88 14 90 15 7 16 4 17 5 18 93 19 6 20 92 21 3 22 2 23 1 24
REMARK SMILES IDX 18 25 19 26 20 27 21 28 22 29 23 30 24 31 25 32 26 33 87 34
REMARK SMILES IDX 27 35 86 36 28 37 29 38 30 39 80 40 31 41 85 42 79 43 81 44
REMARK SMILES IDX 32 45 84 46 78 47 77 48 33 50 65 51 45 52 64 53 46 54 49 55
REMARK SMILES IDX 63 56 82 57 47 58 48 59 62 61 83 62 50 63 34 64 35 65 43 66
REMARK SMILES IDX 36 67 37 68 41 69 44 70 38 71 39 72 42 73 40 74 66 75 67 76
REMARK SMILES IDX 75 77 68 78 69 79 73 80 76 81 70 82 71 83 74 84 72 85 51 86
REMARK SMILES IDX 52 87 60 88 53 89 54 90 58 91 61 92 55 93 56 94 59 95 57 96
REMARK H PARENT 91 13 81 49 49 60
REMARK Flexibility Score: inf
ROOT
ATOM      1  C   UNL A   1      34.903  31.610  28.336  1.00  0.00     0.188 C 
ENDROOT
BRANCH   1   2
ATOM      2  O   UNL A   1      33.727  31.176  27.659  1.00  0.00    -0.376 OA
BRANCH   2   3
ATOM      3  C   UNL A   1      33.782  30.036  26.808  1.00  0.00     0.202 C 
BRANCH   3   4
ATOM      4  C   UNL A   1      33.235  28.693  27.313  1.00  0.00     0.261 C 
BRANCH   4   5
ATOM      5  O   UNL A   1      33.559  27.578  26.465  1.00  0.00    -0.459 OA
BRANCH   5   6
ATOM      6  C   UNL A   1      32.550  26.692  26.245  1.00  0.00     0.357 C 
ATOM      7  O   UNL A   1      31.488  26.648  26.849  1.00  0.00    -0.244 OA
BRANCH   6   8
ATOM      8  C   UNL A   1      32.848  25.857  25.035  1.00  0.00     0.156 A 
ATOM      9  C   UNL A   1      33.016  23.769  24.131  1.00  0.00     0.141 A 
ATOM     10  N   UNL A   1      32.712  24.490  25.158  1.00  0.00    -0.223 NA
ATOM     11  N   UNL A   1      33.430  24.300  22.939  1.00  0.00    -0.306 N 
ATOM     12  C   UNL A   1      33.524  25.646  22.743  1.00  0.00     0.251 A 
ATOM     13  H   UNL A   1      33.668  23.692  22.202  1.00  0.00     0.171 HD
ATOM     14  C   UNL A   1      33.216  26.484  23.909  1.00  0.00     0.107 A 
ATOM     15  O   UNL A   1      33.835  26.139  21.666  1.00  0.00    -0.269 OA
BRANCH   9  16
ATOM     16  C   UNL A   1      32.892  22.303  24.181  1.00  0.00     0.018 A 
ATOM     17  C   UNL A   1      32.492  19.553  24.277  1.00  0.00     0.119 A 
ATOM     18  C   UNL A   1      32.989  20.223  25.398  1.00  0.00     0.047 A 
ATOM     19  C   UNL A   1      32.177  20.257  23.116  1.00  0.00     0.047 A 
ATOM     20  C   UNL A   1      33.202  21.605  25.350  1.00  0.00     0.016 A 
ATOM     21  C   UNL A   1      32.378  21.636  23.065  1.00  0.00     0.016 A 
BRANCH  17  22
ATOM     22  O   UNL A   1      32.170  18.232  24.409  1.00  0.00    -0.494 OA
BRANCH  22  23
ATOM     23  C   UNL A   1      33.291  17.390  24.699  1.00  0.00     0.226 C 
ATOM     24  C   UNL A   1      33.941  16.866  23.428  1.00  0.00     0.049 C 
ENDBRANCH  22  23
ENDBRANCH  17  22
ENDBRANCH   9  16
ENDBRANCH   6   8
ENDBRANCH   5   6
ENDBRANCH   4   5
ENDBRANCH   3   4
ENDBRANCH   2   3
ENDBRANCH   1   2
BRANCH   1  25
ATOM     25  C   UNL A   1      35.020  33.075  28.807  1.00  0.00     0.188 C 
BRANCH  25  26
ATOM     26  O   UNL A   1      34.298  33.995  28.025  1.00  0.00    -0.376 OA
BRANCH  26  27
ATOM     27  C   UNL A   1      34.144  35.335  28.457  1.00  0.00     0.202 C 
BRANCH  27  28
ATOM     28  C   UNL A   1      32.963  35.859  29.300  1.00  0.00     0.261 C 
BRANCH  28  29
ATOM     29  O   UNL A   1      32.534  35.083  30.420  1.00  0.00    -0.460 OA
BRANCH  29  30
ATOM     30  C   UNL A   1      32.773  35.602  31.643  1.00  0.00     0.338 C 
ATOM     31  O   UNL A   1      32.086  36.405  32.261  1.00  0.00    -0.246 OA
BRANCH  30  32
ATOM     32  C   UNL A   1      33.937  34.909  32.218  1.00  0.00     0.060 A 
ATOM     33  C   UNL A   1      35.200  35.494  32.077  1.00  0.00     0.016 A 
ATOM     34  C   UNL A   1      33.788  33.683  32.871  1.00  0.00     0.016 A 
ATOM     35  C   UNL A   1      36.327  34.838  32.572  1.00  0.00     0.010 A 
ATOM     36  C   UNL A   1      34.920  33.022  33.357  1.00  0.00     0.010 A 
ATOM     37  C   UNL A   1      36.196  33.588  33.189  1.00  0.00    -0.014 A 
BRANCH  37  38
ATOM     38  C   UNL A   1      37.413  32.803  33.504  1.00  0.00     0.031 A 
ATOM     39  C   UNL A   1      38.150  33.099  34.777  1.00  0.00     0.074 A 
ATOM     40  C   UNL A   1      37.840  31.824  32.688  1.00  0.00     0.049 A 
ATOM     41  N   UNL A   1      39.252  32.572  35.245  1.00  0.00    -0.248 NA
ATOM     42  C   UNL A   1      37.556  34.127  35.645  1.00  0.00     0.031 C 
ATOM     43  C   UNL A   1      37.186  31.413  31.449  1.00  0.00     0.029 A 
ATOM     44  N   UNL A   1      38.941  31.009  32.781  1.00  0.00    -0.354 N 
ATOM     45  C   UNL A   1      39.484  33.202  36.459  1.00  0.00     0.074 A 
ATOM     46  C   UNL A   1      38.424  34.171  36.644  1.00  0.00     0.031 C 
ATOM     47  C   UNL A   1      37.915  30.438  30.878  1.00  0.00     0.029 A 
ATOM     48  C   UNL A   1      39.101  30.182  31.696  1.00  0.00     0.049 A 
ATOM     49  H   UNL A   1      39.554  31.015  33.549  1.00  0.00     0.167 HD
ATOM     50  C   UNL A   1      40.486  32.989  37.343  1.00  0.00     0.037 A 
ATOM     51  C   UNL A   1      40.109  29.344  31.385  1.00  0.00     0.037 A 
ATOM     52  C   UNL A   1      41.553  32.044  37.146  1.00  0.00     0.049 A 
ATOM     53  C   UNL A   1      41.265  29.188  32.340  1.00  0.00     0.074 A 
ATOM     54  C   UNL A   1      42.614  31.752  37.984  1.00  0.00     0.029 A 
ATOM     55  N   UNL A   1      41.703  31.249  36.019  1.00  0.00    -0.354 N 
ATOM     56  N   UNL A   1      41.467  29.768  33.499  1.00  0.00    -0.248 NA
ATOM     57  C   UNL A   1      42.330  28.256  31.945  1.00  0.00     0.031 C 
ATOM     58  C   UNL A   1      43.435  30.819  37.341  1.00  0.00     0.029 A 
ATOM     59  C   UNL A   1      42.853  30.486  36.128  1.00  0.00     0.049 A 
ATOM     60  H   UNL A   1      41.082  31.231  35.255  1.00  0.00     0.167 HD
ATOM     61  C   UNL A   1      42.666  29.257  33.980  1.00  0.00     0.074 A 
ATOM     62  C   UNL A   1      43.141  28.310  32.993  1.00  0.00     0.031 C 
ATOM     63  C   UNL A   1      43.315  29.545  35.136  1.00  0.00     0.037 A 
BRANCH  50  64
ATOM     64  C   UNL A   1      40.488  33.829  38.587  1.00  0.00     0.064 A 
ATOM     65  C   UNL A   1      39.758  33.459  39.727  1.00  0.00     0.173 A 
ATOM     66  C   UNL A   1      41.221  35.024  38.636  1.00  0.00     0.173 A 
ATOM     67  F   UNL A   1      39.025  32.335  39.724  1.00  0.00    -0.203 F 
ATOM     68  C   UNL A   1      39.734  34.272  40.857  1.00  0.00     0.198 A 
ATOM     69  C   UNL A   1      41.219  35.818  39.779  1.00  0.00     0.198 A 
ATOM     70  F   UNL A   1      41.937  35.423  37.574  1.00  0.00    -0.203 F 
ATOM     71  F   UNL A   1      38.981  33.929  41.912  1.00  0.00    -0.200 F 
ATOM     72  C   UNL A   1      40.467  35.449  40.883  1.00  0.00     0.200 A 
ATOM     73  F   UNL A   1      41.937  36.951  39.806  1.00  0.00    -0.200 F 
ATOM     74  F   UNL A   1      40.440  36.232  41.970  1.00  0.00    -0.200 F 
ENDBRANCH  50  64
BRANCH  51  75
ATOM     75  C   UNL A   1      40.085  28.614  30.091  1.00  0.00     0.064 A 
ATOM     76  C   UNL A   1      39.484  27.354  29.976  1.00  0.00     0.173 A 
ATOM     77  C   UNL A   1      40.675  29.165  28.942  1.00  0.00     0.173 A 
ATOM     78  F   UNL A   1      38.939  26.772  31.053  1.00  0.00    -0.203 F 
ATOM     79  C   UNL A   1      39.481  26.667  28.762  1.00  0.00     0.198 A 
ATOM     80  C   UNL A   1      40.649  28.489  27.724  1.00  0.00     0.198 A 
ATOM     81  F   UNL A   1      41.273  30.364  29.004  1.00  0.00    -0.203 F 
ATOM     82  F   UNL A   1      38.940  25.444  28.689  1.00  0.00    -0.200 F 
ATOM     83  C   UNL A   1      40.056  27.239  27.636  1.00  0.00     0.200 A 
ATOM     84  F   UNL A   1      41.201  29.047  26.639  1.00  0.00    -0.200 F 
ATOM     85  F   UNL A   1      40.052  26.578  26.470  1.00  0.00    -0.200 F 
ENDBRANCH  51  75
BRANCH  63  86
ATOM     86  C   UNL A   1      44.592  28.807  35.418  1.00  0.00     0.064 A 
ATOM     87  C   UNL A   1      44.595  27.532  36.004  1.00  0.00     0.173 A 
ATOM     88  C   UNL A   1      45.828  29.362  35.050  1.00  0.00     0.173 A 
ATOM     89  F   UNL A   1      43.441  26.963  36.386  1.00  0.00    -0.203 F 
ATOM     90  C   UNL A   1      45.788  26.851  36.232  1.00  0.00     0.198 A 
ATOM     91  C   UNL A   1      47.016  28.665  35.251  1.00  0.00     0.198 A 
ATOM     92  F   UNL A   1      45.881  30.574  34.479  1.00  0.00    -0.203 F 
ATOM     93  F   UNL A   1      45.770  25.654  36.833  1.00  0.00    -0.200 F 
ATOM     94  C   UNL A   1      46.997  27.414  35.848  1.00  0.00     0.200 A 
ATOM     95  F   UNL A   1      48.181  29.205  34.866  1.00  0.00    -0.200 F 
ATOM     96  F   UNL A   1      48.143  26.752  36.059  1.00  0.00    -0.200 F 
ENDBRANCH  63  86
ENDBRANCH  37  38
ENDBRANCH  30  32
ENDBRANCH  29  30
ENDBRANCH  28  29
ENDBRANCH  27  28
ENDBRANCH  26  27
ENDBRANCH  25  26
ENDBRANCH   1  25
TORSDOF 20
ENDMDL
