MODEL 1
REMARK VINA RESULT:     -11.2      0.000      0.000
REMARK SMILES COc1ccc2cc([C@@H](C)C(=O)OCCOCCOCCOC(=O)c3ccc(-c4c5nc(c(-c6c(F)c(F)c(F)c(F)c6F)c6ccc([nH]6)c(-c6c(F)c(F)c(F)c(F)c6F)c6nc(c(-c7c(F)c(F)c(F)c(F)c7F)c7ccc4[nH]7)C=C6)C=C5)cc3)ccc2c1
REMARK SMILES IDX 17 1 16 2 15 3 14 4 13 5 11 6 12 7 9 8 10 9 8 10 3 11 4 12
REMARK SMILES IDX 91 13 5 14 90 15 6 16 89 17 7 18 88 19 2 20 1 21 18 22 19 23
REMARK SMILES IDX 20 24 21 25 22 26 23 27 24 28 25 29 26 30 87 31 27 32 86 33
REMARK SMILES IDX 28 34 29 35 30 36 80 37 31 38 85 39 79 40 81 41 32 42 84 43
REMARK SMILES IDX 78 44 77 45 33 47 65 48 45 49 64 50 46 51 49 52 63 53 82 54
REMARK SMILES IDX 47 55 48 56 62 58 83 59 50 60 34 61 35 62 43 63 36 64 37 65
REMARK SMILES IDX 41 66 44 67 38 68 39 69 42 70 40 71 66 72 67 73 75 74 68 75
REMARK SMILES IDX 69 76 73 77 76 78 70 79 71 80 74 81 72 82 51 83 52 84 60 85
REMARK SMILES IDX 53 86 54 87 58 88 61 89 55 90 56 91 59 92 57 93
REMARK H PARENT 81 46 49 57
REMARK Flexibility Score: inf
ROOT
ATOM      1  C   UNL A   1      31.008  28.742  22.638  1.00  0.00     0.188 C 
ENDROOT
BRANCH   1   2
ATOM      2  O   UNL A   1      30.648  27.617  21.843  1.00  0.00    -0.376 OA
BRANCH   2   3
ATOM      3  C   UNL A   1      31.419  26.426  21.932  1.00  0.00     0.202 C 
BRANCH   3   4
ATOM      4  C   UNL A   1      32.941  26.550  22.117  1.00  0.00     0.261 C 
BRANCH   4   5
ATOM      5  O   UNL A   1      33.474  26.005  23.347  1.00  0.00    -0.463 OA
BRANCH   5   6
ATOM      6  C   UNL A   1      33.886  24.713  23.307  1.00  0.00     0.313 C 
ATOM      7  O   UNL A   1      34.435  24.212  22.326  1.00  0.00    -0.252 OA
BRANCH   6   8
ATOM      8  C   UNL A   1      33.666  23.883  24.573  1.00  0.00     0.126 C 
ATOM      9  C   UNL A   1      34.509  24.472  25.702  1.00  0.00     0.025 C 
BRANCH   8  10
ATOM     10  C   UNL A   1      33.789  22.360  24.573  1.00  0.00    -0.033 A 
ATOM     11  C   UNL A   1      33.498  17.313  23.851  1.00  0.00     0.119 A 
ATOM     12  C   UNL A   1      32.429  17.867  23.153  1.00  0.00     0.047 A 
ATOM     13  C   UNL A   1      34.340  18.140  24.594  1.00  0.00     0.055 A 
ATOM     14  C   UNL A   1      32.232  19.253  23.159  1.00  0.00     0.012 A 
ATOM     15  C   UNL A   1      34.161  19.537  24.596  1.00  0.00    -0.015 A 
ATOM     16  C   UNL A   1      33.097  20.109  23.863  1.00  0.00    -0.018 A 
ATOM     17  C   UNL A   1      35.026  20.377  25.305  1.00  0.00     0.009 A 
ATOM     18  C   UNL A   1      32.928  21.514  23.856  1.00  0.00     0.013 A 
ATOM     19  C   UNL A   1      34.847  21.765  25.287  1.00  0.00     0.005 A 
BRANCH  11  20
ATOM     20  O   UNL A   1      33.755  15.970  23.915  1.00  0.00    -0.497 OA
ATOM     21  C   UNL A   1      33.413  15.375  25.166  1.00  0.00     0.278 C 
ENDBRANCH  11  20
ENDBRANCH   8  10
ENDBRANCH   6   8
ENDBRANCH   5   6
ENDBRANCH   4   5
ENDBRANCH   3   4
ENDBRANCH   2   3
ENDBRANCH   1   2
BRANCH   1  22
ATOM     22  C   UNL A   1      30.686  28.742  24.142  1.00  0.00     0.188 C 
BRANCH  22  23
ATOM     23  O   UNL A   1      31.068  29.920  24.816  1.00  0.00    -0.376 OA
BRANCH  23  24
ATOM     24  C   UNL A   1      31.812  29.760  26.006  1.00  0.00     0.202 C 
BRANCH  24  25
ATOM     25  C   UNL A   1      31.990  31.029  26.851  1.00  0.00     0.261 C 
BRANCH  25  26
ATOM     26  O   UNL A   1      33.127  31.853  26.523  1.00  0.00    -0.460 OA
BRANCH  26  27
ATOM     27  C   UNL A   1      33.570  32.706  27.471  1.00  0.00     0.338 C 
ATOM     28  O   UNL A   1      32.972  33.668  27.935  1.00  0.00    -0.246 OA
BRANCH  27  29
ATOM     29  C   UNL A   1      34.841  32.176  28.012  1.00  0.00     0.060 A 
ATOM     30  C   UNL A   1      34.916  30.833  28.409  1.00  0.00     0.016 A 
ATOM     31  C   UNL A   1      35.958  33.005  28.131  1.00  0.00     0.016 A 
ATOM     32  C   UNL A   1      36.100  30.324  28.953  1.00  0.00     0.010 A 
ATOM     33  C   UNL A   1      37.134  32.501  28.695  1.00  0.00     0.010 A 
ATOM     34  C   UNL A   1      37.205  31.167  29.137  1.00  0.00    -0.014 A 
BRANCH  34  35
ATOM     35  C   UNL A   1      38.369  30.721  29.948  1.00  0.00     0.031 A 
ATOM     36  C   UNL A   1      39.304  29.699  29.356  1.00  0.00     0.074 A 
ATOM     37  C   UNL A   1      38.588  31.191  31.190  1.00  0.00     0.049 A 
ATOM     38  N   UNL A   1      40.314  29.075  29.906  1.00  0.00    -0.248 NA
ATOM     39  C   UNL A   1      39.058  29.325  27.954  1.00  0.00     0.031 C 
ATOM     40  C   UNL A   1      37.783  32.203  31.867  1.00  0.00     0.029 A 
ATOM     41  N   UNL A   1      39.549  30.851  32.114  1.00  0.00    -0.354 N 
ATOM     42  C   UNL A   1      40.806  28.220  28.929  1.00  0.00     0.074 A 
ATOM     43  C   UNL A   1      39.979  28.394  27.756  1.00  0.00     0.031 C 
ATOM     44  C   UNL A   1      38.264  32.382  33.111  1.00  0.00     0.029 A 
ATOM     45  C   UNL A   1      39.385  31.469  33.331  1.00  0.00     0.049 A 
ATOM     46  H   UNL A   1      40.285  30.225  31.922  1.00  0.00     0.167 HD
ATOM     47  C   UNL A   1      41.853  27.365  29.005  1.00  0.00     0.037 A 
ATOM     48  C   UNL A   1      40.040  31.288  34.496  1.00  0.00     0.037 A 
ATOM     49  C   UNL A   1      42.688  27.205  30.166  1.00  0.00     0.049 A 
ATOM     50  C   UNL A   1      41.173  30.290  34.566  1.00  0.00     0.074 A 
ATOM     51  C   UNL A   1      43.805  26.402  30.317  1.00  0.00     0.029 A 
ATOM     52  N   UNL A   1      42.491  27.849  31.377  1.00  0.00    -0.354 N 
ATOM     53  N   UNL A   1      41.663  29.522  33.624  1.00  0.00    -0.248 NA
ATOM     54  C   UNL A   1      41.846  30.137  35.865  1.00  0.00     0.031 C 
ATOM     55  C   UNL A   1      44.243  26.507  31.640  1.00  0.00     0.029 A 
ATOM     56  C   UNL A   1      43.444  27.432  32.292  1.00  0.00     0.049 A 
ATOM     57  H   UNL A   1      41.780  28.504  31.561  1.00  0.00     0.167 HD
ATOM     58  C   UNL A   1      42.718  28.826  34.205  1.00  0.00     0.074 A 
ATOM     59  C   UNL A   1      42.809  29.274  35.576  1.00  0.00     0.031 C 
ATOM     60  C   UNL A   1      43.538  27.899  33.651  1.00  0.00     0.037 A 
BRANCH  47  61
ATOM     61  C   UNL A   1      42.148  26.503  27.813  1.00  0.00     0.064 A 
ATOM     62  C   UNL A   1      43.131  26.845  26.873  1.00  0.00     0.173 A 
ATOM     63  C   UNL A   1      41.490  25.273  27.657  1.00  0.00     0.173 A 
ATOM     64  F   UNL A   1      43.781  28.015  26.971  1.00  0.00    -0.203 F 
ATOM     65  C   UNL A   1      43.436  25.992  25.815  1.00  0.00     0.198 A 
ATOM     66  C   UNL A   1      41.818  24.410  26.615  1.00  0.00     0.198 A 
ATOM     67  F   UNL A   1      40.543  24.897  28.530  1.00  0.00    -0.203 F 
ATOM     68  F   UNL A   1      44.358  26.352  24.911  1.00  0.00    -0.200 F 
ATOM     69  C   UNL A   1      42.789  24.772  25.694  1.00  0.00     0.200 A 
ATOM     70  F   UNL A   1      41.202  23.225  26.510  1.00  0.00    -0.200 F 
ATOM     71  F   UNL A   1      43.100  23.943  24.688  1.00  0.00    -0.200 F 
ENDBRANCH  47  61
BRANCH  48  72
ATOM     72  C   UNL A   1      39.624  32.032  35.718  1.00  0.00     0.064 A 
ATOM     73  C   UNL A   1      38.603  31.552  36.552  1.00  0.00     0.173 A 
ATOM     74  C   UNL A   1      40.194  33.273  36.041  1.00  0.00     0.173 A 
ATOM     75  F   UNL A   1      38.002  30.386  36.271  1.00  0.00    -0.203 F 
ATOM     76  C   UNL A   1      38.143  32.300  37.634  1.00  0.00     0.198 A 
ATOM     77  C   UNL A   1      39.760  34.003  37.146  1.00  0.00     0.198 A 
ATOM     78  F   UNL A   1      41.171  33.783  35.276  1.00  0.00    -0.203 F 
ATOM     79  F   UNL A   1      37.114  31.853  38.366  1.00  0.00    -0.200 F 
ATOM     80  C   UNL A   1      38.725  33.523  37.933  1.00  0.00     0.200 A 
ATOM     81  F   UNL A   1      40.333  35.178  37.436  1.00  0.00    -0.200 F 
ATOM     82  F   UNL A   1      38.276  34.246  38.967  1.00  0.00    -0.200 F 
ENDBRANCH  48  72
BRANCH  60  83
ATOM     83  C   UNL A   1      44.644  27.344  34.504  1.00  0.00     0.064 A 
ATOM     84  C   UNL A   1      45.881  27.993  34.632  1.00  0.00     0.173 A 
ATOM     85  C   UNL A   1      44.443  26.167  35.244  1.00  0.00     0.173 A 
ATOM     86  F   UNL A   1      46.131  29.114  33.939  1.00  0.00    -0.203 F 
ATOM     87  C   UNL A   1      46.885  27.468  35.444  1.00  0.00     0.198 A 
ATOM     88  C   UNL A   1      45.435  25.666  36.083  1.00  0.00     0.198 A 
ATOM     89  F   UNL A   1      43.275  25.511  35.169  1.00  0.00    -0.203 F 
ATOM     90  F   UNL A   1      48.077  28.077  35.509  1.00  0.00    -0.200 F 
ATOM     91  C   UNL A   1      46.659  26.312  36.175  1.00  0.00     0.200 A 
ATOM     92  F   UNL A   1      45.206  24.559  36.803  1.00  0.00    -0.200 F 
ATOM     93  F   UNL A   1      47.621  25.816  36.964  1.00  0.00    -0.200 F 
ENDBRANCH  60  83
ENDBRANCH  34  35
ENDBRANCH  27  29
ENDBRANCH  26  27
ENDBRANCH  25  26
ENDBRANCH  24  25
ENDBRANCH  23  24
ENDBRANCH  22  23
ENDBRANCH   1  22
TORSDOF 19
ENDMDL
MODEL 2
REMARK VINA RESULT:     -11.1      4.927     10.955
REMARK SMILES COc1ccc2cc([C@@H](C)C(=O)OCCOCCOCCOC(=O)c3ccc(-c4c5nc(c(-c6c(F)c(F)c(F)c(F)c6F)c6ccc([nH]6)c(-c6c(F)c(F)c(F)c(F)c6F)c6nc(c(-c7c(F)c(F)c(F)c(F)c7F)c7ccc4[nH]7)C=C6)C=C5)cc3)ccc2c1
REMARK SMILES IDX 17 1 16 2 15 3 14 4 13 5 11 6 12 7 9 8 10 9 8 10 3 11 4 12
REMARK SMILES IDX 91 13 5 14 90 15 6 16 89 17 7 18 88 19 2 20 1 21 18 22 19 23
REMARK SMILES IDX 20 24 21 25 22 26 23 27 24 28 25 29 26 30 87 31 27 32 86 33
REMARK SMILES IDX 28 34 29 35 30 36 80 37 31 38 85 39 79 40 81 41 32 42 84 43
REMARK SMILES IDX 78 44 77 45 33 47 65 48 45 49 64 50 46 51 49 52 63 53 82 54
REMARK SMILES IDX 47 55 48 56 62 58 83 59 50 60 34 61 35 62 43 63 36 64 37 65
REMARK SMILES IDX 41 66 44 67 38 68 39 69 42 70 40 71 66 72 67 73 75 74 68 75
REMARK SMILES IDX 69 76 73 77 76 78 70 79 71 80 74 81 72 82 51 83 52 84 60 85
REMARK SMILES IDX 53 86 54 87 58 88 61 89 55 90 56 91 59 92 57 93
REMARK H PARENT 81 46 49 57
REMARK Flexibility Score: inf
ROOT
ATOM      1  C   UNL A   1      35.445  20.465  25.058  1.00  0.00     0.188 C 
ENDROOT
BRANCH   1   2
ATOM      2  O   UNL A   1      34.106  20.715  24.645  1.00  0.00    -0.376 OA
BRANCH   2   3
ATOM      3  C   UNL A   1      33.606  22.047  24.669  1.00  0.00     0.202 C 
BRANCH   3   4
ATOM      4  C   UNL A   1      32.600  22.432  25.768  1.00  0.00     0.261 C 
BRANCH   4   5
ATOM      5  O   UNL A   1      31.535  23.324  25.363  1.00  0.00    -0.463 OA
BRANCH   5   6
ATOM      6  C   UNL A   1      31.652  24.619  25.749  1.00  0.00     0.313 C 
ATOM      7  O   UNL A   1      31.373  25.012  26.881  1.00  0.00    -0.252 OA
BRANCH   6   8
ATOM      8  C   UNL A   1      32.191  25.601  24.705  1.00  0.00     0.126 C 
ATOM      9  C   UNL A   1      33.657  25.893  25.013  1.00  0.00     0.025 C 
BRANCH   8  10
ATOM     10  C   UNL A   1      31.462  26.900  24.366  1.00  0.00    -0.033 A 
ATOM     11  C   UNL A   1      28.220  30.647  23.126  1.00  0.00     0.119 A 
ATOM     12  C   UNL A   1      27.549  29.454  22.875  1.00  0.00     0.047 A 
ATOM     13  C   UNL A   1      29.542  30.614  23.572  1.00  0.00     0.055 A 
ATOM     14  C   UNL A   1      28.183  28.229  23.117  1.00  0.00     0.012 A 
ATOM     15  C   UNL A   1      30.186  29.389  23.832  1.00  0.00    -0.015 A 
ATOM     16  C   UNL A   1      29.498  28.174  23.610  1.00  0.00    -0.018 A 
ATOM     17  C   UNL A   1      31.497  29.348  24.318  1.00  0.00     0.009 A 
ATOM     18  C   UNL A   1      30.144  26.945  23.885  1.00  0.00     0.013 A 
ATOM     19  C   UNL A   1      32.120  28.125  24.588  1.00  0.00     0.005 A 
BRANCH  11  20
ATOM     20  O   UNL A   1      27.685  31.887  22.903  1.00  0.00    -0.497 OA
ATOM     21  C   UNL A   1      28.659  32.924  22.791  1.00  0.00     0.278 C 
ENDBRANCH  11  20
ENDBRANCH   8  10
ENDBRANCH   6   8
ENDBRANCH   5   6
ENDBRANCH   4   5
ENDBRANCH   3   4
ENDBRANCH   2   3
ENDBRANCH   1   2
BRANCH   1  22
ATOM     22  C   UNL A   1      36.557  21.450  24.661  1.00  0.00     0.188 C 
BRANCH  22  23
ATOM     23  O   UNL A   1      37.283  21.973  25.752  1.00  0.00    -0.376 OA
BRANCH  23  24
ATOM     24  C   UNL A   1      38.678  21.752  25.751  1.00  0.00     0.202 C 
BRANCH  24  25
ATOM     25  C   UNL A   1      39.116  20.283  25.666  1.00  0.00     0.261 C 
BRANCH  25  26
ATOM     26  O   UNL A   1      40.043  19.839  26.676  1.00  0.00    -0.460 OA
BRANCH  26  27
ATOM     27  C   UNL A   1      41.325  19.642  26.299  1.00  0.00     0.338 C 
ATOM     28  O   UNL A   1      41.776  18.681  25.690  1.00  0.00    -0.246 OA
BRANCH  27  29
ATOM     29  C   UNL A   1      42.082  20.883  26.574  1.00  0.00     0.060 A 
ATOM     30  C   UNL A   1      42.285  21.290  27.901  1.00  0.00     0.016 A 
ATOM     31  C   UNL A   1      42.589  21.648  25.522  1.00  0.00     0.016 A 
ATOM     32  C   UNL A   1      42.971  22.477  28.178  1.00  0.00     0.010 A 
ATOM     33  C   UNL A   1      43.255  22.847  25.799  1.00  0.00     0.010 A 
ATOM     34  C   UNL A   1      43.425  23.285  27.126  1.00  0.00    -0.014 A 
BRANCH  34  35
ATOM     35  C   UNL A   1      43.914  24.663  27.388  1.00  0.00     0.031 A 
ATOM     36  C   UNL A   1      42.923  25.697  27.857  1.00  0.00     0.074 A 
ATOM     37  C   UNL A   1      45.201  25.007  27.198  1.00  0.00     0.049 A 
ATOM     38  N   UNL A   1      43.083  26.983  28.041  1.00  0.00    -0.248 NA
ATOM     39  C   UNL A   1      41.565  25.212  28.150  1.00  0.00     0.031 C 
ATOM     40  C   UNL A   1      46.267  24.101  26.780  1.00  0.00     0.029 A 
ATOM     41  N   UNL A   1      45.823  26.229  27.309  1.00  0.00    -0.354 N 
ATOM     42  C   UNL A   1      41.844  27.462  28.445  1.00  0.00     0.074 A 
ATOM     43  C   UNL A   1      40.938  26.335  28.468  1.00  0.00     0.031 C 
ATOM     44  C   UNL A   1      47.406  24.802  26.640  1.00  0.00     0.029 A 
ATOM     45  C   UNL A   1      47.141  26.213  26.919  1.00  0.00     0.049 A 
ATOM     46  H   UNL A   1      45.367  27.039  27.636  1.00  0.00     0.167 HD
ATOM     47  C   UNL A   1      41.493  28.730  28.766  1.00  0.00     0.037 A 
ATOM     48  C   UNL A   1      48.018  27.227  26.770  1.00  0.00     0.037 A 
ATOM     49  C   UNL A   1      42.397  29.848  28.760  1.00  0.00     0.049 A 
ATOM     50  C   UNL A   1      47.585  28.639  27.087  1.00  0.00     0.074 A 
ATOM     51  C   UNL A   1      42.144  31.160  29.123  1.00  0.00     0.029 A 
ATOM     52  N   UNL A   1      43.723  29.792  28.362  1.00  0.00    -0.354 N 
ATOM     53  N   UNL A   1      46.425  29.077  27.514  1.00  0.00    -0.248 NA
ATOM     54  C   UNL A   1      48.587  29.701  26.901  1.00  0.00     0.031 C 
ATOM     55  C   UNL A   1      43.297  31.912  28.879  1.00  0.00     0.029 A 
ATOM     56  C   UNL A   1      44.291  31.054  28.434  1.00  0.00     0.049 A 
ATOM     57  H   UNL A   1      44.192  28.978  28.070  1.00  0.00     0.167 HD
ATOM     58  C   UNL A   1      46.571  30.450  27.683  1.00  0.00     0.074 A 
ATOM     59  C   UNL A   1      47.934  30.773  27.326  1.00  0.00     0.031 C 
ATOM     60  C   UNL A   1      45.656  31.362  28.095  1.00  0.00     0.037 A 
BRANCH  47  61
ATOM     61  C   UNL A   1      40.060  28.997  29.121  1.00  0.00     0.064 A 
ATOM     62  C   UNL A   1      39.090  29.264  28.145  1.00  0.00     0.173 A 
ATOM     63  C   UNL A   1      39.639  28.901  30.457  1.00  0.00     0.173 A 
ATOM     64  F   UNL A   1      39.443  29.377  26.855  1.00  0.00    -0.203 F 
ATOM     65  C   UNL A   1      37.752  29.437  28.494  1.00  0.00     0.198 A 
ATOM     66  C   UNL A   1      38.298  29.046  30.799  1.00  0.00     0.198 A 
ATOM     67  F   UNL A   1      40.527  28.644  31.429  1.00  0.00    -0.203 F 
ATOM     68  F   UNL A   1      36.846  29.722  27.549  1.00  0.00    -0.200 F 
ATOM     69  C   UNL A   1      37.356  29.316  29.818  1.00  0.00     0.200 A 
ATOM     70  F   UNL A   1      37.915  28.912  32.077  1.00  0.00    -0.200 F 
ATOM     71  F   UNL A   1      36.065  29.460  30.149  1.00  0.00    -0.200 F 
ENDBRANCH  47  61
BRANCH  48  72
ATOM     72  C   UNL A   1      49.391  26.966  26.253  1.00  0.00     0.064 A 
ATOM     73  C   UNL A   1      49.687  27.062  24.885  1.00  0.00     0.173 A 
ATOM     74  C   UNL A   1      50.421  26.549  27.110  1.00  0.00     0.173 A 
ATOM     75  F   UNL A   1      48.730  27.427  24.018  1.00  0.00    -0.203 F 
ATOM     76  C   UNL A   1      50.943  26.715  24.391  1.00  0.00     0.198 A 
ATOM     77  C   UNL A   1      51.688  26.238  26.620  1.00  0.00     0.198 A 
ATOM     78  F   UNL A   1      50.194  26.433  28.427  1.00  0.00    -0.203 F 
ATOM     79  F   UNL A   1      51.173  26.743  23.072  1.00  0.00    -0.200 F 
ATOM     80  C   UNL A   1      51.944  26.308  25.260  1.00  0.00     0.200 A 
ATOM     81  F   UNL A   1      52.655  25.855  27.465  1.00  0.00    -0.200 F 
ATOM     82  F   UNL A   1      53.149  25.964  24.784  1.00  0.00    -0.200 F 
ENDBRANCH  48  72
BRANCH  60  83
ATOM     83  C   UNL A   1      46.106  32.788  28.241  1.00  0.00     0.064 A 
ATOM     84  C   UNL A   1      45.977  33.719  27.200  1.00  0.00     0.173 A 
ATOM     85  C   UNL A   1      46.632  33.242  29.463  1.00  0.00     0.173 A 
ATOM     86  F   UNL A   1      45.492  33.337  26.009  1.00  0.00    -0.203 F 
ATOM     87  C   UNL A   1      46.385  35.041  27.365  1.00  0.00     0.198 A 
ATOM     88  C   UNL A   1      47.004  34.572  29.636  1.00  0.00     0.198 A 
ATOM     89  F   UNL A   1      46.768  32.398  30.497  1.00  0.00    -0.203 F 
ATOM     90  F   UNL A   1      46.300  35.899  26.339  1.00  0.00    -0.200 F 
ATOM     91  C   UNL A   1      46.889  35.469  28.584  1.00  0.00     0.200 A 
ATOM     92  F   UNL A   1      47.472  34.987  30.821  1.00  0.00    -0.200 F 
ATOM     93  F   UNL A   1      47.268  36.743  28.744  1.00  0.00    -0.200 F 
ENDBRANCH  60  83
ENDBRANCH  34  35
ENDBRANCH  27  29
ENDBRANCH  26  27
ENDBRANCH  25  26
ENDBRANCH  24  25
ENDBRANCH  23  24
ENDBRANCH  22  23
ENDBRANCH   1  22
TORSDOF 19
ENDMDL
MODEL 3
REMARK VINA RESULT:     -11.1      4.270      8.443
REMARK SMILES COc1ccc2cc([C@@H](C)C(=O)OCCOCCOCCOC(=O)c3ccc(-c4c5nc(c(-c6c(F)c(F)c(F)c(F)c6F)c6ccc([nH]6)c(-c6c(F)c(F)c(F)c(F)c6F)c6nc(c(-c7c(F)c(F)c(F)c(F)c7F)c7ccc4[nH]7)C=C6)C=C5)cc3)ccc2c1
REMARK SMILES IDX 17 1 16 2 15 3 14 4 13 5 11 6 12 7 9 8 10 9 8 10 3 11 4 12
REMARK SMILES IDX 91 13 5 14 90 15 6 16 89 17 7 18 88 19 2 20 1 21 18 22 19 23
REMARK SMILES IDX 20 24 21 25 22 26 23 27 24 28 25 29 26 30 87 31 27 32 86 33
REMARK SMILES IDX 28 34 29 35 30 36 80 37 31 38 85 39 79 40 81 41 32 42 84 43
REMARK SMILES IDX 78 44 77 45 33 47 65 48 45 49 64 50 46 51 49 52 63 53 82 54
REMARK SMILES IDX 47 55 48 56 62 58 83 59 50 60 34 61 35 62 43 63 36 64 37 65
REMARK SMILES IDX 41 66 44 67 38 68 39 69 42 70 40 71 66 72 67 73 75 74 68 75
REMARK SMILES IDX 69 76 73 77 76 78 70 79 71 80 74 81 72 82 51 83 52 84 60 85
REMARK SMILES IDX 53 86 54 87 58 88 61 89 55 90 56 91 59 92 57 93
REMARK H PARENT 81 46 49 57
REMARK Flexibility Score: inf
ROOT
ATOM      1  C   UNL A   1      33.857  31.812  28.323  1.00  0.00     0.188 C 
ENDROOT
BRANCH   1   2
ATOM      2  O   UNL A   1      33.308  30.728  27.581  1.00  0.00    -0.376 OA
BRANCH   2   3
ATOM      3  C   UNL A   1      34.116  30.062  26.618  1.00  0.00     0.202 C 
BRANCH   3   4
ATOM      4  C   UNL A   1      34.397  28.562  26.809  1.00  0.00     0.261 C 
BRANCH   4   5
ATOM      5  O   UNL A   1      33.240  27.694  26.782  1.00  0.00    -0.463 OA
BRANCH   5   6
ATOM      6  C   UNL A   1      32.665  27.493  25.570  1.00  0.00     0.313 C 
ATOM      7  O   UNL A   1      31.586  27.988  25.246  1.00  0.00    -0.252 OA
BRANCH   6   8
ATOM      8  C   UNL A   1      33.442  26.626  24.577  1.00  0.00     0.126 C 
ATOM      9  C   UNL A   1      33.001  26.982  23.159  1.00  0.00     0.025 C 
BRANCH   8  10
ATOM     10  C   UNL A   1      33.533  25.108  24.727  1.00  0.00    -0.033 A 
ATOM     11  C   UNL A   1      33.324  20.019  24.363  1.00  0.00     0.119 A 
ATOM     12  C   UNL A   1      32.462  20.513  23.390  1.00  0.00     0.047 A 
ATOM     13  C   UNL A   1      33.983  20.905  25.216  1.00  0.00     0.055 A 
ATOM     14  C   UNL A   1      32.295  21.895  23.238  1.00  0.00     0.012 A 
ATOM     15  C   UNL A   1      33.835  22.297  25.064  1.00  0.00    -0.015 A 
ATOM     16  C   UNL A   1      32.985  22.806  24.056  1.00  0.00    -0.018 A 
ATOM     17  C   UNL A   1      34.524  23.193  25.888  1.00  0.00     0.009 A 
ATOM     18  C   UNL A   1      32.849  24.206  23.897  1.00  0.00     0.013 A 
ATOM     19  C   UNL A   1      34.381  24.574  25.717  1.00  0.00     0.005 A 
BRANCH  11  20
ATOM     20  O   UNL A   1      33.533  18.685  24.594  1.00  0.00    -0.497 OA
ATOM     21  C   UNL A   1      32.610  18.107  25.514  1.00  0.00     0.278 C 
ENDBRANCH  11  20
ENDBRANCH   8  10
ENDBRANCH   6   8
ENDBRANCH   5   6
ENDBRANCH   4   5
ENDBRANCH   3   4
ENDBRANCH   2   3
ENDBRANCH   1   2
BRANCH   1  22
ATOM     22  C   UNL A   1      33.506  33.256  27.928  1.00  0.00     0.188 C 
BRANCH  22  23
ATOM     23  O   UNL A   1      33.170  34.088  29.015  1.00  0.00    -0.376 OA
BRANCH  23  24
ATOM     24  C   UNL A   1      34.242  34.678  29.720  1.00  0.00     0.202 C 
BRANCH  24  25
ATOM     25  C   UNL A   1      34.344  34.303  31.206  1.00  0.00     0.261 C 
BRANCH  25  26
ATOM     26  O   UNL A   1      34.448  32.896  31.497  1.00  0.00    -0.460 OA
BRANCH  26  27
ATOM     27  C   UNL A   1      35.282  32.527  32.494  1.00  0.00     0.338 C 
ATOM     28  O   UNL A   1      35.096  32.657  33.697  1.00  0.00    -0.246 OA
BRANCH  27  29
ATOM     29  C   UNL A   1      36.394  31.751  31.902  1.00  0.00     0.060 A 
ATOM     30  C   UNL A   1      37.353  31.167  32.743  1.00  0.00     0.016 A 
ATOM     31  C   UNL A   1      36.494  31.603  30.517  1.00  0.00     0.016 A 
ATOM     32  C   UNL A   1      38.428  30.457  32.199  1.00  0.00     0.010 A 
ATOM     33  C   UNL A   1      37.582  30.913  29.974  1.00  0.00     0.010 A 
ATOM     34  C   UNL A   1      38.572  30.360  30.808  1.00  0.00    -0.014 A 
BRANCH  34  35
ATOM     35  C   UNL A   1      39.833  29.847  30.212  1.00  0.00     0.031 A 
ATOM     36  C   UNL A   1      40.990  30.799  30.056  1.00  0.00     0.074 A 
ATOM     37  C   UNL A   1      39.952  28.573  29.795  1.00  0.00     0.049 A 
ATOM     38  N   UNL A   1      42.144  30.620  29.465  1.00  0.00    -0.248 NA
ATOM     39  C   UNL A   1      40.815  32.138  30.641  1.00  0.00     0.031 C 
ATOM     40  C   UNL A   1      38.925  27.542  29.916  1.00  0.00     0.029 A 
ATOM     41  N   UNL A   1      40.993  27.938  29.158  1.00  0.00    -0.354 N 
ATOM     42  C   UNL A   1      42.820  31.827  29.585  1.00  0.00     0.074 A 
ATOM     43  C   UNL A   1      41.945  32.736  30.293  1.00  0.00     0.031 C 
ATOM     44  C   UNL A   1      39.374  26.411  29.343  1.00  0.00     0.029 A 
ATOM     45  C   UNL A   1      40.703  26.648  28.781  1.00  0.00     0.049 A 
ATOM     46  H   UNL A   1      41.863  28.367  28.987  1.00  0.00     0.167 HD
ATOM     47  C   UNL A   1      44.058  32.149  29.143  1.00  0.00     0.037 A 
ATOM     48  C   UNL A   1      41.413  25.777  28.036  1.00  0.00     0.037 A 
ATOM     49  C   UNL A   1      44.936  31.240  28.454  1.00  0.00     0.049 A 
ATOM     50  C   UNL A   1      42.772  26.180  27.512  1.00  0.00     0.074 A 
ATOM     51  C   UNL A   1      46.230  31.461  28.016  1.00  0.00     0.029 A 
ATOM     52  N   UNL A   1      44.607  29.943  28.094  1.00  0.00    -0.354 N 
ATOM     53  N   UNL A   1      43.423  27.306  27.671  1.00  0.00    -0.248 NA
ATOM     54  C   UNL A   1      43.496  25.186  26.704  1.00  0.00     0.031 C 
ATOM     55  C   UNL A   1      46.659  30.322  27.329  1.00  0.00     0.029 A 
ATOM     56  C   UNL A   1      45.661  29.365  27.404  1.00  0.00     0.049 A 
ATOM     57  H   UNL A   1      43.752  29.499  28.295  1.00  0.00     0.167 HD
ATOM     58  C   UNL A   1      44.641  27.142  27.018  1.00  0.00     0.074 A 
ATOM     59  C   UNL A   1      44.646  25.803  26.473  1.00  0.00     0.031 C 
ATOM     60  C   UNL A   1      45.663  28.023  26.882  1.00  0.00     0.037 A 
BRANCH  47  61
ATOM     61  C   UNL A   1      44.540  33.554  29.354  1.00  0.00     0.064 A 
ATOM     62  C   UNL A   1      44.297  34.571  28.419  1.00  0.00     0.173 A 
ATOM     63  C   UNL A   1      45.185  33.902  30.551  1.00  0.00     0.173 A 
ATOM     64  F   UNL A   1      43.694  34.288  27.254  1.00  0.00    -0.203 F 
ATOM     65  C   UNL A   1      44.692  35.883  28.672  1.00  0.00     0.198 A 
ATOM     66  C   UNL A   1      45.551  35.219  30.812  1.00  0.00     0.198 A 
ATOM     67  F   UNL A   1      45.439  32.967  31.479  1.00  0.00    -0.203 F 
ATOM     68  F   UNL A   1      44.476  36.835  27.753  1.00  0.00    -0.200 F 
ATOM     69  C   UNL A   1      45.306  36.208  29.872  1.00  0.00     0.200 A 
ATOM     70  F   UNL A   1      46.131  35.532  31.979  1.00  0.00    -0.200 F 
ATOM     71  F   UNL A   1      45.665  37.475  30.122  1.00  0.00    -0.200 F 
ENDBRANCH  47  61
BRANCH  48  72
ATOM     72  C   UNL A   1      40.847  24.442  27.692  1.00  0.00     0.064 A 
ATOM     73  C   UNL A   1      41.382  23.262  28.231  1.00  0.00     0.173 A 
ATOM     74  C   UNL A   1      39.802  24.315  26.764  1.00  0.00     0.173 A 
ATOM     75  F   UNL A   1      42.403  23.325  29.099  1.00  0.00    -0.203 F 
ATOM     76  C   UNL A   1      40.921  22.010  27.827  1.00  0.00     0.198 A 
ATOM     77  C   UNL A   1      39.316  23.064  26.390  1.00  0.00     0.198 A 
ATOM     78  F   UNL A   1      39.256  25.408  26.213  1.00  0.00    -0.203 F 
ATOM     79  F   UNL A   1      41.502  20.900  28.301  1.00  0.00    -0.200 F 
ATOM     80  C   UNL A   1      39.886  21.912  26.910  1.00  0.00     0.200 A 
ATOM     81  F   UNL A   1      38.308  22.974  25.511  1.00  0.00    -0.200 F 
ATOM     82  F   UNL A   1      39.450  20.708  26.515  1.00  0.00    -0.200 F 
ENDBRANCH  48  72
BRANCH  60  83
ATOM     83  C   UNL A   1      46.899  27.555  26.166  1.00  0.00     0.064 A 
ATOM     84  C   UNL A   1      47.947  26.908  26.837  1.00  0.00     0.173 A 
ATOM     85  C   UNL A   1      47.013  27.716  24.775  1.00  0.00     0.173 A 
ATOM     86  F   UNL A   1      47.895  26.739  28.166  1.00  0.00    -0.203 F 
ATOM     87  C   UNL A   1      49.075  26.467  26.148  1.00  0.00     0.198 A 
ATOM     88  C   UNL A   1      48.125  27.242  24.084  1.00  0.00     0.198 A 
ATOM     89  F   UNL A   1      46.035  28.318  24.080  1.00  0.00    -0.203 F 
ATOM     90  F   UNL A   1      50.087  25.898  26.818  1.00  0.00    -0.200 F 
ATOM     91  C   UNL A   1      49.159  26.625  24.772  1.00  0.00     0.200 A 
ATOM     92  F   UNL A   1      48.194  27.378  22.753  1.00  0.00    -0.200 F 
ATOM     93  F   UNL A   1      50.239  26.190  24.111  1.00  0.00    -0.200 F 
ENDBRANCH  60  83
ENDBRANCH  34  35
ENDBRANCH  27  29
ENDBRANCH  26  27
ENDBRANCH  25  26
ENDBRANCH  24  25
ENDBRANCH  23  24
ENDBRANCH  22  23
ENDBRANCH   1  22
TORSDOF 19
ENDMDL
