MODEL 1
REMARK VINA RESULT:     -11.9      0.000      0.000
REMARK SMILES O=C(OCCOCCOCCOC(=O)[C@H]1Cc2ccc(Cl)cc2C[N@@H+]1Cc1ccc(Cl)cc1)c1ccc(-c2c3nc(c(-c4c(F)c(F)c(F)c(F)c4F)c4ccc([nH]4)c(-c4c(F)c(F)c(F)c(F)c4F)c4nc(c(-c5c(F)c(F)c(F)c(F)c5F)c5ccc2[nH]5)C=C4)C=C3)cc1
REMARK SMILES IDX 7 1 6 2 5 3 4 4 3 5 2 6 1 7 34 8 35 9 96 10 36 11 95 12
REMARK SMILES IDX 37 13 38 14 39 15 89 16 40 17 94 18 88 19 90 20 41 21 93 22
REMARK SMILES IDX 87 23 86 24 42 26 74 27 54 28 73 29 55 30 58 31 72 32 91 33
REMARK SMILES IDX 56 34 57 35 71 37 92 38 59 39 43 40 44 41 52 42 45 43 46 44
REMARK SMILES IDX 50 45 53 46 47 47 48 48 51 49 49 50 75 51 76 52 84 53 77 54
REMARK SMILES IDX 78 55 82 56 85 57 79 58 80 59 83 60 81 61 60 62 61 63 69 64
REMARK SMILES IDX 62 65 63 66 67 67 70 68 64 69 65 70 68 71 66 72 8 73 9 74
REMARK SMILES IDX 10 75 11 76 12 77 13 78 14 79 15 80 16 81 25 82 17 83 24 84
REMARK SMILES IDX 18 86 23 87 19 88 22 89 20 90 21 91 26 92 27 93 28 94 33 95
REMARK SMILES IDX 29 96 32 97 30 98 31 99
REMARK H PARENT 90 25 58 36 25 85
REMARK Flexibility Score: inf
ROOT
ATOM      1  C   UNL A   1      32.196  29.693  25.376  1.00  0.00     0.188 C 
ENDROOT
BRANCH   1   2
ATOM      2  O   UNL A   1      31.394  30.819  25.684  1.00  0.00    -0.376 OA
BRANCH   2   3
ATOM      3  C   UNL A   1      31.727  31.563  26.847  1.00  0.00     0.202 C 
BRANCH   3   4
ATOM      4  C   UNL A   1      31.877  33.082  26.769  1.00  0.00     0.261 C 
BRANCH   4   5
ATOM      5  O   UNL A   1      32.546  33.847  27.795  1.00  0.00    -0.460 OA
BRANCH   5   6
ATOM      6  C   UNL A   1      33.808  34.269  27.999  1.00  0.00     0.338 C 
ATOM      7  O   UNL A   1      34.115  35.417  27.719  1.00  0.00    -0.246 OA
BRANCH   6   8
ATOM      8  C   UNL A   1      34.850  33.357  28.521  1.00  0.00     0.060 A 
ATOM      9  C   UNL A   1      36.165  33.822  28.497  1.00  0.00     0.016 A 
ATOM     10  C   UNL A   1      34.585  32.115  29.099  1.00  0.00     0.016 A 
ATOM     11  C   UNL A   1      37.189  33.016  28.984  1.00  0.00     0.010 A 
ATOM     12  C   UNL A   1      35.630  31.251  29.456  1.00  0.00     0.010 A 
ATOM     13  C   UNL A   1      36.953  31.693  29.391  1.00  0.00    -0.014 A 
BRANCH  13  14
ATOM     14  C   UNL A   1      38.028  30.959  30.100  1.00  0.00     0.031 A 
ATOM     15  C   UNL A   1      38.885  29.884  29.490  1.00  0.00     0.074 A 
ATOM     16  C   UNL A   1      38.208  31.334  31.380  1.00  0.00     0.049 A 
ATOM     17  N   UNL A   1      40.002  29.373  29.953  1.00  0.00    -0.248 NA
ATOM     18  C   UNL A   1      38.463  29.303  28.210  1.00  0.00     0.031 C 
ATOM     19  C   UNL A   1      37.394  32.339  32.073  1.00  0.00     0.029 A 
ATOM     20  N   UNL A   1      39.105  30.921  32.320  1.00  0.00    -0.354 N 
ATOM     21  C   UNL A   1      40.464  28.492  28.979  1.00  0.00     0.074 A 
ATOM     22  C   UNL A   1      39.477  28.488  27.921  1.00  0.00     0.031 C 
ATOM     23  C   UNL A   1      37.823  32.455  33.334  1.00  0.00     0.029 A 
ATOM     24  C   UNL A   1      38.921  31.521  33.538  1.00  0.00     0.049 A 
ATOM     25  H   UNL A   1      39.813  30.260  32.143  1.00  0.00     0.167 HD
ATOM     26  C   UNL A   1      41.611  27.767  28.992  1.00  0.00     0.037 A 
ATOM     27  C   UNL A   1      39.560  31.333  34.703  1.00  0.00     0.037 A 
ATOM     28  C   UNL A   1      42.500  27.700  30.122  1.00  0.00     0.049 A 
ATOM     29  C   UNL A   1      40.732  30.404  34.728  1.00  0.00     0.074 A 
ATOM     30  C   UNL A   1      43.702  27.024  30.234  1.00  0.00     0.029 A 
ATOM     31  N   UNL A   1      42.249  28.282  31.356  1.00  0.00    -0.354 N 
ATOM     32  N   UNL A   1      41.273  29.743  33.736  1.00  0.00    -0.248 NA
ATOM     33  C   UNL A   1      41.391  30.207  36.022  1.00  0.00     0.031 C 
ATOM     34  C   UNL A   1      44.131  27.122  31.559  1.00  0.00     0.029 A 
ATOM     35  C   UNL A   1      43.225  27.903  32.260  1.00  0.00     0.049 A 
ATOM     36  H   UNL A   1      41.490  28.876  31.557  1.00  0.00     0.167 HD
ATOM     37  C   UNL A   1      42.357  29.071  34.275  1.00  0.00     0.074 A 
ATOM     38  C   UNL A   1      42.397  29.410  35.684  1.00  0.00     0.031 C 
ATOM     39  C   UNL A   1      43.242  28.253  33.657  1.00  0.00     0.037 A 
BRANCH  26  40
ATOM     40  C   UNL A   1      42.026  26.983  27.777  1.00  0.00     0.064 A 
ATOM     41  C   UNL A   1      42.808  27.595  26.787  1.00  0.00     0.173 A 
ATOM     42  C   UNL A   1      41.862  25.596  27.692  1.00  0.00     0.173 A 
ATOM     43  F   UNL A   1      43.154  28.878  26.914  1.00  0.00    -0.203 F 
ATOM     44  C   UNL A   1      43.336  26.879  25.716  1.00  0.00     0.198 A 
ATOM     45  C   UNL A   1      42.436  24.867  26.647  1.00  0.00     0.198 A 
ATOM     46  F   UNL A   1      41.208  24.935  28.658  1.00  0.00    -0.203 F 
ATOM     47  F   UNL A   1      44.052  27.512  24.776  1.00  0.00    -0.200 F 
ATOM     48  C   UNL A   1      43.156  25.510  25.652  1.00  0.00     0.200 A 
ATOM     49  F   UNL A   1      42.322  23.531  26.621  1.00  0.00    -0.200 F 
ATOM     50  F   UNL A   1      43.709  24.809  24.651  1.00  0.00    -0.200 F 
ENDBRANCH  26  40
BRANCH  27  51
ATOM     51  C   UNL A   1      39.090  32.073  35.898  1.00  0.00     0.064 A 
ATOM     52  C   UNL A   1      38.237  31.472  36.829  1.00  0.00     0.173 A 
ATOM     53  C   UNL A   1      39.574  33.361  36.182  1.00  0.00     0.173 A 
ATOM     54  F   UNL A   1      37.754  30.243  36.598  1.00  0.00    -0.203 F 
ATOM     55  C   UNL A   1      37.881  32.131  38.002  1.00  0.00     0.198 A 
ATOM     56  C   UNL A   1      39.243  34.005  37.369  1.00  0.00     0.198 A 
ATOM     57  F   UNL A   1      40.416  33.967  35.332  1.00  0.00    -0.203 F 
ATOM     58  F   UNL A   1      37.050  31.543  38.871  1.00  0.00    -0.200 F 
ATOM     59  C   UNL A   1      38.393  33.392  38.276  1.00  0.00     0.200 A 
ATOM     60  F   UNL A   1      39.766  35.209  37.644  1.00  0.00    -0.200 F 
ATOM     61  F   UNL A   1      38.071  34.014  39.419  1.00  0.00    -0.200 F 
ENDBRANCH  27  51
BRANCH  39  62
ATOM     62  C   UNL A   1      44.327  27.654  34.495  1.00  0.00     0.064 A 
ATOM     63  C   UNL A   1      45.506  28.360  34.767  1.00  0.00     0.173 A 
ATOM     64  C   UNL A   1      44.140  26.409  35.115  1.00  0.00     0.173 A 
ATOM     65  F   UNL A   1      45.731  29.547  34.184  1.00  0.00    -0.203 F 
ATOM     66  C   UNL A   1      46.465  27.839  35.628  1.00  0.00     0.198 A 
ATOM     67  C   UNL A   1      45.087  25.905  36.000  1.00  0.00     0.198 A 
ATOM     68  F   UNL A   1      43.023  25.702  34.892  1.00  0.00    -0.203 F 
ATOM     69  F   UNL A   1      47.596  28.519  35.857  1.00  0.00    -0.200 F 
ATOM     70  C   UNL A   1      46.249  26.621  36.255  1.00  0.00     0.200 A 
ATOM     71  F   UNL A   1      44.870  24.737  36.619  1.00  0.00    -0.200 F 
ATOM     72  F   UNL A   1      47.161  26.134  37.108  1.00  0.00    -0.200 F 
ENDBRANCH  39  62
ENDBRANCH  13  14
ENDBRANCH   6   8
ENDBRANCH   5   6
ENDBRANCH   4   5
ENDBRANCH   3   4
ENDBRANCH   2   3
ENDBRANCH   1   2
BRANCH   1  73
ATOM     73  C   UNL A   1      31.724  28.839  24.201  1.00  0.00     0.188 C 
BRANCH  73  74
ATOM     74  O   UNL A   1      31.391  27.483  24.411  1.00  0.00    -0.376 OA
BRANCH  74  75
ATOM     75  C   UNL A   1      31.893  26.451  23.582  1.00  0.00     0.202 C 
BRANCH  75  76
ATOM     76  C   UNL A   1      32.663  25.206  24.076  1.00  0.00     0.261 C 
BRANCH  76  77
ATOM     77  O   UNL A   1      31.934  24.075  24.581  1.00  0.00    -0.459 OA
BRANCH  77  78
ATOM     78  C   UNL A   1      32.638  23.378  25.512  1.00  0.00     0.365 C 
ATOM     79  O   UNL A   1      32.140  23.099  26.599  1.00  0.00    -0.245 OA
BRANCH  78  80
ATOM     80  C   UNL A   1      34.093  23.000  25.130  1.00  0.00     0.300 C 
ATOM     81  C   UNL A   1      35.146  23.706  26.017  1.00  0.00     0.113 C 
ATOM     82  N   UNL A   1      34.220  21.510  25.061  1.00  0.00    -0.315 N 
ATOM     83  C   UNL A   1      36.532  23.112  25.920  1.00  0.00    -0.033 A 
ATOM     84  C   UNL A   1      35.598  21.059  24.814  1.00  0.00     0.300 C 
ATOM     85  H   UNL A   1      33.933  21.191  25.987  1.00  0.00     0.349 HD
ATOM     86  C   UNL A   1      37.666  23.832  26.307  1.00  0.00     0.006 A 
ATOM     87  C   UNL A   1      36.708  21.807  25.484  1.00  0.00     0.011 A 
ATOM     88  C   UNL A   1      38.927  23.234  26.409  1.00  0.00     0.021 A 
ATOM     89  C   UNL A   1      37.998  21.246  25.469  1.00  0.00     0.030 A 
ATOM     90  C   UNL A   1      39.087  21.925  25.996  1.00  0.00     0.041 A 
ATOM     91  Cl  UNL A   1      40.628  21.168  26.065  1.00  0.00    -0.084 Cl
BRANCH  82  92
ATOM     92  C   UNL A   1      33.314  20.890  24.032  1.00  0.00     0.300 C 
BRANCH  92  93
ATOM     93  C   UNL A   1      32.932  19.429  24.275  1.00  0.00     0.006 A 
ATOM     94  C   UNL A   1      32.629  18.961  25.562  1.00  0.00     0.011 A 
ATOM     95  C   UNL A   1      33.009  18.482  23.244  1.00  0.00     0.011 A 
ATOM     96  C   UNL A   1      32.645  17.594  25.846  1.00  0.00     0.021 A 
ATOM     97  C   UNL A   1      33.023  17.115  23.518  1.00  0.00     0.021 A 
ATOM     98  C   UNL A   1      32.885  16.678  24.828  1.00  0.00     0.041 A 
ATOM     99  Cl  UNL A   1      33.019  15.004  25.192  1.00  0.00    -0.084 Cl
ENDBRANCH  92  93
ENDBRANCH  82  92
ENDBRANCH  78  80
ENDBRANCH  77  78
ENDBRANCH  76  77
ENDBRANCH  75  76
ENDBRANCH  74  75
ENDBRANCH  73  74
ENDBRANCH   1  73
TORSDOF 19
ENDMDL
MODEL 2
REMARK VINA RESULT:     -11.7      1.655      3.639
REMARK SMILES O=C(OCCOCCOCCOC(=O)[C@H]1Cc2ccc(Cl)cc2C[N@@H+]1Cc1ccc(Cl)cc1)c1ccc(-c2c3nc(c(-c4c(F)c(F)c(F)c(F)c4F)c4ccc([nH]4)c(-c4c(F)c(F)c(F)c(F)c4F)c4nc(c(-c5c(F)c(F)c(F)c(F)c5F)c5ccc2[nH]5)C=C4)C=C3)cc1
REMARK SMILES IDX 7 1 6 2 5 3 4 4 3 5 2 6 1 7 34 8 35 9 96 10 36 11 95 12
REMARK SMILES IDX 37 13 38 14 39 15 89 16 40 17 94 18 88 19 90 20 41 21 93 22
REMARK SMILES IDX 87 23 86 24 42 26 74 27 54 28 73 29 55 30 58 31 72 32 91 33
REMARK SMILES IDX 56 34 57 35 71 37 92 38 59 39 43 40 44 41 52 42 45 43 46 44
REMARK SMILES IDX 50 45 53 46 47 47 48 48 51 49 49 50 75 51 76 52 84 53 77 54
REMARK SMILES IDX 78 55 82 56 85 57 79 58 80 59 83 60 81 61 60 62 61 63 69 64
REMARK SMILES IDX 62 65 63 66 67 67 70 68 64 69 65 70 68 71 66 72 8 73 9 74
REMARK SMILES IDX 10 75 11 76 12 77 13 78 14 79 15 80 16 81 25 82 17 83 24 84
REMARK SMILES IDX 18 86 23 87 19 88 22 89 20 90 21 91 26 92 27 93 28 94 33 95
REMARK SMILES IDX 29 96 32 97 30 98 31 99
REMARK H PARENT 90 25 58 36 25 85
REMARK Flexibility Score: inf
ROOT
ATOM      1  C   UNL A   1      31.403  30.075  25.020  1.00  0.00     0.188 C 
ENDROOT
BRANCH   1   2
ATOM      2  O   UNL A   1      30.950  31.232  25.699  1.00  0.00    -0.376 OA
BRANCH   2   3
ATOM      3  C   UNL A   1      31.790  31.768  26.711  1.00  0.00     0.202 C 
BRANCH   3   4
ATOM      4  C   UNL A   1      31.936  33.283  26.865  1.00  0.00     0.261 C 
BRANCH   4   5
ATOM      5  O   UNL A   1      32.652  33.884  27.964  1.00  0.00    -0.460 OA
BRANCH   5   6
ATOM      6  C   UNL A   1      33.924  34.271  28.174  1.00  0.00     0.338 C 
ATOM      7  O   UNL A   1      34.254  35.421  27.929  1.00  0.00    -0.246 OA
BRANCH   6   8
ATOM      8  C   UNL A   1      34.949  33.321  28.662  1.00  0.00     0.060 A 
ATOM      9  C   UNL A   1      36.279  33.736  28.589  1.00  0.00     0.016 A 
ATOM     10  C   UNL A   1      34.657  32.092  29.254  1.00  0.00     0.016 A 
ATOM     11  C   UNL A   1      37.288  32.893  29.042  1.00  0.00     0.010 A 
ATOM     12  C   UNL A   1      35.681  31.190  29.577  1.00  0.00     0.010 A 
ATOM     13  C   UNL A   1      37.016  31.580  29.463  1.00  0.00    -0.014 A 
BRANCH  13  14
ATOM     14  C   UNL A   1      38.088  30.808  30.136  1.00  0.00     0.031 A 
ATOM     15  C   UNL A   1      38.857  29.677  29.511  1.00  0.00     0.074 A 
ATOM     16  C   UNL A   1      38.351  31.201  31.395  1.00  0.00     0.049 A 
ATOM     17  N   UNL A   1      39.968  29.119  29.931  1.00  0.00    -0.248 NA
ATOM     18  C   UNL A   1      38.342  29.090  28.269  1.00  0.00     0.031 C 
ATOM     19  C   UNL A   1      37.625  32.262  32.103  1.00  0.00     0.029 A 
ATOM     20  N   UNL A   1      39.273  30.764  32.300  1.00  0.00    -0.354 N 
ATOM     21  C   UNL A   1      40.335  28.193  28.958  1.00  0.00     0.074 A 
ATOM     22  C   UNL A   1      39.297  28.217  27.950  1.00  0.00     0.031 C 
ATOM     23  C   UNL A   1      38.123  32.385  33.338  1.00  0.00     0.029 A 
ATOM     24  C   UNL A   1      39.181  31.399  33.510  1.00  0.00     0.049 A 
ATOM     25  H   UNL A   1      39.936  30.063  32.104  1.00  0.00     0.167 HD
ATOM     26  C   UNL A   1      41.443  27.410  28.932  1.00  0.00     0.037 A 
ATOM     27  C   UNL A   1      39.868  31.205  34.647  1.00  0.00     0.037 A 
ATOM     28  C   UNL A   1      42.384  27.323  30.018  1.00  0.00     0.049 A 
ATOM     29  C   UNL A   1      40.991  30.217  34.637  1.00  0.00     0.074 A 
ATOM     30  C   UNL A   1      43.554  26.587  30.086  1.00  0.00     0.029 A 
ATOM     31  N   UNL A   1      42.226  27.944  31.247  1.00  0.00    -0.354 N 
ATOM     32  N   UNL A   1      41.447  29.506  33.636  1.00  0.00    -0.248 NA
ATOM     33  C   UNL A   1      41.704  30.015  35.901  1.00  0.00     0.031 C 
ATOM     34  C   UNL A   1      44.054  26.693  31.386  1.00  0.00     0.029 A 
ATOM     35  C   UNL A   1      43.226  27.535  32.112  1.00  0.00     0.049 A 
ATOM     36  H   UNL A   1      41.509  28.581  31.471  1.00  0.00     0.167 HD
ATOM     37  C   UNL A   1      42.522  28.792  34.137  1.00  0.00     0.074 A 
ATOM     38  C   UNL A   1      42.650  29.159  35.533  1.00  0.00     0.031 C 
ATOM     39  C   UNL A   1      43.332  27.915  33.497  1.00  0.00     0.037 A 
BRANCH  26  40
ATOM     40  C   UNL A   1      41.756  26.579  27.717  1.00  0.00     0.064 A 
ATOM     41  C   UNL A   1      42.678  27.047  26.771  1.00  0.00     0.173 A 
ATOM     42  C   UNL A   1      41.341  25.248  27.598  1.00  0.00     0.173 A 
ATOM     43  F   UNL A   1      43.250  28.242  26.938  1.00  0.00    -0.203 F 
ATOM     44  C   UNL A   1      43.108  26.260  25.707  1.00  0.00     0.198 A 
ATOM     45  C   UNL A   1      41.812  24.438  26.561  1.00  0.00     0.198 A 
ATOM     46  F   UNL A   1      40.536  24.708  28.524  1.00  0.00    -0.203 F 
ATOM     47  F   UNL A   1      43.967  26.761  24.808  1.00  0.00    -0.200 F 
ATOM     48  C   UNL A   1      42.680  24.949  25.607  1.00  0.00     0.200 A 
ATOM     49  F   UNL A   1      41.453  23.148  26.503  1.00  0.00    -0.200 F 
ATOM     50  F   UNL A   1      43.134  24.171  24.614  1.00  0.00    -0.200 F 
ENDBRANCH  26  40
BRANCH  27  51
ATOM     51  C   UNL A   1      39.497  31.994  35.844  1.00  0.00     0.064 A 
ATOM     52  C   UNL A   1      40.090  33.235  36.102  1.00  0.00     0.173 A 
ATOM     53  C   UNL A   1      38.464  31.567  36.695  1.00  0.00     0.173 A 
ATOM     54  F   UNL A   1      41.078  33.681  35.314  1.00  0.00    -0.203 F 
ATOM     55  C   UNL A   1      39.666  34.021  37.170  1.00  0.00     0.198 A 
ATOM     56  C   UNL A   1      38.020  32.368  37.742  1.00  0.00     0.198 A 
ATOM     57  F   UNL A   1      37.847  30.397  36.471  1.00  0.00    -0.203 F 
ATOM     58  F   UNL A   1      40.259  35.198  37.408  1.00  0.00    -0.200 F 
ATOM     59  C   UNL A   1      38.624  33.592  37.982  1.00  0.00     0.200 A 
ATOM     60  F   UNL A   1      36.992  31.965  38.503  1.00  0.00    -0.200 F 
ATOM     61  F   UNL A   1      38.199  34.363  38.992  1.00  0.00    -0.200 F 
ENDBRANCH  27  51
BRANCH  39  62
ATOM     62  C   UNL A   1      44.425  27.279  34.295  1.00  0.00     0.064 A 
ATOM     63  C   UNL A   1      45.667  27.909  34.452  1.00  0.00     0.173 A 
ATOM     64  C   UNL A   1      44.194  26.083  34.991  1.00  0.00     0.173 A 
ATOM     65  F   UNL A   1      45.935  29.047  33.793  1.00  0.00    -0.203 F 
ATOM     66  C   UNL A   1      46.643  27.362  35.278  1.00  0.00     0.198 A 
ATOM     67  C   UNL A   1      45.161  25.555  35.840  1.00  0.00     0.198 A 
ATOM     68  F   UNL A   1      43.017  25.450  34.878  1.00  0.00    -0.203 F 
ATOM     69  F   UNL A   1      47.832  27.967  35.396  1.00  0.00    -0.200 F 
ATOM     70  C   UNL A   1      46.384  26.194  35.981  1.00  0.00     0.200 A 
ATOM     71  F   UNL A   1      44.904  24.438  36.533  1.00  0.00    -0.200 F 
ATOM     72  F   UNL A   1      47.316  25.684  36.799  1.00  0.00    -0.200 F 
ENDBRANCH  39  62
ENDBRANCH  13  14
ENDBRANCH   6   8
ENDBRANCH   5   6
ENDBRANCH   4   5
ENDBRANCH   3   4
ENDBRANCH   2   3
ENDBRANCH   1   2
BRANCH   1  73
ATOM     73  C   UNL A   1      30.553  29.621  23.834  1.00  0.00     0.188 C 
BRANCH  73  74
ATOM     74  O   UNL A   1      29.866  28.390  23.897  1.00  0.00    -0.376 OA
BRANCH  74  75
ATOM     75  C   UNL A   1      29.949  27.431  22.859  1.00  0.00     0.202 C 
BRANCH  75  76
ATOM     76  C   UNL A   1      31.042  26.347  22.731  1.00  0.00     0.261 C 
BRANCH  76  77
ATOM     77  O   UNL A   1      30.695  24.965  22.914  1.00  0.00    -0.459 OA
BRANCH  77  78
ATOM     78  C   UNL A   1      31.779  24.146  22.864  1.00  0.00     0.365 C 
ATOM     79  O   UNL A   1      32.796  24.485  22.265  1.00  0.00    -0.245 OA
BRANCH  78  80
ATOM     80  C   UNL A   1      31.634  22.772  23.567  1.00  0.00     0.300 C 
ATOM     81  C   UNL A   1      32.133  21.597  22.692  1.00  0.00     0.113 C 
ATOM     82  N   UNL A   1      32.239  22.843  24.935  1.00  0.00    -0.315 N 
ATOM     83  C   UNL A   1      32.337  20.307  23.450  1.00  0.00    -0.033 A 
ATOM     84  C   UNL A   1      32.245  21.548  25.631  1.00  0.00     0.300 C 
ATOM     85  H   UNL A   1      33.204  23.128  24.767  1.00  0.00     0.349 HD
ATOM     86  C   UNL A   1      32.384  19.072  22.795  1.00  0.00     0.006 A 
ATOM     87  C   UNL A   1      32.532  20.322  24.823  1.00  0.00     0.011 A 
ATOM     88  C   UNL A   1      32.766  17.897  23.451  1.00  0.00     0.021 A 
ATOM     89  C   UNL A   1      32.794  19.118  25.503  1.00  0.00     0.030 A 
ATOM     90  C   UNL A   1      32.983  17.928  24.816  1.00  0.00     0.041 A 
ATOM     91  Cl  UNL A   1      33.412  16.497  25.666  1.00  0.00    -0.084 Cl
BRANCH  82  92
ATOM     92  C   UNL A   1      31.577  23.867  25.816  1.00  0.00     0.300 C 
BRANCH  92  93
ATOM     93  C   UNL A   1      32.248  25.241  25.859  1.00  0.00     0.006 A 
ATOM     94  C   UNL A   1      33.582  25.412  25.464  1.00  0.00     0.011 A 
ATOM     95  C   UNL A   1      31.595  26.346  26.427  1.00  0.00     0.011 A 
ATOM     96  C   UNL A   1      34.299  26.550  25.841  1.00  0.00     0.021 A 
ATOM     97  C   UNL A   1      32.302  27.487  26.803  1.00  0.00     0.021 A 
ATOM     98  C   UNL A   1      33.664  27.565  26.548  1.00  0.00     0.041 A 
ATOM     99  Cl  UNL A   1      34.566  28.914  27.112  1.00  0.00    -0.084 Cl
ENDBRANCH  92  93
ENDBRANCH  82  92
ENDBRANCH  78  80
ENDBRANCH  77  78
ENDBRANCH  76  77
ENDBRANCH  75  76
ENDBRANCH  74  75
ENDBRANCH  73  74
ENDBRANCH   1  73
TORSDOF 19
ENDMDL
MODEL 3
REMARK VINA RESULT:     -11.7      0.836      7.108
REMARK SMILES O=C(OCCOCCOCCOC(=O)[C@H]1Cc2ccc(Cl)cc2C[N@@H+]1Cc1ccc(Cl)cc1)c1ccc(-c2c3nc(c(-c4c(F)c(F)c(F)c(F)c4F)c4ccc([nH]4)c(-c4c(F)c(F)c(F)c(F)c4F)c4nc(c(-c5c(F)c(F)c(F)c(F)c5F)c5ccc2[nH]5)C=C4)C=C3)cc1
REMARK SMILES IDX 7 1 6 2 5 3 4 4 3 5 2 6 1 7 34 8 35 9 96 10 36 11 95 12
REMARK SMILES IDX 37 13 38 14 39 15 89 16 40 17 94 18 88 19 90 20 41 21 93 22
REMARK SMILES IDX 87 23 86 24 42 26 74 27 54 28 73 29 55 30 58 31 72 32 91 33
REMARK SMILES IDX 56 34 57 35 71 37 92 38 59 39 43 40 44 41 52 42 45 43 46 44
REMARK SMILES IDX 50 45 53 46 47 47 48 48 51 49 49 50 75 51 76 52 84 53 77 54
REMARK SMILES IDX 78 55 82 56 85 57 79 58 80 59 83 60 81 61 60 62 61 63 69 64
REMARK SMILES IDX 62 65 63 66 67 67 70 68 64 69 65 70 68 71 66 72 8 73 9 74
REMARK SMILES IDX 10 75 11 76 12 77 13 78 14 79 15 80 16 81 25 82 17 83 24 84
REMARK SMILES IDX 18 86 23 87 19 88 22 89 20 90 21 91 26 92 27 93 28 94 33 95
REMARK SMILES IDX 29 96 32 97 30 98 31 99
REMARK H PARENT 90 25 58 36 25 85
REMARK Flexibility Score: inf
ROOT
ATOM      1  C   UNL A   1      31.392  29.426  24.914  1.00  0.00     0.188 C 
ENDROOT
BRANCH   1   2
ATOM      2  O   UNL A   1      32.560  29.904  25.557  1.00  0.00    -0.376 OA
BRANCH   2   3
ATOM      3  C   UNL A   1      32.396  30.585  26.791  1.00  0.00     0.202 C 
BRANCH   3   4
ATOM      4  C   UNL A   1      32.113  32.087  26.808  1.00  0.00     0.261 C 
BRANCH   4   5
ATOM      5  O   UNL A   1      32.786  32.992  27.708  1.00  0.00    -0.460 OA
BRANCH   5   6
ATOM      6  C   UNL A   1      34.023  33.518  27.782  1.00  0.00     0.338 C 
ATOM      7  O   UNL A   1      34.244  34.614  27.292  1.00  0.00    -0.246 OA
BRANCH   6   8
ATOM      8  C   UNL A   1      35.139  32.779  28.412  1.00  0.00     0.060 A 
ATOM      9  C   UNL A   1      36.409  33.347  28.311  1.00  0.00     0.016 A 
ATOM     10  C   UNL A   1      34.981  31.609  29.157  1.00  0.00     0.016 A 
ATOM     11  C   UNL A   1      37.498  32.706  28.893  1.00  0.00     0.010 A 
ATOM     12  C   UNL A   1      36.096  30.895  29.617  1.00  0.00     0.010 A 
ATOM     13  C   UNL A   1      37.376  31.435  29.479  1.00  0.00    -0.014 A 
BRANCH  13  14
ATOM     14  C   UNL A   1      38.510  30.900  30.271  1.00  0.00     0.031 A 
ATOM     15  C   UNL A   1      38.850  31.314  31.676  1.00  0.00     0.074 A 
ATOM     16  C   UNL A   1      39.247  29.973  29.633  1.00  0.00     0.049 A 
ATOM     17  N   UNL A   1      39.659  30.724  32.524  1.00  0.00    -0.248 NA
ATOM     18  C   UNL A   1      38.219  32.525  32.215  1.00  0.00     0.031 C 
ATOM     19  C   UNL A   1      39.020  29.538  28.250  1.00  0.00     0.029 A 
ATOM     20  N   UNL A   1      40.324  29.244  30.042  1.00  0.00    -0.354 N 
ATOM     21  C   UNL A   1      39.554  31.429  33.721  1.00  0.00     0.074 A 
ATOM     22  C   UNL A   1      38.649  32.530  33.476  1.00  0.00     0.031 C 
ATOM     23  C   UNL A   1      39.939  28.626  27.921  1.00  0.00     0.029 A 
ATOM     24  C   UNL A   1      40.827  28.432  29.059  1.00  0.00     0.049 A 
ATOM     25  H   UNL A   1      40.703  29.296  30.949  1.00  0.00     0.167 HD
ATOM     26  C   UNL A   1      40.168  31.158  34.901  1.00  0.00     0.037 A 
ATOM     27  C   UNL A   1      41.897  27.622  29.066  1.00  0.00     0.037 A 
ATOM     28  C   UNL A   1      41.162  30.130  35.065  1.00  0.00     0.049 A 
ATOM     29  C   UNL A   1      42.656  27.459  30.344  1.00  0.00     0.074 A 
ATOM     30  C   UNL A   1      41.824  29.750  36.219  1.00  0.00     0.029 A 
ATOM     31  N   UNL A   1      41.680  29.364  34.032  1.00  0.00    -0.354 N 
ATOM     32  N   UNL A   1      42.404  27.983  31.518  1.00  0.00    -0.248 NA
ATOM     33  C   UNL A   1      43.831  26.584  30.309  1.00  0.00     0.031 C 
ATOM     34  C   UNL A   1      42.805  28.820  35.867  1.00  0.00     0.029 A 
ATOM     35  C   UNL A   1      42.718  28.581  34.504  1.00  0.00     0.049 A 
ATOM     36  H   UNL A   1      41.357  29.376  33.102  1.00  0.00     0.167 HD
ATOM     37  C   UNL A   1      43.370  27.481  32.373  1.00  0.00     0.074 A 
ATOM     38  C   UNL A   1      44.212  26.607  31.580  1.00  0.00     0.031 C 
ATOM     39  C   UNL A   1      43.541  27.718  33.695  1.00  0.00     0.037 A 
BRANCH  26  40
ATOM     40  C   UNL A   1      39.814  31.940  36.137  1.00  0.00     0.064 A 
ATOM     41  C   UNL A   1      40.562  33.073  36.483  1.00  0.00     0.173 A 
ATOM     42  C   UNL A   1      38.622  31.724  36.839  1.00  0.00     0.173 A 
ATOM     43  F   UNL A   1      41.604  33.435  35.731  1.00  0.00    -0.203 F 
ATOM     44  C   UNL A   1      40.192  33.911  37.532  1.00  0.00     0.198 A 
ATOM     45  C   UNL A   1      38.220  32.593  37.857  1.00  0.00     0.198 A 
ATOM     46  F   UNL A   1      37.811  30.714  36.493  1.00  0.00    -0.203 F 
ATOM     47  F   UNL A   1      40.955  34.966  37.847  1.00  0.00    -0.200 F 
ATOM     48  C   UNL A   1      39.013  33.674  38.214  1.00  0.00     0.200 A 
ATOM     49  F   UNL A   1      37.044  32.405  38.472  1.00  0.00    -0.200 F 
ATOM     50  F   UNL A   1      38.625  34.509  39.189  1.00  0.00    -0.200 F 
ENDBRANCH  26  40
BRANCH  27  51
ATOM     51  C   UNL A   1      42.258  26.912  27.817  1.00  0.00     0.064 A 
ATOM     52  C   UNL A   1      43.192  27.451  26.925  1.00  0.00     0.173 A 
ATOM     53  C   UNL A   1      41.753  25.629  27.548  1.00  0.00     0.173 A 
ATOM     54  F   UNL A   1      43.701  28.671  27.146  1.00  0.00    -0.203 F 
ATOM     55  C   UNL A   1      43.606  26.734  25.806  1.00  0.00     0.198 A 
ATOM     56  C   UNL A   1      42.193  24.902  26.446  1.00  0.00     0.198 A 
ATOM     57  F   UNL A   1      40.876  25.060  28.388  1.00  0.00    -0.203 F 
ATOM     58  F   UNL A   1      44.489  27.276  24.957  1.00  0.00    -0.200 F 
ATOM     59  C   UNL A   1      43.115  25.457  25.574  1.00  0.00     0.200 A 
ATOM     60  F   UNL A   1      41.740  23.656  26.244  1.00  0.00    -0.200 F 
ATOM     61  F   UNL A   1      43.537  24.758  24.511  1.00  0.00    -0.200 F 
ENDBRANCH  27  51
BRANCH  39  62
ATOM     62  C   UNL A   1      44.685  27.036  34.375  1.00  0.00     0.064 A 
ATOM     63  C   UNL A   1      45.926  27.670  34.517  1.00  0.00     0.173 A 
ATOM     64  C   UNL A   1      44.506  25.782  34.979  1.00  0.00     0.173 A 
ATOM     65  F   UNL A   1      46.143  28.863  33.944  1.00  0.00    -0.203 F 
ATOM     66  C   UNL A   1      46.952  27.071  35.238  1.00  0.00     0.198 A 
ATOM     67  C   UNL A   1      45.525  25.200  35.726  1.00  0.00     0.198 A 
ATOM     68  F   UNL A   1      43.332  25.142  34.877  1.00  0.00    -0.203 F 
ATOM     69  F   UNL A   1      48.139  27.683  35.343  1.00  0.00    -0.200 F 
ATOM     70  C   UNL A   1      46.747  25.845  35.853  1.00  0.00     0.200 A 
ATOM     71  F   UNL A   1      45.320  24.024  36.335  1.00  0.00    -0.200 F 
ATOM     72  F   UNL A   1      47.729  25.282  36.573  1.00  0.00    -0.200 F 
ENDBRANCH  39  62
ENDBRANCH  13  14
ENDBRANCH   6   8
ENDBRANCH   5   6
ENDBRANCH   4   5
ENDBRANCH   3   4
ENDBRANCH   2   3
ENDBRANCH   1   2
BRANCH   1  73
ATOM     73  C   UNL A   1      31.272  27.908  24.789  1.00  0.00     0.188 C 
BRANCH  73  74
ATOM     74  O   UNL A   1      32.221  27.077  25.424  1.00  0.00    -0.376 OA
BRANCH  74  75
ATOM     75  C   UNL A   1      31.836  26.036  26.303  1.00  0.00     0.202 C 
BRANCH  75  76
ATOM     76  C   UNL A   1      30.960  24.823  25.918  1.00  0.00     0.261 C 
BRANCH  76  77
ATOM     77  O   UNL A   1      31.575  23.543  25.702  1.00  0.00    -0.459 OA
BRANCH  77  78
ATOM     78  C   UNL A   1      32.038  23.397  24.433  1.00  0.00     0.365 C 
ATOM     79  O   UNL A   1      31.320  23.645  23.468  1.00  0.00    -0.245 OA
BRANCH  78  80
ATOM     80  C   UNL A   1      33.491  22.874  24.289  1.00  0.00     0.300 C 
ATOM     81  C   UNL A   1      34.520  23.751  25.042  1.00  0.00     0.113 C 
ATOM     82  N   UNL A   1      33.534  21.417  24.628  1.00  0.00    -0.315 N 
ATOM     83  C   UNL A   1      35.871  23.100  25.223  1.00  0.00    -0.033 A 
ATOM     84  C   UNL A   1      34.896  20.864  24.626  1.00  0.00     0.300 C 
ATOM     85  H   UNL A   1      33.164  21.370  25.578  1.00  0.00     0.349 HD
ATOM     86  C   UNL A   1      37.015  23.854  25.499  1.00  0.00     0.006 A 
ATOM     87  C   UNL A   1      35.999  21.721  25.164  1.00  0.00     0.011 A 
ATOM     88  C   UNL A   1      38.229  23.257  25.861  1.00  0.00     0.021 A 
ATOM     89  C   UNL A   1      37.251  21.126  25.407  1.00  0.00     0.030 A 
ATOM     90  C   UNL A   1      38.338  21.880  25.825  1.00  0.00     0.041 A 
ATOM     91  Cl  UNL A   1      39.823  21.110  26.222  1.00  0.00    -0.084 Cl
BRANCH  82  92
ATOM     92  C   UNL A   1      32.667  20.579  23.728  1.00  0.00     0.300 C 
BRANCH  92  93
ATOM     93  C   UNL A   1      32.641  19.081  24.034  1.00  0.00     0.006 A 
ATOM     94  C   UNL A   1      32.316  18.606  25.313  1.00  0.00     0.011 A 
ATOM     95  C   UNL A   1      33.079  18.143  23.088  1.00  0.00     0.011 A 
ATOM     96  C   UNL A   1      32.643  17.304  25.695  1.00  0.00     0.021 A 
ATOM     97  C   UNL A   1      33.406  16.839  23.460  1.00  0.00     0.021 A 
ATOM     98  C   UNL A   1      33.227  16.438  24.777  1.00  0.00     0.041 A 
ATOM     99  Cl  UNL A   1      33.736  14.873  25.273  1.00  0.00    -0.084 Cl
ENDBRANCH  92  93
ENDBRANCH  82  92
ENDBRANCH  78  80
ENDBRANCH  77  78
ENDBRANCH  76  77
ENDBRANCH  75  76
ENDBRANCH  74  75
ENDBRANCH  73  74
ENDBRANCH   1  73
TORSDOF 19
ENDMDL
