MODEL 1
REMARK VINA RESULT:     -10.6      0.000      0.000
REMARK SMILES CC[C@@H](C(=O)OCCOCCOCCOC(=O)c1ccc(-c2c3nc(c(-c4c(F)c(F)c(F)c(F)c4F)c4ccc([nH]4)c(-c4c(F)c(F)c(F)c(F)c4F)c4nc(c(-c5c(F)c(F)c(F)c(F)c5F)c5ccc2[nH]5)C=C4)C=C3)cc1)N1C(=O)/C(=C/c2ccccc2[N+](=O)[O-])SC1=S
REMARK SMILES IDX 10 1 9 2 8 3 7 4 6 5 4 6 5 7 3 8 2 9 1 10 81 11 82 12 96 13
REMARK SMILES IDX 83 14 84 15 95 16 97 17 85 18 86 19 87 20 91 21 88 22 90 23
REMARK SMILES IDX 89 24 92 25 93 26 94 27 11 28 12 29 13 30 14 31 15 32 16 33
REMARK SMILES IDX 17 34 18 35 19 36 80 37 20 38 79 39 21 40 22 41 23 42 73 43
REMARK SMILES IDX 24 44 78 45 72 46 74 47 25 48 77 49 71 50 70 51 26 53 58 54
REMARK SMILES IDX 38 55 57 56 39 57 42 58 56 59 75 60 40 61 41 62 55 64 76 65
REMARK SMILES IDX 43 66 27 67 28 68 36 69 29 70 30 71 34 72 37 73 31 74 32 75
REMARK SMILES IDX 35 76 33 77 59 78 60 79 68 80 61 81 62 82 66 83 69 84 63 85
REMARK SMILES IDX 64 86 67 87 65 88 44 89 45 90 53 91 46 92 47 93 51 94 54 95
REMARK SMILES IDX 48 96 49 97 52 98 50 99
REMARK H PARENT 74 52 42 63
REMARK Flexibility Score: inf
ROOT
ATOM      1  C   UNL A   1      36.659  23.314  25.144  1.00  0.00     0.188 C 
ENDROOT
BRANCH   1   2
ATOM      2  O   UNL A   1      36.286  23.156  26.507  1.00  0.00    -0.376 OA
BRANCH   2   3
ATOM      3  C   UNL A   1      34.919  22.955  26.850  1.00  0.00     0.202 C 
BRANCH   3   4
ATOM      4  C   UNL A   1      34.465  21.563  27.316  1.00  0.00     0.261 C 
BRANCH   4   5
ATOM      5  O   UNL A   1      33.324  20.999  26.628  1.00  0.00    -0.462 OA
BRANCH   5   6
ATOM      6  C   UNL A   1      33.495  20.756  25.303  1.00  0.00     0.329 C 
ATOM      7  O   UNL A   1      34.498  20.201  24.863  1.00  0.00    -0.250 OA
BRANCH   6   8
ATOM      8  C   UNL A   1      32.325  21.216  24.380  1.00  0.00     0.201 C 
BRANCH   8   9
ATOM      9  C   UNL A   1      32.155  20.549  23.001  1.00  0.00     0.034 C 
ATOM     10  C   UNL A   1      32.159  19.030  22.947  1.00  0.00     0.007 C 
ENDBRANCH   8   9
BRANCH   8  11
ATOM     11  N   UNL A   1      32.418  22.721  24.365  1.00  0.00    -0.278 N 
ATOM     12  C   UNL A   1      31.543  23.406  25.211  1.00  0.00     0.267 C 
ATOM     13  C   UNL A   1      33.275  23.547  23.666  1.00  0.00     0.149 C 
ATOM     14  O   UNL A   1      30.558  22.936  25.765  1.00  0.00    -0.268 OA
ATOM     15  C   UNL A   1      31.907  24.846  25.288  1.00  0.00     0.081 C 
ATOM     16  S   UNL A   1      33.374  25.117  24.456  1.00  0.00    -0.054 SA
ATOM     17  S   UNL A   1      34.095  23.323  22.234  1.00  0.00    -0.052 S 
ATOM     18  C   UNL A   1      31.101  25.765  25.837  1.00  0.00     0.036 C 
BRANCH  18  19
ATOM     19  C   UNL A   1      31.260  27.226  25.732  1.00  0.00     0.054 A 
ATOM     20  C   UNL A   1      31.825  27.882  26.833  1.00  0.00     0.015 A 
ATOM     21  C   UNL A   1      30.828  28.019  24.644  1.00  0.00     0.276 A 
ATOM     22  C   UNL A   1      31.953  29.273  26.842  1.00  0.00     0.001 A 
ATOM     23  C   UNL A   1      31.011  29.411  24.633  1.00  0.00     0.086 A 
ATOM     24  C   UNL A   1      31.575  30.036  25.739  1.00  0.00     0.007 A 
BRANCH  21  25
ATOM     25  N   UNL A   1      30.109  27.442  23.508  1.00  0.00     0.063 N 
ATOM     26  O   UNL A   1      30.789  26.939  22.603  1.00  0.00    -0.258 OA
ATOM     27  O   UNL A   1      28.872  27.509  23.506  1.00  0.00    -0.258 OA
ENDBRANCH  21  25
ENDBRANCH  18  19
ENDBRANCH   8  11
ENDBRANCH   6   8
ENDBRANCH   5   6
ENDBRANCH   4   5
ENDBRANCH   3   4
ENDBRANCH   2   3
ENDBRANCH   1   2
BRANCH   1  28
ATOM     28  C   UNL A   1      37.321  22.147  24.397  1.00  0.00     0.188 C 
BRANCH  28  29
ATOM     29  O   UNL A   1      37.637  21.039  25.209  1.00  0.00    -0.376 OA
BRANCH  29  30
ATOM     30  C   UNL A   1      38.886  21.052  25.878  1.00  0.00     0.202 C 
BRANCH  30  31
ATOM     31  C   UNL A   1      39.759  19.790  25.779  1.00  0.00     0.261 C 
BRANCH  31  32
ATOM     32  O   UNL A   1      40.733  19.613  26.825  1.00  0.00    -0.460 OA
BRANCH  32  33
ATOM     33  C   UNL A   1      41.983  20.053  26.585  1.00  0.00     0.338 C 
ATOM     34  O   UNL A   1      42.901  19.420  26.064  1.00  0.00    -0.246 OA
BRANCH  33  35
ATOM     35  C   UNL A   1      42.017  21.506  26.844  1.00  0.00     0.060 A 
ATOM     36  C   UNL A   1      41.974  22.383  25.754  1.00  0.00     0.016 A 
ATOM     37  C   UNL A   1      42.086  22.013  28.143  1.00  0.00     0.016 A 
ATOM     38  C   UNL A   1      41.993  23.764  25.950  1.00  0.00     0.010 A 
ATOM     39  C   UNL A   1      42.145  23.399  28.339  1.00  0.00     0.010 A 
ATOM     40  C   UNL A   1      42.114  24.282  27.244  1.00  0.00    -0.014 A 
BRANCH  40  41
ATOM     41  C   UNL A   1      42.436  25.721  27.430  1.00  0.00     0.031 A 
ATOM     42  C   UNL A   1      43.768  26.212  26.930  1.00  0.00     0.074 A 
ATOM     43  C   UNL A   1      41.572  26.582  27.997  1.00  0.00     0.049 A 
ATOM     44  N   UNL A   1      44.334  27.383  27.072  1.00  0.00    -0.248 NA
ATOM     45  C   UNL A   1      44.565  25.246  26.157  1.00  0.00     0.031 C 
ATOM     46  C   UNL A   1      40.217  26.259  28.434  1.00  0.00     0.029 A 
ATOM     47  N   UNL A   1      41.719  27.914  28.312  1.00  0.00    -0.354 N 
ATOM     48  C   UNL A   1      45.556  27.289  26.419  1.00  0.00     0.074 A 
ATOM     49  C   UNL A   1      45.658  25.945  25.893  1.00  0.00     0.031 C 
ATOM     50  C   UNL A   1      39.663  27.357  28.985  1.00  0.00     0.029 A 
ATOM     51  C   UNL A   1      40.643  28.443  28.986  1.00  0.00     0.049 A 
ATOM     52  H   UNL A   1      42.517  28.439  28.077  1.00  0.00     0.167 HD
ATOM     53  C   UNL A   1      46.509  28.238  26.271  1.00  0.00     0.037 A 
ATOM     54  C   UNL A   1      40.493  29.651  29.571  1.00  0.00     0.037 A 
ATOM     55  C   UNL A   1      46.409  29.573  26.793  1.00  0.00     0.049 A 
ATOM     56  C   UNL A   1      41.622  30.655  29.483  1.00  0.00     0.074 A 
ATOM     57  C   UNL A   1      47.331  30.603  26.717  1.00  0.00     0.029 A 
ATOM     58  N   UNL A   1      45.317  30.063  27.493  1.00  0.00    -0.354 N 
ATOM     59  N   UNL A   1      42.768  30.568  28.852  1.00  0.00    -0.248 NA
ATOM     60  C   UNL A   1      41.433  31.933  30.189  1.00  0.00     0.031 C 
ATOM     61  C   UNL A   1      46.817  31.701  27.414  1.00  0.00     0.029 A 
ATOM     62  C   UNL A   1      45.552  31.374  27.874  1.00  0.00     0.049 A 
ATOM     63  H   UNL A   1      44.497  29.556  27.690  1.00  0.00     0.167 HD
ATOM     64  C   UNL A   1      43.408  31.786  29.045  1.00  0.00     0.074 A 
ATOM     65  C   UNL A   1      42.515  32.607  29.833  1.00  0.00     0.031 C 
ATOM     66  C   UNL A   1      44.630  32.191  28.618  1.00  0.00     0.037 A 
BRANCH  53  67
ATOM     67  C   UNL A   1      47.766  27.850  25.550  1.00  0.00     0.064 A 
ATOM     68  C   UNL A   1      48.939  27.511  26.240  1.00  0.00     0.173 A 
ATOM     69  C   UNL A   1      47.786  27.792  24.149  1.00  0.00     0.173 A 
ATOM     70  F   UNL A   1      48.976  27.570  27.580  1.00  0.00    -0.203 F 
ATOM     71  C   UNL A   1      50.094  27.148  25.551  1.00  0.00     0.198 A 
ATOM     72  C   UNL A   1      48.933  27.399  23.465  1.00  0.00     0.198 A 
ATOM     73  F   UNL A   1      46.690  28.106  23.443  1.00  0.00    -0.203 F 
ATOM     74  F   UNL A   1      51.218  26.871  26.228  1.00  0.00    -0.200 F 
ATOM     75  C   UNL A   1      50.087  27.084  24.165  1.00  0.00     0.200 A 
ATOM     76  F   UNL A   1      48.921  27.328  22.126  1.00  0.00    -0.200 F 
ATOM     77  F   UNL A   1      51.197  26.726  23.504  1.00  0.00    -0.200 F 
ENDBRANCH  53  67
BRANCH  54  78
ATOM     78  C   UNL A   1      39.249  29.993  30.322  1.00  0.00     0.064 A 
ATOM     79  C   UNL A   1      39.076  29.592  31.655  1.00  0.00     0.173 A 
ATOM     80  C   UNL A   1      38.183  30.673  29.717  1.00  0.00     0.173 A 
ATOM     81  F   UNL A   1      40.050  28.919  32.286  1.00  0.00    -0.203 F 
ATOM     82  C   UNL A   1      37.893  29.851  32.348  1.00  0.00     0.198 A 
ATOM     83  C   UNL A   1      37.012  30.960  30.418  1.00  0.00     0.198 A 
ATOM     84  F   UNL A   1      38.272  31.060  28.435  1.00  0.00    -0.203 F 
ATOM     85  F   UNL A   1      37.759  29.432  33.613  1.00  0.00    -0.200 F 
ATOM     86  C   UNL A   1      36.865  30.544  31.732  1.00  0.00     0.200 A 
ATOM     87  F   UNL A   1      36.022  31.636  29.818  1.00  0.00    -0.200 F 
ATOM     88  F   UNL A   1      35.736  30.806  32.403  1.00  0.00    -0.200 F 
ENDBRANCH  54  78
BRANCH  66  89
ATOM     89  C   UNL A   1      45.044  33.601  28.931  1.00  0.00     0.064 A 
ATOM     90  C   UNL A   1      45.773  33.922  30.085  1.00  0.00     0.173 A 
ATOM     91  C   UNL A   1      44.742  34.640  28.036  1.00  0.00     0.173 A 
ATOM     92  F   UNL A   1      46.073  32.969  30.980  1.00  0.00    -0.203 F 
ATOM     93  C   UNL A   1      46.157  35.235  30.347  1.00  0.00     0.198 A 
ATOM     94  C   UNL A   1      45.158  35.945  28.283  1.00  0.00     0.198 A 
ATOM     95  F   UNL A   1      44.055  34.387  26.911  1.00  0.00    -0.203 F 
ATOM     96  F   UNL A   1      46.805  35.526  31.483  1.00  0.00    -0.200 F 
ATOM     97  C   UNL A   1      45.858  36.243  29.442  1.00  0.00     0.200 A 
ATOM     98  F   UNL A   1      44.882  36.914  27.400  1.00  0.00    -0.200 F 
ATOM     99  F   UNL A   1      46.237  37.504  29.692  1.00  0.00    -0.200 F 
ENDBRANCH  66  89
ENDBRANCH  40  41
ENDBRANCH  33  35
ENDBRANCH  32  33
ENDBRANCH  31  32
ENDBRANCH  30  31
ENDBRANCH  29  30
ENDBRANCH  28  29
ENDBRANCH   1  28
TORSDOF 21
ENDMDL
MODEL 2
REMARK VINA RESULT:     -10.6      1.688      7.193
REMARK SMILES CC[C@@H](C(=O)OCCOCCOCCOC(=O)c1ccc(-c2c3nc(c(-c4c(F)c(F)c(F)c(F)c4F)c4ccc([nH]4)c(-c4c(F)c(F)c(F)c(F)c4F)c4nc(c(-c5c(F)c(F)c(F)c(F)c5F)c5ccc2[nH]5)C=C4)C=C3)cc1)N1C(=O)/C(=C/c2ccccc2[N+](=O)[O-])SC1=S
REMARK SMILES IDX 10 1 9 2 8 3 7 4 6 5 4 6 5 7 3 8 2 9 1 10 81 11 82 12 96 13
REMARK SMILES IDX 83 14 84 15 95 16 97 17 85 18 86 19 87 20 91 21 88 22 90 23
REMARK SMILES IDX 89 24 92 25 93 26 94 27 11 28 12 29 13 30 14 31 15 32 16 33
REMARK SMILES IDX 17 34 18 35 19 36 80 37 20 38 79 39 21 40 22 41 23 42 73 43
REMARK SMILES IDX 24 44 78 45 72 46 74 47 25 48 77 49 71 50 70 51 26 53 58 54
REMARK SMILES IDX 38 55 57 56 39 57 42 58 56 59 75 60 40 61 41 62 55 64 76 65
REMARK SMILES IDX 43 66 27 67 28 68 36 69 29 70 30 71 34 72 37 73 31 74 32 75
REMARK SMILES IDX 35 76 33 77 59 78 60 79 68 80 61 81 62 82 66 83 69 84 63 85
REMARK SMILES IDX 64 86 67 87 65 88 44 89 45 90 53 91 46 92 47 93 51 94 54 95
REMARK SMILES IDX 48 96 49 97 52 98 50 99
REMARK H PARENT 74 52 42 63
REMARK Flexibility Score: inf
ROOT
ATOM      1  C   UNL A   1      36.482  23.426  24.670  1.00  0.00     0.188 C 
ENDROOT
BRANCH   1   2
ATOM      2  O   UNL A   1      35.992  24.014  25.867  1.00  0.00    -0.376 OA
BRANCH   2   3
ATOM      3  C   UNL A   1      34.759  23.570  26.424  1.00  0.00     0.202 C 
BRANCH   3   4
ATOM      4  C   UNL A   1      34.656  22.131  26.952  1.00  0.00     0.261 C 
BRANCH   4   5
ATOM      5  O   UNL A   1      33.528  21.357  26.482  1.00  0.00    -0.462 OA
BRANCH   5   6
ATOM      6  C   UNL A   1      33.629  20.878  25.216  1.00  0.00     0.329 C 
ATOM      7  O   UNL A   1      34.642  20.317  24.806  1.00  0.00    -0.250 OA
BRANCH   6   8
ATOM      8  C   UNL A   1      32.367  21.075  24.321  1.00  0.00     0.201 C 
BRANCH   8   9
ATOM      9  C   UNL A   1      32.201  20.204  23.060  1.00  0.00     0.034 C 
ATOM     10  C   UNL A   1      32.177  18.696  23.244  1.00  0.00     0.007 C 
ENDBRANCH   8   9
BRANCH   8  11
ATOM     11  N   UNL A   1      32.287  22.565  24.095  1.00  0.00    -0.278 N 
ATOM     12  C   UNL A   1      31.409  23.271  24.920  1.00  0.00     0.267 C 
ATOM     13  C   UNL A   1      32.986  23.364  23.214  1.00  0.00     0.149 C 
ATOM     14  O   UNL A   1      30.532  22.789  25.623  1.00  0.00    -0.268 OA
ATOM     15  C   UNL A   1      31.612  24.737  24.768  1.00  0.00     0.081 C 
ATOM     16  S   UNL A   1      32.968  25.033  23.772  1.00  0.00    -0.054 SA
ATOM     17  S   UNL A   1      33.710  23.020  21.754  1.00  0.00    -0.052 S 
ATOM     18  C   UNL A   1      30.753  25.638  25.262  1.00  0.00     0.036 C 
BRANCH  18  19
ATOM     19  C   UNL A   1      30.736  27.078  24.946  1.00  0.00     0.054 A 
ATOM     20  C   UNL A   1      30.039  27.464  23.793  1.00  0.00     0.015 A 
ATOM     21  C   UNL A   1      31.417  28.083  25.669  1.00  0.00     0.276 A 
ATOM     22  C   UNL A   1      30.025  28.800  23.386  1.00  0.00     0.001 A 
ATOM     23  C   UNL A   1      31.353  29.432  25.289  1.00  0.00     0.086 A 
ATOM     24  C   UNL A   1      30.654  29.787  24.141  1.00  0.00     0.007 A 
BRANCH  21  25
ATOM     25  N   UNL A   1      32.278  27.761  26.809  1.00  0.00     0.063 N 
ATOM     26  O   UNL A   1      33.408  27.319  26.559  1.00  0.00    -0.258 OA
ATOM     27  O   UNL A   1      31.821  27.927  27.948  1.00  0.00    -0.258 OA
ENDBRANCH  21  25
ENDBRANCH  18  19
ENDBRANCH   8  11
ENDBRANCH   6   8
ENDBRANCH   5   6
ENDBRANCH   4   5
ENDBRANCH   3   4
ENDBRANCH   2   3
ENDBRANCH   1   2
BRANCH   1  28
ATOM     28  C   UNL A   1      37.341  22.155  24.742  1.00  0.00     0.188 C 
BRANCH  28  29
ATOM     29  O   UNL A   1      37.947  21.932  25.995  1.00  0.00    -0.376 OA
BRANCH  29  30
ATOM     30  C   UNL A   1      39.311  21.549  26.005  1.00  0.00     0.202 C 
BRANCH  30  31
ATOM     31  C   UNL A   1      39.629  20.049  25.894  1.00  0.00     0.261 C 
BRANCH  31  32
ATOM     32  O   UNL A   1      40.718  19.573  26.708  1.00  0.00    -0.460 OA
BRANCH  32  33
ATOM     33  C   UNL A   1      41.937  19.518  26.138  1.00  0.00     0.338 C 
ATOM     34  O   UNL A   1      42.342  18.669  25.345  1.00  0.00    -0.246 OA
BRANCH  33  35
ATOM     35  C   UNL A   1      42.646  20.777  26.444  1.00  0.00     0.060 A 
ATOM     36  C   UNL A   1      42.577  21.284  27.747  1.00  0.00     0.016 A 
ATOM     37  C   UNL A   1      43.376  21.457  25.469  1.00  0.00     0.016 A 
ATOM     38  C   UNL A   1      43.239  22.465  28.086  1.00  0.00     0.010 A 
ATOM     39  C   UNL A   1      44.008  22.663  25.799  1.00  0.00     0.010 A 
ATOM     40  C   UNL A   1      43.931  23.182  27.105  1.00  0.00    -0.014 A 
BRANCH  40  41
ATOM     41  C   UNL A   1      44.373  24.573  27.388  1.00  0.00     0.031 A 
ATOM     42  C   UNL A   1      43.326  25.570  27.804  1.00  0.00     0.074 A 
ATOM     43  C   UNL A   1      45.663  24.945  27.311  1.00  0.00     0.049 A 
ATOM     44  N   UNL A   1      43.429  26.861  27.993  1.00  0.00    -0.248 NA
ATOM     45  C   UNL A   1      41.977  25.032  28.045  1.00  0.00     0.031 C 
ATOM     46  C   UNL A   1      46.785  24.059  27.016  1.00  0.00     0.029 A 
ATOM     47  N   UNL A   1      46.244  26.183  27.466  1.00  0.00    -0.354 N 
ATOM     48  C   UNL A   1      42.160  27.287  28.361  1.00  0.00     0.074 A 
ATOM     49  C   UNL A   1      41.299  26.125  28.356  1.00  0.00     0.031 C 
ATOM     50  C   UNL A   1      47.919  24.786  26.987  1.00  0.00     0.029 A 
ATOM     51  C   UNL A   1      47.595  26.195  27.208  1.00  0.00     0.049 A 
ATOM     52  H   UNL A   1      45.741  26.984  27.737  1.00  0.00     0.167 HD
ATOM     53  C   UNL A   1      41.748  28.538  28.677  1.00  0.00     0.037 A 
ATOM     54  C   UNL A   1      48.454  27.234  27.120  1.00  0.00     0.037 A 
ATOM     55  C   UNL A   1      42.603  29.693  28.683  1.00  0.00     0.049 A 
ATOM     56  C   UNL A   1      47.940  28.635  27.370  1.00  0.00     0.074 A 
ATOM     57  C   UNL A   1      42.277  31.008  28.965  1.00  0.00     0.029 A 
ATOM     58  N   UNL A   1      43.958  29.670  28.390  1.00  0.00    -0.354 N 
ATOM     59  N   UNL A   1      46.744  29.031  27.734  1.00  0.00    -0.248 NA
ATOM     60  C   UNL A   1      48.901  29.736  27.201  1.00  0.00     0.031 C 
ATOM     61  C   UNL A   1      43.424  31.789  28.795  1.00  0.00     0.029 A 
ATOM     62  C   UNL A   1      44.477  30.952  28.462  1.00  0.00     0.049 A 
ATOM     63  H   UNL A   1      44.474  28.863  28.164  1.00  0.00     0.167 HD
ATOM     64  C   UNL A   1      46.823  30.411  27.880  1.00  0.00     0.074 A 
ATOM     65  C   UNL A   1      48.190  30.784  27.590  1.00  0.00     0.031 C 
ATOM     66  C   UNL A   1      45.853  31.296  28.216  1.00  0.00     0.037 A 
BRANCH  53  67
ATOM     67  C   UNL A   1      40.295  28.727  28.998  1.00  0.00     0.064 A 
ATOM     68  C   UNL A   1      39.799  28.566  30.300  1.00  0.00     0.173 A 
ATOM     69  C   UNL A   1      39.394  29.100  27.991  1.00  0.00     0.173 A 
ATOM     70  F   UNL A   1      40.618  28.192  31.294  1.00  0.00    -0.203 F 
ATOM     71  C   UNL A   1      38.447  28.754  30.577  1.00  0.00     0.198 A 
ATOM     72  C   UNL A   1      38.048  29.315  28.277  1.00  0.00     0.198 A 
ATOM     73  F   UNL A   1      39.818  29.267  26.729  1.00  0.00    -0.203 F 
ATOM     74  F   UNL A   1      37.985  28.552  31.819  1.00  0.00    -0.200 F 
ATOM     75  C   UNL A   1      37.575  29.135  29.568  1.00  0.00     0.200 A 
ATOM     76  F   UNL A   1      37.210  29.695  27.302  1.00  0.00    -0.200 F 
ATOM     77  F   UNL A   1      36.276  29.323  29.838  1.00  0.00    -0.200 F 
ENDBRANCH  53  67
BRANCH  54  78
ATOM     78  C   UNL A   1      49.884  27.020  26.753  1.00  0.00     0.064 A 
ATOM     79  C   UNL A   1      50.286  26.967  25.409  1.00  0.00     0.173 A 
ATOM     80  C   UNL A   1      50.873  26.805  27.723  1.00  0.00     0.173 A 
ATOM     81  F   UNL A   1      49.384  27.143  24.432  1.00  0.00    -0.203 F 
ATOM     82  C   UNL A   1      51.609  26.706  25.053  1.00  0.00     0.198 A 
ATOM     83  C   UNL A   1      52.202  26.574  27.368  1.00  0.00     0.198 A 
ATOM     84  F   UNL A   1      50.552  26.814  29.025  1.00  0.00    -0.203 F 
ATOM     85  F   UNL A   1      51.947  26.643  23.758  1.00  0.00    -0.200 F 
ATOM     86  C   UNL A   1      52.569  26.520  26.032  1.00  0.00     0.200 A 
ATOM     87  F   UNL A   1      53.128  26.400  28.321  1.00  0.00    -0.200 F 
ATOM     88  F   UNL A   1      53.842  26.285  25.689  1.00  0.00    -0.200 F 
ENDBRANCH  54  78
BRANCH  66  89
ATOM     89  C   UNL A   1      46.245  32.739  28.358  1.00  0.00     0.064 A 
ATOM     90  C   UNL A   1      46.710  33.267  29.572  1.00  0.00     0.173 A 
ATOM     91  C   UNL A   1      46.196  33.597  27.247  1.00  0.00     0.173 A 
ATOM     92  F   UNL A   1      46.761  32.494  30.667  1.00  0.00    -0.203 F 
ATOM     93  C   UNL A   1      47.081  34.604  29.676  1.00  0.00     0.198 A 
ATOM     94  C   UNL A   1      46.601  34.925  27.347  1.00  0.00     0.198 A 
ATOM     95  F   UNL A   1      45.768  33.143  26.059  1.00  0.00    -0.203 F 
ATOM     96  F   UNL A   1      47.469  35.099  30.860  1.00  0.00    -0.200 F 
ATOM     97  C   UNL A   1      47.034  35.430  28.562  1.00  0.00     0.200 A 
ATOM     98  F   UNL A   1      46.570  35.716  26.265  1.00  0.00    -0.200 F 
ATOM     99  F   UNL A   1      47.400  36.716  28.663  1.00  0.00    -0.200 F 
ENDBRANCH  66  89
ENDBRANCH  40  41
ENDBRANCH  33  35
ENDBRANCH  32  33
ENDBRANCH  31  32
ENDBRANCH  30  31
ENDBRANCH  29  30
ENDBRANCH  28  29
ENDBRANCH   1  28
TORSDOF 21
ENDMDL
MODEL 3
REMARK VINA RESULT:      -9.8      3.250      8.146
REMARK SMILES CC[C@@H](C(=O)OCCOCCOCCOC(=O)c1ccc(-c2c3nc(c(-c4c(F)c(F)c(F)c(F)c4F)c4ccc([nH]4)c(-c4c(F)c(F)c(F)c(F)c4F)c4nc(c(-c5c(F)c(F)c(F)c(F)c5F)c5ccc2[nH]5)C=C4)C=C3)cc1)N1C(=O)/C(=C/c2ccccc2[N+](=O)[O-])SC1=S
REMARK SMILES IDX 10 1 9 2 8 3 7 4 6 5 4 6 5 7 3 8 2 9 1 10 81 11 82 12 96 13
REMARK SMILES IDX 83 14 84 15 95 16 97 17 85 18 86 19 87 20 91 21 88 22 90 23
REMARK SMILES IDX 89 24 92 25 93 26 94 27 11 28 12 29 13 30 14 31 15 32 16 33
REMARK SMILES IDX 17 34 18 35 19 36 80 37 20 38 79 39 21 40 22 41 23 42 73 43
REMARK SMILES IDX 24 44 78 45 72 46 74 47 25 48 77 49 71 50 70 51 26 53 58 54
REMARK SMILES IDX 38 55 57 56 39 57 42 58 56 59 75 60 40 61 41 62 55 64 76 65
REMARK SMILES IDX 43 66 27 67 28 68 36 69 29 70 30 71 34 72 37 73 31 74 32 75
REMARK SMILES IDX 35 76 33 77 59 78 60 79 68 80 61 81 62 82 66 83 69 84 63 85
REMARK SMILES IDX 64 86 67 87 65 88 44 89 45 90 53 91 46 92 47 93 51 94 54 95
REMARK SMILES IDX 48 96 49 97 52 98 50 99
REMARK H PARENT 74 52 42 63
REMARK Flexibility Score: inf
ROOT
ATOM      1  C   UNL A   1      32.872  31.407  27.538  1.00  0.00     0.188 C 
ENDROOT
BRANCH   1   2
ATOM      2  O   UNL A   1      32.904  30.401  26.535  1.00  0.00    -0.376 OA
BRANCH   2   3
ATOM      3  C   UNL A   1      31.768  29.568  26.327  1.00  0.00     0.202 C 
BRANCH   3   4
ATOM      4  C   UNL A   1      31.984  28.107  25.901  1.00  0.00     0.261 C 
BRANCH   4   5
ATOM      5  O   UNL A   1      31.497  27.097  26.815  1.00  0.00    -0.462 OA
BRANCH   5   6
ATOM      6  C   UNL A   1      31.012  25.967  26.239  1.00  0.00     0.329 C 
ATOM      7  O   UNL A   1      30.100  25.315  26.741  1.00  0.00    -0.250 OA
BRANCH   6   8
ATOM      8  C   UNL A   1      31.682  25.561  24.890  1.00  0.00     0.201 C 
BRANCH   8   9
ATOM      9  C   UNL A   1      30.797  25.019  23.750  1.00  0.00     0.034 C 
ATOM     10  C   UNL A   1      31.402  24.957  22.358  1.00  0.00     0.007 C 
ENDBRANCH   8   9
BRANCH   8  11
ATOM     11  N   UNL A   1      32.839  24.679  25.288  1.00  0.00    -0.278 N 
ATOM     12  C   UNL A   1      34.117  25.166  25.005  1.00  0.00     0.267 C 
ATOM     13  C   UNL A   1      32.840  23.461  25.937  1.00  0.00     0.149 C 
ATOM     14  O   UNL A   1      34.386  26.098  24.259  1.00  0.00    -0.268 OA
ATOM     15  C   UNL A   1      35.155  24.331  25.667  1.00  0.00     0.081 C 
ATOM     16  S   UNL A   1      34.409  23.180  26.684  1.00  0.00    -0.054 SA
ATOM     17  S   UNL A   1      31.688  22.262  26.029  1.00  0.00    -0.052 S 
ATOM     18  C   UNL A   1      36.458  24.436  25.373  1.00  0.00     0.036 C 
BRANCH  18  19
ATOM     19  C   UNL A   1      37.513  23.492  25.782  1.00  0.00     0.054 A 
ATOM     20  C   UNL A   1      38.517  23.990  26.624  1.00  0.00     0.015 A 
ATOM     21  C   UNL A   1      37.629  22.153  25.342  1.00  0.00     0.276 A 
ATOM     22  C   UNL A   1      39.589  23.181  27.008  1.00  0.00     0.001 A 
ATOM     23  C   UNL A   1      38.676  21.326  25.777  1.00  0.00     0.086 A 
ATOM     24  C   UNL A   1      39.658  21.847  26.612  1.00  0.00     0.007 A 
BRANCH  21  25
ATOM     25  N   UNL A   1      36.705  21.583  24.362  1.00  0.00     0.063 N 
ATOM     26  O   UNL A   1      36.203  20.482  24.628  1.00  0.00    -0.258 OA
ATOM     27  O   UNL A   1      36.498  22.218  23.318  1.00  0.00    -0.258 OA
ENDBRANCH  21  25
ENDBRANCH  18  19
ENDBRANCH   8  11
ENDBRANCH   6   8
ENDBRANCH   5   6
ENDBRANCH   4   5
ENDBRANCH   3   4
ENDBRANCH   2   3
ENDBRANCH   1   2
BRANCH   1  28
ATOM     28  C   UNL A   1      34.064  32.363  27.696  1.00  0.00     0.188 C 
BRANCH  28  29
ATOM     29  O   UNL A   1      34.029  33.148  28.865  1.00  0.00    -0.376 OA
BRANCH  29  30
ATOM     30  C   UNL A   1      34.665  32.631  30.021  1.00  0.00     0.202 C 
BRANCH  30  31
ATOM     31  C   UNL A   1      36.064  32.017  29.848  1.00  0.00     0.261 C 
BRANCH  31  32
ATOM     32  O   UNL A   1      36.201  30.637  30.239  1.00  0.00    -0.460 OA
BRANCH  32  33
ATOM     33  C   UNL A   1      36.231  29.717  29.255  1.00  0.00     0.338 C 
ATOM     34  O   UNL A   1      35.288  29.364  28.549  1.00  0.00    -0.246 OA
BRANCH  33  35
ATOM     35  C   UNL A   1      37.641  29.356  29.005  1.00  0.00     0.060 A 
ATOM     36  C   UNL A   1      38.349  28.686  30.010  1.00  0.00     0.016 A 
ATOM     37  C   UNL A   1      38.269  29.665  27.798  1.00  0.00     0.016 A 
ATOM     38  C   UNL A   1      39.679  28.315  29.815  1.00  0.00     0.010 A 
ATOM     39  C   UNL A   1      39.616  29.328  27.617  1.00  0.00     0.010 A 
ATOM     40  C   UNL A   1      40.334  28.665  28.630  1.00  0.00    -0.014 A 
BRANCH  40  41
ATOM     41  C   UNL A   1      41.813  28.542  28.545  1.00  0.00     0.031 A 
ATOM     42  C   UNL A   1      42.379  27.265  27.985  1.00  0.00     0.074 A 
ATOM     43  C   UNL A   1      42.638  29.535  28.923  1.00  0.00     0.049 A 
ATOM     44  N   UNL A   1      43.622  26.864  27.912  1.00  0.00    -0.248 NA
ATOM     45  C   UNL A   1      41.405  26.316  27.423  1.00  0.00     0.031 C 
ATOM     46  C   UNL A   1      42.220  30.854  29.389  1.00  0.00     0.029 A 
ATOM     47  N   UNL A   1      44.013  29.577  28.982  1.00  0.00    -0.354 N 
ATOM     48  C   UNL A   1      43.576  25.613  27.310  1.00  0.00     0.074 A 
ATOM     49  C   UNL A   1      42.185  25.314  27.051  1.00  0.00     0.031 C 
ATOM     50  C   UNL A   1      43.315  31.569  29.711  1.00  0.00     0.029 A 
ATOM     51  C   UNL A   1      44.506  30.741  29.524  1.00  0.00     0.049 A 
ATOM     52  H   UNL A   1      44.589  28.845  28.666  1.00  0.00     0.167 HD
ATOM     53  C   UNL A   1      44.603  24.787  27.001  1.00  0.00     0.037 A 
ATOM     54  C   UNL A   1      45.770  31.073  29.866  1.00  0.00     0.037 A 
ATOM     55  C   UNL A   1      45.986  25.083  27.259  1.00  0.00     0.049 A 
ATOM     56  C   UNL A   1      46.884  30.082  29.609  1.00  0.00     0.074 A 
ATOM     57  C   UNL A   1      47.099  24.301  27.005  1.00  0.00     0.029 A 
ATOM     58  N   UNL A   1      46.443  26.259  27.833  1.00  0.00    -0.354 N 
ATOM     59  N   UNL A   1      46.839  28.908  29.026  1.00  0.00    -0.248 NA
ATOM     60  C   UNL A   1      48.233  30.467  30.056  1.00  0.00     0.031 C 
ATOM     61  C   UNL A   1      48.227  24.984  27.471  1.00  0.00     0.029 A 
ATOM     62  C   UNL A   1      47.822  26.214  27.963  1.00  0.00     0.049 A 
ATOM     63  H   UNL A   1      45.874  27.013  28.108  1.00  0.00     0.167 HD
ATOM     64  C   UNL A   1      48.147  28.441  28.996  1.00  0.00     0.074 A 
ATOM     65  C   UNL A   1      48.971  29.467  29.597  1.00  0.00     0.031 C 
ATOM     66  C   UNL A   1      48.629  27.266  28.521  1.00  0.00     0.037 A 
BRANCH  53  67
ATOM     67  C   UNL A   1      44.263  23.460  26.390  1.00  0.00     0.064 A 
ATOM     68  C   UNL A   1      44.600  23.148  25.065  1.00  0.00     0.173 A 
ATOM     69  C   UNL A   1      43.613  22.478  27.152  1.00  0.00     0.173 A 
ATOM     70  F   UNL A   1      45.205  24.060  24.289  1.00  0.00    -0.203 F 
ATOM     71  C   UNL A   1      44.280  21.907  24.519  1.00  0.00     0.198 A 
ATOM     72  C   UNL A   1      43.321  21.228  26.613  1.00  0.00     0.198 A 
ATOM     73  F   UNL A   1      43.269  22.726  28.425  1.00  0.00    -0.203 F 
ATOM     74  F   UNL A   1      44.571  21.645  23.237  1.00  0.00    -0.200 F 
ATOM     75  C   UNL A   1      43.648  20.946  25.295  1.00  0.00     0.200 A 
ATOM     76  F   UNL A   1      42.721  20.298  27.368  1.00  0.00    -0.200 F 
ATOM     77  F   UNL A   1      43.349  19.750  24.771  1.00  0.00    -0.200 F 
ENDBRANCH  53  67
BRANCH  54  78
ATOM     78  C   UNL A   1      46.072  32.382  30.516  1.00  0.00     0.064 A 
ATOM     79  C   UNL A   1      45.988  32.535  31.908  1.00  0.00     0.173 A 
ATOM     80  C   UNL A   1      46.394  33.523  29.767  1.00  0.00     0.173 A 
ATOM     81  F   UNL A   1      45.663  31.487  32.680  1.00  0.00    -0.203 F 
ATOM     82  C   UNL A   1      46.207  33.768  32.521  1.00  0.00     0.198 A 
ATOM     83  C   UNL A   1      46.644  34.750  30.383  1.00  0.00     0.198 A 
ATOM     84  F   UNL A   1      46.463  33.453  28.430  1.00  0.00    -0.203 F 
ATOM     85  F   UNL A   1      46.095  33.877  33.852  1.00  0.00    -0.200 F 
ATOM     86  C   UNL A   1      46.545  34.873  31.760  1.00  0.00     0.200 A 
ATOM     87  F   UNL A   1      46.976  35.814  29.640  1.00  0.00    -0.200 F 
ATOM     88  F   UNL A   1      46.771  36.053  32.351  1.00  0.00    -0.200 F 
ENDBRANCH  54  78
BRANCH  66  89
ATOM     89  C   UNL A   1      50.115  27.054  28.567  1.00  0.00     0.064 A 
ATOM     90  C   UNL A   1      50.949  27.407  27.496  1.00  0.00     0.173 A 
ATOM     91  C   UNL A   1      50.718  26.527  29.721  1.00  0.00     0.173 A 
ATOM     92  F   UNL A   1      50.422  27.899  26.364  1.00  0.00    -0.203 F 
ATOM     93  C   UNL A   1      52.326  27.213  27.566  1.00  0.00     0.198 A 
ATOM     94  C   UNL A   1      52.099  26.367  29.801  1.00  0.00     0.198 A 
ATOM     95  F   UNL A   1      49.968  26.181  30.778  1.00  0.00    -0.203 F 
ATOM     96  F   UNL A   1      53.096  27.506  26.509  1.00  0.00    -0.200 F 
ATOM     97  C   UNL A   1      52.901  26.702  28.721  1.00  0.00     0.200 A 
ATOM     98  F   UNL A   1      52.652  25.889  30.923  1.00  0.00    -0.200 F 
ATOM     99  F   UNL A   1      54.227  26.524  28.790  1.00  0.00    -0.200 F 
ENDBRANCH  66  89
ENDBRANCH  40  41
ENDBRANCH  33  35
ENDBRANCH  32  33
ENDBRANCH  31  32
ENDBRANCH  30  31
ENDBRANCH  29  30
ENDBRANCH  28  29
ENDBRANCH   1  28
TORSDOF 21
ENDMDL
