MODEL 1
REMARK VINA RESULT:     -11.2      0.000      0.000
REMARK SMILES O=C(OCCOCCOCCOC(=O)c1csc([C@H]2CCCc3cccnc32)c1)c1ccc(-c2c3nc(c(-c4c(F)c(F)c(F)c(F)c4F)c4ccc([nH]4)c(-c4c(F)c(F)c(F)c(F)c4F)c4nc(c(-c5c(F)c(F)c(F)c(F)c5F)c5ccc2[nH]5)C=C4)C=C3)cc1
REMARK SMILES IDX 7 1 6 2 5 3 4 4 3 5 2 6 1 7 30 8 31 9 92 10 32 11 91 12
REMARK SMILES IDX 33 13 34 14 35 15 85 16 36 17 90 18 84 19 86 20 37 21 89 22
REMARK SMILES IDX 83 23 82 24 38 26 70 27 50 28 69 29 51 30 54 31 68 32 87 33
REMARK SMILES IDX 52 34 53 35 67 37 88 38 55 39 39 40 40 41 48 42 41 43 42 44
REMARK SMILES IDX 46 45 49 46 43 47 44 48 47 49 45 50 71 51 72 52 80 53 73 54
REMARK SMILES IDX 74 55 78 56 81 57 75 58 76 59 79 60 77 61 56 62 57 63 65 64
REMARK SMILES IDX 58 65 59 66 63 67 66 68 60 69 61 70 64 71 62 72 8 73 9 74
REMARK SMILES IDX 10 75 11 76 12 77 13 78 14 79 15 80 16 81 29 82 17 83 18 84
REMARK SMILES IDX 19 85 20 86 28 87 21 88 23 89 27 90 22 91 24 92 26 93 25 94
REMARK H PARENT 86 25 54 36
REMARK Flexibility Score: inf
ROOT
ATOM      1  C   UNL A   1      36.694  21.917  24.408  1.00  0.00     0.188 C 
ENDROOT
BRANCH   1   2
ATOM      2  O   UNL A   1      37.891  21.272  24.869  1.00  0.00    -0.376 OA
BRANCH   2   3
ATOM      3  C   UNL A   1      37.800  19.845  24.904  1.00  0.00     0.202 C 
BRANCH   3   4
ATOM      4  C   UNL A   1      38.968  19.162  25.624  1.00  0.00     0.261 C 
BRANCH   4   5
ATOM      5  O   UNL A   1      40.068  20.065  25.814  1.00  0.00    -0.460 OA
BRANCH   5   6
ATOM      6  C   UNL A   1      40.560  20.531  26.990  1.00  0.00     0.338 C 
ATOM      7  O   UNL A   1      40.851  19.721  27.869  1.00  0.00    -0.246 OA
BRANCH   6   8
ATOM      8  C   UNL A   1      40.834  21.978  27.249  1.00  0.00     0.060 A 
ATOM      9  C   UNL A   1      40.166  23.047  26.650  1.00  0.00     0.016 A 
ATOM     10  C   UNL A   1      41.801  22.272  28.222  1.00  0.00     0.016 A 
ATOM     11  C   UNL A   1      40.540  24.364  26.908  1.00  0.00     0.010 A 
ATOM     12  C   UNL A   1      42.099  23.592  28.570  1.00  0.00     0.010 A 
ATOM     13  C   UNL A   1      41.511  24.649  27.871  1.00  0.00    -0.014 A 
BRANCH  13  14
ATOM     14  C   UNL A   1      41.987  26.041  28.049  1.00  0.00     0.031 A 
ATOM     15  C   UNL A   1      43.322  26.428  27.479  1.00  0.00     0.074 A 
ATOM     16  C   UNL A   1      41.206  26.962  28.640  1.00  0.00     0.049 A 
ATOM     17  N   UNL A   1      43.964  27.563  27.561  1.00  0.00    -0.248 NA
ATOM     18  C   UNL A   1      44.027  25.395  26.702  1.00  0.00     0.031 C 
ATOM     19  C   UNL A   1      39.862  26.718  29.158  1.00  0.00     0.029 A 
ATOM     20  N   UNL A   1      41.422  28.295  28.886  1.00  0.00    -0.354 N 
ATOM     21  C   UNL A   1      45.151  27.373  26.870  1.00  0.00     0.074 A 
ATOM     22  C   UNL A   1      45.160  26.007  26.398  1.00  0.00     0.031 C 
ATOM     23  C   UNL A   1      39.362  27.868  29.637  1.00  0.00     0.029 A 
ATOM     24  C   UNL A   1      40.375  28.908  29.528  1.00  0.00     0.049 A 
ATOM     25  H   UNL A   1      42.248  28.765  28.628  1.00  0.00     0.167 HD
ATOM     26  C   UNL A   1      46.141  28.266  26.637  1.00  0.00     0.037 A 
ATOM     27  C   UNL A   1      40.259  30.161  30.004  1.00  0.00     0.037 A 
ATOM     28  C   UNL A   1      46.115  29.627  27.095  1.00  0.00     0.049 A 
ATOM     29  C   UNL A   1      41.402  31.113  29.804  1.00  0.00     0.074 A 
ATOM     30  C   UNL A   1      47.076  30.611  26.946  1.00  0.00     0.029 A 
ATOM     31  N   UNL A   1      45.057  30.198  27.789  1.00  0.00    -0.354 N 
ATOM     32  N   UNL A   1      42.542  30.914  29.185  1.00  0.00    -0.248 NA
ATOM     33  C   UNL A   1      41.250  32.461  30.366  1.00  0.00     0.031 C 
ATOM     34  C   UNL A   1      46.609  31.771  27.575  1.00  0.00     0.029 A 
ATOM     35  C   UNL A   1      45.344  31.519  28.085  1.00  0.00     0.049 A 
ATOM     36  H   UNL A   1      44.225  29.732  28.034  1.00  0.00     0.167 HD
ATOM     37  C   UNL A   1      43.235  32.111  29.266  1.00  0.00     0.074 A 
ATOM     38  C   UNL A   1      42.381  33.038  29.983  1.00  0.00     0.031 C 
ATOM     39  C   UNL A   1      44.467  32.417  28.793  1.00  0.00     0.037 A 
BRANCH  26  40
ATOM     40  C   UNL A   1      47.336  27.767  25.884  1.00  0.00     0.064 A 
ATOM     41  C   UNL A   1      48.498  27.342  26.547  1.00  0.00     0.173 A 
ATOM     42  C   UNL A   1      47.338  27.758  24.482  1.00  0.00     0.173 A 
ATOM     43  F   UNL A   1      48.556  27.360  27.888  1.00  0.00    -0.203 F 
ATOM     44  C   UNL A   1      49.630  26.958  25.833  1.00  0.00     0.198 A 
ATOM     45  C   UNL A   1      48.464  27.352  23.772  1.00  0.00     0.198 A 
ATOM     46  F   UNL A   1      46.255  28.162  23.802  1.00  0.00    -0.203 F 
ATOM     47  F   UNL A   1      50.749  26.615  26.486  1.00  0.00    -0.200 F 
ATOM     48  C   UNL A   1      49.612  26.962  24.446  1.00  0.00     0.200 A 
ATOM     49  F   UNL A   1      48.446  27.356  22.431  1.00  0.00    -0.200 F 
ATOM     50  F   UNL A   1      50.706  26.607  23.760  1.00  0.00    -0.200 F 
ENDBRANCH  26  40
BRANCH  27  51
ATOM     51  C   UNL A   1      39.027  30.567  30.733  1.00  0.00     0.064 A 
ATOM     52  C   UNL A   1      37.905  31.053  30.049  1.00  0.00     0.173 A 
ATOM     53  C   UNL A   1      38.946  30.465  32.130  1.00  0.00     0.173 A 
ATOM     54  F   UNL A   1      37.941  31.189  28.716  1.00  0.00    -0.203 F 
ATOM     55  C   UNL A   1      36.753  31.431  30.736  1.00  0.00     0.198 A 
ATOM     56  C   UNL A   1      37.784  30.819  32.813  1.00  0.00     0.198 A 
ATOM     57  F   UNL A   1      39.994  30.010  32.833  1.00  0.00    -0.203 F 
ATOM     58  F   UNL A   1      35.706  31.927  30.061  1.00  0.00    -0.200 F 
ATOM     59  C   UNL A   1      36.691  31.307  32.116  1.00  0.00     0.200 A 
ATOM     60  F   UNL A   1      37.727  30.689  34.146  1.00  0.00    -0.200 F 
ATOM     61  F   UNL A   1      35.580  31.667  32.774  1.00  0.00    -0.200 F 
ENDBRANCH  27  51
BRANCH  39  62
ATOM     62  C   UNL A   1      44.947  33.817  29.013  1.00  0.00     0.064 A 
ATOM     63  C   UNL A   1      45.709  34.158  30.138  1.00  0.00     0.173 A 
ATOM     64  C   UNL A   1      44.677  34.815  28.065  1.00  0.00     0.173 A 
ATOM     65  F   UNL A   1      45.975  33.238  31.077  1.00  0.00    -0.203 F 
ATOM     66  C   UNL A   1      46.173  35.458  30.316  1.00  0.00     0.198 A 
ATOM     67  C   UNL A   1      45.160  36.108  28.236  1.00  0.00     0.198 A 
ATOM     68  F   UNL A   1      43.954  34.530  26.972  1.00  0.00    -0.203 F 
ATOM     69  F   UNL A   1      46.870  35.775  31.415  1.00  0.00    -0.200 F 
ATOM     70  C   UNL A   1      45.903  36.429  29.361  1.00  0.00     0.200 A 
ATOM     71  F   UNL A   1      44.907  37.043  27.310  1.00  0.00    -0.200 F 
ATOM     72  F   UNL A   1      46.356  37.679  29.531  1.00  0.00    -0.200 F 
ENDBRANCH  39  62
ENDBRANCH  13  14
ENDBRANCH   6   8
ENDBRANCH   5   6
ENDBRANCH   4   5
ENDBRANCH   3   4
ENDBRANCH   2   3
ENDBRANCH   1   2
BRANCH   1  73
ATOM     73  C   UNL A   1      36.542  23.302  25.047  1.00  0.00     0.188 C 
BRANCH  73  74
ATOM     74  O   UNL A   1      35.770  23.329  26.253  1.00  0.00    -0.376 OA
BRANCH  74  75
ATOM     75  C   UNL A   1      35.042  22.146  26.572  1.00  0.00     0.202 C 
BRANCH  75  76
ATOM     76  C   UNL A   1      33.813  22.343  27.462  1.00  0.00     0.261 C 
BRANCH  76  77
ATOM     77  O   UNL A   1      32.572  22.403  26.737  1.00  0.00    -0.460 OA
BRANCH  77  78
ATOM     78  C   UNL A   1      31.988  23.635  26.716  1.00  0.00     0.339 C 
ATOM     79  O   UNL A   1      30.978  23.936  27.348  1.00  0.00    -0.246 OA
BRANCH  78  80
ATOM     80  C   UNL A   1      32.587  24.570  25.771  1.00  0.00     0.071 A 
ATOM     81  C   UNL A   1      32.738  24.196  24.450  1.00  0.00     0.080 A 
ATOM     82  C   UNL A   1      33.015  25.935  25.964  1.00  0.00     0.031 A 
ATOM     83  S   UNL A   1      33.353  25.435  23.471  1.00  0.00    -0.147 S 
ATOM     84  C   UNL A   1      33.355  26.567  24.772  1.00  0.00     0.014 A 
BRANCH  84  85
ATOM     85  C   UNL A   1      33.700  28.027  24.452  1.00  0.00     0.079 C 
ATOM     86  C   UNL A   1      32.832  28.572  23.291  1.00  0.00     0.016 C 
ATOM     87  C   UNL A   1      33.593  28.990  25.631  1.00  0.00     0.052 A 
ATOM     88  C   UNL A   1      31.387  28.756  23.747  1.00  0.00     0.006 C 
ATOM     89  C   UNL A   1      32.459  29.798  25.808  1.00  0.00    -0.026 A 
ATOM     90  N   UNL A   1      34.678  29.084  26.441  1.00  0.00    -0.260 NA
ATOM     91  C   UNL A   1      31.300  29.808  24.846  1.00  0.00     0.037 C 
ATOM     92  C   UNL A   1      32.453  30.714  26.867  1.00  0.00     0.007 A 
ATOM     93  C   UNL A   1      34.636  29.997  27.438  1.00  0.00     0.111 A 
ATOM     94  C   UNL A   1      33.558  30.820  27.695  1.00  0.00     0.020 A 
ENDBRANCH  84  85
ENDBRANCH  78  80
ENDBRANCH  77  78
ENDBRANCH  76  77
ENDBRANCH  75  76
ENDBRANCH  74  75
ENDBRANCH  73  74
ENDBRANCH   1  73
TORSDOF 18
ENDMDL
MODEL 2
REMARK VINA RESULT:     -11.2      4.630      8.794
REMARK SMILES O=C(OCCOCCOCCOC(=O)c1csc([C@H]2CCCc3cccnc32)c1)c1ccc(-c2c3nc(c(-c4c(F)c(F)c(F)c(F)c4F)c4ccc([nH]4)c(-c4c(F)c(F)c(F)c(F)c4F)c4nc(c(-c5c(F)c(F)c(F)c(F)c5F)c5ccc2[nH]5)C=C4)C=C3)cc1
REMARK SMILES IDX 7 1 6 2 5 3 4 4 3 5 2 6 1 7 30 8 31 9 92 10 32 11 91 12
REMARK SMILES IDX 33 13 34 14 35 15 85 16 36 17 90 18 84 19 86 20 37 21 89 22
REMARK SMILES IDX 83 23 82 24 38 26 70 27 50 28 69 29 51 30 54 31 68 32 87 33
REMARK SMILES IDX 52 34 53 35 67 37 88 38 55 39 39 40 40 41 48 42 41 43 42 44
REMARK SMILES IDX 46 45 49 46 43 47 44 48 47 49 45 50 71 51 72 52 80 53 73 54
REMARK SMILES IDX 74 55 78 56 81 57 75 58 76 59 79 60 77 61 56 62 57 63 65 64
REMARK SMILES IDX 58 65 59 66 63 67 66 68 60 69 61 70 64 71 62 72 8 73 9 74
REMARK SMILES IDX 10 75 11 76 12 77 13 78 14 79 15 80 16 81 29 82 17 83 18 84
REMARK SMILES IDX 19 85 20 86 28 87 21 88 23 89 27 90 22 91 24 92 26 93 25 94
REMARK H PARENT 86 25 54 36
REMARK Flexibility Score: inf
ROOT
ATOM      1  C   UNL A   1      42.686  19.362  26.141  1.00  0.00     0.188 C 
ENDROOT
BRANCH   1   2
ATOM      2  O   UNL A   1      43.122  20.179  25.045  1.00  0.00    -0.376 OA
BRANCH   2   3
ATOM      3  C   UNL A   1      43.832  21.353  25.448  1.00  0.00     0.202 C 
BRANCH   3   4
ATOM      4  C   UNL A   1      44.102  22.342  24.308  1.00  0.00     0.261 C 
BRANCH   4   5
ATOM      5  O   UNL A   1      43.547  23.636  24.593  1.00  0.00    -0.460 OA
BRANCH   5   6
ATOM      6  C   UNL A   1      44.189  24.714  25.108  1.00  0.00     0.338 C 
ATOM      7  O   UNL A   1      45.282  25.029  24.640  1.00  0.00    -0.246 OA
BRANCH   6   8
ATOM      8  C   UNL A   1      43.603  25.586  26.172  1.00  0.00     0.060 A 
ATOM      9  C   UNL A   1      43.806  26.961  26.293  1.00  0.00     0.016 A 
ATOM     10  C   UNL A   1      42.728  24.971  27.080  1.00  0.00     0.016 A 
ATOM     11  C   UNL A   1      43.267  27.677  27.361  1.00  0.00     0.010 A 
ATOM     12  C   UNL A   1      42.091  25.706  28.084  1.00  0.00     0.010 A 
ATOM     13  C   UNL A   1      42.406  27.056  28.267  1.00  0.00    -0.014 A 
BRANCH  13  14
ATOM     14  C   UNL A   1      41.938  27.792  29.464  1.00  0.00     0.031 A 
ATOM     15  C   UNL A   1      40.671  28.594  29.373  1.00  0.00     0.074 A 
ATOM     16  C   UNL A   1      42.590  27.681  30.635  1.00  0.00     0.049 A 
ATOM     17  N   UNL A   1      40.105  29.359  30.268  1.00  0.00    -0.248 NA
ATOM     18  C   UNL A   1      39.938  28.516  28.098  1.00  0.00     0.031 C 
ATOM     19  C   UNL A   1      43.783  26.868  30.860  1.00  0.00     0.029 A 
ATOM     20  N   UNL A   1      42.331  28.239  31.862  1.00  0.00    -0.354 N 
ATOM     21  C   UNL A   1      38.968  29.868  29.659  1.00  0.00     0.074 A 
ATOM     22  C   UNL A   1      38.934  29.353  28.310  1.00  0.00     0.031 C 
ATOM     23  C   UNL A   1      44.138  26.958  32.151  1.00  0.00     0.029 A 
ATOM     24  C   UNL A   1      43.245  27.891  32.825  1.00  0.00     0.049 A 
ATOM     25  H   UNL A   1      41.564  28.832  32.034  1.00  0.00     0.167 HD
ATOM     26  C   UNL A   1      38.024  30.683  30.186  1.00  0.00     0.037 A 
ATOM     27  C   UNL A   1      43.367  28.302  34.100  1.00  0.00     0.037 A 
ATOM     28  C   UNL A   1      38.056  31.177  31.535  1.00  0.00     0.049 A 
ATOM     29  C   UNL A   1      42.354  29.269  34.641  1.00  0.00     0.074 A 
ATOM     30  C   UNL A   1      37.173  32.034  32.166  1.00  0.00     0.029 A 
ATOM     31  N   UNL A   1      39.029  30.841  32.467  1.00  0.00    -0.354 N 
ATOM     32  N   UNL A   1      41.303  29.781  34.046  1.00  0.00    -0.248 NA
ATOM     33  C   UNL A   1      42.540  29.720  36.026  1.00  0.00     0.031 C 
ATOM     34  C   UNL A   1      37.628  32.239  33.473  1.00  0.00     0.029 A 
ATOM     35  C   UNL A   1      38.775  31.482  33.667  1.00  0.00     0.049 A 
ATOM     36  H   UNL A   1      39.787  30.236  32.298  1.00  0.00     0.167 HD
ATOM     37  C   UNL A   1      40.692  30.597  34.984  1.00  0.00     0.074 A 
ATOM     38  C   UNL A   1      41.483  30.503  36.195  1.00  0.00     0.031 C 
ATOM     39  C   UNL A   1      39.579  31.359  34.856  1.00  0.00     0.037 A 
BRANCH  26  40
ATOM     40  C   UNL A   1      36.913  31.107  29.275  1.00  0.00     0.064 A 
ATOM     41  C   UNL A   1      36.830  32.416  28.775  1.00  0.00     0.173 A 
ATOM     42  C   UNL A   1      35.892  30.207  28.936  1.00  0.00     0.173 A 
ATOM     43  F   UNL A   1      37.766  33.322  29.096  1.00  0.00    -0.203 F 
ATOM     44  C   UNL A   1      35.748  32.816  27.996  1.00  0.00     0.198 A 
ATOM     45  C   UNL A   1      34.824  30.606  28.138  1.00  0.00     0.198 A 
ATOM     46  F   UNL A   1      35.922  28.947  29.395  1.00  0.00    -0.203 F 
ATOM     47  F   UNL A   1      35.657  34.088  27.581  1.00  0.00    -0.200 F 
ATOM     48  C   UNL A   1      34.746  31.911  27.677  1.00  0.00     0.200 A 
ATOM     49  F   UNL A   1      33.856  29.730  27.831  1.00  0.00    -0.200 F 
ATOM     50  F   UNL A   1      33.698  32.303  26.941  1.00  0.00    -0.200 F 
ENDBRANCH  26  40
BRANCH  27  51
ATOM     51  C   UNL A   1      44.502  27.819  34.930  1.00  0.00     0.064 A 
ATOM     52  C   UNL A   1      45.712  28.522  34.987  1.00  0.00     0.173 A 
ATOM     53  C   UNL A   1      44.394  26.646  35.693  1.00  0.00     0.173 A 
ATOM     54  F   UNL A   1      45.873  29.637  34.260  1.00  0.00    -0.203 F 
ATOM     55  C   UNL A   1      46.773  28.066  35.767  1.00  0.00     0.198 A 
ATOM     56  C   UNL A   1      45.446  26.205  36.493  1.00  0.00     0.198 A 
ATOM     57  F   UNL A   1      43.258  25.933  35.671  1.00  0.00    -0.203 F 
ATOM     58  F   UNL A   1      47.933  28.738  35.776  1.00  0.00    -0.200 F 
ATOM     59  C   UNL A   1      46.637  26.912  36.524  1.00  0.00     0.200 A 
ATOM     60  F   UNL A   1      45.305  25.094  37.229  1.00  0.00    -0.200 F 
ATOM     61  F   UNL A   1      47.657  26.477  37.278  1.00  0.00    -0.200 F 
ENDBRANCH  27  51
BRANCH  39  62
ATOM     62  C   UNL A   1      39.140  32.124  36.065  1.00  0.00     0.064 A 
ATOM     63  C   UNL A   1      39.564  33.441  36.288  1.00  0.00     0.173 A 
ATOM     64  C   UNL A   1      38.255  31.545  36.986  1.00  0.00     0.173 A 
ATOM     65  F   UNL A   1      40.424  34.026  35.441  1.00  0.00    -0.203 F 
ATOM     66  C   UNL A   1      39.126  34.150  37.403  1.00  0.00     0.198 A 
ATOM     67  C   UNL A   1      37.803  32.264  38.087  1.00  0.00     0.198 A 
ATOM     68  F   UNL A   1      37.822  30.288  36.809  1.00  0.00    -0.203 F 
ATOM     69  F   UNL A   1      39.568  35.396  37.618  1.00  0.00    -0.200 F 
ATOM     70  C   UNL A   1      38.241  33.563  38.296  1.00  0.00     0.200 A 
ATOM     71  F   UNL A   1      36.942  31.701  38.946  1.00  0.00    -0.200 F 
ATOM     72  F   UNL A   1      37.816  34.250  39.366  1.00  0.00    -0.200 F 
ENDBRANCH  39  62
ENDBRANCH  13  14
ENDBRANCH   6   8
ENDBRANCH   5   6
ENDBRANCH   4   5
ENDBRANCH   3   4
ENDBRANCH   2   3
ENDBRANCH   1   2
BRANCH   1  73
ATOM     73  C   UNL A   1      41.185  19.540  26.391  1.00  0.00     0.188 C 
BRANCH  73  74
ATOM     74  O   UNL A   1      40.850  20.198  27.618  1.00  0.00    -0.376 OA
BRANCH  74  75
ATOM     75  C   UNL A   1      40.740  21.618  27.573  1.00  0.00     0.202 C 
BRANCH  75  76
ATOM     76  C   UNL A   1      40.203  22.200  26.263  1.00  0.00     0.261 C 
BRANCH  76  77
ATOM     77  O   UNL A   1      38.814  22.571  26.317  1.00  0.00    -0.460 OA
BRANCH  77  78
ATOM     78  C   UNL A   1      37.993  21.804  25.545  1.00  0.00     0.339 C 
ATOM     79  O   UNL A   1      38.265  20.671  25.152  1.00  0.00    -0.246 OA
BRANCH  78  80
ATOM     80  C   UNL A   1      36.780  22.480  25.099  1.00  0.00     0.071 A 
ATOM     81  C   UNL A   1      36.456  23.713  25.631  1.00  0.00     0.080 A 
ATOM     82  C   UNL A   1      35.830  22.101  24.081  1.00  0.00     0.031 A 
ATOM     83  S   UNL A   1      35.076  24.401  24.930  1.00  0.00    -0.147 S 
ATOM     84  C   UNL A   1      34.906  23.105  23.805  1.00  0.00     0.014 A 
BRANCH  84  85
ATOM     85  C   UNL A   1      33.834  23.236  22.717  1.00  0.00     0.079 C 
ATOM     86  C   UNL A   1      32.758  22.130  22.846  1.00  0.00     0.016 C 
ATOM     87  C   UNL A   1      33.132  24.590  22.661  1.00  0.00     0.052 A 
ATOM     88  C   UNL A   1      31.889  22.372  24.077  1.00  0.00     0.006 C 
ATOM     89  C   UNL A   1      31.873  24.781  23.253  1.00  0.00    -0.026 A 
ATOM     90  N   UNL A   1      33.746  25.566  21.944  1.00  0.00    -0.260 NA
ATOM     91  C   UNL A   1      31.113  23.677  23.939  1.00  0.00     0.037 C 
ATOM     92  C   UNL A   1      31.249  26.026  23.103  1.00  0.00     0.007 A 
ATOM     93  C   UNL A   1      33.096  26.744  21.809  1.00  0.00     0.111 A 
ATOM     94  C   UNL A   1      31.866  27.024  22.369  1.00  0.00     0.020 A 
ENDBRANCH  84  85
ENDBRANCH  78  80
ENDBRANCH  77  78
ENDBRANCH  76  77
ENDBRANCH  75  76
ENDBRANCH  74  75
ENDBRANCH  73  74
ENDBRANCH   1  73
TORSDOF 18
ENDMDL
MODEL 3
REMARK VINA RESULT:     -11.0      4.519      6.769
REMARK SMILES O=C(OCCOCCOCCOC(=O)c1csc([C@H]2CCCc3cccnc32)c1)c1ccc(-c2c3nc(c(-c4c(F)c(F)c(F)c(F)c4F)c4ccc([nH]4)c(-c4c(F)c(F)c(F)c(F)c4F)c4nc(c(-c5c(F)c(F)c(F)c(F)c5F)c5ccc2[nH]5)C=C4)C=C3)cc1
REMARK SMILES IDX 7 1 6 2 5 3 4 4 3 5 2 6 1 7 30 8 31 9 92 10 32 11 91 12
REMARK SMILES IDX 33 13 34 14 35 15 85 16 36 17 90 18 84 19 86 20 37 21 89 22
REMARK SMILES IDX 83 23 82 24 38 26 70 27 50 28 69 29 51 30 54 31 68 32 87 33
REMARK SMILES IDX 52 34 53 35 67 37 88 38 55 39 39 40 40 41 48 42 41 43 42 44
REMARK SMILES IDX 46 45 49 46 43 47 44 48 47 49 45 50 71 51 72 52 80 53 73 54
REMARK SMILES IDX 74 55 78 56 81 57 75 58 76 59 79 60 77 61 56 62 57 63 65 64
REMARK SMILES IDX 58 65 59 66 63 67 66 68 60 69 61 70 64 71 62 72 8 73 9 74
REMARK SMILES IDX 10 75 11 76 12 77 13 78 14 79 15 80 16 81 29 82 17 83 18 84
REMARK SMILES IDX 19 85 20 86 28 87 21 88 23 89 27 90 22 91 24 92 26 93 25 94
REMARK H PARENT 86 25 54 36
REMARK Flexibility Score: inf
ROOT
ATOM      1  C   UNL A   1      40.246  21.436  26.724  1.00  0.00     0.188 C 
ENDROOT
BRANCH   1   2
ATOM      2  O   UNL A   1      41.185  21.024  25.720  1.00  0.00    -0.376 OA
BRANCH   2   3
ATOM      3  C   UNL A   1      42.522  20.877  26.207  1.00  0.00     0.202 C 
BRANCH   3   4
ATOM      4  C   UNL A   1      43.574  21.623  25.379  1.00  0.00     0.261 C 
BRANCH   4   5
ATOM      5  O   UNL A   1      43.056  22.858  24.861  1.00  0.00    -0.460 OA
BRANCH   5   6
ATOM      6  C   UNL A   1      43.567  24.104  25.032  1.00  0.00     0.338 C 
ATOM      7  O   UNL A   1      44.474  24.476  24.289  1.00  0.00    -0.246 OA
BRANCH   6   8
ATOM      8  C   UNL A   1      43.036  25.077  26.034  1.00  0.00     0.060 A 
ATOM      9  C   UNL A   1      43.389  26.425  26.119  1.00  0.00     0.016 A 
ATOM     10  C   UNL A   1      42.054  24.602  26.916  1.00  0.00     0.016 A 
ATOM     11  C   UNL A   1      42.886  27.238  27.133  1.00  0.00     0.010 A 
ATOM     12  C   UNL A   1      41.459  25.443  27.861  1.00  0.00     0.010 A 
ATOM     13  C   UNL A   1      41.917  26.754  28.014  1.00  0.00    -0.014 A 
BRANCH  13  14
ATOM     14  C   UNL A   1      41.481  27.585  29.160  1.00  0.00     0.031 A 
ATOM     15  C   UNL A   1      42.275  27.536  30.434  1.00  0.00     0.074 A 
ATOM     16  C   UNL A   1      40.441  28.429  29.039  1.00  0.00     0.049 A 
ATOM     17  N   UNL A   1      42.051  28.128  31.577  1.00  0.00    -0.248 NA
ATOM     18  C   UNL A   1      43.495  26.712  30.414  1.00  0.00     0.031 C 
ATOM     19  C   UNL A   1      39.648  28.617  27.826  1.00  0.00     0.029 A 
ATOM     20  N   UNL A   1      39.883  29.300  29.941  1.00  0.00    -0.354 N 
ATOM     21  C   UNL A   1      43.083  27.731  32.413  1.00  0.00     0.074 A 
ATOM     22  C   UNL A   1      43.921  26.825  31.662  1.00  0.00     0.031 C 
ATOM     23  C   UNL A   1      38.724  29.564  28.050  1.00  0.00     0.029 A 
ATOM     24  C   UNL A   1      38.810  29.993  29.439  1.00  0.00     0.049 A 
ATOM     25  H   UNL A   1      40.220  29.416  30.859  1.00  0.00     0.167 HD
ATOM     26  C   UNL A   1      43.321  28.102  33.693  1.00  0.00     0.037 A 
ATOM     27  C   UNL A   1      37.971  30.855  30.041  1.00  0.00     0.037 A 
ATOM     28  C   UNL A   1      42.492  29.018  34.427  1.00  0.00     0.049 A 
ATOM     29  C   UNL A   1      38.205  31.193  31.485  1.00  0.00     0.074 A 
ATOM     30  C   UNL A   1      42.616  29.441  35.738  1.00  0.00     0.029 A 
ATOM     31  N   UNL A   1      41.381  29.662  33.899  1.00  0.00    -0.354 N 
ATOM     32  N   UNL A   1      39.161  30.781  32.284  1.00  0.00    -0.248 NA
ATOM     33  C   UNL A   1      37.249  32.112  32.116  1.00  0.00     0.031 C 
ATOM     34  C   UNL A   1      41.563  30.321  36.011  1.00  0.00     0.029 A 
ATOM     35  C   UNL A   1      40.802  30.472  34.860  1.00  0.00     0.049 A 
ATOM     36  H   UNL A   1      41.053  29.557  32.976  1.00  0.00     0.167 HD
ATOM     37  C   UNL A   1      38.934  31.399  33.502  1.00  0.00     0.074 A 
ATOM     38  C   UNL A   1      37.757  32.229  33.336  1.00  0.00     0.031 C 
ATOM     39  C   UNL A   1      39.635  31.291  34.657  1.00  0.00     0.037 A 
BRANCH  26  40
ATOM     40  C   UNL A   1      44.503  27.479  34.369  1.00  0.00     0.064 A 
ATOM     41  C   UNL A   1      44.397  26.268  35.070  1.00  0.00     0.173 A 
ATOM     42  C   UNL A   1      45.748  28.124  34.356  1.00  0.00     0.173 A 
ATOM     43  F   UNL A   1      43.219  25.628  35.136  1.00  0.00    -0.203 F 
ATOM     44  C   UNL A   1      45.485  25.743  35.761  1.00  0.00     0.198 A 
ATOM     45  C   UNL A   1      46.840  27.585  35.029  1.00  0.00     0.198 A 
ATOM     46  F   UNL A   1      45.900  29.288  33.706  1.00  0.00    -0.203 F 
ATOM     47  F   UNL A   1      45.344  24.618  36.476  1.00  0.00    -0.200 F 
ATOM     48  C   UNL A   1      46.707  26.401  35.739  1.00  0.00     0.200 A 
ATOM     49  F   UNL A   1      48.020  28.221  35.008  1.00  0.00    -0.200 F 
ATOM     50  F   UNL A   1      47.748  25.903  36.418  1.00  0.00    -0.200 F 
ENDBRANCH  26  40
BRANCH  27  51
ATOM     51  C   UNL A   1      36.827  31.429  29.284  1.00  0.00     0.064 A 
ATOM     52  C   UNL A   1      35.697  30.659  28.979  1.00  0.00     0.173 A 
ATOM     53  C   UNL A   1      36.838  32.767  28.858  1.00  0.00     0.173 A 
ATOM     54  F   UNL A   1      35.648  29.370  29.344  1.00  0.00    -0.203 F 
ATOM     55  C   UNL A   1      34.627  31.202  28.269  1.00  0.00     0.198 A 
ATOM     56  C   UNL A   1      35.757  33.315  28.172  1.00  0.00     0.198 A 
ATOM     57  F   UNL A   1      37.898  33.546  29.121  1.00  0.00    -0.203 F 
ATOM     58  F   UNL A   1      33.574  30.432  27.959  1.00  0.00    -0.200 F 
ATOM     59  C   UNL A   1      34.654  32.530  27.873  1.00  0.00     0.200 A 
ATOM     60  F   UNL A   1      35.785  34.602  27.799  1.00  0.00    -0.200 F 
ATOM     61  F   UNL A   1      33.623  33.051  27.195  1.00  0.00    -0.200 F 
ENDBRANCH  27  51
BRANCH  39  62
ATOM     62  C   UNL A   1      39.160  32.111  35.816  1.00  0.00     0.064 A 
ATOM     63  C   UNL A   1      38.327  31.565  36.801  1.00  0.00     0.173 A 
ATOM     64  C   UNL A   1      39.577  33.442  35.960  1.00  0.00     0.173 A 
ATOM     65  F   UNL A   1      37.890  30.302  36.693  1.00  0.00    -0.203 F 
ATOM     66  C   UNL A   1      37.915  32.331  37.888  1.00  0.00     0.198 A 
ATOM     67  C   UNL A   1      39.181  34.198  37.058  1.00  0.00     0.198 A 
ATOM     68  F   UNL A   1      40.377  34.003  35.040  1.00  0.00    -0.203 F 
ATOM     69  F   UNL A   1      37.091  31.803  38.804  1.00  0.00    -0.200 F 
ATOM     70  C   UNL A   1      38.348  33.643  38.018  1.00  0.00     0.200 A 
ATOM     71  F   UNL A   1      39.605  35.461  37.187  1.00  0.00    -0.200 F 
ATOM     72  F   UNL A   1      37.955  34.377  39.069  1.00  0.00    -0.200 F 
ENDBRANCH  39  62
ENDBRANCH  13  14
ENDBRANCH   6   8
ENDBRANCH   5   6
ENDBRANCH   4   5
ENDBRANCH   3   4
ENDBRANCH   2   3
ENDBRANCH   1   2
BRANCH   1  73
ATOM     73  C   UNL A   1      38.915  21.849  26.087  1.00  0.00     0.188 C 
BRANCH  73  74
ATOM     74  O   UNL A   1      38.472  23.171  26.418  1.00  0.00    -0.376 OA
BRANCH  74  75
ATOM     75  C   UNL A   1      37.441  23.722  25.602  1.00  0.00     0.202 C 
BRANCH  75  76
ATOM     76  C   UNL A   1      36.034  23.173  25.849  1.00  0.00     0.261 C 
BRANCH  76  77
ATOM     77  O   UNL A   1      35.530  22.358  24.777  1.00  0.00    -0.460 OA
BRANCH  77  78
ATOM     78  C   UNL A   1      34.842  23.042  23.820  1.00  0.00     0.339 C 
ATOM     79  O   UNL A   1      35.292  23.330  22.712  1.00  0.00    -0.246 OA
BRANCH  78  80
ATOM     80  C   UNL A   1      33.538  23.534  24.249  1.00  0.00     0.071 A 
ATOM     81  C   UNL A   1      32.562  22.630  24.621  1.00  0.00     0.080 A 
ATOM     82  C   UNL A   1      33.074  24.887  24.437  1.00  0.00     0.031 A 
ATOM     83  S   UNL A   1      31.148  23.370  25.189  1.00  0.00    -0.147 S 
ATOM     84  C   UNL A   1      31.826  24.950  25.048  1.00  0.00     0.014 A 
BRANCH  84  85
ATOM     85  C   UNL A   1      31.012  26.130  25.593  1.00  0.00     0.079 C 
ATOM     86  C   UNL A   1      31.731  26.813  26.782  1.00  0.00     0.016 C 
ATOM     87  C   UNL A   1      30.656  27.199  24.563  1.00  0.00     0.052 A 
ATOM     88  C   UNL A   1      32.965  27.568  26.296  1.00  0.00     0.006 C 
ATOM     89  C   UNL A   1      31.404  28.383  24.457  1.00  0.00    -0.026 A 
ATOM     90  N   UNL A   1      29.539  26.984  23.822  1.00  0.00    -0.260 NA
ATOM     91  C   UNL A   1      32.566  28.703  25.360  1.00  0.00     0.037 C 
ATOM     92  C   UNL A   1      30.982  29.358  23.544  1.00  0.00     0.007 A 
ATOM     93  C   UNL A   1      29.159  27.962  22.968  1.00  0.00     0.111 A 
ATOM     94  C   UNL A   1      29.841  29.148  22.789  1.00  0.00     0.020 A 
ENDBRANCH  84  85
ENDBRANCH  78  80
ENDBRANCH  77  78
ENDBRANCH  76  77
ENDBRANCH  75  76
ENDBRANCH  74  75
ENDBRANCH  73  74
ENDBRANCH   1  73
TORSDOF 18
ENDMDL
