MODEL 1
REMARK VINA RESULT:      -9.4      0.000      0.000
REMARK SMILES [NH3+][C@]1(C(=O)OCCOCCOCCOC(=O)c2ccc(-c3c4nc(c(-c5c(F)c(F)c(F)c(F)c5F)c5ccc([nH]5)c(-c5c(F)c(F)c(F)c(F)c5F)c5nc(c(-c6c(F)c(F)c(F)c(F)c6F)c6ccc3[nH]6)C=C5)C=C4)cc2)CCC[C@@H](OC2CCC2)C1
REMARK SMILES IDX 9 1 8 2 7 3 6 4 5 5 3 6 4 7 2 8 80 9 89 10 81 11 83 12 82 13
REMARK SMILES IDX 1 14 84 18 85 19 86 20 88 21 87 22 10 23 11 24 12 25 13 26
REMARK SMILES IDX 14 27 15 28 16 29 17 30 18 31 79 32 19 33 78 34 20 35 21 36
REMARK SMILES IDX 22 37 72 38 23 39 77 40 71 41 73 42 24 43 76 44 70 45 69 46
REMARK SMILES IDX 25 48 57 49 37 50 56 51 38 52 41 53 55 54 74 55 39 56 40 57
REMARK SMILES IDX 54 59 75 60 42 61 26 62 27 63 35 64 28 65 29 66 33 67 36 68
REMARK SMILES IDX 30 69 31 70 34 71 32 72 58 73 59 74 67 75 60 76 61 77 65 78
REMARK SMILES IDX 68 79 62 80 63 81 66 82 64 83 43 84 44 85 52 86 45 87 46 88
REMARK SMILES IDX 50 89 53 90 47 91 48 92 51 93 49 94
REMARK H PARENT 1 15 1 16 1 17 73 47 41 58
REMARK Flexibility Score: inf
ROOT
ATOM      1  C   UNL A   1      33.286  37.056  30.264  1.00  0.00     0.188 C 
ENDROOT
BRANCH   1   2
ATOM      2  O   UNL A   1      32.114  36.710  31.008  1.00  0.00    -0.376 OA
BRANCH   2   3
ATOM      3  C   UNL A   1      32.264  36.471  32.409  1.00  0.00     0.202 C 
BRANCH   3   4
ATOM      4  C   UNL A   1      32.581  34.973  32.651  1.00  0.00     0.261 C 
BRANCH   4   5
ATOM      5  O   UNL A   1      33.961  34.658  32.316  1.00  0.00    -0.459 OA
BRANCH   5   6
ATOM      6  C   UNL A   1      34.953  35.239  33.080  1.00  0.00     0.368 C 
ATOM      7  O   UNL A   1      35.127  36.450  33.151  1.00  0.00    -0.245 OA
BRANCH   6   8
ATOM      8  C   UNL A   1      35.801  34.149  33.904  1.00  0.00     0.195 C 
ATOM      9  C   UNL A   1      35.610  32.706  33.331  1.00  0.00     0.081 C 
ATOM     10  C   UNL A   1      37.296  34.556  34.031  1.00  0.00     0.113 C 
ATOM     11  C   UNL A   1      36.789  31.712  33.310  1.00  0.00     0.010 C 
ATOM     12  C   UNL A   1      38.349  33.641  33.395  1.00  0.00     0.125 C 
ATOM     13  C   UNL A   1      38.108  32.217  33.846  1.00  0.00     0.032 C 
BRANCH   8  14
ATOM     14  N   UNL A   1      35.173  34.120  35.256  1.00  0.00    -0.343 N 
ATOM     15  H   UNL A   1      35.858  34.409  35.954  1.00  0.00     0.345 HD
ATOM     16  H   UNL A   1      34.855  33.174  35.463  1.00  0.00     0.345 HD
ATOM     17  H   UNL A   1      34.377  34.758  35.275  1.00  0.00     0.345 HD
ENDBRANCH   8  14
BRANCH  12  18
ATOM     18  O   UNL A   1      38.788  33.690  32.041  1.00  0.00    -0.375 OA
BRANCH  18  19
ATOM     19  C   UNL A   1      38.191  34.093  30.792  1.00  0.00     0.118 C 
ATOM     20  C   UNL A   1      39.029  34.232  29.517  1.00  0.00     0.032 C 
ATOM     21  C   UNL A   1      37.224  33.259  29.999  1.00  0.00     0.032 C 
ATOM     22  C   UNL A   1      38.088  33.312  28.758  1.00  0.00     0.005 C 
ENDBRANCH  18  19
ENDBRANCH  12  18
ENDBRANCH   6   8
ENDBRANCH   5   6
ENDBRANCH   4   5
ENDBRANCH   3   4
ENDBRANCH   2   3
ENDBRANCH   1   2
BRANCH   1  23
ATOM     23  C   UNL A   1      33.482  36.238  28.979  1.00  0.00     0.188 C 
BRANCH  23  24
ATOM     24  O   UNL A   1      32.525  35.219  28.711  1.00  0.00    -0.376 OA
BRANCH  24  25
ATOM     25  C   UNL A   1      32.964  34.102  27.953  1.00  0.00     0.202 C 
BRANCH  25  26
ATOM     26  C   UNL A   1      34.017  33.147  28.552  1.00  0.00     0.261 C 
BRANCH  26  27
ATOM     27  O   UNL A   1      34.782  32.344  27.630  1.00  0.00    -0.460 OA
BRANCH  27  28
ATOM     28  C   UNL A   1      34.600  31.004  27.754  1.00  0.00     0.338 C 
ATOM     29  O   UNL A   1      33.532  30.403  27.607  1.00  0.00    -0.246 OA
BRANCH  28  30
ATOM     30  C   UNL A   1      35.865  30.277  28.024  1.00  0.00     0.060 A 
ATOM     31  C   UNL A   1      36.034  29.704  29.289  1.00  0.00     0.016 A 
ATOM     32  C   UNL A   1      36.924  30.230  27.112  1.00  0.00     0.016 A 
ATOM     33  C   UNL A   1      37.240  29.082  29.645  1.00  0.00     0.010 A 
ATOM     34  C   UNL A   1      38.150  29.635  27.483  1.00  0.00     0.010 A 
ATOM     35  C   UNL A   1      38.328  29.068  28.760  1.00  0.00    -0.014 A 
BRANCH  35  36
ATOM     36  C   UNL A   1      39.664  28.580  29.233  1.00  0.00     0.031 A 
ATOM     37  C   UNL A   1      40.411  29.363  30.264  1.00  0.00     0.074 A 
ATOM     38  C   UNL A   1      40.210  27.423  28.814  1.00  0.00     0.049 A 
ATOM     39  N   UNL A   1      41.572  29.106  30.812  1.00  0.00    -0.248 NA
ATOM     40  C   UNL A   1      39.776  30.601  30.731  1.00  0.00     0.031 C 
ATOM     41  C   UNL A   1      39.601  26.566  27.825  1.00  0.00     0.029 A 
ATOM     42  N   UNL A   1      41.367  26.756  29.147  1.00  0.00    -0.354 N 
ATOM     43  C   UNL A   1      41.810  30.148  31.691  1.00  0.00     0.074 A 
ATOM     44  C   UNL A   1      40.681  31.053  31.585  1.00  0.00     0.031 C 
ATOM     45  C   UNL A   1      40.326  25.452  27.661  1.00  0.00     0.029 A 
ATOM     46  C   UNL A   1      41.532  25.564  28.475  1.00  0.00     0.049 A 
ATOM     47  H   UNL A   1      42.015  27.098  29.803  1.00  0.00     0.167 HD
ATOM     48  C   UNL A   1      42.872  30.333  32.509  1.00  0.00     0.037 A 
ATOM     49  C   UNL A   1      42.552  24.682  28.476  1.00  0.00     0.037 A 
ATOM     50  C   UNL A   1      44.010  29.455  32.601  1.00  0.00     0.049 A 
ATOM     51  C   UNL A   1      43.761  24.964  29.327  1.00  0.00     0.074 A 
ATOM     52  C   UNL A   1      45.131  29.586  33.404  1.00  0.00     0.029 A 
ATOM     53  N   UNL A   1      44.186  28.293  31.864  1.00  0.00    -0.354 N 
ATOM     54  N   UNL A   1      43.971  25.952  30.162  1.00  0.00    -0.248 NA
ATOM     55  C   UNL A   1      44.881  24.016  29.229  1.00  0.00     0.031 C 
ATOM     56  C   UNL A   1      46.010  28.536  33.112  1.00  0.00     0.029 A 
ATOM     57  C   UNL A   1      45.410  27.714  32.174  1.00  0.00     0.049 A 
ATOM     58  H   UNL A   1      43.538  27.932  31.216  1.00  0.00     0.167 HD
ATOM     59  C   UNL A   1      45.231  25.734  30.702  1.00  0.00     0.074 A 
ATOM     60  C   UNL A   1      45.729  24.505  30.121  1.00  0.00     0.031 C 
ATOM     61  C   UNL A   1      45.912  26.491  31.598  1.00  0.00     0.037 A 
BRANCH  48  62
ATOM     62  C   UNL A   1      42.867  31.578  33.342  1.00  0.00     0.064 A 
ATOM     63  C   UNL A   1      43.485  32.758  32.904  1.00  0.00     0.173 A 
ATOM     64  C   UNL A   1      42.223  31.591  34.587  1.00  0.00     0.173 A 
ATOM     65  F   UNL A   1      44.133  32.786  31.730  1.00  0.00    -0.203 F 
ATOM     66  C   UNL A   1      43.482  33.900  33.699  1.00  0.00     0.198 A 
ATOM     67  C   UNL A   1      42.194  32.743  35.364  1.00  0.00     0.198 A 
ATOM     68  F   UNL A   1      41.619  30.484  35.048  1.00  0.00    -0.203 F 
ATOM     69  F   UNL A   1      44.124  35.002  33.288  1.00  0.00    -0.200 F 
ATOM     70  C   UNL A   1      42.830  33.894  34.923  1.00  0.00     0.200 A 
ATOM     71  F   UNL A   1      41.556  32.738  36.542  1.00  0.00    -0.200 F 
ATOM     72  F   UNL A   1      42.823  34.997  35.686  1.00  0.00    -0.200 F 
ENDBRANCH  48  62
BRANCH  49  73
ATOM     73  C   UNL A   1      42.520  23.470  27.608  1.00  0.00     0.064 A 
ATOM     74  C   UNL A   1      41.850  22.306  28.012  1.00  0.00     0.173 A 
ATOM     75  C   UNL A   1      43.218  23.426  26.392  1.00  0.00     0.173 A 
ATOM     76  F   UNL A   1      41.198  22.280  29.184  1.00  0.00    -0.203 F 
ATOM     77  C   UNL A   1      41.902  21.140  27.248  1.00  0.00     0.198 A 
ATOM     78  C   UNL A   1      43.241  22.270  25.612  1.00  0.00     0.198 A 
ATOM     79  F   UNL A   1      43.887  24.505  25.961  1.00  0.00    -0.203 F 
ATOM     80  F   UNL A   1      41.311  20.022  27.693  1.00  0.00    -0.200 F 
ATOM     81  C   UNL A   1      42.594  21.125  26.047  1.00  0.00     0.200 A 
ATOM     82  F   UNL A   1      43.906  22.264  24.449  1.00  0.00    -0.200 F 
ATOM     83  F   UNL A   1      42.652  20.001  25.318  1.00  0.00    -0.200 F 
ENDBRANCH  49  73
BRANCH  61  84
ATOM     84  C   UNL A   1      47.259  25.989  32.038  1.00  0.00     0.064 A 
ATOM     85  C   UNL A   1      48.432  26.286  31.326  1.00  0.00     0.173 A 
ATOM     86  C   UNL A   1      47.380  25.199  33.192  1.00  0.00     0.173 A 
ATOM     87  F   UNL A   1      48.373  27.023  30.207  1.00  0.00    -0.203 F 
ATOM     88  C   UNL A   1      49.665  25.779  31.730  1.00  0.00     0.198 A 
ATOM     89  C   UNL A   1      48.619  24.723  33.613  1.00  0.00     0.198 A 
ATOM     90  F   UNL A   1      46.294  24.887  33.916  1.00  0.00    -0.203 F 
ATOM     91  F   UNL A   1      50.760  26.022  30.995  1.00  0.00    -0.200 F 
ATOM     92  C   UNL A   1      49.759  25.003  32.875  1.00  0.00     0.200 A 
ATOM     93  F   UNL A   1      48.709  23.986  34.728  1.00  0.00    -0.200 F 
ATOM     94  F   UNL A   1      50.946  24.515  33.260  1.00  0.00    -0.200 F 
ENDBRANCH  61  84
ENDBRANCH  35  36
ENDBRANCH  28  30
ENDBRANCH  27  28
ENDBRANCH  26  27
ENDBRANCH  25  26
ENDBRANCH  24  25
ENDBRANCH  23  24
ENDBRANCH   1  23
TORSDOF 20
ENDMDL
MODEL 2
REMARK VINA RESULT:      -9.3      1.492      2.779
REMARK SMILES [NH3+][C@]1(C(=O)OCCOCCOCCOC(=O)c2ccc(-c3c4nc(c(-c5c(F)c(F)c(F)c(F)c5F)c5ccc([nH]5)c(-c5c(F)c(F)c(F)c(F)c5F)c5nc(c(-c6c(F)c(F)c(F)c(F)c6F)c6ccc3[nH]6)C=C5)C=C4)cc2)CCC[C@@H](OC2CCC2)C1
REMARK SMILES IDX 9 1 8 2 7 3 6 4 5 5 3 6 4 7 2 8 80 9 89 10 81 11 83 12 82 13
REMARK SMILES IDX 1 14 84 18 85 19 86 20 88 21 87 22 10 23 11 24 12 25 13 26
REMARK SMILES IDX 14 27 15 28 16 29 17 30 18 31 79 32 19 33 78 34 20 35 21 36
REMARK SMILES IDX 22 37 72 38 23 39 77 40 71 41 73 42 24 43 76 44 70 45 69 46
REMARK SMILES IDX 25 48 57 49 37 50 56 51 38 52 41 53 55 54 74 55 39 56 40 57
REMARK SMILES IDX 54 59 75 60 42 61 26 62 27 63 35 64 28 65 29 66 33 67 36 68
REMARK SMILES IDX 30 69 31 70 34 71 32 72 58 73 59 74 67 75 60 76 61 77 65 78
REMARK SMILES IDX 68 79 62 80 63 81 66 82 64 83 43 84 44 85 52 86 45 87 46 88
REMARK SMILES IDX 50 89 53 90 47 91 48 92 51 93 49 94
REMARK H PARENT 1 15 1 16 1 17 73 47 41 58
REMARK Flexibility Score: inf
ROOT
ATOM      1  C   UNL A   1      33.208  37.201  29.766  1.00  0.00     0.188 C 
ENDROOT
BRANCH   1   2
ATOM      2  O   UNL A   1      32.721  37.183  31.111  1.00  0.00    -0.376 OA
BRANCH   2   3
ATOM      3  C   UNL A   1      33.685  37.135  32.164  1.00  0.00     0.202 C 
BRANCH   3   4
ATOM      4  C   UNL A   1      33.770  35.694  32.729  1.00  0.00     0.261 C 
BRANCH   4   5
ATOM      5  O   UNL A   1      35.038  35.065  32.397  1.00  0.00    -0.459 OA
BRANCH   5   6
ATOM      6  C   UNL A   1      35.048  33.694  32.233  1.00  0.00     0.368 C 
ATOM      7  O   UNL A   1      34.028  33.022  32.120  1.00  0.00    -0.245 OA
BRANCH   6   8
ATOM      8  C   UNL A   1      36.541  33.103  32.147  1.00  0.00     0.195 C 
ATOM      9  C   UNL A   1      37.613  34.166  32.556  1.00  0.00     0.081 C 
ATOM     10  C   UNL A   1      36.680  31.769  32.933  1.00  0.00     0.113 C 
ATOM     11  C   UNL A   1      38.874  33.742  33.336  1.00  0.00     0.010 C 
ATOM     12  C   UNL A   1      37.649  31.730  34.122  1.00  0.00     0.125 C 
ATOM     13  C   UNL A   1      38.991  32.277  33.687  1.00  0.00     0.032 C 
BRANCH   8  14
ATOM     14  N   UNL A   1      36.769  32.855  30.695  1.00  0.00    -0.343 N 
ATOM     15  H   UNL A   1      37.762  32.687  30.531  1.00  0.00     0.345 HD
ATOM     16  H   UNL A   1      36.470  33.670  30.160  1.00  0.00     0.345 HD
ATOM     17  H   UNL A   1      36.232  32.039  30.401  1.00  0.00     0.345 HD
ENDBRANCH   8  14
BRANCH  12  18
ATOM     18  O   UNL A   1      37.343  32.109  35.459  1.00  0.00    -0.375 OA
BRANCH  18  19
ATOM     19  C   UNL A   1      38.118  32.362  36.648  1.00  0.00     0.118 C 
ATOM     20  C   UNL A   1      38.617  33.769  36.990  1.00  0.00     0.032 C 
ATOM     21  C   UNL A   1      37.585  32.270  38.050  1.00  0.00     0.032 C 
ATOM     22  C   UNL A   1      37.991  33.692  38.372  1.00  0.00     0.005 C 
ENDBRANCH  18  19
ENDBRANCH  12  18
ENDBRANCH   6   8
ENDBRANCH   5   6
ENDBRANCH   4   5
ENDBRANCH   3   4
ENDBRANCH   2   3
ENDBRANCH   1   2
BRANCH   1  23
ATOM     23  C   UNL A   1      33.361  35.810  29.133  1.00  0.00     0.188 C 
BRANCH  23  24
ATOM     24  O   UNL A   1      34.675  35.414  28.754  1.00  0.00    -0.376 OA
BRANCH  24  25
ATOM     25  C   UNL A   1      34.798  34.222  27.994  1.00  0.00     0.202 C 
BRANCH  25  26
ATOM     26  C   UNL A   1      33.858  33.034  28.290  1.00  0.00     0.261 C 
BRANCH  26  27
ATOM     27  O   UNL A   1      34.422  31.903  28.986  1.00  0.00    -0.460 OA
BRANCH  27  28
ATOM     28  C   UNL A   1      34.542  30.776  28.239  1.00  0.00     0.338 C 
ATOM     29  O   UNL A   1      33.674  30.304  27.500  1.00  0.00    -0.246 OA
BRANCH  28  30
ATOM     30  C   UNL A   1      35.892  30.168  28.333  1.00  0.00     0.060 A 
ATOM     31  C   UNL A   1      36.259  29.572  29.545  1.00  0.00     0.016 A 
ATOM     32  C   UNL A   1      36.837  30.253  27.306  1.00  0.00     0.016 A 
ATOM     33  C   UNL A   1      37.552  29.060  29.734  1.00  0.00     0.010 A 
ATOM     34  C   UNL A   1      38.148  29.769  27.509  1.00  0.00     0.010 A 
ATOM     35  C   UNL A   1      38.525  29.181  28.732  1.00  0.00    -0.014 A 
BRANCH  35  36
ATOM     36  C   UNL A   1      39.947  28.810  29.030  1.00  0.00     0.031 A 
ATOM     37  C   UNL A   1      40.781  29.713  29.880  1.00  0.00     0.074 A 
ATOM     38  C   UNL A   1      40.505  27.658  28.613  1.00  0.00     0.049 A 
ATOM     39  N   UNL A   1      42.025  29.568  30.262  1.00  0.00    -0.248 NA
ATOM     40  C   UNL A   1      40.137  30.945  30.351  1.00  0.00     0.031 C 
ATOM     41  C   UNL A   1      39.817  26.692  27.790  1.00  0.00     0.029 A 
ATOM     42  N   UNL A   1      41.741  27.087  28.813  1.00  0.00    -0.354 N 
ATOM     43  C   UNL A   1      42.316  30.688  31.021  1.00  0.00     0.074 A 
ATOM     44  C   UNL A   1      41.125  31.514  31.025  1.00  0.00     0.031 C 
ATOM     45  C   UNL A   1      40.586  25.612  27.594  1.00  0.00     0.029 A 
ATOM     46  C   UNL A   1      41.888  25.858  28.207  1.00  0.00     0.049 A 
ATOM     47  H   UNL A   1      42.453  27.517  29.338  1.00  0.00     0.167 HD
ATOM     48  C   UNL A   1      43.472  30.998  31.653  1.00  0.00     0.037 A 
ATOM     49  C   UNL A   1      42.955  25.040  28.113  1.00  0.00     0.037 A 
ATOM     50  C   UNL A   1      44.669  30.198  31.632  1.00  0.00     0.049 A 
ATOM     51  C   UNL A   1      44.254  25.457  28.751  1.00  0.00     0.074 A 
ATOM     52  C   UNL A   1      45.884  30.456  32.245  1.00  0.00     0.029 A 
ATOM     53  N   UNL A   1      44.815  28.994  30.959  1.00  0.00    -0.354 N 
ATOM     54  N   UNL A   1      44.515  26.518  29.474  1.00  0.00    -0.248 NA
ATOM     55  C   UNL A   1      45.410  24.572  28.549  1.00  0.00     0.031 C 
ATOM     56  C   UNL A   1      46.781  29.440  31.896  1.00  0.00     0.029 A 
ATOM     57  C   UNL A   1      46.109  28.513  31.119  1.00  0.00     0.049 A 
ATOM     58  H   UNL A   1      44.106  28.546  30.443  1.00  0.00     0.167 HD
ATOM     59  C   UNL A   1      45.853  26.417  29.831  1.00  0.00     0.074 A 
ATOM     60  C   UNL A   1      46.344  25.178  29.267  1.00  0.00     0.031 C 
ATOM     61  C   UNL A   1      46.604  27.280  30.559  1.00  0.00     0.037 A 
BRANCH  48  62
ATOM     62  C   UNL A   1      43.502  32.302  32.390  1.00  0.00     0.064 A 
ATOM     63  C   UNL A   1      43.064  32.406  33.718  1.00  0.00     0.173 A 
ATOM     64  C   UNL A   1      43.989  33.456  31.761  1.00  0.00     0.173 A 
ATOM     65  F   UNL A   1      42.570  31.333  34.353  1.00  0.00    -0.203 F 
ATOM     66  C   UNL A   1      43.087  33.630  34.381  1.00  0.00     0.198 A 
ATOM     67  C   UNL A   1      44.040  34.670  32.437  1.00  0.00     0.198 A 
ATOM     68  F   UNL A   1      44.418  33.405  30.490  1.00  0.00    -0.203 F 
ATOM     69  F   UNL A   1      42.615  33.721  35.632  1.00  0.00    -0.200 F 
ATOM     70  C   UNL A   1      43.583  34.757  33.743  1.00  0.00     0.200 A 
ATOM     71  F   UNL A   1      44.528  35.756  31.823  1.00  0.00    -0.200 F 
ATOM     72  F   UNL A   1      43.609  35.934  34.385  1.00  0.00    -0.200 F 
ENDBRANCH  48  62
BRANCH  49  73
ATOM     73  C   UNL A   1      42.880  23.763  27.346  1.00  0.00     0.064 A 
ATOM     74  C   UNL A   1      42.411  22.584  27.943  1.00  0.00     0.173 A 
ATOM     75  C   UNL A   1      43.343  23.679  26.024  1.00  0.00     0.173 A 
ATOM     76  F   UNL A   1      41.993  22.599  29.217  1.00  0.00    -0.203 F 
ATOM     77  C   UNL A   1      42.433  21.369  27.258  1.00  0.00     0.198 A 
ATOM     78  C   UNL A   1      43.332  22.471  25.329  1.00  0.00     0.198 A 
ATOM     79  F   UNL A   1      43.814  24.772  25.407  1.00  0.00    -0.203 F 
ATOM     80  F   UNL A   1      42.045  20.245  27.877  1.00  0.00    -0.200 F 
ATOM     81  C   UNL A   1      42.890  21.315  25.951  1.00  0.00     0.200 A 
ATOM     82  F   UNL A   1      43.769  22.427  24.063  1.00  0.00    -0.200 F 
ATOM     83  F   UNL A   1      42.920  20.145  25.296  1.00  0.00    -0.200 F 
ENDBRANCH  49  73
BRANCH  61  84
ATOM     84  C   UNL A   1      48.033  26.893  30.823  1.00  0.00     0.064 A 
ATOM     85  C   UNL A   1      48.391  26.062  31.895  1.00  0.00     0.173 A 
ATOM     86  C   UNL A   1      49.060  27.361  29.987  1.00  0.00     0.173 A 
ATOM     87  F   UNL A   1      47.453  25.600  32.734  1.00  0.00    -0.203 F 
ATOM     88  C   UNL A   1      49.726  25.748  32.144  1.00  0.00     0.198 A 
ATOM     89  C   UNL A   1      50.389  27.016  30.219  1.00  0.00     0.198 A 
ATOM     90  F   UNL A   1      48.776  28.154  28.944  1.00  0.00    -0.203 F 
ATOM     91  F   UNL A   1      50.049  25.007  33.214  1.00  0.00    -0.200 F 
ATOM     92  C   UNL A   1      50.722  26.220  31.304  1.00  0.00     0.200 A 
ATOM     93  F   UNL A   1      51.349  27.461  29.396  1.00  0.00    -0.200 F 
ATOM     94  F   UNL A   1      52.005  25.917  31.547  1.00  0.00    -0.200 F 
ENDBRANCH  61  84
ENDBRANCH  35  36
ENDBRANCH  28  30
ENDBRANCH  27  28
ENDBRANCH  26  27
ENDBRANCH  25  26
ENDBRANCH  24  25
ENDBRANCH  23  24
ENDBRANCH   1  23
TORSDOF 20
ENDMDL
MODEL 3
REMARK VINA RESULT:      -9.2      4.312      6.987
REMARK SMILES [NH3+][C@]1(C(=O)OCCOCCOCCOC(=O)c2ccc(-c3c4nc(c(-c5c(F)c(F)c(F)c(F)c5F)c5ccc([nH]5)c(-c5c(F)c(F)c(F)c(F)c5F)c5nc(c(-c6c(F)c(F)c(F)c(F)c6F)c6ccc3[nH]6)C=C5)C=C4)cc2)CCC[C@@H](OC2CCC2)C1
REMARK SMILES IDX 9 1 8 2 7 3 6 4 5 5 3 6 4 7 2 8 80 9 89 10 81 11 83 12 82 13
REMARK SMILES IDX 1 14 84 18 85 19 86 20 88 21 87 22 10 23 11 24 12 25 13 26
REMARK SMILES IDX 14 27 15 28 16 29 17 30 18 31 79 32 19 33 78 34 20 35 21 36
REMARK SMILES IDX 22 37 72 38 23 39 77 40 71 41 73 42 24 43 76 44 70 45 69 46
REMARK SMILES IDX 25 48 57 49 37 50 56 51 38 52 41 53 55 54 74 55 39 56 40 57
REMARK SMILES IDX 54 59 75 60 42 61 26 62 27 63 35 64 28 65 29 66 33 67 36 68
REMARK SMILES IDX 30 69 31 70 34 71 32 72 58 73 59 74 67 75 60 76 61 77 65 78
REMARK SMILES IDX 68 79 62 80 63 81 66 82 64 83 43 84 44 85 52 86 45 87 46 88
REMARK SMILES IDX 50 89 53 90 47 91 48 92 51 93 49 94
REMARK H PARENT 1 15 1 16 1 17 73 47 41 58
REMARK Flexibility Score: inf
ROOT
ATOM      1  C   UNL A   1      33.490  33.366  27.936  1.00  0.00     0.188 C 
ENDROOT
BRANCH   1   2
ATOM      2  O   UNL A   1      33.335  31.966  27.685  1.00  0.00    -0.376 OA
BRANCH   2   3
ATOM      3  C   UNL A   1      34.521  31.192  27.498  1.00  0.00     0.202 C 
BRANCH   3   4
ATOM      4  C   UNL A   1      34.167  29.683  27.514  1.00  0.00     0.261 C 
BRANCH   4   5
ATOM      5  O   UNL A   1      34.095  29.136  26.169  1.00  0.00    -0.459 OA
BRANCH   5   6
ATOM      6  C   UNL A   1      32.861  29.120  25.550  1.00  0.00     0.368 C 
ATOM      7  O   UNL A   1      32.134  30.104  25.471  1.00  0.00    -0.245 OA
BRANCH   6   8
ATOM      8  C   UNL A   1      32.526  27.687  24.902  1.00  0.00     0.195 C 
ATOM      9  C   UNL A   1      31.220  27.068  25.499  1.00  0.00     0.081 C 
ATOM     10  C   UNL A   1      32.512  27.746  23.348  1.00  0.00     0.113 C 
ATOM     11  C   UNL A   1      30.261  26.255  24.604  1.00  0.00     0.010 C 
ATOM     12  C   UNL A   1      31.198  27.427  22.625  1.00  0.00     0.125 C 
ATOM     13  C   UNL A   1      30.648  26.118  23.150  1.00  0.00     0.032 C 
BRANCH   8  14
ATOM     14  N   UNL A   1      33.628  26.794  25.360  1.00  0.00    -0.343 N 
ATOM     15  H   UNL A   1      33.384  26.390  26.264  1.00  0.00     0.345 HD
ATOM     16  H   UNL A   1      34.488  27.334  25.450  1.00  0.00     0.345 HD
ATOM     17  H   UNL A   1      33.766  26.047  24.679  1.00  0.00     0.345 HD
ENDBRANCH   8  14
BRANCH  12  18
ATOM     18  O   UNL A   1      30.154  28.354  22.346  1.00  0.00    -0.375 OA
BRANCH  18  19
ATOM     19  C   UNL A   1      29.143  29.015  23.132  1.00  0.00     0.118 C 
ATOM     20  C   UNL A   1      29.006  30.541  23.134  1.00  0.00     0.032 C 
ATOM     21  C   UNL A   1      27.666  28.940  22.861  1.00  0.00     0.032 C 
ATOM     22  C   UNL A   1      27.535  30.445  22.770  1.00  0.00     0.005 C 
ENDBRANCH  18  19
ENDBRANCH  12  18
ENDBRANCH   6   8
ENDBRANCH   5   6
ENDBRANCH   4   5
ENDBRANCH   3   4
ENDBRANCH   2   3
ENDBRANCH   1   2
BRANCH   1  23
ATOM     23  C   UNL A   1      34.295  33.694  29.202  1.00  0.00     0.188 C 
BRANCH  23  24
ATOM     24  O   UNL A   1      33.575  34.245  30.300  1.00  0.00    -0.376 OA
BRANCH  24  25
ATOM     25  C   UNL A   1      34.337  34.747  31.387  1.00  0.00     0.202 C 
BRANCH  25  26
ATOM     26  C   UNL A   1      34.437  33.923  32.687  1.00  0.00     0.261 C 
BRANCH  26  27
ATOM     27  O   UNL A   1      34.891  32.559  32.572  1.00  0.00    -0.460 OA
BRANCH  27  28
ATOM     28  C   UNL A   1      36.063  32.293  33.205  1.00  0.00     0.338 C 
ATOM     29  O   UNL A   1      36.309  32.518  34.393  1.00  0.00    -0.246 OA
BRANCH  28  30
ATOM     30  C   UNL A   1      37.046  31.613  32.326  1.00  0.00     0.060 A 
ATOM     31  C   UNL A   1      38.083  30.897  32.934  1.00  0.00     0.016 A 
ATOM     32  C   UNL A   1      37.038  31.742  30.933  1.00  0.00     0.016 A 
ATOM     33  C   UNL A   1      39.099  30.307  32.168  1.00  0.00     0.010 A 
ATOM     34  C   UNL A   1      38.080  31.178  30.165  1.00  0.00     0.010 A 
ATOM     35  C   UNL A   1      39.132  30.468  30.775  1.00  0.00    -0.014 A 
BRANCH  35  36
ATOM     36  C   UNL A   1      40.330  30.003  30.002  1.00  0.00     0.031 A 
ATOM     37  C   UNL A   1      41.480  30.935  29.796  1.00  0.00     0.074 A 
ATOM     38  C   UNL A   1      40.450  28.750  29.525  1.00  0.00     0.049 A 
ATOM     39  N   UNL A   1      42.609  30.722  29.169  1.00  0.00    -0.248 NA
ATOM     40  C   UNL A   1      41.337  32.282  30.359  1.00  0.00     0.031 C 
ATOM     41  C   UNL A   1      39.421  27.746  29.652  1.00  0.00     0.029 A 
ATOM     42  N   UNL A   1      41.458  28.093  28.857  1.00  0.00    -0.354 N 
ATOM     43  C   UNL A   1      43.316  31.909  29.260  1.00  0.00     0.074 A 
ATOM     44  C   UNL A   1      42.477  32.844  29.985  1.00  0.00     0.031 C 
ATOM     45  C   UNL A   1      39.845  26.576  29.154  1.00  0.00     0.029 A 
ATOM     46  C   UNL A   1      41.166  26.777  28.567  1.00  0.00     0.049 A 
ATOM     47  H   UNL A   1      42.308  28.522  28.609  1.00  0.00     0.167 HD
ATOM     48  C   UNL A   1      44.550  32.191  28.782  1.00  0.00     0.037 A 
ATOM     49  C   UNL A   1      41.855  25.850  27.873  1.00  0.00     0.037 A 
ATOM     50  C   UNL A   1      45.380  31.279  28.037  1.00  0.00     0.049 A 
ATOM     51  C   UNL A   1      43.185  26.225  27.274  1.00  0.00     0.074 A 
ATOM     52  C   UNL A   1      46.642  31.502  27.512  1.00  0.00     0.029 A 
ATOM     53  N   UNL A   1      45.036  29.978  27.699  1.00  0.00    -0.354 N 
ATOM     54  N   UNL A   1      43.848  27.350  27.374  1.00  0.00    -0.248 NA
ATOM     55  C   UNL A   1      43.858  25.205  26.455  1.00  0.00     0.031 C 
ATOM     56  C   UNL A   1      47.036  30.358  26.807  1.00  0.00     0.029 A 
ATOM     57  C   UNL A   1      46.050  29.398  26.948  1.00  0.00     0.049 A 
ATOM     58  H   UNL A   1      44.195  29.533  27.954  1.00  0.00     0.167 HD
ATOM     59  C   UNL A   1      45.020  27.169  26.654  1.00  0.00     0.074 A 
ATOM     60  C   UNL A   1      44.992  25.814  26.143  1.00  0.00     0.031 C 
ATOM     61  C   UNL A   1      46.026  28.050  26.435  1.00  0.00     0.037 A 
BRANCH  48  62
ATOM     62  C   UNL A   1      45.056  33.582  29.015  1.00  0.00     0.064 A 
ATOM     63  C   UNL A   1      44.780  34.625  28.120  1.00  0.00     0.173 A 
ATOM     64  C   UNL A   1      45.816  33.873  30.157  1.00  0.00     0.173 A 
ATOM     65  F   UNL A   1      44.076  34.388  27.003  1.00  0.00    -0.203 F 
ATOM     66  C   UNL A   1      45.272  35.907  28.347  1.00  0.00     0.198 A 
ATOM     67  C   UNL A   1      46.279  35.162  30.396  1.00  0.00     0.198 A 
ATOM     68  F   UNL A   1      46.107  32.906  31.041  1.00  0.00    -0.203 F 
ATOM     69  F   UNL A   1      45.042  36.879  27.453  1.00  0.00    -0.200 F 
ATOM     70  C   UNL A   1      46.012  36.175  29.488  1.00  0.00     0.200 A 
ATOM     71  F   UNL A   1      46.986  35.422  31.504  1.00  0.00    -0.200 F 
ATOM     72  F   UNL A   1      46.481  37.412  29.708  1.00  0.00    -0.200 F 
ENDBRANCH  48  62
BRANCH  49  73
ATOM     73  C   UNL A   1      41.295  24.487  27.647  1.00  0.00     0.064 A 
ATOM     74  C   UNL A   1      41.868  23.357  28.249  1.00  0.00     0.173 A 
ATOM     75  C   UNL A   1      40.222  24.277  26.767  1.00  0.00     0.173 A 
ATOM     76  F   UNL A   1      42.920  23.496  29.069  1.00  0.00    -0.203 F 
ATOM     77  C   UNL A   1      41.408  22.072  27.961  1.00  0.00     0.198 A 
ATOM     78  C   UNL A   1      39.741  22.995  26.506  1.00  0.00     0.198 A 
ATOM     79  F   UNL A   1      39.643  25.318  26.152  1.00  0.00    -0.203 F 
ATOM     80  F   UNL A   1      42.020  21.007  28.496  1.00  0.00    -0.200 F 
ATOM     81  C   UNL A   1      40.342  21.893  27.092  1.00  0.00     0.200 A 
ATOM     82  F   UNL A   1      38.707  22.829  25.670  1.00  0.00    -0.200 F 
ATOM     83  F   UNL A   1      39.907  20.658  26.807  1.00  0.00    -0.200 F 
ENDBRANCH  49  73
BRANCH  61  84
ATOM     84  C   UNL A   1      47.205  27.564  25.638  1.00  0.00     0.064 A 
ATOM     85  C   UNL A   1      48.306  26.940  26.244  1.00  0.00     0.173 A 
ATOM     86  C   UNL A   1      47.232  27.724  24.243  1.00  0.00     0.173 A 
ATOM     87  F   UNL A   1      48.340  26.776  27.574  1.00  0.00    -0.203 F 
ATOM     88  C   UNL A   1      49.404  26.532  25.490  1.00  0.00     0.198 A 
ATOM     89  C   UNL A   1      48.316  27.284  23.489  1.00  0.00     0.198 A 
ATOM     90  F   UNL A   1      46.205  28.310  23.609  1.00  0.00    -0.203 F 
ATOM     91  F   UNL A   1      50.472  25.999  26.101  1.00  0.00    -0.200 F 
ATOM     92  C   UNL A   1      49.407  26.699  24.114  1.00  0.00     0.200 A 
ATOM     93  F   UNL A   1      48.310  27.433  22.157  1.00  0.00    -0.200 F 
ATOM     94  F   UNL A   1      50.465  26.307  23.392  1.00  0.00    -0.200 F 
ENDBRANCH  61  84
ENDBRANCH  35  36
ENDBRANCH  28  30
ENDBRANCH  27  28
ENDBRANCH  26  27
ENDBRANCH  25  26
ENDBRANCH  24  25
ENDBRANCH  23  24
ENDBRANCH   1  23
TORSDOF 20
ENDMDL
