MODEL 1
REMARK VINA RESULT:     -11.6      0.000      0.000
REMARK SMILES CC1CCN(C(=O)Nc2nccnc2C(=O)OCCOCCOCCOC(=O)c2ccc(-c3c4nc(c(-c5c(F)c(F)c(F)c(F)c5F)c5ccc([nH]5)c(-c5c(F)c(F)c(F)c(F)c5F)c5nc(c(-c6c(F)c(F)c(F)c(F)c6F)c6ccc3[nH]6)C=C5)C=C4)cc2)CC1
REMARK SMILES IDX 22 1 21 2 20 3 19 4 18 5 17 6 15 7 16 8 14 9 9 10 10 11
REMARK SMILES IDX 11 12 13 13 12 14 8 15 1 16 2 17 3 18 93 19 4 20 92 21 5 22
REMARK SMILES IDX 6 23 7 24 23 26 24 27 25 28 26 29 27 30 28 31 29 32 30 33
REMARK SMILES IDX 91 34 31 35 90 36 32 37 33 38 34 39 84 40 35 41 89 42 83 43
REMARK SMILES IDX 85 44 36 45 88 46 82 47 81 48 37 50 69 51 49 52 68 53 50 54
REMARK SMILES IDX 53 55 67 56 86 57 51 58 52 59 66 61 87 62 54 63 38 64 39 65
REMARK SMILES IDX 47 66 40 67 41 68 45 69 48 70 42 71 43 72 46 73 44 74 70 75
REMARK SMILES IDX 71 76 79 77 72 78 73 79 77 80 80 81 74 82 75 83 78 84 76 85
REMARK SMILES IDX 55 86 56 87 64 88 57 89 58 90 62 91 65 92 59 93 60 94 63 95
REMARK SMILES IDX 61 96
REMARK H PARENT 8 25 85 49 53 60
REMARK Flexibility Score: inf
ROOT
ATOM      1  C   UNL A   1      34.900  33.358  28.457  1.00  0.00     0.188 C 
ENDROOT
BRANCH   1   2
ATOM      2  C   UNL A   1      34.330  31.927  28.523  1.00  0.00     0.188 C 
BRANCH   2   3
ATOM      3  O   UNL A   1      34.529  31.022  27.445  1.00  0.00    -0.376 OA
BRANCH   3   4
ATOM      4  C   UNL A   1      33.506  30.096  27.098  1.00  0.00     0.202 C 
BRANCH   4   5
ATOM      5  C   UNL A   1      33.913  28.730  26.526  1.00  0.00     0.261 C 
BRANCH   5   6
ATOM      6  O   UNL A   1      32.925  28.128  25.665  1.00  0.00    -0.458 OA
BRANCH   6   7
ATOM      7  C   UNL A   1      33.079  28.384  24.339  1.00  0.00     0.360 C 
ATOM      8  O   UNL A   1      34.137  28.321  23.730  1.00  0.00    -0.244 OA
BRANCH   7   9
ATOM      9  C   UNL A   1      31.775  28.638  23.648  1.00  0.00     0.191 A 
ATOM     10  C   UNL A   1      31.303  27.961  22.510  1.00  0.00     0.167 A 
ATOM     11  N   UNL A   1      30.041  28.202  22.081  1.00  0.00    -0.235 NA
ATOM     12  C   UNL A   1      29.336  29.186  22.685  1.00  0.00     0.133 A 
ATOM     13  N   UNL A   1      31.060  29.649  24.243  1.00  0.00    -0.244 NA
ATOM     14  C   UNL A   1      29.850  29.920  23.726  1.00  0.00     0.132 A 
BRANCH  10  15
ATOM     15  N   UNL A   1      32.105  27.060  21.795  1.00  0.00    -0.290 N 
ATOM     16  C   UNL A   1      31.783  23.457  26.777  1.00  0.00     0.008 C 
ATOM     17  C   UNL A   1      31.464  23.500  25.282  1.00  0.00    -0.011 C 
ATOM     18  C   UNL A   1      32.748  23.295  24.454  1.00  0.00     0.025 C 
ATOM     19  C   UNL A   1      30.770  24.822  24.907  1.00  0.00     0.025 C 
ATOM     20  C   UNL A   1      32.536  23.555  22.959  1.00  0.00     0.121 C 
ATOM     21  C   UNL A   1      30.582  24.913  23.391  1.00  0.00     0.121 C 
ATOM     22  N   UNL A   1      31.889  24.853  22.748  1.00  0.00    -0.324 N 
ATOM     23  C   UNL A   1      32.520  25.785  21.968  1.00  0.00     0.323 C 
ATOM     24  O   UNL A   1      33.509  25.474  21.290  1.00  0.00    -0.248 OA
ATOM     25  H   UNL A   1      32.450  27.451  20.960  1.00  0.00     0.173 HD
ENDBRANCH  10  15
ENDBRANCH   7   9
ENDBRANCH   6   7
ENDBRANCH   5   6
ENDBRANCH   4   5
ENDBRANCH   3   4
ENDBRANCH   2   3
ENDBRANCH   1   2
BRANCH   1  26
ATOM     26  O   UNL A   1      35.381  33.861  29.687  1.00  0.00    -0.376 OA
BRANCH  26  27
ATOM     27  C   UNL A   1      34.388  34.214  30.642  1.00  0.00     0.202 C 
BRANCH  27  28
ATOM     28  C   UNL A   1      34.689  33.816  32.097  1.00  0.00     0.261 C 
BRANCH  28  29
ATOM     29  O   UNL A   1      35.080  32.444  32.299  1.00  0.00    -0.460 OA
BRANCH  29  30
ATOM     30  C   UNL A   1      36.170  32.222  33.060  1.00  0.00     0.338 C 
ATOM     31  O   UNL A   1      36.296  32.457  34.255  1.00  0.00    -0.246 OA
BRANCH  30  32
ATOM     32  C   UNL A   1      37.148  31.454  32.261  1.00  0.00     0.060 A 
ATOM     33  C   UNL A   1      38.316  30.998  32.886  1.00  0.00     0.016 A 
ATOM     34  C   UNL A   1      36.928  31.199  30.906  1.00  0.00     0.016 A 
ATOM     35  C   UNL A   1      39.287  30.323  32.145  1.00  0.00     0.010 A 
ATOM     36  C   UNL A   1      37.911  30.538  30.158  1.00  0.00     0.010 A 
ATOM     37  C   UNL A   1      39.113  30.132  30.767  1.00  0.00    -0.014 A 
BRANCH  37  38
ATOM     38  C   UNL A   1      40.272  29.705  29.942  1.00  0.00     0.031 A 
ATOM     39  C   UNL A   1      41.384  30.692  29.706  1.00  0.00     0.074 A 
ATOM     40  C   UNL A   1      40.371  28.458  29.452  1.00  0.00     0.049 A 
ATOM     41  N   UNL A   1      42.519  30.538  29.071  1.00  0.00    -0.248 NA
ATOM     42  C   UNL A   1      41.186  32.038  30.267  1.00  0.00     0.031 C 
ATOM     43  C   UNL A   1      39.382  27.399  29.631  1.00  0.00     0.029 A 
ATOM     44  N   UNL A   1      41.364  27.872  28.705  1.00  0.00    -0.354 N 
ATOM     45  C   UNL A   1      43.167  31.763  29.157  1.00  0.00     0.074 A 
ATOM     46  C   UNL A   1      42.284  32.661  29.871  1.00  0.00     0.031 C 
ATOM     47  C   UNL A   1      39.822  26.286  29.014  1.00  0.00     0.029 A 
ATOM     48  C   UNL A   1      41.112  26.563  28.382  1.00  0.00     0.049 A 
ATOM     49  H   UNL A   1      42.181  28.348  28.428  1.00  0.00     0.167 HD
ATOM     50  C   UNL A   1      44.393  32.111  28.695  1.00  0.00     0.037 A 
ATOM     51  C   UNL A   1      41.840  25.690  27.658  1.00  0.00     0.037 A 
ATOM     52  C   UNL A   1      45.268  31.226  27.974  1.00  0.00     0.049 A 
ATOM     53  C   UNL A   1      43.173  26.118  27.096  1.00  0.00     0.074 A 
ATOM     54  C   UNL A   1      46.537  31.477  27.480  1.00  0.00     0.029 A 
ATOM     55  N   UNL A   1      44.959  29.918  27.630  1.00  0.00    -0.354 N 
ATOM     56  N   UNL A   1      43.801  27.262  27.222  1.00  0.00    -0.248 NA
ATOM     57  C   UNL A   1      43.903  25.121  26.298  1.00  0.00     0.031 C 
ATOM     58  C   UNL A   1      46.972  30.338  26.791  1.00  0.00     0.029 A 
ATOM     59  C   UNL A   1      46.001  29.358  26.908  1.00  0.00     0.049 A 
ATOM     60  H   UNL A   1      44.122  29.456  27.864  1.00  0.00     0.167 HD
ATOM     61  C   UNL A   1      45.012  27.111  26.556  1.00  0.00     0.074 A 
ATOM     62  C   UNL A   1      45.033  25.762  26.032  1.00  0.00     0.031 C 
ATOM     63  C   UNL A   1      46.018  28.008  26.401  1.00  0.00     0.037 A 
BRANCH  50  64
ATOM     64  C   UNL A   1      44.835  33.526  28.931  1.00  0.00     0.064 A 
ATOM     65  C   UNL A   1      45.553  33.894  30.079  1.00  0.00     0.173 A 
ATOM     66  C   UNL A   1      44.526  34.530  28.000  1.00  0.00     0.173 A 
ATOM     67  F   UNL A   1      45.859  32.976  31.008  1.00  0.00    -0.203 F 
ATOM     68  C   UNL A   1      45.909  35.222  30.306  1.00  0.00     0.198 A 
ATOM     69  C   UNL A   1      44.911  35.850  28.216  1.00  0.00     0.198 A 
ATOM     70  F   UNL A   1      43.844  34.232  26.885  1.00  0.00    -0.203 F 
ATOM     71  F   UNL A   1      46.537  35.561  31.442  1.00  0.00    -0.200 F 
ATOM     72  C   UNL A   1      45.592  36.197  29.374  1.00  0.00     0.200 A 
ATOM     73  F   UNL A   1      44.613  36.790  27.309  1.00  0.00    -0.200 F 
ATOM     74  F   UNL A   1      45.929  37.474  29.596  1.00  0.00    -0.200 F 
ENDBRANCH  50  64
BRANCH  51  75
ATOM     75  C   UNL A   1      41.341  24.307  27.444  1.00  0.00     0.064 A 
ATOM     76  C   UNL A   1      40.231  24.061  26.624  1.00  0.00     0.173 A 
ATOM     77  C   UNL A   1      41.951  23.208  28.064  1.00  0.00     0.173 A 
ATOM     78  F   UNL A   1      39.595  25.084  26.033  1.00  0.00    -0.203 F 
ATOM     79  C   UNL A   1      39.743  22.768  26.442  1.00  0.00     0.198 A 
ATOM     80  C   UNL A   1      41.479  21.913  27.861  1.00  0.00     0.198 A 
ATOM     81  F   UNL A   1      43.012  23.391  28.864  1.00  0.00    -0.203 F 
ATOM     82  F   UNL A   1      38.656  22.566  25.686  1.00  0.00    -0.200 F 
ATOM     83  C   UNL A   1      40.371  21.694  27.055  1.00  0.00     0.200 A 
ATOM     84  F   UNL A   1      42.092  20.877  28.450  1.00  0.00    -0.200 F 
ATOM     85  F   UNL A   1      39.904  20.451  26.876  1.00  0.00    -0.200 F 
ENDBRANCH  51  75
BRANCH  63  86
ATOM     86  C   UNL A   1      47.253  27.545  25.680  1.00  0.00     0.064 A 
ATOM     87  C   UNL A   1      47.397  27.674  24.291  1.00  0.00     0.173 A 
ATOM     88  C   UNL A   1      48.322  26.986  26.399  1.00  0.00     0.173 A 
ATOM     89  F   UNL A   1      46.403  28.191  23.554  1.00  0.00    -0.203 F 
ATOM     90  C   UNL A   1      48.550  27.232  23.645  1.00  0.00     0.198 A 
ATOM     91  C   UNL A   1      49.485  26.574  25.755  1.00  0.00     0.198 A 
ATOM     92  F   UNL A   1      48.241  26.847  27.731  1.00  0.00    -0.203 F 
ATOM     93  F   UNL A   1      48.641  27.314  22.310  1.00  0.00    -0.200 F 
ATOM     94  C   UNL A   1      49.594  26.688  24.377  1.00  0.00     0.200 A 
ATOM     95  F   UNL A   1      50.498  26.062  26.467  1.00  0.00    -0.200 F 
ATOM     96  F   UNL A   1      50.703  26.264  23.755  1.00  0.00    -0.200 F 
ENDBRANCH  63  86
ENDBRANCH  37  38
ENDBRANCH  30  32
ENDBRANCH  29  30
ENDBRANCH  28  29
ENDBRANCH  27  28
ENDBRANCH  26  27
ENDBRANCH   1  26
TORSDOF 18
ENDMDL
MODEL 2
REMARK VINA RESULT:     -11.5      4.602      7.179
REMARK SMILES CC1CCN(C(=O)Nc2nccnc2C(=O)OCCOCCOCCOC(=O)c2ccc(-c3c4nc(c(-c5c(F)c(F)c(F)c(F)c5F)c5ccc([nH]5)c(-c5c(F)c(F)c(F)c(F)c5F)c5nc(c(-c6c(F)c(F)c(F)c(F)c6F)c6ccc3[nH]6)C=C5)C=C4)cc2)CC1
REMARK SMILES IDX 22 1 21 2 20 3 19 4 18 5 17 6 15 7 16 8 14 9 9 10 10 11
REMARK SMILES IDX 11 12 13 13 12 14 8 15 1 16 2 17 3 18 93 19 4 20 92 21 5 22
REMARK SMILES IDX 6 23 7 24 23 26 24 27 25 28 26 29 27 30 28 31 29 32 30 33
REMARK SMILES IDX 91 34 31 35 90 36 32 37 33 38 34 39 84 40 35 41 89 42 83 43
REMARK SMILES IDX 85 44 36 45 88 46 82 47 81 48 37 50 69 51 49 52 68 53 50 54
REMARK SMILES IDX 53 55 67 56 86 57 51 58 52 59 66 61 87 62 54 63 38 64 39 65
REMARK SMILES IDX 47 66 40 67 41 68 45 69 48 70 42 71 43 72 46 73 44 74 70 75
REMARK SMILES IDX 71 76 79 77 72 78 73 79 77 80 80 81 74 82 75 83 78 84 76 85
REMARK SMILES IDX 55 86 56 87 64 88 57 89 58 90 62 91 65 92 59 93 60 94 63 95
REMARK SMILES IDX 61 96
REMARK H PARENT 8 25 85 49 53 60
REMARK Flexibility Score: inf
ROOT
ATOM      1  C   UNL A   1      32.169  29.431  27.052  1.00  0.00     0.188 C 
ENDROOT
BRANCH   1   2
ATOM      2  C   UNL A   1      33.414  28.530  27.184  1.00  0.00     0.188 C 
BRANCH   2   3
ATOM      3  O   UNL A   1      33.484  27.294  26.484  1.00  0.00    -0.376 OA
BRANCH   3   4
ATOM      4  C   UNL A   1      33.177  27.246  25.096  1.00  0.00     0.202 C 
BRANCH   4   5
ATOM      5  C   UNL A   1      31.956  26.434  24.639  1.00  0.00     0.261 C 
BRANCH   5   6
ATOM      6  O   UNL A   1      31.587  25.362  25.530  1.00  0.00    -0.458 OA
BRANCH   6   7
ATOM      7  C   UNL A   1      31.581  24.122  24.973  1.00  0.00     0.360 C 
ATOM      8  O   UNL A   1      30.653  23.643  24.338  1.00  0.00    -0.244 OA
BRANCH   7   9
ATOM      9  C   UNL A   1      32.900  23.427  25.108  1.00  0.00     0.191 A 
ATOM     10  C   UNL A   1      33.426  22.481  24.211  1.00  0.00     0.167 A 
ATOM     11  N   UNL A   1      34.694  22.042  24.389  1.00  0.00    -0.235 NA
ATOM     12  C   UNL A   1      35.354  22.430  25.504  1.00  0.00     0.133 A 
ATOM     13  N   UNL A   1      33.570  23.799  26.248  1.00  0.00    -0.244 NA
ATOM     14  C   UNL A   1      34.789  23.267  26.435  1.00  0.00     0.132 A 
BRANCH  10  15
ATOM     15  N   UNL A   1      32.670  21.964  23.148  1.00  0.00    -0.290 N 
ATOM     16  C   UNL A   1      35.028  16.485  24.673  1.00  0.00     0.008 C 
ATOM     17  C   UNL A   1      33.708  17.242  24.514  1.00  0.00    -0.011 C 
ATOM     18  C   UNL A   1      33.334  17.359  23.023  1.00  0.00     0.025 C 
ATOM     19  C   UNL A   1      33.790  18.630  25.175  1.00  0.00     0.025 C 
ATOM     20  C   UNL A   1      32.149  18.301  22.783  1.00  0.00     0.121 C 
ATOM     21  C   UNL A   1      32.517  19.430  24.889  1.00  0.00     0.121 C 
ATOM     22  N   UNL A   1      32.371  19.588  23.447  1.00  0.00    -0.324 N 
ATOM     23  C   UNL A   1      32.355  20.730  22.693  1.00  0.00     0.323 C 
ATOM     24  O   UNL A   1      31.963  20.704  21.518  1.00  0.00    -0.248 OA
ATOM     25  H   UNL A   1      32.269  22.675  22.597  1.00  0.00     0.173 HD
ENDBRANCH  10  15
ENDBRANCH   7   9
ENDBRANCH   6   7
ENDBRANCH   5   6
ENDBRANCH   4   5
ENDBRANCH   3   4
ENDBRANCH   2   3
ENDBRANCH   1   2
BRANCH   1  26
ATOM     26  O   UNL A   1      32.370  30.612  26.301  1.00  0.00    -0.376 OA
BRANCH  26  27
ATOM     27  C   UNL A   1      31.436  31.659  26.532  1.00  0.00     0.202 C 
BRANCH  27  28
ATOM     28  C   UNL A   1      32.041  33.020  26.916  1.00  0.00     0.261 C 
BRANCH  28  29
ATOM     29  O   UNL A   1      32.934  33.008  28.046  1.00  0.00    -0.460 OA
BRANCH  29  30
ATOM     30  C   UNL A   1      34.000  33.833  27.995  1.00  0.00     0.338 C 
ATOM     31  O   UNL A   1      33.985  35.048  27.844  1.00  0.00    -0.246 OA
BRANCH  30  32
ATOM     32  C   UNL A   1      35.206  33.060  28.355  1.00  0.00     0.060 A 
ATOM     33  C   UNL A   1      35.064  31.703  28.673  1.00  0.00     0.016 A 
ATOM     34  C   UNL A   1      36.464  33.666  28.396  1.00  0.00     0.016 A 
ATOM     35  C   UNL A   1      36.175  30.960  29.076  1.00  0.00     0.010 A 
ATOM     36  C   UNL A   1      37.575  32.924  28.818  1.00  0.00     0.010 A 
ATOM     37  C   UNL A   1      37.428  31.578  29.198  1.00  0.00    -0.014 A 
BRANCH  37  38
ATOM     38  C   UNL A   1      38.516  30.872  29.920  1.00  0.00     0.031 A 
ATOM     39  C   UNL A   1      38.726  31.181  31.378  1.00  0.00     0.074 A 
ATOM     40  C   UNL A   1      39.275  29.938  29.320  1.00  0.00     0.049 A 
ATOM     41  N   UNL A   1      39.569  30.657  32.233  1.00  0.00    -0.248 NA
ATOM     42  C   UNL A   1      37.860  32.224  31.951  1.00  0.00     0.031 C 
ATOM     43  C   UNL A   1      39.158  29.524  27.925  1.00  0.00     0.029 A 
ATOM     44  N   UNL A   1      40.294  29.165  29.820  1.00  0.00    -0.354 N 
ATOM     45  C   UNL A   1      39.335  31.305  33.438  1.00  0.00     0.074 A 
ATOM     46  C   UNL A   1      38.299  32.287  33.197  1.00  0.00     0.031 C 
ATOM     47  C   UNL A   1      40.069  28.564  27.680  1.00  0.00     0.029 A 
ATOM     48  C   UNL A   1      40.844  28.313  28.896  1.00  0.00     0.049 A 
ATOM     49  H   UNL A   1      40.602  29.217  30.754  1.00  0.00     0.167 HD
ATOM     50  C   UNL A   1      39.919  31.097  34.643  1.00  0.00     0.037 A 
ATOM     51  C   UNL A   1      41.857  27.433  29.019  1.00  0.00     0.037 A 
ATOM     52  C   UNL A   1      40.958  30.131  34.884  1.00  0.00     0.049 A 
ATOM     53  C   UNL A   1      42.539  27.263  30.354  1.00  0.00     0.074 A 
ATOM     54  C   UNL A   1      41.602  29.832  36.073  1.00  0.00     0.029 A 
ATOM     55  N   UNL A   1      41.517  29.316  33.911  1.00  0.00    -0.354 N 
ATOM     56  N   UNL A   1      42.280  27.846  31.499  1.00  0.00    -0.248 NA
ATOM     57  C   UNL A   1      43.650  26.302  30.409  1.00  0.00     0.031 C 
ATOM     58  C   UNL A   1      42.587  28.873  35.807  1.00  0.00     0.029 A 
ATOM     59  C   UNL A   1      42.516  28.531  34.467  1.00  0.00     0.049 A 
ATOM     60  H   UNL A   1      41.245  29.296  32.965  1.00  0.00     0.167 HD
ATOM     61  C   UNL A   1      43.166  27.295  32.418  1.00  0.00     0.074 A 
ATOM     62  C   UNL A   1      43.966  26.327  31.697  1.00  0.00     0.031 C 
ATOM     63  C   UNL A   1      43.299  27.561  33.742  1.00  0.00     0.037 A 
BRANCH  50  64
ATOM     64  C   UNL A   1      39.464  31.964  35.781  1.00  0.00     0.064 A 
ATOM     65  C   UNL A   1      38.434  31.566  36.647  1.00  0.00     0.173 A 
ATOM     66  C   UNL A   1      40.060  33.215  36.002  1.00  0.00     0.173 A 
ATOM     67  F   UNL A   1      37.819  30.387  36.468  1.00  0.00    -0.203 F 
ATOM     68  C   UNL A   1      37.989  32.406  37.665  1.00  0.00     0.198 A 
ATOM     69  C   UNL A   1      39.634  34.038  37.041  1.00  0.00     0.198 A 
ATOM     70  F   UNL A   1      41.051  33.643  35.206  1.00  0.00    -0.203 F 
ATOM     71  F   UNL A   1      36.958  32.033  38.437  1.00  0.00    -0.200 F 
ATOM     72  C   UNL A   1      38.591  33.639  37.864  1.00  0.00     0.200 A 
ATOM     73  F   UNL A   1      40.224  35.225  37.238  1.00  0.00    -0.200 F 
ATOM     74  F   UNL A   1      38.159  34.449  38.839  1.00  0.00    -0.200 F 
ENDBRANCH  50  64
BRANCH  51  75
ATOM     75  C   UNL A   1      42.274  26.615  27.850  1.00  0.00     0.064 A 
ATOM     76  C   UNL A   1      43.269  27.068  26.972  1.00  0.00     0.173 A 
ATOM     77  C   UNL A   1      41.679  25.375  27.578  1.00  0.00     0.173 A 
ATOM     78  F   UNL A   1      43.846  28.262  27.174  1.00  0.00    -0.203 F 
ATOM     79  C   UNL A   1      43.645  26.317  25.861  1.00  0.00     0.198 A 
ATOM     80  C   UNL A   1      42.074  24.612  26.481  1.00  0.00     0.198 A 
ATOM     81  F   UNL A   1      40.717  24.901  28.383  1.00  0.00    -0.203 F 
ATOM     82  F   UNL A   1      44.569  26.792  25.016  1.00  0.00    -0.200 F 
ATOM     83  C   UNL A   1      43.052  25.086  25.619  1.00  0.00     0.200 A 
ATOM     84  F   UNL A   1      41.502  23.422  26.254  1.00  0.00    -0.200 F 
ATOM     85  F   UNL A   1      43.417  24.362  24.552  1.00  0.00    -0.200 F 
ENDBRANCH  51  75
BRANCH  63  86
ATOM     86  C   UNL A   1      44.310  26.757  34.513  1.00  0.00     0.064 A 
ATOM     87  C   UNL A   1      43.976  25.548  35.141  1.00  0.00     0.173 A 
ATOM     88  C   UNL A   1      45.641  27.194  34.598  1.00  0.00     0.173 A 
ATOM     89  F   UNL A   1      42.716  25.091  35.100  1.00  0.00    -0.203 F 
ATOM     90  C   UNL A   1      44.930  24.825  35.854  1.00  0.00     0.198 A 
ATOM     91  C   UNL A   1      46.599  26.452  35.285  1.00  0.00     0.198 A 
ATOM     92  F   UNL A   1      46.017  28.339  34.008  1.00  0.00    -0.203 F 
ATOM     93  F   UNL A   1      44.574  23.701  36.494  1.00  0.00    -0.200 F 
ATOM     94  C   UNL A   1      46.240  25.273  35.921  1.00  0.00     0.200 A 
ATOM     95  F   UNL A   1      47.867  26.881  35.335  1.00  0.00    -0.200 F 
ATOM     96  F   UNL A   1      47.156  24.576  36.605  1.00  0.00    -0.200 F 
ENDBRANCH  63  86
ENDBRANCH  37  38
ENDBRANCH  30  32
ENDBRANCH  29  30
ENDBRANCH  28  29
ENDBRANCH  27  28
ENDBRANCH  26  27
ENDBRANCH   1  26
TORSDOF 18
ENDMDL
MODEL 3
REMARK VINA RESULT:     -11.4      5.255     10.608
REMARK SMILES CC1CCN(C(=O)Nc2nccnc2C(=O)OCCOCCOCCOC(=O)c2ccc(-c3c4nc(c(-c5c(F)c(F)c(F)c(F)c5F)c5ccc([nH]5)c(-c5c(F)c(F)c(F)c(F)c5F)c5nc(c(-c6c(F)c(F)c(F)c(F)c6F)c6ccc3[nH]6)C=C5)C=C4)cc2)CC1
REMARK SMILES IDX 22 1 21 2 20 3 19 4 18 5 17 6 15 7 16 8 14 9 9 10 10 11
REMARK SMILES IDX 11 12 13 13 12 14 8 15 1 16 2 17 3 18 93 19 4 20 92 21 5 22
REMARK SMILES IDX 6 23 7 24 23 26 24 27 25 28 26 29 27 30 28 31 29 32 30 33
REMARK SMILES IDX 91 34 31 35 90 36 32 37 33 38 34 39 84 40 35 41 89 42 83 43
REMARK SMILES IDX 85 44 36 45 88 46 82 47 81 48 37 50 69 51 49 52 68 53 50 54
REMARK SMILES IDX 53 55 67 56 86 57 51 58 52 59 66 61 87 62 54 63 38 64 39 65
REMARK SMILES IDX 47 66 40 67 41 68 45 69 48 70 42 71 43 72 46 73 44 74 70 75
REMARK SMILES IDX 71 76 79 77 72 78 73 79 77 80 80 81 74 82 75 83 78 84 76 85
REMARK SMILES IDX 55 86 56 87 64 88 57 89 58 90 62 91 65 92 59 93 60 94 63 95
REMARK SMILES IDX 61 96
REMARK H PARENT 8 25 85 49 53 60
REMARK Flexibility Score: inf
ROOT
ATOM      1  C   UNL A   1      41.506  20.327  26.520  1.00  0.00     0.188 C 
ENDROOT
BRANCH   1   2
ATOM      2  C   UNL A   1      40.086  20.768  26.112  1.00  0.00     0.188 C 
BRANCH   2   3
ATOM      3  O   UNL A   1      39.729  22.145  26.122  1.00  0.00    -0.376 OA
BRANCH   3   4
ATOM      4  C   UNL A   1      38.358  22.523  26.097  1.00  0.00     0.202 C 
BRANCH   4   5
ATOM      5  C   UNL A   1      37.358  21.619  25.360  1.00  0.00     0.261 C 
BRANCH   5   6
ATOM      6  O   UNL A   1      36.092  22.246  25.070  1.00  0.00    -0.458 OA
BRANCH   6   7
ATOM      7  C   UNL A   1      35.106  22.006  25.974  1.00  0.00     0.360 C 
ATOM      8  O   UNL A   1      34.951  22.616  27.022  1.00  0.00    -0.244 OA
BRANCH   7   9
ATOM      9  C   UNL A   1      34.127  20.979  25.497  1.00  0.00     0.191 A 
ATOM     10  C   UNL A   1      32.733  21.025  25.676  1.00  0.00     0.167 A 
ATOM     11  N   UNL A   1      31.962  20.095  25.064  1.00  0.00    -0.235 NA
ATOM     12  C   UNL A   1      32.577  19.078  24.419  1.00  0.00     0.133 A 
ATOM     13  N   UNL A   1      34.744  19.931  24.857  1.00  0.00    -0.244 NA
ATOM     14  C   UNL A   1      33.946  18.979  24.345  1.00  0.00     0.132 A 
BRANCH  10  15
ATOM     15  N   UNL A   1      32.120  21.994  26.483  1.00  0.00    -0.290 N 
ATOM     16  C   UNL A   1      33.121  25.907  21.837  1.00  0.00     0.008 C 
ATOM     17  C   UNL A   1      32.014  25.293  22.694  1.00  0.00    -0.011 C 
ATOM     18  C   UNL A   1      31.964  25.974  24.076  1.00  0.00     0.025 C 
ATOM     19  C   UNL A   1      32.211  23.772  22.834  1.00  0.00     0.025 C 
ATOM     20  C   UNL A   1      31.036  25.253  25.059  1.00  0.00     0.121 C 
ATOM     21  C   UNL A   1      31.181  23.190  23.806  1.00  0.00     0.121 C 
ATOM     22  N   UNL A   1      31.349  23.822  25.109  1.00  0.00    -0.324 N 
ATOM     23  C   UNL A   1      31.685  23.263  26.312  1.00  0.00     0.323 C 
ATOM     24  O   UNL A   1      31.531  23.896  27.366  1.00  0.00    -0.248 OA
ATOM     25  H   UNL A   1      31.966  21.671  27.400  1.00  0.00     0.173 HD
ENDBRANCH  10  15
ENDBRANCH   7   9
ENDBRANCH   6   7
ENDBRANCH   5   6
ENDBRANCH   4   5
ENDBRANCH   3   4
ENDBRANCH   2   3
ENDBRANCH   1   2
BRANCH   1  26
ATOM     26  O   UNL A   1      42.327  19.911  25.447  1.00  0.00    -0.376 OA
BRANCH  26  27
ATOM     27  C   UNL A   1      43.631  20.478  25.410  1.00  0.00     0.202 C 
BRANCH  27  28
ATOM     28  C   UNL A   1      43.751  21.911  25.954  1.00  0.00     0.261 C 
BRANCH  28  29
ATOM     29  O   UNL A   1      43.253  22.949  25.088  1.00  0.00    -0.460 OA
BRANCH  29  30
ATOM     30  C   UNL A   1      43.917  24.123  25.090  1.00  0.00     0.338 C 
ATOM     31  O   UNL A   1      44.849  24.444  24.364  1.00  0.00    -0.246 OA
BRANCH  30  32
ATOM     32  C   UNL A   1      43.209  25.057  25.990  1.00  0.00     0.060 A 
ATOM     33  C   UNL A   1      43.820  26.278  26.306  1.00  0.00     0.016 A 
ATOM     34  C   UNL A   1      41.964  24.730  26.532  1.00  0.00     0.016 A 
ATOM     35  C   UNL A   1      43.206  27.155  27.201  1.00  0.00     0.010 A 
ATOM     36  C   UNL A   1      41.358  25.603  27.444  1.00  0.00     0.010 A 
ATOM     37  C   UNL A   1      41.995  26.801  27.813  1.00  0.00    -0.014 A 
BRANCH  37  38
ATOM     38  C   UNL A   1      41.519  27.583  28.982  1.00  0.00     0.031 A 
ATOM     39  C   UNL A   1      42.296  27.493  30.268  1.00  0.00     0.074 A 
ATOM     40  C   UNL A   1      40.453  28.398  28.903  1.00  0.00     0.049 A 
ATOM     41  N   UNL A   1      42.114  28.120  31.403  1.00  0.00    -0.248 NA
ATOM     42  C   UNL A   1      43.440  26.567  30.270  1.00  0.00     0.031 C 
ATOM     43  C   UNL A   1      39.631  28.600  27.714  1.00  0.00     0.029 A 
ATOM     44  N   UNL A   1      39.885  29.214  29.851  1.00  0.00    -0.354 N 
ATOM     45  C   UNL A   1      43.116  27.666  32.250  1.00  0.00     0.074 A 
ATOM     46  C   UNL A   1      43.880  26.682  31.512  1.00  0.00     0.031 C 
ATOM     47  C   UNL A   1      38.664  29.491  28.001  1.00  0.00     0.029 A 
ATOM     48  C   UNL A   1      38.789  29.905  29.399  1.00  0.00     0.049 A 
ATOM     49  H   UNL A   1      40.232  29.296  30.769  1.00  0.00     0.167 HD
ATOM     50  C   UNL A   1      43.387  28.039  33.524  1.00  0.00     0.037 A 
ATOM     51  C   UNL A   1      37.981  30.770  30.042  1.00  0.00     0.037 A 
ATOM     52  C   UNL A   1      42.622  29.006  34.265  1.00  0.00     0.049 A 
ATOM     53  C   UNL A   1      38.261  31.123  31.482  1.00  0.00     0.074 A 
ATOM     54  C   UNL A   1      42.827  29.467  35.555  1.00  0.00     0.029 A 
ATOM     55  N   UNL A   1      41.493  29.653  33.786  1.00  0.00    -0.354 N 
ATOM     56  N   UNL A   1      39.238  30.726  32.260  1.00  0.00    -0.248 NA
ATOM     57  C   UNL A   1      37.325  32.056  32.126  1.00  0.00     0.031 C 
ATOM     58  C   UNL A   1      41.790  30.352  35.873  1.00  0.00     0.029 A 
ATOM     59  C   UNL A   1      40.974  30.490  34.762  1.00  0.00     0.049 A 
ATOM     60  H   UNL A   1      41.115  29.536  32.884  1.00  0.00     0.167 HD
ATOM     61  C   UNL A   1      39.059  31.389  33.469  1.00  0.00     0.074 A 
ATOM     62  C   UNL A   1      37.882  32.218  33.319  1.00  0.00     0.031 C 
ATOM     63  C   UNL A   1      39.808  31.321  34.598  1.00  0.00     0.037 A 
BRANCH  50  64
ATOM     64  C   UNL A   1      44.544  27.364  34.202  1.00  0.00     0.064 A 
ATOM     65  C   UNL A   1      44.383  26.176  34.931  1.00  0.00     0.173 A 
ATOM     66  C   UNL A   1      45.830  27.920  34.130  1.00  0.00     0.173 A 
ATOM     67  F   UNL A   1      43.170  25.614  35.046  1.00  0.00    -0.203 F 
ATOM     68  C   UNL A   1      45.458  25.593  35.598  1.00  0.00     0.198 A 
ATOM     69  C   UNL A   1      46.909  27.317  34.772  1.00  0.00     0.198 A 
ATOM     70  F   UNL A   1      46.041  29.053  33.444  1.00  0.00    -0.203 F 
ATOM     71  F   UNL A   1      45.266  24.495  36.344  1.00  0.00    -0.200 F 
ATOM     72  C   UNL A   1      46.720  26.161  35.514  1.00  0.00     0.200 A 
ATOM     73  F   UNL A   1      48.130  27.861  34.681  1.00  0.00    -0.200 F 
ATOM     74  F   UNL A   1      47.752  25.603  36.161  1.00  0.00    -0.200 F 
ENDBRANCH  50  64
BRANCH  51  75
ATOM     75  C   UNL A   1      36.840  31.393  29.322  1.00  0.00     0.064 A 
ATOM     76  C   UNL A   1      35.713  30.638  28.967  1.00  0.00     0.173 A 
ATOM     77  C   UNL A   1      36.858  32.748  28.961  1.00  0.00     0.173 A 
ATOM     78  F   UNL A   1      35.663  29.331  29.264  1.00  0.00    -0.203 F 
ATOM     79  C   UNL A   1      34.652  31.212  28.269  1.00  0.00     0.198 A 
ATOM     80  C   UNL A   1      35.785  33.327  28.285  1.00  0.00     0.198 A 
ATOM     81  F   UNL A   1      37.916  33.512  29.270  1.00  0.00    -0.203 F 
ATOM     82  F   UNL A   1      33.606  30.457  27.907  1.00  0.00    -0.200 F 
ATOM     83  C   UNL A   1      34.686  32.557  27.934  1.00  0.00     0.200 A 
ATOM     84  F   UNL A   1      35.819  34.629  27.968  1.00  0.00    -0.200 F 
ATOM     85  F   UNL A   1      33.664  33.109  27.266  1.00  0.00    -0.200 F 
ENDBRANCH  51  75
BRANCH  63  86
ATOM     86  C   UNL A   1      39.412  32.209  35.746  1.00  0.00     0.064 A 
ATOM     87  C   UNL A   1      39.940  33.499  35.906  1.00  0.00     0.173 A 
ATOM     88  C   UNL A   1      38.466  31.767  36.685  1.00  0.00     0.173 A 
ATOM     89  F   UNL A   1      40.855  33.965  35.044  1.00  0.00    -0.203 F 
ATOM     90  C   UNL A   1      39.561  34.300  36.981  1.00  0.00     0.198 A 
ATOM     91  C   UNL A   1      38.066  32.583  37.741  1.00  0.00     0.198 A 
ATOM     92  F   UNL A   1      37.923  30.546  36.575  1.00  0.00    -0.203 F 
ATOM     93  F   UNL A   1      40.121  35.506  37.145  1.00  0.00    -0.200 F 
ATOM     94  C   UNL A   1      38.621  33.844  37.893  1.00  0.00     0.200 A 
ATOM     95  F   UNL A   1      37.147  32.145  38.611  1.00  0.00    -0.200 F 
ATOM     96  F   UNL A   1      38.257  34.616  38.926  1.00  0.00    -0.200 F 
ENDBRANCH  63  86
ENDBRANCH  37  38
ENDBRANCH  30  32
ENDBRANCH  29  30
ENDBRANCH  28  29
ENDBRANCH  27  28
ENDBRANCH  26  27
ENDBRANCH   1  26
TORSDOF 18
ENDMDL
