MODEL 1
REMARK VINA RESULT:     -11.4      0.000      0.000
REMARK SMILES C[N@H+]1CCO[C@H](c2noc(-c3ccccc3C(=O)OCCOCCOCCOC(=O)c3ccc(-c4c5nc(c(-c6c(F)c(F)c(F)c(F)c6F)c6ccc([nH]6)c(-c6c(F)c(F)c(F)c(F)c6F)c6nc(c(-c7c(F)c(F)c(F)c(F)c7F)c7ccc4[nH]7)C=C6)C=C5)cc3)n2)C1
REMARK SMILES IDX 23 1 22 2 21 3 20 4 19 5 17 6 18 7 16 8 11 9 12 10 13 11
REMARK SMILES IDX 15 12 14 13 10 14 7 15 8 16 94 17 9 18 6 19 1 20 2 21 3 22
REMARK SMILES IDX 95 23 4 25 5 26 24 27 25 28 26 29 27 30 28 31 29 32 30 33
REMARK SMILES IDX 31 34 32 35 93 36 33 37 92 38 34 39 35 40 36 41 86 42 37 43
REMARK SMILES IDX 91 44 85 45 87 46 38 47 90 48 84 49 83 50 39 52 71 53 51 54
REMARK SMILES IDX 70 55 52 56 55 57 69 58 88 59 53 60 54 61 68 63 89 64 56 65
REMARK SMILES IDX 40 66 41 67 49 68 42 69 43 70 47 71 50 72 44 73 45 74 48 75
REMARK SMILES IDX 46 76 72 77 73 78 81 79 74 80 75 81 79 82 82 83 76 84 77 85
REMARK SMILES IDX 80 86 78 87 57 88 58 89 66 90 59 91 60 92 64 93 67 94 61 95
REMARK SMILES IDX 62 96 65 97 63 98
REMARK H PARENT 2 24 87 51 55 62
REMARK Flexibility Score: inf
ROOT
ATOM      1  C   UNL A   1      35.190  32.611  28.253  1.00  0.00     0.188 C 
ENDROOT
BRANCH   1   2
ATOM      2  O   UNL A   1      34.756  31.564  27.403  1.00  0.00    -0.376 OA
BRANCH   2   3
ATOM      3  C   UNL A   1      35.191  30.237  27.663  1.00  0.00     0.202 C 
BRANCH   3   4
ATOM      4  C   UNL A   1      34.503  29.030  27.011  1.00  0.00     0.261 C 
BRANCH   4   5
ATOM      5  O   UNL A   1      33.412  29.369  26.148  1.00  0.00    -0.460 OA
BRANCH   5   6
ATOM      6  C   UNL A   1      32.180  28.952  26.528  1.00  0.00     0.339 C 
ATOM      7  O   UNL A   1      31.690  29.053  27.641  1.00  0.00    -0.246 OA
BRANCH   6   8
ATOM      8  C   UNL A   1      31.367  28.580  25.338  1.00  0.00     0.072 A 
ATOM      9  C   UNL A   1      31.048  27.261  24.964  1.00  0.00     0.054 A 
ATOM     10  C   UNL A   1      30.266  27.070  23.807  1.00  0.00     0.015 A 
ATOM     11  C   UNL A   1      29.858  28.150  23.019  1.00  0.00     0.001 A 
ATOM     12  C   UNL A   1      30.961  29.663  24.533  1.00  0.00     0.016 A 
ATOM     13  C   UNL A   1      30.224  29.445  23.370  1.00  0.00     0.001 A 
BRANCH   9  14
ATOM     14  C   UNL A   1      31.563  26.109  25.689  1.00  0.00     0.258 A 
ATOM     15  C   UNL A   1      32.246  24.199  26.184  1.00  0.00     0.206 A 
ATOM     16  N   UNL A   1      31.348  24.451  27.148  1.00  0.00    -0.059 NA
ATOM     17  N   UNL A   1      32.503  25.261  25.352  1.00  0.00    -0.189 NA
ATOM     18  O   UNL A   1      30.873  25.723  26.807  1.00  0.00    -0.334 OA
BRANCH  15  19
ATOM     19  C   UNL A   1      32.813  22.836  25.929  1.00  0.00     0.245 C 
ATOM     20  C   UNL A   1      35.383  21.022  25.484  1.00  0.00     0.332 C 
ATOM     21  N   UNL A   1      34.513  21.599  24.465  1.00  0.00    -0.333 N 
ATOM     22  C   UNL A   1      33.400  20.696  24.107  1.00  0.00     0.290 C 
ATOM     23  C   UNL A   1      33.955  22.905  24.881  1.00  0.00     0.303 C 
ATOM     24  H   UNL A   1      35.106  21.738  23.647  1.00  0.00     0.348 HD
ATOM     25  C   UNL A   1      32.280  20.645  25.162  1.00  0.00     0.222 C 
ATOM     26  O   UNL A   1      31.771  21.947  25.452  1.00  0.00    -0.358 OA
ENDBRANCH  15  19
ENDBRANCH   9  14
ENDBRANCH   6   8
ENDBRANCH   5   6
ENDBRANCH   4   5
ENDBRANCH   3   4
ENDBRANCH   2   3
ENDBRANCH   1   2
BRANCH   1  27
ATOM     27  C   UNL A   1      34.216  33.745  28.644  1.00  0.00     0.188 C 
BRANCH  27  28
ATOM     28  O   UNL A   1      34.501  35.044  28.195  1.00  0.00    -0.376 OA
BRANCH  28  29
ATOM     29  C   UNL A   1      33.809  36.160  28.727  1.00  0.00     0.202 C 
BRANCH  29  30
ATOM     30  C   UNL A   1      32.665  36.106  29.762  1.00  0.00     0.261 C 
BRANCH  30  31
ATOM     31  O   UNL A   1      32.811  36.839  30.984  1.00  0.00    -0.460 OA
BRANCH  31  32
ATOM     32  C   UNL A   1      32.516  36.164  32.126  1.00  0.00     0.338 C 
ATOM     33  O   UNL A   1      31.458  36.130  32.719  1.00  0.00    -0.246 OA
BRANCH  32  34
ATOM     34  C   UNL A   1      33.669  35.300  32.457  1.00  0.00     0.060 A 
ATOM     35  C   UNL A   1      33.437  34.007  32.949  1.00  0.00     0.016 A 
ATOM     36  C   UNL A   1      34.970  35.761  32.263  1.00  0.00     0.016 A 
ATOM     37  C   UNL A   1      34.511  33.155  33.213  1.00  0.00     0.010 A 
ATOM     38  C   UNL A   1      36.045  34.919  32.563  1.00  0.00     0.010 A 
ATOM     39  C   UNL A   1      35.823  33.613  33.038  1.00  0.00    -0.014 A 
BRANCH  39  40
ATOM     40  C   UNL A   1      36.980  32.775  33.434  1.00  0.00     0.031 A 
ATOM     41  C   UNL A   1      37.691  33.077  34.721  1.00  0.00     0.074 A 
ATOM     42  C   UNL A   1      37.415  31.779  32.640  1.00  0.00     0.049 A 
ATOM     43  N   UNL A   1      38.812  32.591  35.187  1.00  0.00    -0.248 NA
ATOM     44  C   UNL A   1      37.049  34.066  35.603  1.00  0.00     0.031 C 
ATOM     45  C   UNL A   1      36.782  31.354  31.393  1.00  0.00     0.029 A 
ATOM     46  N   UNL A   1      38.516  30.964  32.754  1.00  0.00    -0.354 N 
ATOM     47  C   UNL A   1      39.013  33.214  36.411  1.00  0.00     0.074 A 
ATOM     48  C   UNL A   1      37.911  34.132  36.607  1.00  0.00     0.031 C 
ATOM     49  C   UNL A   1      37.525  30.381  30.838  1.00  0.00     0.029 A 
ATOM     50  C   UNL A   1      38.709  30.149  31.664  1.00  0.00     0.049 A 
ATOM     51  H   UNL A   1      39.108  30.962  33.540  1.00  0.00     0.167 HD
ATOM     52  C   UNL A   1      40.023  33.030  37.292  1.00  0.00     0.037 A 
ATOM     53  C   UNL A   1      39.749  29.350  31.347  1.00  0.00     0.037 A 
ATOM     54  C   UNL A   1      41.126  32.126  37.087  1.00  0.00     0.049 A 
ATOM     55  C   UNL A   1      40.922  29.254  32.294  1.00  0.00     0.074 A 
ATOM     56  C   UNL A   1      42.197  31.868  37.924  1.00  0.00     0.029 A 
ATOM     57  N   UNL A   1      41.303  31.341  35.957  1.00  0.00    -0.354 N 
ATOM     58  N   UNL A   1      41.098  29.825  33.461  1.00  0.00    -0.248 NA
ATOM     59  C   UNL A   1      42.049  28.406  31.873  1.00  0.00     0.031 C 
ATOM     60  C   UNL A   1      43.051  30.970  37.278  1.00  0.00     0.029 A 
ATOM     61  C   UNL A   1      42.483  30.623  36.063  1.00  0.00     0.049 A 
ATOM     62  H   UNL A   1      40.681  31.299  35.195  1.00  0.00     0.167 HD
ATOM     63  C   UNL A   1      42.335  29.391  33.920  1.00  0.00     0.074 A 
ATOM     64  C   UNL A   1      42.857  28.486  32.919  1.00  0.00     0.031 C 
ATOM     65  C   UNL A   1      42.986  29.717  35.063  1.00  0.00     0.037 A 
BRANCH  52  66
ATOM     66  C   UNL A   1      40.002  33.831  38.559  1.00  0.00     0.064 A 
ATOM     67  C   UNL A   1      40.693  35.047  38.669  1.00  0.00     0.173 A 
ATOM     68  C   UNL A   1      39.224  33.416  39.652  1.00  0.00     0.173 A 
ATOM     69  F   UNL A   1      41.460  35.481  37.659  1.00  0.00    -0.203 F 
ATOM     70  C   UNL A   1      40.615  35.811  39.830  1.00  0.00     0.198 A 
ATOM     71  C   UNL A   1      39.126  34.197  40.799  1.00  0.00     0.198 A 
ATOM     72  F   UNL A   1      38.540  32.264  39.596  1.00  0.00    -0.203 F 
ATOM     73  F   UNL A   1      41.309  36.954  39.926  1.00  0.00    -0.200 F 
ATOM     74  C   UNL A   1      39.825  35.392  40.890  1.00  0.00     0.200 A 
ATOM     75  F   UNL A   1      38.348  33.798  41.815  1.00  0.00    -0.200 F 
ATOM     76  F   UNL A   1      39.736  36.139  41.999  1.00  0.00    -0.200 F 
ENDBRANCH  52  66
BRANCH  53  77
ATOM     77  C   UNL A   1      39.772  28.619  30.050  1.00  0.00     0.064 A 
ATOM     78  C   UNL A   1      39.263  27.316  29.943  1.00  0.00     0.173 A 
ATOM     79  C   UNL A   1      40.365  29.179  28.909  1.00  0.00     0.173 A 
ATOM     80  F   UNL A   1      38.714  26.722  31.013  1.00  0.00    -0.203 F 
ATOM     81  C   UNL A   1      39.380  26.592  28.757  1.00  0.00     0.198 A 
ATOM     82  C   UNL A   1      40.446  28.469  27.713  1.00  0.00     0.198 A 
ATOM     83  F   UNL A   1      40.875  30.418  28.957  1.00  0.00    -0.203 F 
ATOM     84  F   UNL A   1      38.953  25.322  28.707  1.00  0.00    -0.200 F 
ATOM     85  C   UNL A   1      39.967  27.171  27.643  1.00  0.00     0.200 A 
ATOM     86  F   UNL A   1      41.007  29.035  26.637  1.00  0.00    -0.200 F 
ATOM     87  F   UNL A   1      40.088  26.469  26.507  1.00  0.00    -0.200 F 
ENDBRANCH  53  77
BRANCH  65  88
ATOM     88  C   UNL A   1      44.324  29.077  35.311  1.00  0.00     0.064 A 
ATOM     89  C   UNL A   1      44.433  27.814  35.911  1.00  0.00     0.173 A 
ATOM     90  C   UNL A   1      45.505  29.707  34.890  1.00  0.00     0.173 A 
ATOM     91  F   UNL A   1      43.335  27.175  36.345  1.00  0.00    -0.203 F 
ATOM     92  C   UNL A   1      45.675  27.214  36.099  1.00  0.00     0.198 A 
ATOM     93  C   UNL A   1      46.742  29.090  35.050  1.00  0.00     0.198 A 
ATOM     94  F   UNL A   1      45.458  30.912  34.304  1.00  0.00    -0.203 F 
ATOM     95  F   UNL A   1      45.758  26.027  36.714  1.00  0.00    -0.200 F 
ATOM     96  C   UNL A   1      46.828  27.848  35.660  1.00  0.00     0.200 A 
ATOM     97  F   UNL A   1      47.854  29.696  34.608  1.00  0.00    -0.200 F 
ATOM     98  F   UNL A   1      48.021  27.262  35.827  1.00  0.00    -0.200 F 
ENDBRANCH  65  88
ENDBRANCH  39  40
ENDBRANCH  32  34
ENDBRANCH  31  32
ENDBRANCH  30  31
ENDBRANCH  29  30
ENDBRANCH  28  29
ENDBRANCH  27  28
ENDBRANCH   1  27
TORSDOF 19
ENDMDL
MODEL 2
REMARK VINA RESULT:     -11.3      1.444      3.609
REMARK SMILES C[N@H+]1CCO[C@H](c2noc(-c3ccccc3C(=O)OCCOCCOCCOC(=O)c3ccc(-c4c5nc(c(-c6c(F)c(F)c(F)c(F)c6F)c6ccc([nH]6)c(-c6c(F)c(F)c(F)c(F)c6F)c6nc(c(-c7c(F)c(F)c(F)c(F)c7F)c7ccc4[nH]7)C=C6)C=C5)cc3)n2)C1
REMARK SMILES IDX 23 1 22 2 21 3 20 4 19 5 17 6 18 7 16 8 11 9 12 10 13 11
REMARK SMILES IDX 15 12 14 13 10 14 7 15 8 16 94 17 9 18 6 19 1 20 2 21 3 22
REMARK SMILES IDX 95 23 4 25 5 26 24 27 25 28 26 29 27 30 28 31 29 32 30 33
REMARK SMILES IDX 31 34 32 35 93 36 33 37 92 38 34 39 35 40 36 41 86 42 37 43
REMARK SMILES IDX 91 44 85 45 87 46 38 47 90 48 84 49 83 50 39 52 71 53 51 54
REMARK SMILES IDX 70 55 52 56 55 57 69 58 88 59 53 60 54 61 68 63 89 64 56 65
REMARK SMILES IDX 40 66 41 67 49 68 42 69 43 70 47 71 50 72 44 73 45 74 48 75
REMARK SMILES IDX 46 76 72 77 73 78 81 79 74 80 75 81 79 82 82 83 76 84 77 85
REMARK SMILES IDX 80 86 78 87 57 88 58 89 66 90 59 91 60 92 64 93 67 94 61 95
REMARK SMILES IDX 62 96 65 97 63 98
REMARK H PARENT 2 24 87 51 55 62
REMARK Flexibility Score: inf
ROOT
ATOM      1  C   UNL A   1      35.067  32.249  28.022  1.00  0.00     0.188 C 
ENDROOT
BRANCH   1   2
ATOM      2  O   UNL A   1      34.695  30.904  28.263  1.00  0.00    -0.376 OA
BRANCH   2   3
ATOM      3  C   UNL A   1      33.989  30.190  27.258  1.00  0.00     0.202 C 
BRANCH   3   4
ATOM      4  C   UNL A   1      34.595  28.951  26.585  1.00  0.00     0.261 C 
BRANCH   4   5
ATOM      5  O   UNL A   1      33.722  28.298  25.657  1.00  0.00    -0.460 OA
BRANCH   5   6
ATOM      6  C   UNL A   1      33.139  27.148  26.073  1.00  0.00     0.339 C 
ATOM      7  O   UNL A   1      32.221  27.047  26.872  1.00  0.00    -0.246 OA
BRANCH   6   8
ATOM      8  C   UNL A   1      33.580  26.006  25.228  1.00  0.00     0.072 A 
ATOM      9  C   UNL A   1      32.934  25.580  24.051  1.00  0.00     0.054 A 
ATOM     10  C   UNL A   1      33.475  24.480  23.357  1.00  0.00     0.015 A 
ATOM     11  C   UNL A   1      34.591  23.792  23.843  1.00  0.00     0.001 A 
ATOM     12  C   UNL A   1      34.698  25.301  25.716  1.00  0.00     0.016 A 
ATOM     13  C   UNL A   1      35.190  24.189  25.033  1.00  0.00     0.001 A 
BRANCH   9  14
ATOM     14  C   UNL A   1      31.698  26.193  23.588  1.00  0.00     0.258 A 
ATOM     15  C   UNL A   1      30.189  27.567  23.146  1.00  0.00     0.206 A 
ATOM     16  N   UNL A   1      29.516  26.571  23.741  1.00  0.00    -0.059 NA
ATOM     17  N   UNL A   1      31.516  27.300  22.911  1.00  0.00    -0.189 NA
ATOM     18  O   UNL A   1      30.528  25.657  24.057  1.00  0.00    -0.334 OA
BRANCH  15  19
ATOM     19  C   UNL A   1      29.597  28.921  22.896  1.00  0.00     0.245 C 
ATOM     20  C   UNL A   1      27.389  31.080  23.640  1.00  0.00     0.332 C 
ATOM     21  N   UNL A   1      27.356  30.111  22.550  1.00  0.00    -0.333 N 
ATOM     22  C   UNL A   1      27.945  30.651  21.308  1.00  0.00     0.290 C 
ATOM     23  C   UNL A   1      28.048  28.851  22.901  1.00  0.00     0.303 C 
ATOM     24  H   UNL A   1      26.368  29.913  22.391  1.00  0.00     0.348 HD
ATOM     25  C   UNL A   1      29.484  30.710  21.327  1.00  0.00     0.222 C 
ATOM     26  O   UNL A   1      30.055  29.435  21.619  1.00  0.00    -0.358 OA
ENDBRANCH  15  19
ENDBRANCH   9  14
ENDBRANCH   6   8
ENDBRANCH   5   6
ENDBRANCH   4   5
ENDBRANCH   3   4
ENDBRANCH   2   3
ENDBRANCH   1   2
BRANCH   1  27
ATOM     27  C   UNL A   1      34.174  33.403  28.532  1.00  0.00     0.188 C 
BRANCH  27  28
ATOM     28  O   UNL A   1      34.686  34.708  28.473  1.00  0.00    -0.376 OA
BRANCH  28  29
ATOM     29  C   UNL A   1      33.845  35.825  28.701  1.00  0.00     0.202 C 
BRANCH  29  30
ATOM     30  C   UNL A   1      32.674  35.886  29.706  1.00  0.00     0.261 C 
BRANCH  30  31
ATOM     31  O   UNL A   1      32.810  36.714  30.866  1.00  0.00    -0.460 OA
BRANCH  31  32
ATOM     32  C   UNL A   1      32.553  36.119  32.060  1.00  0.00     0.338 C 
ATOM     33  O   UNL A   1      31.522  36.146  32.700  1.00  0.00    -0.246 OA
BRANCH  32  34
ATOM     34  C   UNL A   1      33.701  35.250  32.394  1.00  0.00     0.060 A 
ATOM     35  C   UNL A   1      33.464  33.989  32.959  1.00  0.00     0.016 A 
ATOM     36  C   UNL A   1      35.003  35.675  32.130  1.00  0.00     0.016 A 
ATOM     37  C   UNL A   1      34.532  33.129  33.228  1.00  0.00     0.010 A 
ATOM     38  C   UNL A   1      36.072  34.828  32.435  1.00  0.00     0.010 A 
ATOM     39  C   UNL A   1      35.844  33.552  32.983  1.00  0.00    -0.014 A 
BRANCH  39  40
ATOM     40  C   UNL A   1      37.000  32.712  33.380  1.00  0.00     0.031 A 
ATOM     41  C   UNL A   1      37.715  33.019  34.664  1.00  0.00     0.074 A 
ATOM     42  C   UNL A   1      37.429  31.711  32.590  1.00  0.00     0.049 A 
ATOM     43  N   UNL A   1      38.836  32.532  35.129  1.00  0.00    -0.248 NA
ATOM     44  C   UNL A   1      37.078  34.014  35.542  1.00  0.00     0.031 C 
ATOM     45  C   UNL A   1      36.792  31.282  31.347  1.00  0.00     0.029 A 
ATOM     46  N   UNL A   1      38.528  30.893  32.705  1.00  0.00    -0.354 N 
ATOM     47  C   UNL A   1      39.042  33.160  36.350  1.00  0.00     0.074 A 
ATOM     48  C   UNL A   1      37.943  34.082  36.544  1.00  0.00     0.031 C 
ATOM     49  C   UNL A   1      37.531  30.304  30.795  1.00  0.00     0.029 A 
ATOM     50  C   UNL A   1      38.716  30.073  31.618  1.00  0.00     0.049 A 
ATOM     51  H   UNL A   1      39.123  30.894  33.490  1.00  0.00     0.167 HD
ATOM     52  C   UNL A   1      40.054  32.977  37.230  1.00  0.00     0.037 A 
ATOM     53  C   UNL A   1      39.752  29.270  31.303  1.00  0.00     0.037 A 
ATOM     54  C   UNL A   1      41.153  32.068  37.025  1.00  0.00     0.049 A 
ATOM     55  C   UNL A   1      40.928  29.174  32.247  1.00  0.00     0.074 A 
ATOM     56  C   UNL A   1      42.226  31.812  37.861  1.00  0.00     0.029 A 
ATOM     57  N   UNL A   1      41.325  31.277  35.899  1.00  0.00    -0.354 N 
ATOM     58  N   UNL A   1      41.108  29.750  33.410  1.00  0.00    -0.248 NA
ATOM     59  C   UNL A   1      42.051  28.320  31.828  1.00  0.00     0.031 C 
ATOM     60  C   UNL A   1      43.076  30.907  37.217  1.00  0.00     0.029 A 
ATOM     61  C   UNL A   1      42.503  30.557  36.005  1.00  0.00     0.049 A 
ATOM     62  H   UNL A   1      40.701  31.234  35.139  1.00  0.00     0.167 HD
ATOM     63  C   UNL A   1      42.345  29.314  33.868  1.00  0.00     0.074 A 
ATOM     64  C   UNL A   1      42.862  28.403  32.871  1.00  0.00     0.031 C 
ATOM     65  C   UNL A   1      43.001  29.644  35.008  1.00  0.00     0.037 A 
BRANCH  52  66
ATOM     66  C   UNL A   1      40.038  33.784  38.493  1.00  0.00     0.064 A 
ATOM     67  C   UNL A   1      39.338  33.353  39.629  1.00  0.00     0.173 A 
ATOM     68  C   UNL A   1      40.789  34.966  38.592  1.00  0.00     0.173 A 
ATOM     69  F   UNL A   1      38.596  32.237  39.582  1.00  0.00    -0.203 F 
ATOM     70  C   UNL A   1      39.381  34.082  40.814  1.00  0.00     0.198 A 
ATOM     71  C   UNL A   1      40.853  35.676  39.788  1.00  0.00     0.198 A 
ATOM     72  F   UNL A   1      41.481  35.418  37.536  1.00  0.00    -0.203 F 
ATOM     73  F   UNL A   1      38.679  33.669  41.879  1.00  0.00    -0.200 F 
ATOM     74  C   UNL A   1      40.146  35.236  40.897  1.00  0.00     0.200 A 
ATOM     75  F   UNL A   1      41.606  36.781  39.869  1.00  0.00    -0.200 F 
ATOM     76  F   UNL A   1      40.202  35.925  42.045  1.00  0.00    -0.200 F 
ENDBRANCH  52  66
BRANCH  53  77
ATOM     77  C   UNL A   1      39.770  28.531  30.009  1.00  0.00     0.064 A 
ATOM     78  C   UNL A   1      39.256  27.231  29.910  1.00  0.00     0.173 A 
ATOM     79  C   UNL A   1      40.362  29.085  28.864  1.00  0.00     0.173 A 
ATOM     80  F   UNL A   1      38.708  26.643  30.984  1.00  0.00    -0.203 F 
ATOM     81  C   UNL A   1      39.368  26.500  28.727  1.00  0.00     0.198 A 
ATOM     82  C   UNL A   1      40.438  28.368  27.671  1.00  0.00     0.198 A 
ATOM     83  F   UNL A   1      40.877  30.322  28.904  1.00  0.00    -0.203 F 
ATOM     84  F   UNL A   1      38.936  25.232  28.684  1.00  0.00    -0.200 F 
ATOM     85  C   UNL A   1      39.954  27.071  27.609  1.00  0.00     0.200 A 
ATOM     86  F   UNL A   1      40.999  28.927  26.591  1.00  0.00    -0.200 F 
ATOM     87  F   UNL A   1      40.070  26.364  26.476  1.00  0.00    -0.200 F 
ENDBRANCH  53  77
BRANCH  65  88
ATOM     88  C   UNL A   1      44.337  29.001  35.256  1.00  0.00     0.064 A 
ATOM     89  C   UNL A   1      45.532  29.613  34.851  1.00  0.00     0.173 A 
ATOM     90  C   UNL A   1      44.426  27.790  35.960  1.00  0.00     0.173 A 
ATOM     91  F   UNL A   1      45.502  30.765  34.162  1.00  0.00    -0.203 F 
ATOM     92  C   UNL A   1      46.765  29.027  35.122  1.00  0.00     0.198 A 
ATOM     93  C   UNL A   1      45.662  27.224  36.259  1.00  0.00     0.198 A 
ATOM     94  F   UNL A   1      43.315  27.166  36.378  1.00  0.00    -0.203 F 
ATOM     95  F   UNL A   1      47.892  29.608  34.687  1.00  0.00    -0.200 F 
ATOM     96  C   UNL A   1      46.830  27.838  35.834  1.00  0.00     0.200 A 
ATOM     97  F   UNL A   1      45.723  26.085  36.963  1.00  0.00    -0.200 F 
ATOM     98  F   UNL A   1      48.019  27.284  36.108  1.00  0.00    -0.200 F 
ENDBRANCH  65  88
ENDBRANCH  39  40
ENDBRANCH  32  34
ENDBRANCH  31  32
ENDBRANCH  30  31
ENDBRANCH  29  30
ENDBRANCH  28  29
ENDBRANCH  27  28
ENDBRANCH   1  27
TORSDOF 19
ENDMDL
MODEL 3
REMARK VINA RESULT:     -11.0      1.134      2.233
REMARK SMILES C[N@H+]1CCO[C@H](c2noc(-c3ccccc3C(=O)OCCOCCOCCOC(=O)c3ccc(-c4c5nc(c(-c6c(F)c(F)c(F)c(F)c6F)c6ccc([nH]6)c(-c6c(F)c(F)c(F)c(F)c6F)c6nc(c(-c7c(F)c(F)c(F)c(F)c7F)c7ccc4[nH]7)C=C6)C=C5)cc3)n2)C1
REMARK SMILES IDX 23 1 22 2 21 3 20 4 19 5 17 6 18 7 16 8 11 9 12 10 13 11
REMARK SMILES IDX 15 12 14 13 10 14 7 15 8 16 94 17 9 18 6 19 1 20 2 21 3 22
REMARK SMILES IDX 95 23 4 25 5 26 24 27 25 28 26 29 27 30 28 31 29 32 30 33
REMARK SMILES IDX 31 34 32 35 93 36 33 37 92 38 34 39 35 40 36 41 86 42 37 43
REMARK SMILES IDX 91 44 85 45 87 46 38 47 90 48 84 49 83 50 39 52 71 53 51 54
REMARK SMILES IDX 70 55 52 56 55 57 69 58 88 59 53 60 54 61 68 63 89 64 56 65
REMARK SMILES IDX 40 66 41 67 49 68 42 69 43 70 47 71 50 72 44 73 45 74 48 75
REMARK SMILES IDX 46 76 72 77 73 78 81 79 74 80 75 81 79 82 82 83 76 84 77 85
REMARK SMILES IDX 80 86 78 87 57 88 58 89 66 90 59 91 60 92 64 93 67 94 61 95
REMARK SMILES IDX 62 96 65 97 63 98
REMARK H PARENT 2 24 87 51 55 62
REMARK Flexibility Score: inf
ROOT
ATOM      1  C   UNL A   1      34.541  32.294  27.839  1.00  0.00     0.188 C 
ENDROOT
BRANCH   1   2
ATOM      2  O   UNL A   1      33.979  31.037  28.174  1.00  0.00    -0.376 OA
BRANCH   2   3
ATOM      3  C   UNL A   1      33.410  30.237  27.146  1.00  0.00     0.202 C 
BRANCH   3   4
ATOM      4  C   UNL A   1      32.005  30.521  26.599  1.00  0.00     0.261 C 
BRANCH   4   5
ATOM      5  O   UNL A   1      31.439  29.447  25.840  1.00  0.00    -0.460 OA
BRANCH   5   6
ATOM      6  C   UNL A   1      31.498  29.555  24.491  1.00  0.00     0.339 C 
ATOM      7  O   UNL A   1      32.483  29.387  23.791  1.00  0.00    -0.246 OA
BRANCH   6   8
ATOM      8  C   UNL A   1      30.128  29.649  23.918  1.00  0.00     0.072 A 
ATOM      9  C   UNL A   1      29.446  28.590  23.288  1.00  0.00     0.054 A 
ATOM     10  C   UNL A   1      28.149  28.835  22.795  1.00  0.00     0.015 A 
ATOM     11  C   UNL A   1      27.568  30.104  22.878  1.00  0.00     0.001 A 
ATOM     12  C   UNL A   1      29.539  30.927  23.988  1.00  0.00     0.016 A 
ATOM     13  C   UNL A   1      28.272  31.155  23.456  1.00  0.00     0.001 A 
BRANCH   9  14
ATOM     14  C   UNL A   1      30.071  27.293  23.071  1.00  0.00     0.258 A 
ATOM     15  C   UNL A   1      31.187  25.545  23.312  1.00  0.00     0.206 A 
ATOM     16  N   UNL A   1      31.566  25.973  22.098  1.00  0.00    -0.059 NA
ATOM     17  N   UNL A   1      30.161  26.264  23.875  1.00  0.00    -0.189 NA
ATOM     18  O   UNL A   1      30.835  27.156  21.943  1.00  0.00    -0.334 OA
BRANCH  15  19
ATOM     19  C   UNL A   1      31.915  24.476  24.068  1.00  0.00     0.245 C 
ATOM     20  C   UNL A   1      32.042  21.442  25.003  1.00  0.00     0.332 C 
ATOM     21  N   UNL A   1      31.539  22.587  25.757  1.00  0.00    -0.333 N 
ATOM     22  C   UNL A   1      32.597  23.229  26.563  1.00  0.00     0.290 C 
ATOM     23  C   UNL A   1      30.920  23.605  24.879  1.00  0.00     0.303 C 
ATOM     24  H   UNL A   1      30.827  22.210  26.381  1.00  0.00     0.348 HD
ATOM     25  C   UNL A   1      33.571  24.089  25.736  1.00  0.00     0.222 C 
ATOM     26  O   UNL A   1      32.881  25.075  24.970  1.00  0.00    -0.358 OA
ENDBRANCH  15  19
ENDBRANCH   9  14
ENDBRANCH   6   8
ENDBRANCH   5   6
ENDBRANCH   4   5
ENDBRANCH   3   4
ENDBRANCH   2   3
ENDBRANCH   1   2
BRANCH   1  27
ATOM     27  C   UNL A   1      33.777  33.596  28.166  1.00  0.00     0.188 C 
BRANCH  27  28
ATOM     28  O   UNL A   1      34.503  34.797  28.188  1.00  0.00    -0.376 OA
BRANCH  28  29
ATOM     29  C   UNL A   1      33.912  35.988  28.680  1.00  0.00     0.202 C 
BRANCH  29  30
ATOM     30  C   UNL A   1      32.732  36.070  29.672  1.00  0.00     0.261 C 
BRANCH  30  31
ATOM     31  O   UNL A   1      32.925  36.765  30.910  1.00  0.00    -0.460 OA
BRANCH  31  32
ATOM     32  C   UNL A   1      32.605  36.077  32.038  1.00  0.00     0.338 C 
ATOM     33  O   UNL A   1      31.527  36.016  32.592  1.00  0.00    -0.246 OA
BRANCH  32  34
ATOM     34  C   UNL A   1      33.764  35.238  32.406  1.00  0.00     0.060 A 
ATOM     35  C   UNL A   1      33.543  33.957  32.931  1.00  0.00     0.016 A 
ATOM     36  C   UNL A   1      35.062  35.710  32.214  1.00  0.00     0.016 A 
ATOM     37  C   UNL A   1      34.625  33.126  33.232  1.00  0.00     0.010 A 
ATOM     38  C   UNL A   1      36.144  34.891  32.550  1.00  0.00     0.010 A 
ATOM     39  C   UNL A   1      35.932  33.596  33.059  1.00  0.00    -0.014 A 
BRANCH  39  40
ATOM     40  C   UNL A   1      37.095  32.784  33.491  1.00  0.00     0.031 A 
ATOM     41  C   UNL A   1      37.758  33.103  34.800  1.00  0.00     0.074 A 
ATOM     42  C   UNL A   1      37.577  31.798  32.713  1.00  0.00     0.049 A 
ATOM     43  N   UNL A   1      38.875  32.642  35.301  1.00  0.00    -0.248 NA
ATOM     44  C   UNL A   1      37.067  34.077  35.660  1.00  0.00     0.031 C 
ATOM     45  C   UNL A   1      36.993  31.359  31.447  1.00  0.00     0.029 A 
ATOM     46  N   UNL A   1      38.692  31.008  32.862  1.00  0.00    -0.354 N 
ATOM     47  C   UNL A   1      39.023  33.270  36.530  1.00  0.00     0.074 A 
ATOM     48  C   UNL A   1      37.896  34.162  36.691  1.00  0.00     0.031 C 
ATOM     49  C   UNL A   1      37.776  30.403  30.916  1.00  0.00     0.029 A 
ATOM     50  C   UNL A   1      38.937  30.198  31.779  1.00  0.00     0.049 A 
ATOM     51  H   UNL A   1      39.260  31.020  33.666  1.00  0.00     0.167 HD
ATOM     52  C   UNL A   1      40.010  33.108  37.443  1.00  0.00     0.037 A 
ATOM     53  C   UNL A   1      40.004  29.423  31.495  1.00  0.00     0.037 A 
ATOM     54  C   UNL A   1      41.138  32.229  37.273  1.00  0.00     0.049 A 
ATOM     55  C   UNL A   1      41.149  29.354  32.479  1.00  0.00     0.074 A 
ATOM     56  C   UNL A   1      42.188  31.996  38.143  1.00  0.00     0.029 A 
ATOM     57  N   UNL A   1      41.368  31.448  36.150  1.00  0.00    -0.354 N 
ATOM     58  N   UNL A   1      41.276  29.928  33.650  1.00  0.00    -0.248 NA
ATOM     59  C   UNL A   1      42.308  28.531  32.094  1.00  0.00     0.031 C 
ATOM     60  C   UNL A   1      43.082  31.117  37.525  1.00  0.00     0.029 A 
ATOM     61  C   UNL A   1      42.560  30.758  36.293  1.00  0.00     0.049 A 
ATOM     62  H   UNL A   1      40.772  31.393  35.369  1.00  0.00     0.167 HD
ATOM     63  C   UNL A   1      42.507  29.522  34.147  1.00  0.00     0.074 A 
ATOM     64  C   UNL A   1      43.081  28.629  33.165  1.00  0.00     0.031 C 
ATOM     65  C   UNL A   1      43.115  29.863  35.310  1.00  0.00     0.037 A 
BRANCH  52  66
ATOM     66  C   UNL A   1      39.931  33.909  38.708  1.00  0.00     0.064 A 
ATOM     67  C   UNL A   1      40.568  35.153  38.829  1.00  0.00     0.173 A 
ATOM     68  C   UNL A   1      39.151  33.463  39.787  1.00  0.00     0.173 A 
ATOM     69  F   UNL A   1      41.335  35.618  37.833  1.00  0.00    -0.203 F 
ATOM     70  C   UNL A   1      40.436  35.914  39.987  1.00  0.00     0.198 A 
ATOM     71  C   UNL A   1      38.998  34.240  40.930  1.00  0.00     0.198 A 
ATOM     72  F   UNL A   1      38.516  32.283  39.719  1.00  0.00    -0.203 F 
ATOM     73  F   UNL A   1      41.080  37.085  40.094  1.00  0.00    -0.200 F 
ATOM     74  C   UNL A   1      39.644  35.463  41.032  1.00  0.00     0.200 A 
ATOM     75  F   UNL A   1      38.218  33.810  41.932  1.00  0.00    -0.200 F 
ATOM     76  F   UNL A   1      39.502  36.207  42.138  1.00  0.00    -0.200 F 
ENDBRANCH  52  66
BRANCH  53  77
ATOM     77  C   UNL A   1      40.084  28.692  30.200  1.00  0.00     0.064 A 
ATOM     78  C   UNL A   1      40.708  29.263  29.082  1.00  0.00     0.173 A 
ATOM     79  C   UNL A   1      39.478  27.437  30.035  1.00  0.00     0.173 A 
ATOM     80  F   UNL A   1      41.275  30.475  29.178  1.00  0.00    -0.203 F 
ATOM     81  C   UNL A   1      40.691  28.625  27.842  1.00  0.00     0.198 A 
ATOM     82  C   UNL A   1      39.495  26.782  28.805  1.00  0.00     0.198 A 
ATOM     83  F   UNL A   1      38.860  26.848  31.068  1.00  0.00    -0.203 F 
ATOM     84  F   UNL A   1      41.229  29.229  26.774  1.00  0.00    -0.200 F 
ATOM     85  C   UNL A   1      40.088  27.384  27.706  1.00  0.00     0.200 A 
ATOM     86  F   UNL A   1      38.919  25.580  28.681  1.00  0.00    -0.200 F 
ATOM     87  F   UNL A   1      40.064  26.777  26.512  1.00  0.00    -0.200 F 
ENDBRANCH  53  77
BRANCH  65  88
ATOM     88  C   UNL A   1      44.458  29.254  35.601  1.00  0.00     0.064 A 
ATOM     89  C   UNL A   1      45.650  29.895  35.233  1.00  0.00     0.173 A 
ATOM     90  C   UNL A   1      44.555  28.045  36.308  1.00  0.00     0.173 A 
ATOM     91  F   UNL A   1      45.613  31.046  34.543  1.00  0.00    -0.203 F 
ATOM     92  C   UNL A   1      46.888  29.339  35.544  1.00  0.00     0.198 A 
ATOM     93  C   UNL A   1      45.795  27.510  36.646  1.00  0.00     0.198 A 
ATOM     94  F   UNL A   1      43.447  27.394  36.691  1.00  0.00    -0.203 F 
ATOM     95  F   UNL A   1      48.013  29.948  35.144  1.00  0.00    -0.200 F 
ATOM     96  C   UNL A   1      46.960  28.153  36.258  1.00  0.00     0.200 A 
ATOM     97  F   UNL A   1      45.862  26.372  37.353  1.00  0.00    -0.200 F 
ATOM     98  F   UNL A   1      48.153  27.628  36.570  1.00  0.00    -0.200 F 
ENDBRANCH  65  88
ENDBRANCH  39  40
ENDBRANCH  32  34
ENDBRANCH  31  32
ENDBRANCH  30  31
ENDBRANCH  29  30
ENDBRANCH  28  29
ENDBRANCH  27  28
ENDBRANCH   1  27
TORSDOF 19
ENDMDL
