MODEL 1
REMARK VINA RESULT:     -10.7      0.000      0.000
REMARK SMILES COC1=CC2=NC(C(=O)OCCOCCOCCOC(=O)c3ccc(-c4c5nc(c(-c6c(F)c(F)c(F)c(F)c6F)c6ccc([nH]6)c(-c6c(F)c(F)c(F)c(F)c6F)c6nc(c(-c7c(F)c(F)c(F)c(F)c7F)c7ccc4[nH]7)C=C6)C=C5)cc3)=C[C@@H]2C(OC)=C1
REMARK SMILES IDX 15 1 14 2 13 3 12 4 11 5 10 6 8 7 9 8 7 9 3 10 4 11 90 12
REMARK SMILES IDX 5 13 87 14 6 15 86 16 85 17 2 18 1 19 88 20 89 21 16 22
REMARK SMILES IDX 17 23 18 24 19 25 20 26 21 27 22 28 23 29 84 30 24 31 83 32
REMARK SMILES IDX 25 33 26 34 27 35 77 36 28 37 82 38 76 39 78 40 29 41 81 42
REMARK SMILES IDX 75 43 74 44 30 46 62 47 42 48 61 49 43 50 46 51 60 52 79 53
REMARK SMILES IDX 44 54 45 55 59 57 80 58 47 59 31 60 32 61 40 62 33 63 34 64
REMARK SMILES IDX 38 65 41 66 35 67 36 68 39 69 37 70 63 71 64 72 72 73 65 74
REMARK SMILES IDX 66 75 70 76 73 77 67 78 68 79 71 80 69 81 48 82 49 83 57 84
REMARK SMILES IDX 50 85 51 86 55 87 58 88 52 89 53 90 56 91 54 92
REMARK H PARENT 78 45 46 56
REMARK Flexibility Score: inf
ROOT
ATOM      1  C   UNL A   1      40.672  21.409  27.510  1.00  0.00     0.188 C 
ENDROOT
BRANCH   1   2
ATOM      2  C   UNL A   1      39.747  22.021  26.438  1.00  0.00     0.188 C 
BRANCH   2   3
ATOM      3  O   UNL A   1      38.925  21.078  25.771  1.00  0.00    -0.376 OA
BRANCH   3   4
ATOM      4  C   UNL A   1      37.857  21.629  25.007  1.00  0.00     0.202 C 
BRANCH   4   5
ATOM      5  C   UNL A   1      36.581  22.070  25.753  1.00  0.00     0.261 C 
BRANCH   5   6
ATOM      6  O   UNL A   1      35.995  23.314  25.338  1.00  0.00    -0.459 OA
BRANCH   6   7
ATOM      7  C   UNL A   1      34.993  23.258  24.426  1.00  0.00     0.356 C 
ATOM      8  O   UNL A   1      34.601  22.244  23.868  1.00  0.00    -0.244 OA
BRANCH   7   9
ATOM      9  C   UNL A   1      34.347  24.605  24.303  1.00  0.00     0.145 C 
ATOM     10  C   UNL A   1      31.370  27.700  23.308  1.00  0.00     0.124 C 
ATOM     11  C   UNL A   1      32.157  26.844  22.640  1.00  0.00     0.071 C 
ATOM     12  C   UNL A   1      31.441  27.857  24.755  1.00  0.00     0.089 C 
ATOM     13  C   UNL A   1      33.166  26.137  23.448  1.00  0.00     0.060 C 
ATOM     14  C   UNL A   1      32.498  27.413  25.470  1.00  0.00     0.112 C 
ATOM     15  N   UNL A   1      33.672  24.978  23.154  1.00  0.00    -0.245 NA
ATOM     16  C   UNL A   1      33.649  26.769  24.744  1.00  0.00     0.129 C 
ATOM     17  C   UNL A   1      34.279  25.526  25.280  1.00  0.00     0.027 C 
BRANCH  10  18
ATOM     18  O   UNL A   1      30.338  28.348  22.660  1.00  0.00    -0.497 OA
ATOM     19  C   UNL A   1      29.983  29.582  23.287  1.00  0.00     0.278 C 
ENDBRANCH  10  18
BRANCH  14  20
ATOM     20  O   UNL A   1      32.699  27.588  26.823  1.00  0.00    -0.500 OA
ATOM     21  C   UNL A   1      33.604  28.614  27.226  1.00  0.00     0.278 C 
ENDBRANCH  14  20
ENDBRANCH   7   9
ENDBRANCH   6   7
ENDBRANCH   5   6
ENDBRANCH   4   5
ENDBRANCH   3   4
ENDBRANCH   2   3
ENDBRANCH   1   2
BRANCH   1  22
ATOM     22  O   UNL A   1      40.884  20.003  27.595  1.00  0.00    -0.376 OA
BRANCH  22  23
ATOM     23  C   UNL A   1      42.175  19.440  27.392  1.00  0.00     0.202 C 
BRANCH  23  24
ATOM     24  C   UNL A   1      42.565  18.910  26.013  1.00  0.00     0.261 C 
BRANCH  24  25
ATOM     25  O   UNL A   1      42.993  19.915  25.101  1.00  0.00    -0.460 OA
BRANCH  25  26
ATOM     26  C   UNL A   1      44.313  20.193  25.173  1.00  0.00     0.338 C 
ATOM     27  O   UNL A   1      45.226  19.397  25.296  1.00  0.00    -0.246 OA
BRANCH  26  28
ATOM     28  C   UNL A   1      44.524  21.649  25.142  1.00  0.00     0.060 A 
ATOM     29  C   UNL A   1      45.496  22.149  26.012  1.00  0.00     0.016 A 
ATOM     30  C   UNL A   1      43.642  22.503  24.463  1.00  0.00     0.016 A 
ATOM     31  C   UNL A   1      45.439  23.477  26.375  1.00  0.00     0.010 A 
ATOM     32  C   UNL A   1      43.586  23.838  24.829  1.00  0.00     0.010 A 
ATOM     33  C   UNL A   1      44.419  24.280  25.854  1.00  0.00    -0.014 A 
BRANCH  33  34
ATOM     34  C   UNL A   1      44.175  25.530  26.551  1.00  0.00     0.031 A 
ATOM     35  C   UNL A   1      45.202  26.580  26.434  1.00  0.00     0.074 A 
ATOM     36  C   UNL A   1      43.080  25.710  27.312  1.00  0.00     0.049 A 
ATOM     37  N   UNL A   1      45.940  27.075  27.375  1.00  0.00    -0.248 NA
ATOM     38  C   UNL A   1      45.464  27.125  25.098  1.00  0.00     0.031 C 
ATOM     39  C   UNL A   1      41.858  24.901  27.340  1.00  0.00     0.029 A 
ATOM     40  N   UNL A   1      42.812  26.723  28.187  1.00  0.00    -0.354 N 
ATOM     41  C   UNL A   1      46.662  28.103  26.784  1.00  0.00     0.074 A 
ATOM     42  C   UNL A   1      46.398  28.036  25.367  1.00  0.00     0.031 C 
ATOM     43  C   UNL A   1      40.911  25.558  28.044  1.00  0.00     0.029 A 
ATOM     44  C   UNL A   1      41.501  26.756  28.623  1.00  0.00     0.049 A 
ATOM     45  H   UNL A   1      43.492  27.372  28.482  1.00  0.00     0.167 HD
ATOM     46  C   UNL A   1      47.286  29.057  27.521  1.00  0.00     0.037 A 
ATOM     47  C   UNL A   1      40.919  27.727  29.361  1.00  0.00     0.037 A 
ATOM     48  C   UNL A   1      47.488  28.657  28.886  1.00  0.00     0.049 A 
ATOM     49  C   UNL A   1      41.982  28.484  30.061  1.00  0.00     0.074 A 
ATOM     50  C   UNL A   1      48.211  27.664  29.515  1.00  0.00     0.029 A 
ATOM     51  N   UNL A   1      46.649  29.173  29.840  1.00  0.00    -0.354 N 
ATOM     52  N   UNL A   1      42.684  28.024  31.059  1.00  0.00    -0.248 NA
ATOM     53  C   UNL A   1      42.505  29.691  29.438  1.00  0.00     0.031 C 
ATOM     54  C   UNL A   1      47.488  27.356  30.704  1.00  0.00     0.029 A 
ATOM     55  C   UNL A   1      46.356  28.170  30.728  1.00  0.00     0.049 A 
ATOM     56  H   UNL A   1      46.316  30.098  29.879  1.00  0.00     0.167 HD
ATOM     57  C   UNL A   1      43.923  28.629  30.926  1.00  0.00     0.074 A 
ATOM     58  C   UNL A   1      43.706  29.747  30.020  1.00  0.00     0.031 C 
ATOM     59  C   UNL A   1      45.059  27.995  31.337  1.00  0.00     0.037 A 
BRANCH  46  60
ATOM     60  C   UNL A   1      47.443  30.480  27.069  1.00  0.00     0.064 A 
ATOM     61  C   UNL A   1      48.708  31.093  27.102  1.00  0.00     0.173 A 
ATOM     62  C   UNL A   1      46.343  31.341  26.869  1.00  0.00     0.173 A 
ATOM     63  F   UNL A   1      49.812  30.367  27.335  1.00  0.00    -0.203 F 
ATOM     64  C   UNL A   1      48.855  32.477  26.977  1.00  0.00     0.198 A 
ATOM     65  C   UNL A   1      46.498  32.714  26.691  1.00  0.00     0.198 A 
ATOM     66  F   UNL A   1      45.081  30.899  26.947  1.00  0.00    -0.203 F 
ATOM     67  F   UNL A   1      50.067  33.032  27.119  1.00  0.00    -0.200 F 
ATOM     68  C   UNL A   1      47.751  33.285  26.770  1.00  0.00     0.200 A 
ATOM     69  F   UNL A   1      45.416  33.484  26.517  1.00  0.00    -0.200 F 
ATOM     70  F   UNL A   1      47.888  34.616  26.695  1.00  0.00    -0.200 F 
ENDBRANCH  46  60
BRANCH  47  71
ATOM     71  C   UNL A   1      39.510  28.169  29.326  1.00  0.00     0.064 A 
ATOM     72  C   UNL A   1      38.742  28.261  30.495  1.00  0.00     0.173 A 
ATOM     73  C   UNL A   1      38.963  28.746  28.163  1.00  0.00     0.173 A 
ATOM     74  F   UNL A   1      39.215  27.782  31.654  1.00  0.00    -0.203 F 
ATOM     75  C   UNL A   1      37.502  28.905  30.502  1.00  0.00     0.198 A 
ATOM     76  C   UNL A   1      37.720  29.375  28.168  1.00  0.00     0.198 A 
ATOM     77  F   UNL A   1      39.663  28.787  27.019  1.00  0.00    -0.203 F 
ATOM     78  F   UNL A   1      36.819  29.025  31.649  1.00  0.00    -0.200 F 
ATOM     79  C   UNL A   1      36.994  29.465  29.340  1.00  0.00     0.200 A 
ATOM     80  F   UNL A   1      37.258  29.943  27.045  1.00  0.00    -0.200 F 
ATOM     81  F   UNL A   1      35.829  30.126  29.358  1.00  0.00    -0.200 F 
ENDBRANCH  47  71
BRANCH  59  82
ATOM     82  C   UNL A   1      44.893  26.837  32.276  1.00  0.00     0.064 A 
ATOM     83  C   UNL A   1      44.843  26.973  33.675  1.00  0.00     0.173 A 
ATOM     84  C   UNL A   1      44.671  25.563  31.738  1.00  0.00     0.173 A 
ATOM     85  F   UNL A   1      44.946  28.179  34.252  1.00  0.00    -0.203 F 
ATOM     86  C   UNL A   1      44.638  25.868  34.497  1.00  0.00     0.198 A 
ATOM     87  C   UNL A   1      44.430  24.467  32.561  1.00  0.00     0.198 A 
ATOM     88  F   UNL A   1      44.648  25.389  30.408  1.00  0.00    -0.203 F 
ATOM     89  F   UNL A   1      44.616  26.015  35.829  1.00  0.00    -0.200 F 
ATOM     90  C   UNL A   1      44.428  24.616  33.940  1.00  0.00     0.200 A 
ATOM     91  F   UNL A   1      44.179  23.267  32.018  1.00  0.00    -0.200 F 
ATOM     92  F   UNL A   1      44.198  23.558  34.729  1.00  0.00    -0.200 F 
ENDBRANCH  59  82
ENDBRANCH  33  34
ENDBRANCH  26  28
ENDBRANCH  25  26
ENDBRANCH  24  25
ENDBRANCH  23  24
ENDBRANCH  22  23
ENDBRANCH   1  22
TORSDOF 19
ENDMDL
MODEL 2
REMARK VINA RESULT:     -10.7      1.364      2.055
REMARK SMILES COC1=CC2=NC(C(=O)OCCOCCOCCOC(=O)c3ccc(-c4c5nc(c(-c6c(F)c(F)c(F)c(F)c6F)c6ccc([nH]6)c(-c6c(F)c(F)c(F)c(F)c6F)c6nc(c(-c7c(F)c(F)c(F)c(F)c7F)c7ccc4[nH]7)C=C6)C=C5)cc3)=C[C@@H]2C(OC)=C1
REMARK SMILES IDX 15 1 14 2 13 3 12 4 11 5 10 6 8 7 9 8 7 9 3 10 4 11 90 12
REMARK SMILES IDX 5 13 87 14 6 15 86 16 85 17 2 18 1 19 88 20 89 21 16 22
REMARK SMILES IDX 17 23 18 24 19 25 20 26 21 27 22 28 23 29 84 30 24 31 83 32
REMARK SMILES IDX 25 33 26 34 27 35 77 36 28 37 82 38 76 39 78 40 29 41 81 42
REMARK SMILES IDX 75 43 74 44 30 46 62 47 42 48 61 49 43 50 46 51 60 52 79 53
REMARK SMILES IDX 44 54 45 55 59 57 80 58 47 59 31 60 32 61 40 62 33 63 34 64
REMARK SMILES IDX 38 65 41 66 35 67 36 68 39 69 37 70 63 71 64 72 72 73 65 74
REMARK SMILES IDX 66 75 70 76 73 77 67 78 68 79 71 80 69 81 48 82 49 83 57 84
REMARK SMILES IDX 50 85 51 86 55 87 58 88 52 89 53 90 56 91 54 92
REMARK H PARENT 78 45 46 56
REMARK Flexibility Score: inf
ROOT
ATOM      1  C   UNL A   1      41.415  19.583  26.123  1.00  0.00     0.188 C 
ENDROOT
BRANCH   1   2
ATOM      2  C   UNL A   1      41.366  21.009  26.708  1.00  0.00     0.188 C 
BRANCH   2   3
ATOM      3  O   UNL A   1      40.606  21.928  25.942  1.00  0.00    -0.376 OA
BRANCH   3   4
ATOM      4  C   UNL A   1      39.338  22.278  26.487  1.00  0.00     0.202 C 
BRANCH   4   5
ATOM      5  C   UNL A   1      38.073  21.884  25.697  1.00  0.00     0.261 C 
BRANCH   5   6
ATOM      6  O   UNL A   1      36.932  22.743  25.847  1.00  0.00    -0.459 OA
BRANCH   6   7
ATOM      7  C   UNL A   1      36.198  23.004  24.736  1.00  0.00     0.356 C 
ATOM      8  O   UNL A   1      36.362  22.484  23.643  1.00  0.00    -0.244 OA
BRANCH   7   9
ATOM      9  C   UNL A   1      35.069  23.928  25.082  1.00  0.00     0.145 C 
ATOM     10  C   UNL A   1      31.530  26.510  24.602  1.00  0.00     0.124 C 
ATOM     11  C   UNL A   1      32.811  26.515  24.203  1.00  0.00     0.071 C 
ATOM     12  C   UNL A   1      31.003  25.509  25.521  1.00  0.00     0.089 C 
ATOM     13  C   UNL A   1      33.678  25.500  24.823  1.00  0.00     0.060 C 
ATOM     14  C   UNL A   1      31.815  24.736  26.275  1.00  0.00     0.112 C 
ATOM     15  N   UNL A   1      34.750  25.008  24.280  1.00  0.00    -0.245 NA
ATOM     16  C   UNL A   1      33.303  24.940  26.187  1.00  0.00     0.129 C 
ATOM     17  C   UNL A   1      34.225  23.767  26.116  1.00  0.00     0.027 C 
BRANCH  10  18
ATOM     18  O   UNL A   1      30.616  27.365  24.020  1.00  0.00    -0.497 OA
ATOM     19  C   UNL A   1      30.724  27.398  22.595  1.00  0.00     0.278 C 
ENDBRANCH  10  18
BRANCH  14  20
ATOM     20  O   UNL A   1      31.417  23.824  27.231  1.00  0.00    -0.500 OA
ATOM     21  C   UNL A   1      30.243  23.061  26.963  1.00  0.00     0.278 C 
ENDBRANCH  14  20
ENDBRANCH   7   9
ENDBRANCH   6   7
ENDBRANCH   5   6
ENDBRANCH   4   5
ENDBRANCH   3   4
ENDBRANCH   2   3
ENDBRANCH   1   2
BRANCH   1  22
ATOM     22  O   UNL A   1      42.353  19.224  25.113  1.00  0.00    -0.376 OA
BRANCH  22  23
ATOM     23  C   UNL A   1      43.664  18.787  25.449  1.00  0.00     0.202 C 
BRANCH  23  24
ATOM     24  C   UNL A   1      44.854  19.229  24.598  1.00  0.00     0.261 C 
BRANCH  24  25
ATOM     25  O   UNL A   1      44.658  20.462  23.915  1.00  0.00    -0.460 OA
BRANCH  25  26
ATOM     26  C   UNL A   1      45.375  21.489  24.423  1.00  0.00     0.338 C 
ATOM     27  O   UNL A   1      46.559  21.712  24.254  1.00  0.00    -0.246 OA
BRANCH  26  28
ATOM     28  C   UNL A   1      44.524  22.314  25.296  1.00  0.00     0.060 A 
ATOM     29  C   UNL A   1      43.628  23.169  24.651  1.00  0.00     0.016 A 
ATOM     30  C   UNL A   1      44.766  22.412  26.674  1.00  0.00     0.016 A 
ATOM     31  C   UNL A   1      43.145  24.262  25.338  1.00  0.00     0.010 A 
ATOM     32  C   UNL A   1      44.282  23.511  27.364  1.00  0.00     0.010 A 
ATOM     33  C   UNL A   1      43.562  24.473  26.657  1.00  0.00    -0.014 A 
BRANCH  33  34
ATOM     34  C   UNL A   1      43.345  25.807  27.188  1.00  0.00     0.031 A 
ATOM     35  C   UNL A   1      44.397  26.810  26.942  1.00  0.00     0.074 A 
ATOM     36  C   UNL A   1      42.254  26.106  27.916  1.00  0.00     0.049 A 
ATOM     37  N   UNL A   1      45.144  27.404  27.816  1.00  0.00    -0.248 NA
ATOM     38  C   UNL A   1      44.673  27.173  25.549  1.00  0.00     0.031 C 
ATOM     39  C   UNL A   1      41.014  25.336  28.041  1.00  0.00     0.029 A 
ATOM     40  N   UNL A   1      42.009  27.229  28.653  1.00  0.00    -0.354 N 
ATOM     41  C   UNL A   1      45.891  28.331  27.101  1.00  0.00     0.074 A 
ATOM     42  C   UNL A   1      45.627  28.091  25.704  1.00  0.00     0.031 C 
ATOM     43  C   UNL A   1      40.081  26.098  28.652  1.00  0.00     0.029 A 
ATOM     44  C   UNL A   1      40.697  27.346  29.075  1.00  0.00     0.049 A 
ATOM     45  H   UNL A   1      42.703  27.894  28.866  1.00  0.00     0.167 HD
ATOM     46  C   UNL A   1      46.535  29.358  27.714  1.00  0.00     0.037 A 
ATOM     47  C   UNL A   1      40.137  28.416  29.681  1.00  0.00     0.037 A 
ATOM     48  C   UNL A   1      46.726  29.131  29.119  1.00  0.00     0.049 A 
ATOM     49  C   UNL A   1      41.216  29.233  30.284  1.00  0.00     0.074 A 
ATOM     50  C   UNL A   1      47.425  28.210  29.873  1.00  0.00     0.029 A 
ATOM     51  N   UNL A   1      45.898  29.783  29.996  1.00  0.00    -0.354 N 
ATOM     52  N   UNL A   1      41.906  28.888  31.335  1.00  0.00    -0.248 NA
ATOM     53  C   UNL A   1      41.767  30.338  29.514  1.00  0.00     0.031 C 
ATOM     54  C   UNL A   1      46.694  28.072  31.088  1.00  0.00     0.029 A 
ATOM     55  C   UNL A   1      45.581  28.909  31.003  1.00  0.00     0.049 A 
ATOM     56  H   UNL A   1      45.586  30.713  29.915  1.00  0.00     0.167 HD
ATOM     57  C   UNL A   1      43.158  29.444  31.131  1.00  0.00     0.074 A 
ATOM     58  C   UNL A   1      42.968  30.441  30.089  1.00  0.00     0.031 C 
ATOM     59  C   UNL A   1      44.279  28.842  31.625  1.00  0.00     0.037 A 
BRANCH  46  60
ATOM     60  C   UNL A   1      46.725  30.708  27.084  1.00  0.00     0.064 A 
ATOM     61  C   UNL A   1      48.001  31.299  27.059  1.00  0.00     0.173 A 
ATOM     62  C   UNL A   1      45.644  31.554  26.758  1.00  0.00     0.173 A 
ATOM     63  F   UNL A   1      49.087  30.590  27.400  1.00  0.00    -0.203 F 
ATOM     64  C   UNL A   1      48.175  32.652  26.758  1.00  0.00     0.198 A 
ATOM     65  C   UNL A   1      45.827  32.890  26.407  1.00  0.00     0.198 A 
ATOM     66  F   UNL A   1      44.373  31.147  26.871  1.00  0.00    -0.203 F 
ATOM     67  F   UNL A   1      49.395  33.200  26.846  1.00  0.00    -0.200 F 
ATOM     68  C   UNL A   1      47.090  33.445  26.431  1.00  0.00     0.200 A 
ATOM     69  F   UNL A   1      44.762  33.649  26.117  1.00  0.00    -0.200 F 
ATOM     70  F   UNL A   1      47.252  34.752  26.187  1.00  0.00    -0.200 F 
ENDBRANCH  46  60
BRANCH  47  71
ATOM     71  C   UNL A   1      38.739  28.881  29.584  1.00  0.00     0.064 A 
ATOM     72  C   UNL A   1      37.962  29.112  30.728  1.00  0.00     0.173 A 
ATOM     73  C   UNL A   1      38.214  29.344  28.361  1.00  0.00     0.173 A 
ATOM     74  F   UNL A   1      38.414  28.747  31.937  1.00  0.00    -0.203 F 
ATOM     75  C   UNL A   1      36.736  29.779  30.654  1.00  0.00     0.198 A 
ATOM     76  C   UNL A   1      36.986  29.997  28.286  1.00  0.00     0.198 A 
ATOM     77  F   UNL A   1      38.926  29.250  27.228  1.00  0.00    -0.203 F 
ATOM     78  F   UNL A   1      36.046  30.033  31.775  1.00  0.00    -0.200 F 
ATOM     79  C   UNL A   1      36.252  30.224  29.434  1.00  0.00     0.200 A 
ATOM     80  F   UNL A   1      36.547  30.452  27.105  1.00  0.00    -0.200 F 
ATOM     81  F   UNL A   1      35.101  30.907  29.370  1.00  0.00    -0.200 F 
ENDBRANCH  47  71
BRANCH  59  82
ATOM     82  C   UNL A   1      44.086  27.817  32.703  1.00  0.00     0.064 A 
ATOM     83  C   UNL A   1      44.013  26.435  32.457  1.00  0.00     0.173 A 
ATOM     84  C   UNL A   1      44.079  28.242  34.038  1.00  0.00     0.173 A 
ATOM     85  F   UNL A   1      44.116  25.953  31.210  1.00  0.00    -0.203 F 
ATOM     86  C   UNL A   1      43.881  25.526  33.504  1.00  0.00     0.198 A 
ATOM     87  C   UNL A   1      43.983  27.327  35.083  1.00  0.00     0.198 A 
ATOM     88  F   UNL A   1      44.206  29.545  34.331  1.00  0.00    -0.203 F 
ATOM     89  F   UNL A   1      43.790  24.213  33.246  1.00  0.00    -0.200 F 
ATOM     90  C   UNL A   1      43.869  25.972  34.816  1.00  0.00     0.200 A 
ATOM     91  F   UNL A   1      44.021  27.758  36.353  1.00  0.00    -0.200 F 
ATOM     92  F   UNL A   1      43.775  25.094  35.824  1.00  0.00    -0.200 F 
ENDBRANCH  59  82
ENDBRANCH  33  34
ENDBRANCH  26  28
ENDBRANCH  25  26
ENDBRANCH  24  25
ENDBRANCH  23  24
ENDBRANCH  22  23
ENDBRANCH   1  22
TORSDOF 19
ENDMDL
MODEL 3
REMARK VINA RESULT:     -10.7      3.051      4.581
REMARK SMILES COC1=CC2=NC(C(=O)OCCOCCOCCOC(=O)c3ccc(-c4c5nc(c(-c6c(F)c(F)c(F)c(F)c6F)c6ccc([nH]6)c(-c6c(F)c(F)c(F)c(F)c6F)c6nc(c(-c7c(F)c(F)c(F)c(F)c7F)c7ccc4[nH]7)C=C6)C=C5)cc3)=C[C@@H]2C(OC)=C1
REMARK SMILES IDX 15 1 14 2 13 3 12 4 11 5 10 6 8 7 9 8 7 9 3 10 4 11 90 12
REMARK SMILES IDX 5 13 87 14 6 15 86 16 85 17 2 18 1 19 88 20 89 21 16 22
REMARK SMILES IDX 17 23 18 24 19 25 20 26 21 27 22 28 23 29 84 30 24 31 83 32
REMARK SMILES IDX 25 33 26 34 27 35 77 36 28 37 82 38 76 39 78 40 29 41 81 42
REMARK SMILES IDX 75 43 74 44 30 46 62 47 42 48 61 49 43 50 46 51 60 52 79 53
REMARK SMILES IDX 44 54 45 55 59 57 80 58 47 59 31 60 32 61 40 62 33 63 34 64
REMARK SMILES IDX 38 65 41 66 35 67 36 68 39 69 37 70 63 71 64 72 72 73 65 74
REMARK SMILES IDX 66 75 70 76 73 77 67 78 68 79 71 80 69 81 48 82 49 83 57 84
REMARK SMILES IDX 50 85 51 86 55 87 58 88 52 89 53 90 56 91 54 92
REMARK H PARENT 78 45 46 56
REMARK Flexibility Score: inf
ROOT
ATOM      1  C   UNL A   1      35.300  22.960  23.412  1.00  0.00     0.188 C 
ENDROOT
BRANCH   1   2
ATOM      2  C   UNL A   1      33.883  23.034  24.016  1.00  0.00     0.188 C 
BRANCH   2   3
ATOM      3  O   UNL A   1      33.311  21.772  24.313  1.00  0.00    -0.376 OA
BRANCH   3   4
ATOM      4  C   UNL A   1      32.635  21.685  25.564  1.00  0.00     0.202 C 
BRANCH   4   5
ATOM      5  C   UNL A   1      33.167  22.532  26.738  1.00  0.00     0.261 C 
BRANCH   5   6
ATOM      6  O   UNL A   1      32.186  23.237  27.515  1.00  0.00    -0.459 OA
BRANCH   6   7
ATOM      7  C   UNL A   1      31.029  23.580  26.895  1.00  0.00     0.356 C 
ATOM      8  O   UNL A   1      29.938  23.071  27.101  1.00  0.00    -0.244 OA
BRANCH   7   9
ATOM      9  C   UNL A   1      31.263  24.771  26.013  1.00  0.00     0.145 C 
ATOM     10  C   UNL A   1      30.515  27.945  23.049  1.00  0.00     0.124 C 
ATOM     11  C   UNL A   1      30.595  26.606  23.055  1.00  0.00     0.071 C 
ATOM     12  C   UNL A   1      30.813  28.749  24.228  1.00  0.00     0.089 C 
ATOM     13  C   UNL A   1      31.093  26.000  24.301  1.00  0.00     0.060 C 
ATOM     14  C   UNL A   1      31.491  28.246  25.282  1.00  0.00     0.112 C 
ATOM     15  N   UNL A   1      30.810  24.800  24.706  1.00  0.00    -0.245 NA
ATOM     16  C   UNL A   1      31.982  26.825  25.220  1.00  0.00     0.129 C 
ATOM     17  C   UNL A   1      31.837  25.923  26.402  1.00  0.00     0.027 C 
BRANCH  10  18
ATOM     18  O   UNL A   1      29.981  28.606  21.961  1.00  0.00    -0.497 OA
ATOM     19  C   UNL A   1      28.836  29.391  22.303  1.00  0.00     0.278 C 
ENDBRANCH  10  18
BRANCH  14  20
ATOM     20  O   UNL A   1      31.895  28.944  26.401  1.00  0.00    -0.500 OA
ATOM     21  C   UNL A   1      32.675  30.119  26.196  1.00  0.00     0.278 C 
ENDBRANCH  14  20
ENDBRANCH   7   9
ENDBRANCH   6   7
ENDBRANCH   5   6
ENDBRANCH   4   5
ENDBRANCH   3   4
ENDBRANCH   2   3
ENDBRANCH   1   2
BRANCH   1  22
ATOM     22  O   UNL A   1      36.334  22.199  24.029  1.00  0.00    -0.376 OA
BRANCH  22  23
ATOM     23  C   UNL A   1      36.731  22.451  25.371  1.00  0.00     0.202 C 
BRANCH  23  24
ATOM     24  C   UNL A   1      38.191  22.257  25.781  1.00  0.00     0.261 C 
BRANCH  24  25
ATOM     25  O   UNL A   1      38.660  23.204  26.736  1.00  0.00    -0.460 OA
BRANCH  25  26
ATOM     26  C   UNL A   1      39.948  23.020  27.101  1.00  0.00     0.338 C 
ATOM     27  O   UNL A   1      40.478  21.972  27.420  1.00  0.00    -0.246 OA
BRANCH  26  28
ATOM     28  C   UNL A   1      40.653  24.312  27.126  1.00  0.00     0.060 A 
ATOM     29  C   UNL A   1      41.333  24.618  28.307  1.00  0.00     0.016 A 
ATOM     30  C   UNL A   1      40.455  25.275  26.125  1.00  0.00     0.016 A 
ATOM     31  C   UNL A   1      41.616  25.938  28.584  1.00  0.00     0.010 A 
ATOM     32  C   UNL A   1      40.739  26.601  26.405  1.00  0.00     0.010 A 
ATOM     33  C   UNL A   1      41.222  26.923  27.671  1.00  0.00    -0.014 A 
BRANCH  33  34
ATOM     34  C   UNL A   1      41.191  28.283  28.177  1.00  0.00     0.031 A 
ATOM     35  C   UNL A   1      42.371  29.127  27.917  1.00  0.00     0.074 A 
ATOM     36  C   UNL A   1      40.150  28.744  28.895  1.00  0.00     0.049 A 
ATOM     37  N   UNL A   1      43.192  29.628  28.782  1.00  0.00    -0.248 NA
ATOM     38  C   UNL A   1      42.696  29.424  26.518  1.00  0.00     0.031 C 
ATOM     39  C   UNL A   1      38.817  28.154  29.030  1.00  0.00     0.029 A 
ATOM     40  N   UNL A   1      40.062  29.903  29.611  1.00  0.00    -0.354 N 
ATOM     41  C   UNL A   1      44.060  30.431  28.053  1.00  0.00     0.074 A 
ATOM     42  C   UNL A   1      43.767  30.204  26.659  1.00  0.00     0.031 C 
ATOM     43  C   UNL A   1      37.997  29.049  29.624  1.00  0.00     0.029 A 
ATOM     44  C   UNL A   1      38.779  30.207  30.027  1.00  0.00     0.049 A 
ATOM     45  H   UNL A   1      40.841  30.470  29.814  1.00  0.00     0.167 HD
ATOM     46  C   UNL A   1      44.839  31.370  28.650  1.00  0.00     0.037 A 
ATOM     47  C   UNL A   1      38.371  31.356  30.612  1.00  0.00     0.037 A 
ATOM     48  C   UNL A   1      44.996  31.144  30.059  1.00  0.00     0.049 A 
ATOM     49  C   UNL A   1      39.552  32.026  31.203  1.00  0.00     0.074 A 
ATOM     50  C   UNL A   1      45.561  30.150  30.832  1.00  0.00     0.029 A 
ATOM     51  N   UNL A   1      44.265  31.920  30.921  1.00  0.00    -0.354 N 
ATOM     52  N   UNL A   1      40.187  31.609  32.263  1.00  0.00    -0.248 NA
ATOM     53  C   UNL A   1      40.251  33.031  30.416  1.00  0.00     0.031 C 
ATOM     54  C   UNL A   1      44.816  30.137  32.047  1.00  0.00     0.029 A 
ATOM     55  C   UNL A   1      43.830  31.117  31.943  1.00  0.00     0.049 A 
ATOM     56  H   UNL A   1      44.085  32.883  30.823  1.00  0.00     0.167 HD
ATOM     57  C   UNL A   1      41.504  31.983  32.053  1.00  0.00     0.074 A 
ATOM     58  C   UNL A   1      41.454  32.978  30.993  1.00  0.00     0.031 C 
ATOM     59  C   UNL A   1      42.531  31.241  32.561  1.00  0.00     0.037 A 
BRANCH  46  60
ATOM     60  C   UNL A   1      45.214  32.669  27.997  1.00  0.00     0.064 A 
ATOM     61  C   UNL A   1      44.237  33.657  27.784  1.00  0.00     0.173 A 
ATOM     62  C   UNL A   1      46.441  32.857  27.325  1.00  0.00     0.173 A 
ATOM     63  F   UNL A   1      43.021  33.544  28.340  1.00  0.00    -0.203 F 
ATOM     64  C   UNL A   1      44.464  34.740  26.931  1.00  0.00     0.198 A 
ATOM     65  C   UNL A   1      46.682  33.966  26.518  1.00  0.00     0.198 A 
ATOM     66  F   UNL A   1      47.403  31.924  27.342  1.00  0.00    -0.203 F 
ATOM     67  F   UNL A   1      43.471  35.603  26.675  1.00  0.00    -0.200 F 
ATOM     68  C   UNL A   1      45.686  34.895  26.301  1.00  0.00     0.200 A 
ATOM     69  F   UNL A   1      47.863  34.086  25.896  1.00  0.00    -0.200 F 
ATOM     70  F   UNL A   1      45.887  35.909  25.448  1.00  0.00    -0.200 F 
ENDBRANCH  46  60
BRANCH  47  71
ATOM     71  C   UNL A   1      37.050  32.007  30.502  1.00  0.00     0.064 A 
ATOM     72  C   UNL A   1      36.109  31.935  31.538  1.00  0.00     0.173 A 
ATOM     73  C   UNL A   1      36.781  32.925  29.467  1.00  0.00     0.173 A 
ATOM     74  F   UNL A   1      36.317  31.124  32.585  1.00  0.00    -0.203 F 
ATOM     75  C   UNL A   1      34.969  32.744  31.544  1.00  0.00     0.198 A 
ATOM     76  C   UNL A   1      35.638  33.721  29.467  1.00  0.00     0.198 A 
ATOM     77  F   UNL A   1      37.667  33.129  28.480  1.00  0.00    -0.203 F 
ATOM     78  F   UNL A   1      34.119  32.690  32.579  1.00  0.00    -0.200 F 
ATOM     79  C   UNL A   1      34.737  33.638  30.511  1.00  0.00     0.200 A 
ATOM     80  F   UNL A   1      35.445  34.606  28.479  1.00  0.00    -0.200 F 
ATOM     81  F   UNL A   1      33.671  34.449  30.543  1.00  0.00    -0.200 F 
ENDBRANCH  47  71
BRANCH  59  82
ATOM     82  C   UNL A   1      42.197  30.273  33.657  1.00  0.00     0.064 A 
ATOM     83  C   UNL A   1      41.726  28.969  33.424  1.00  0.00     0.173 A 
ATOM     84  C   UNL A   1      42.462  30.642  34.982  1.00  0.00     0.173 A 
ATOM     85  F   UNL A   1      41.548  28.516  32.175  1.00  0.00    -0.203 F 
ATOM     86  C   UNL A   1      41.478  28.096  34.481  1.00  0.00     0.198 A 
ATOM     87  C   UNL A   1      42.246  29.755  36.033  1.00  0.00     0.198 A 
ATOM     88  F   UNL A   1      42.968  31.855  35.255  1.00  0.00    -0.203 F 
ATOM     89  F   UNL A   1      41.008  26.864  34.239  1.00  0.00    -0.200 F 
ATOM     90  C   UNL A   1      41.741  28.488  35.784  1.00  0.00     0.200 A 
ATOM     91  F   UNL A   1      42.548  30.120  37.288  1.00  0.00    -0.200 F 
ATOM     92  F   UNL A   1      41.534  27.637  36.798  1.00  0.00    -0.200 F 
ENDBRANCH  59  82
ENDBRANCH  33  34
ENDBRANCH  26  28
ENDBRANCH  25  26
ENDBRANCH  24  25
ENDBRANCH  23  24
ENDBRANCH  22  23
ENDBRANCH   1  22
TORSDOF 19
ENDMDL
