MODEL 1
REMARK VINA RESULT:     -12.2      0.000      0.000
REMARK SMILES Cc1cccc(-n2c(C)cc(/C=N\c3ccc(O)c(C(=O)OCCOCCOCCOC(=O)c4ccc(-c5c6nc(c(-c7c(F)c(F)c(F)c(F)c7F)c7ccc([nH]7)c(-c7c(F)c(F)c(F)c(F)c7F)c7nc(c(-c8c(F)c(F)c(F)c(F)c8F)c8ccc5[nH]8)C=C7)C=C6)cc4)c3)c2C)c1
REMARK SMILES IDX 26 1 25 2 24 3 23 4 22 5 20 6 21 7 19 8 14 9 15 10 97 11
REMARK SMILES IDX 16 12 17 13 13 14 12 15 11 16 7 17 8 18 98 19 9 20 10 21
REMARK SMILES IDX 99 22 6 23 1 24 2 25 3 26 100 27 4 28 5 29 18 30 27 32 28 33
REMARK SMILES IDX 29 34 30 35 31 36 32 37 33 38 34 39 35 40 96 41 36 42 95 43
REMARK SMILES IDX 37 44 38 45 39 46 89 47 40 48 94 49 88 50 90 51 41 52 93 53
REMARK SMILES IDX 87 54 86 55 42 57 74 58 54 59 73 60 55 61 58 62 72 63 91 64
REMARK SMILES IDX 56 65 57 66 71 68 92 69 59 70 43 71 44 72 52 73 45 74 46 75
REMARK SMILES IDX 50 76 53 77 47 78 48 79 51 80 49 81 75 82 76 83 84 84 77 85
REMARK SMILES IDX 78 86 82 87 85 88 79 89 80 90 83 91 81 92 60 93 61 94 69 95
REMARK SMILES IDX 62 96 63 97 67 98 70 99 64 100 65 101 68 102 66 103
REMARK H PARENT 18 31 90 56 58 67
REMARK Flexibility Score: inf
ROOT
ATOM      1  C   UNL A   1      41.422  20.606  26.538  1.00  0.00     0.188 C 
ENDROOT
BRANCH   1   2
ATOM      2  O   UNL A   1      40.080  21.082  26.364  1.00  0.00    -0.376 OA
BRANCH   2   3
ATOM      3  C   UNL A   1      39.638  22.379  26.802  1.00  0.00     0.202 C 
BRANCH   3   4
ATOM      4  C   UNL A   1      38.465  23.270  26.105  1.00  0.00     0.261 C 
BRANCH   4   5
ATOM      5  O   UNL A   1      37.187  22.652  25.572  1.00  0.00    -0.460 OA
BRANCH   5   6
ATOM      6  C   UNL A   1      36.499  22.668  24.380  1.00  0.00     0.342 C 
ATOM      7  O   UNL A   1      37.046  23.090  23.364  1.00  0.00    -0.246 OA
BRANCH   6   8
ATOM      8  C   UNL A   1      34.885  22.184  24.284  1.00  0.00     0.103 A 
ATOM      9  C   UNL A   1      32.300  22.387  23.932  1.00  0.00     0.064 A 
ATOM     10  C   UNL A   1      32.164  21.117  24.439  1.00  0.00     0.032 A 
ATOM     11  C   UNL A   1      33.655  22.834  23.797  1.00  0.00     0.048 A 
ATOM     12  C   UNL A   1      33.301  20.412  24.883  1.00  0.00     0.049 A 
ATOM     13  C   UNL A   1      34.612  20.945  24.848  1.00  0.00     0.130 A 
BRANCH   9  14
ATOM     14  N   UNL A   1      31.192  23.100  23.389  1.00  0.00    -0.256 NA
ATOM     15  C   UNL A   1      30.915  24.385  23.329  1.00  0.00     0.121 C 
BRANCH  15  16
ATOM     16  C   UNL A   1      31.693  25.605  23.617  1.00  0.00     0.014 A 
ATOM     17  N   UNL A   1      32.688  27.279  24.802  1.00  0.00    -0.318 N 
ATOM     18  C   UNL A   1      33.053  27.468  23.487  1.00  0.00     0.021 A 
ATOM     19  C   UNL A   1      31.962  26.111  24.869  1.00  0.00     0.029 A 
ATOM     20  C   UNL A   1      33.932  28.600  23.075  1.00  0.00     0.065 C 
ATOM     21  C   UNL A   1      32.502  26.417  22.750  1.00  0.00     0.033 A 
ATOM     22  C   UNL A   1      31.496  25.554  26.123  1.00  0.00     0.065 C 
BRANCH  17  23
ATOM     23  C   UNL A   1      32.797  28.179  25.900  1.00  0.00     0.046 A 
ATOM     24  C   UNL A   1      35.736  29.533  27.892  1.00  0.00     0.044 C 
ATOM     25  C   UNL A   1      34.394  29.411  27.235  1.00  0.00    -0.049 A 
ATOM     26  C   UNL A   1      33.516  30.506  27.248  1.00  0.00     0.003 A 
ATOM     27  C   UNL A   1      34.030  28.239  26.558  1.00  0.00     0.030 A 
ATOM     28  C   UNL A   1      32.257  30.413  26.658  1.00  0.00     0.002 A 
ATOM     29  C   UNL A   1      31.882  29.236  26.012  1.00  0.00     0.026 A 
ENDBRANCH  17  23
ENDBRANCH  15  16
ENDBRANCH   9  14
BRANCH  13  30
ATOM     30  O   UNL A   1      35.581  20.162  25.416  1.00  0.00    -0.507 OA
ATOM     31  H   UNL A   1      35.403  19.702  26.212  1.00  0.00     0.293 HD
ENDBRANCH  13  30
ENDBRANCH   6   8
ENDBRANCH   5   6
ENDBRANCH   4   5
ENDBRANCH   3   4
ENDBRANCH   2   3
ENDBRANCH   1   2
BRANCH   1  32
ATOM     32  C   UNL A   1      41.841  19.176  26.302  1.00  0.00     0.188 C 
BRANCH  32  33
ATOM     33  O   UNL A   1      42.538  19.102  25.075  1.00  0.00    -0.376 OA
BRANCH  33  34
ATOM     34  C   UNL A   1      43.884  18.678  25.171  1.00  0.00     0.202 C 
BRANCH  34  35
ATOM     35  C   UNL A   1      44.852  19.487  24.282  1.00  0.00     0.261 C 
BRANCH  35  36
ATOM     36  O   UNL A   1      44.499  20.897  24.277  1.00  0.00    -0.460 OA
BRANCH  36  37
ATOM     37  C   UNL A   1      45.245  21.767  25.032  1.00  0.00     0.338 C 
ATOM     38  O   UNL A   1      46.374  21.521  25.449  1.00  0.00    -0.246 OA
BRANCH  37  39
ATOM     39  C   UNL A   1      44.432  22.976  25.416  1.00  0.00     0.060 A 
ATOM     40  C   UNL A   1      44.234  24.147  24.664  1.00  0.00     0.016 A 
ATOM     41  C   UNL A   1      44.118  23.066  26.732  1.00  0.00     0.016 A 
ATOM     42  C   UNL A   1      43.902  25.423  25.297  1.00  0.00     0.010 A 
ATOM     43  C   UNL A   1      44.153  24.339  27.291  1.00  0.00     0.010 A 
ATOM     44  C   UNL A   1      43.943  25.604  26.689  1.00  0.00    -0.014 A 
BRANCH  44  45
ATOM     45  C   UNL A   1      43.903  26.997  27.545  1.00  0.00     0.031 A 
ATOM     46  C   UNL A   1      42.683  28.008  27.955  1.00  0.00     0.074 A 
ATOM     47  C   UNL A   1      44.971  27.186  28.350  1.00  0.00     0.049 A 
ATOM     48  N   UNL A   1      42.545  28.606  29.113  1.00  0.00    -0.248 NA
ATOM     49  C   UNL A   1      41.478  28.365  27.206  1.00  0.00     0.031 C 
ATOM     50  C   UNL A   1      45.117  27.978  29.578  1.00  0.00     0.029 A 
ATOM     51  N   UNL A   1      46.270  26.717  28.162  1.00  0.00    -0.354 N 
ATOM     52  C   UNL A   1      41.289  29.188  29.247  1.00  0.00     0.074 A 
ATOM     53  C   UNL A   1      40.620  28.967  28.026  1.00  0.00     0.031 C 
ATOM     54  C   UNL A   1      46.416  28.259  29.769  1.00  0.00     0.029 A 
ATOM     55  C   UNL A   1      47.108  27.764  28.602  1.00  0.00     0.049 A 
ATOM     56  H   UNL A   1      46.544  25.843  27.800  1.00  0.00     0.167 HD
ATOM     57  C   UNL A   1      40.959  30.024  30.265  1.00  0.00     0.037 A 
ATOM     58  C   UNL A   1      47.747  28.481  27.637  1.00  0.00     0.037 A 
ATOM     59  C   UNL A   1      42.183  30.704  30.646  1.00  0.00     0.049 A 
ATOM     60  C   UNL A   1      47.138  29.869  27.536  1.00  0.00     0.074 A 
ATOM     61  C   UNL A   1      43.186  30.511  31.569  1.00  0.00     0.029 A 
ATOM     62  N   UNL A   1      42.716  31.529  29.667  1.00  0.00    -0.354 N 
ATOM     63  N   UNL A   1      46.118  30.267  28.258  1.00  0.00    -0.248 NA
ATOM     64  C   UNL A   1      47.604  30.925  26.648  1.00  0.00     0.031 C 
ATOM     65  C   UNL A   1      44.387  31.065  30.997  1.00  0.00     0.029 A 
ATOM     66  C   UNL A   1      44.089  31.628  29.761  1.00  0.00     0.049 A 
ATOM     67  H   UNL A   1      42.178  31.990  28.984  1.00  0.00     0.167 HD
ATOM     68  C   UNL A   1      45.808  31.559  27.995  1.00  0.00     0.074 A 
ATOM     69  C   UNL A   1      46.746  31.922  26.940  1.00  0.00     0.031 C 
ATOM     70  C   UNL A   1      44.826  32.246  28.655  1.00  0.00     0.037 A 
BRANCH  57  71
ATOM     71  C   UNL A   1      39.560  30.363  30.763  1.00  0.00     0.064 A 
ATOM     72  C   UNL A   1      38.973  29.565  31.769  1.00  0.00     0.173 A 
ATOM     73  C   UNL A   1      38.687  31.332  30.210  1.00  0.00     0.173 A 
ATOM     74  F   UNL A   1      39.669  28.579  32.354  1.00  0.00    -0.203 F 
ATOM     75  C   UNL A   1      37.638  29.714  32.177  1.00  0.00     0.198 A 
ATOM     76  C   UNL A   1      37.362  31.506  30.647  1.00  0.00     0.198 A 
ATOM     77  F   UNL A   1      39.052  32.124  29.197  1.00  0.00    -0.203 F 
ATOM     78  F   UNL A   1      37.129  28.888  33.103  1.00  0.00    -0.200 F 
ATOM     79  C   UNL A   1      36.833  30.687  31.620  1.00  0.00     0.200 A 
ATOM     80  F   UNL A   1      36.596  32.460  30.096  1.00  0.00    -0.200 F 
ATOM     81  F   UNL A   1      35.556  30.821  32.003  1.00  0.00    -0.200 F 
ENDBRANCH  57  71
BRANCH  58  82
ATOM     82  C   UNL A   1      48.259  27.524  26.587  1.00  0.00     0.064 A 
ATOM     83  C   UNL A   1      47.596  27.573  25.324  1.00  0.00     0.173 A 
ATOM     84  C   UNL A   1      49.546  26.981  26.585  1.00  0.00     0.173 A 
ATOM     85  F   UNL A   1      46.354  28.086  25.241  1.00  0.00    -0.203 F 
ATOM     86  C   UNL A   1      48.257  27.309  24.126  1.00  0.00     0.198 A 
ATOM     87  C   UNL A   1      50.173  26.620  25.376  1.00  0.00     0.198 A 
ATOM     88  F   UNL A   1      50.265  26.930  27.715  1.00  0.00    -0.203 F 
ATOM     89  F   UNL A   1      47.672  27.606  22.955  1.00  0.00    -0.200 F 
ATOM     90  C   UNL A   1      49.555  26.847  24.153  1.00  0.00     0.200 A 
ATOM     91  F   UNL A   1      51.444  26.192  25.389  1.00  0.00    -0.200 F 
ATOM     92  F   UNL A   1      50.234  26.685  23.006  1.00  0.00    -0.200 F 
ENDBRANCH  58  82
BRANCH  70  93
ATOM     93  C   UNL A   1      44.507  33.647  28.245  1.00  0.00     0.064 A 
ATOM     94  C   UNL A   1      43.891  33.913  27.017  1.00  0.00     0.173 A 
ATOM     95  C   UNL A   1      44.851  34.755  29.042  1.00  0.00     0.173 A 
ATOM     96  F   UNL A   1      43.574  32.911  26.183  1.00  0.00    -0.203 F 
ATOM     97  C   UNL A   1      43.568  35.212  26.640  1.00  0.00     0.198 A 
ATOM     98  C   UNL A   1      44.605  36.056  28.624  1.00  0.00     0.198 A 
ATOM     99  F   UNL A   1      45.402  34.599  30.256  1.00  0.00    -0.203 F 
ATOM    100  F   UNL A   1      42.882  35.422  25.509  1.00  0.00    -0.200 F 
ATOM    101  C   UNL A   1      43.938  36.284  27.436  1.00  0.00     0.200 A 
ATOM    102  F   UNL A   1      44.999  37.084  29.390  1.00  0.00    -0.200 F 
ATOM    103  F   UNL A   1      43.636  37.536  27.066  1.00  0.00    -0.200 F 
ENDBRANCH  70  93
ENDBRANCH  44  45
ENDBRANCH  37  39
ENDBRANCH  36  37
ENDBRANCH  35  36
ENDBRANCH  34  35
ENDBRANCH  33  34
ENDBRANCH  32  33
ENDBRANCH   1  32
TORSDOF 21
ENDMDL
MODEL 2
REMARK VINA RESULT:     -12.2      1.818      2.860
REMARK SMILES Cc1cccc(-n2c(C)cc(/C=N\c3ccc(O)c(C(=O)OCCOCCOCCOC(=O)c4ccc(-c5c6nc(c(-c7c(F)c(F)c(F)c(F)c7F)c7ccc([nH]7)c(-c7c(F)c(F)c(F)c(F)c7F)c7nc(c(-c8c(F)c(F)c(F)c(F)c8F)c8ccc5[nH]8)C=C7)C=C6)cc4)c3)c2C)c1
REMARK SMILES IDX 26 1 25 2 24 3 23 4 22 5 20 6 21 7 19 8 14 9 15 10 97 11
REMARK SMILES IDX 16 12 17 13 13 14 12 15 11 16 7 17 8 18 98 19 9 20 10 21
REMARK SMILES IDX 99 22 6 23 1 24 2 25 3 26 100 27 4 28 5 29 18 30 27 32 28 33
REMARK SMILES IDX 29 34 30 35 31 36 32 37 33 38 34 39 35 40 96 41 36 42 95 43
REMARK SMILES IDX 37 44 38 45 39 46 89 47 40 48 94 49 88 50 90 51 41 52 93 53
REMARK SMILES IDX 87 54 86 55 42 57 74 58 54 59 73 60 55 61 58 62 72 63 91 64
REMARK SMILES IDX 56 65 57 66 71 68 92 69 59 70 43 71 44 72 52 73 45 74 46 75
REMARK SMILES IDX 50 76 53 77 47 78 48 79 51 80 49 81 75 82 76 83 84 84 77 85
REMARK SMILES IDX 78 86 82 87 85 88 79 89 80 90 83 91 81 92 60 93 61 94 69 95
REMARK SMILES IDX 62 96 63 97 67 98 70 99 64 100 65 101 68 102 66 103
REMARK H PARENT 18 31 90 56 58 67
REMARK Flexibility Score: inf
ROOT
ATOM      1  C   UNL A   1      41.873  19.855  27.081  1.00  0.00     0.188 C 
ENDROOT
BRANCH   1   2
ATOM      2  O   UNL A   1      40.720  20.623  26.711  1.00  0.00    -0.376 OA
BRANCH   2   3
ATOM      3  C   UNL A   1      40.529  21.997  27.093  1.00  0.00     0.202 C 
BRANCH   3   4
ATOM      4  C   UNL A   1      39.295  22.952  26.624  1.00  0.00     0.261 C 
BRANCH   4   5
ATOM      5  O   UNL A   1      38.012  22.392  26.043  1.00  0.00    -0.460 OA
BRANCH   5   6
ATOM      6  C   UNL A   1      36.888  22.907  25.439  1.00  0.00     0.342 C 
ATOM      7  O   UNL A   1      36.889  24.067  25.032  1.00  0.00    -0.246 OA
BRANCH   6   8
ATOM      8  C   UNL A   1      35.467  22.007  25.299  1.00  0.00     0.103 A 
ATOM      9  C   UNL A   1      32.928  21.414  25.530  1.00  0.00     0.064 A 
ATOM     10  C   UNL A   1      33.228  20.127  25.153  1.00  0.00     0.032 A 
ATOM     11  C   UNL A   1      34.041  22.318  25.506  1.00  0.00     0.048 A 
ATOM     12  C   UNL A   1      34.566  19.764  24.892  1.00  0.00     0.049 A 
ATOM     13  C   UNL A   1      35.653  20.663  25.005  1.00  0.00     0.130 A 
BRANCH   9  14
ATOM     14  N   UNL A   1      31.584  21.847  25.714  1.00  0.00    -0.256 NA
ATOM     15  C   UNL A   1      30.935  22.910  25.290  1.00  0.00     0.121 C 
BRANCH  15  16
ATOM     16  C   UNL A   1      31.254  23.972  24.317  1.00  0.00     0.014 A 
ATOM     17  N   UNL A   1      31.495  26.057  23.426  1.00  0.00    -0.318 N 
ATOM     18  C   UNL A   1      31.996  25.177  22.491  1.00  0.00     0.021 A 
ATOM     19  C   UNL A   1      31.151  25.327  24.542  1.00  0.00     0.029 A 
ATOM     20  C   UNL A   1      32.552  25.652  21.191  1.00  0.00     0.065 C 
ATOM     21  C   UNL A   1      31.913  23.897  23.042  1.00  0.00     0.033 A 
ATOM     22  C   UNL A   1      30.674  25.946  25.762  1.00  0.00     0.065 C 
BRANCH  17  23
ATOM     23  C   UNL A   1      31.149  27.429  23.270  1.00  0.00     0.046 A 
ATOM     24  C   UNL A   1      27.867  29.252  22.685  1.00  0.00     0.044 C 
ATOM     25  C   UNL A   1      29.268  28.942  23.119  1.00  0.00    -0.049 A 
ATOM     26  C   UNL A   1      29.967  29.867  23.912  1.00  0.00     0.003 A 
ATOM     27  C   UNL A   1      29.865  27.716  22.796  1.00  0.00     0.030 A 
ATOM     28  C   UNL A   1      31.275  29.608  24.316  1.00  0.00     0.002 A 
ATOM     29  C   UNL A   1      31.881  28.402  23.966  1.00  0.00     0.026 A 
ENDBRANCH  17  23
ENDBRANCH  15  16
ENDBRANCH   9  14
BRANCH  13  30
ATOM     30  O   UNL A   1      36.893  20.113  24.816  1.00  0.00    -0.507 OA
ATOM     31  H   UNL A   1      37.237  19.509  25.444  1.00  0.00     0.293 HD
ENDBRANCH  13  30
ENDBRANCH   6   8
ENDBRANCH   5   6
ENDBRANCH   4   5
ENDBRANCH   3   4
ENDBRANCH   2   3
ENDBRANCH   1   2
BRANCH   1  32
ATOM     32  C   UNL A   1      42.388  18.680  26.286  1.00  0.00     0.188 C 
BRANCH  32  33
ATOM     33  O   UNL A   1      42.967  19.158  25.090  1.00  0.00    -0.376 OA
BRANCH  33  34
ATOM     34  C   UNL A   1      44.295  18.732  24.851  1.00  0.00     0.202 C 
BRANCH  34  35
ATOM     35  C   UNL A   1      45.078  19.658  23.896  1.00  0.00     0.261 C 
BRANCH  35  36
ATOM     36  O   UNL A   1      44.604  21.029  23.995  1.00  0.00    -0.460 OA
BRANCH  36  37
ATOM     37  C   UNL A   1      45.156  21.851  24.946  1.00  0.00     0.338 C 
ATOM     38  O   UNL A   1      46.306  21.742  25.364  1.00  0.00    -0.246 OA
BRANCH  37  39
ATOM     39  C   UNL A   1      44.118  22.782  25.516  1.00  0.00     0.060 A 
ATOM     40  C   UNL A   1      43.428  23.807  24.846  1.00  0.00     0.016 A 
ATOM     41  C   UNL A   1      44.073  22.834  26.871  1.00  0.00     0.016 A 
ATOM     42  C   UNL A   1      42.871  24.955  25.561  1.00  0.00     0.010 A 
ATOM     43  C   UNL A   1      43.842  24.084  27.434  1.00  0.00     0.010 A 
ATOM     44  C   UNL A   1      43.144  25.202  26.915  1.00  0.00    -0.014 A 
BRANCH  44  45
ATOM     45  C   UNL A   1      42.870  26.558  27.788  1.00  0.00     0.031 A 
ATOM     46  C   UNL A   1      41.758  27.753  27.655  1.00  0.00     0.074 A 
ATOM     47  C   UNL A   1      43.405  26.541  29.028  1.00  0.00     0.049 A 
ATOM     48  N   UNL A   1      41.142  28.335  28.654  1.00  0.00    -0.248 NA
ATOM     49  C   UNL A   1      41.152  28.330  26.455  1.00  0.00     0.031 C 
ATOM     50  C   UNL A   1      43.022  27.262  30.247  1.00  0.00     0.029 A 
ATOM     51  N   UNL A   1      44.546  25.860  29.450  1.00  0.00    -0.354 N 
ATOM     52  C   UNL A   1      40.080  29.120  28.217  1.00  0.00     0.074 A 
ATOM     53  C   UNL A   1      40.090  29.049  26.809  1.00  0.00     0.031 C 
ATOM     54  C   UNL A   1      44.075  27.312  31.079  1.00  0.00     0.029 A 
ATOM     55  C   UNL A   1      45.184  26.736  30.355  1.00  0.00     0.049 A 
ATOM     56  H   UNL A   1      44.844  24.962  29.176  1.00  0.00     0.167 HD
ATOM     57  C   UNL A   1      39.401  29.973  29.027  1.00  0.00     0.037 A 
ATOM     58  C   UNL A   1      46.311  27.358  29.911  1.00  0.00     0.037 A 
ATOM     59  C   UNL A   1      40.349  30.423  30.030  1.00  0.00     0.049 A 
ATOM     60  C   UNL A   1      46.029  28.832  29.676  1.00  0.00     0.074 A 
ATOM     61  C   UNL A   1      40.718  30.036  31.299  1.00  0.00     0.029 A 
ATOM     62  N   UNL A   1      41.407  31.169  29.534  1.00  0.00    -0.354 N 
ATOM     63  N   UNL A   1      44.850  29.380  29.844  1.00  0.00    -0.248 NA
ATOM     64  C   UNL A   1      47.016  29.815  29.250  1.00  0.00     0.031 C 
ATOM     65  C   UNL A   1      42.106  30.391  31.452  1.00  0.00     0.029 A 
ATOM     66  C   UNL A   1      42.547  31.029  30.298  1.00  0.00     0.049 A 
ATOM     67  H   UNL A   1      41.351  31.733  28.729  1.00  0.00     0.167 HD
ATOM     68  C   UNL A   1      44.891  30.712  29.604  1.00  0.00     0.074 A 
ATOM     69  C   UNL A   1      46.271  30.937  29.190  1.00  0.00     0.031 C 
ATOM     70  C   UNL A   1      43.815  31.540  29.769  1.00  0.00     0.037 A 
BRANCH  57  71
ATOM     71  C   UNL A   1      38.002  30.534  28.810  1.00  0.00     0.064 A 
ATOM     72  C   UNL A   1      36.966  29.666  28.399  1.00  0.00     0.173 A 
ATOM     73  C   UNL A   1      37.637  31.903  28.826  1.00  0.00     0.173 A 
ATOM     74  F   UNL A   1      37.179  28.346  28.297  1.00  0.00    -0.203 F 
ATOM     75  C   UNL A   1      35.690  30.122  28.033  1.00  0.00     0.198 A 
ATOM     76  C   UNL A   1      36.347  32.355  28.497  1.00  0.00     0.198 A 
ATOM     77  F   UNL A   1      38.513  32.870  29.118  1.00  0.00    -0.203 F 
ATOM     78  F   UNL A   1      34.768  29.248  27.605  1.00  0.00    -0.200 F 
ATOM     79  C   UNL A   1      35.379  31.466  28.086  1.00  0.00     0.200 A 
ATOM     80  F   UNL A   1      36.062  33.664  28.558  1.00  0.00    -0.200 F 
ATOM     81  F   UNL A   1      34.164  31.902  27.725  1.00  0.00    -0.200 F 
ENDBRANCH  57  71
BRANCH  58  82
ATOM     82  C   UNL A   1      47.145  26.356  29.149  1.00  0.00     0.064 A 
ATOM     83  C   UNL A   1      47.131  26.486  27.728  1.00  0.00     0.173 A 
ATOM     84  C   UNL A   1      48.234  25.670  29.693  1.00  0.00     0.173 A 
ATOM     85  F   UNL A   1      46.117  27.136  27.127  1.00  0.00    -0.203 F 
ATOM     86  C   UNL A   1      48.232  26.155  26.939  1.00  0.00     0.198 A 
ATOM     87  C   UNL A   1      49.300  25.248  28.875  1.00  0.00     0.198 A 
ATOM     88  F   UNL A   1      48.357  25.533  31.020  1.00  0.00    -0.203 F 
ATOM     89  F   UNL A   1      48.270  26.523  25.649  1.00  0.00    -0.200 F 
ATOM     90  C   UNL A   1      49.326  25.550  27.519  1.00  0.00     0.200 A 
ATOM     91  F   UNL A   1      50.380  24.679  29.431  1.00  0.00    -0.200 F 
ATOM     92  F   UNL A   1      50.430  25.319  26.791  1.00  0.00    -0.200 F 
ENDBRANCH  58  82
BRANCH  70  93
ATOM     93  C   UNL A   1      43.937  32.985  29.410  1.00  0.00     0.064 A 
ATOM     94  C   UNL A   1      44.083  33.961  30.402  1.00  0.00     0.173 A 
ATOM     95  C   UNL A   1      43.864  33.432  28.078  1.00  0.00     0.173 A 
ATOM     96  F   UNL A   1      44.115  33.617  31.698  1.00  0.00    -0.203 F 
ATOM     97  C   UNL A   1      44.224  35.306  30.074  1.00  0.00     0.198 A 
ATOM     98  C   UNL A   1      43.918  34.783  27.759  1.00  0.00     0.198 A 
ATOM     99  F   UNL A   1      43.773  32.569  27.054  1.00  0.00    -0.203 F 
ATOM    100  F   UNL A   1      44.470  36.201  31.039  1.00  0.00    -0.200 F 
ATOM    101  C   UNL A   1      44.127  35.718  28.755  1.00  0.00     0.200 A 
ATOM    102  F   UNL A   1      43.790  35.168  26.481  1.00  0.00    -0.200 F 
ATOM    103  F   UNL A   1      44.251  37.014  28.441  1.00  0.00    -0.200 F 
ENDBRANCH  70  93
ENDBRANCH  44  45
ENDBRANCH  37  39
ENDBRANCH  36  37
ENDBRANCH  35  36
ENDBRANCH  34  35
ENDBRANCH  33  34
ENDBRANCH  32  33
ENDBRANCH   1  32
TORSDOF 21
ENDMDL
MODEL 3
REMARK VINA RESULT:     -12.0      3.803      9.347
REMARK SMILES Cc1cccc(-n2c(C)cc(/C=N\c3ccc(O)c(C(=O)OCCOCCOCCOC(=O)c4ccc(-c5c6nc(c(-c7c(F)c(F)c(F)c(F)c7F)c7ccc([nH]7)c(-c7c(F)c(F)c(F)c(F)c7F)c7nc(c(-c8c(F)c(F)c(F)c(F)c8F)c8ccc5[nH]8)C=C7)C=C6)cc4)c3)c2C)c1
REMARK SMILES IDX 26 1 25 2 24 3 23 4 22 5 20 6 21 7 19 8 14 9 15 10 97 11
REMARK SMILES IDX 16 12 17 13 13 14 12 15 11 16 7 17 8 18 98 19 9 20 10 21
REMARK SMILES IDX 99 22 6 23 1 24 2 25 3 26 100 27 4 28 5 29 18 30 27 32 28 33
REMARK SMILES IDX 29 34 30 35 31 36 32 37 33 38 34 39 35 40 96 41 36 42 95 43
REMARK SMILES IDX 37 44 38 45 39 46 89 47 40 48 94 49 88 50 90 51 41 52 93 53
REMARK SMILES IDX 87 54 86 55 42 57 74 58 54 59 73 60 55 61 58 62 72 63 91 64
REMARK SMILES IDX 56 65 57 66 71 68 92 69 59 70 43 71 44 72 52 73 45 74 46 75
REMARK SMILES IDX 50 76 53 77 47 78 48 79 51 80 49 81 75 82 76 83 84 84 77 85
REMARK SMILES IDX 78 86 82 87 85 88 79 89 80 90 83 91 81 92 60 93 61 94 69 95
REMARK SMILES IDX 62 96 63 97 67 98 70 99 64 100 65 101 68 102 66 103
REMARK H PARENT 18 31 90 56 58 67
REMARK Flexibility Score: inf
ROOT
ATOM      1  C   UNL A   1      37.774  29.850  29.012  1.00  0.00     0.188 C 
ENDROOT
BRANCH   1   2
ATOM      2  O   UNL A   1      36.368  29.582  29.104  1.00  0.00    -0.376 OA
BRANCH   2   3
ATOM      3  C   UNL A   1      35.404  30.083  28.161  1.00  0.00     0.202 C 
BRANCH   3   4
ATOM      4  C   UNL A   1      34.610  29.195  27.049  1.00  0.00     0.261 C 
BRANCH   4   5
ATOM      5  O   UNL A   1      33.665  29.817  26.040  1.00  0.00    -0.460 OA
BRANCH   5   6
ATOM      6  C   UNL A   1      32.302  29.949  25.906  1.00  0.00     0.342 C 
ATOM      7  O   UNL A   1      31.764  31.025  26.155  1.00  0.00    -0.246 OA
BRANCH   6   8
ATOM      8  C   UNL A   1      31.324  28.643  25.473  1.00  0.00     0.103 A 
ATOM      9  C   UNL A   1      30.390  26.198  25.467  1.00  0.00     0.064 A 
ATOM     10  C   UNL A   1      29.664  26.513  24.344  1.00  0.00     0.032 A 
ATOM     11  C   UNL A   1      31.122  27.294  26.032  1.00  0.00     0.048 A 
ATOM     12  C   UNL A   1      29.769  27.800  23.776  1.00  0.00     0.049 A 
ATOM     13  C   UNL A   1      30.605  28.816  24.298  1.00  0.00     0.130 A 
BRANCH   9  14
ATOM     14  N   UNL A   1      30.246  24.943  26.126  1.00  0.00    -0.256 NA
ATOM     15  C   UNL A   1      30.943  23.829  26.061  1.00  0.00     0.121 C 
BRANCH  15  16
ATOM     16  C   UNL A   1      32.237  23.476  25.449  1.00  0.00     0.014 A 
ATOM     17  N   UNL A   1      34.358  22.667  25.243  1.00  0.00    -0.318 N 
ATOM     18  C   UNL A   1      33.978  23.075  23.983  1.00  0.00     0.021 A 
ATOM     19  C   UNL A   1      33.274  22.823  26.077  1.00  0.00     0.029 A 
ATOM     20  C   UNL A   1      34.893  22.949  22.812  1.00  0.00     0.065 C 
ATOM     21  C   UNL A   1      32.658  23.520  24.074  1.00  0.00     0.033 A 
ATOM     22  C   UNL A   1      33.289  22.402  27.463  1.00  0.00     0.065 C 
BRANCH  17  23
ATOM     23  C   UNL A   1      35.659  22.351  25.727  1.00  0.00     0.046 A 
ATOM     24  C   UNL A   1      38.122  19.554  24.984  1.00  0.00     0.044 C 
ATOM     25  C   UNL A   1      37.550  20.885  25.370  1.00  0.00    -0.049 A 
ATOM     26  C   UNL A   1      38.414  21.963  25.618  1.00  0.00     0.003 A 
ATOM     27  C   UNL A   1      36.163  21.081  25.428  1.00  0.00     0.030 A 
ATOM     28  C   UNL A   1      37.908  23.206  25.993  1.00  0.00     0.002 A 
ATOM     29  C   UNL A   1      36.529  23.392  26.082  1.00  0.00     0.026 A 
ENDBRANCH  17  23
ENDBRANCH  15  16
ENDBRANCH   9  14
BRANCH  13  30
ATOM     30  O   UNL A   1      30.663  29.967  23.559  1.00  0.00    -0.507 OA
ATOM     31  H   UNL A   1      31.277  30.637  23.784  1.00  0.00     0.293 HD
ENDBRANCH  13  30
ENDBRANCH   6   8
ENDBRANCH   5   6
ENDBRANCH   4   5
ENDBRANCH   3   4
ENDBRANCH   2   3
ENDBRANCH   1   2
BRANCH   1  32
ATOM     32  C   UNL A   1      38.432  31.079  29.589  1.00  0.00     0.188 C 
BRANCH  32  33
ATOM     33  O   UNL A   1      37.493  31.764  30.392  1.00  0.00    -0.376 OA
BRANCH  33  34
ATOM     34  C   UNL A   1      38.049  32.613  31.379  1.00  0.00     0.202 C 
BRANCH  34  35
ATOM     35  C   UNL A   1      37.917  32.061  32.814  1.00  0.00     0.261 C 
BRANCH  35  36
ATOM     36  O   UNL A   1      39.145  31.405  33.235  1.00  0.00    -0.460 OA
BRANCH  36  37
ATOM     37  C   UNL A   1      39.058  30.221  33.924  1.00  0.00     0.338 C 
ATOM     38  O   UNL A   1      38.451  30.087  34.984  1.00  0.00    -0.246 OA
BRANCH  37  39
ATOM     39  C   UNL A   1      39.939  29.171  33.298  1.00  0.00     0.060 A 
ATOM     40  C   UNL A   1      41.318  28.983  33.497  1.00  0.00     0.016 A 
ATOM     41  C   UNL A   1      39.413  28.549  32.214  1.00  0.00     0.016 A 
ATOM     42  C   UNL A   1      42.158  28.328  32.494  1.00  0.00     0.010 A 
ATOM     43  C   UNL A   1      40.295  28.263  31.177  1.00  0.00     0.010 A 
ATOM     44  C   UNL A   1      41.689  28.015  31.209  1.00  0.00    -0.014 A 
BRANCH  44  45
ATOM     45  C   UNL A   1      42.539  27.571  29.884  1.00  0.00     0.031 A 
ATOM     46  C   UNL A   1      43.068  26.118  29.346  1.00  0.00     0.074 A 
ATOM     47  C   UNL A   1      42.517  28.473  28.879  1.00  0.00     0.049 A 
ATOM     48  N   UNL A   1      43.068  25.722  28.097  1.00  0.00    -0.248 NA
ATOM     49  C   UNL A   1      43.528  24.956  30.106  1.00  0.00     0.031 C 
ATOM     50  C   UNL A   1      42.701  28.301  27.433  1.00  0.00     0.029 A 
ATOM     51  N   UNL A   1      42.383  29.857  28.983  1.00  0.00    -0.354 N 
ATOM     52  C   UNL A   1      43.332  24.361  27.987  1.00  0.00     0.074 A 
ATOM     53  C   UNL A   1      43.570  23.899  29.298  1.00  0.00     0.031 C 
ATOM     54  C   UNL A   1      43.065  29.475  26.893  1.00  0.00     0.029 A 
ATOM     55  C   UNL A   1      43.245  30.386  27.999  1.00  0.00     0.049 A 
ATOM     56  H   UNL A   1      41.811  30.357  29.609  1.00  0.00     0.167 HD
ATOM     57  C   UNL A   1      43.575  23.741  26.803  1.00  0.00     0.037 A 
ATOM     58  C   UNL A   1      44.401  30.953  28.441  1.00  0.00     0.037 A 
ATOM     59  C   UNL A   1      44.196  24.733  25.945  1.00  0.00     0.049 A 
ATOM     60  C   UNL A   1      45.581  30.065  28.083  1.00  0.00     0.074 A 
ATOM     61  C   UNL A   1      43.773  25.644  25.004  1.00  0.00     0.029 A 
ATOM     62  N   UNL A   1      45.438  25.175  26.376  1.00  0.00    -0.354 N 
ATOM     63  N   UNL A   1      45.460  28.908  27.479  1.00  0.00    -0.248 NA
ATOM     64  C   UNL A   1      46.977  30.381  28.353  1.00  0.00     0.031 C 
ATOM     65  C   UNL A   1      44.699  26.748  25.051  1.00  0.00     0.029 A 
ATOM     66  C   UNL A   1      45.695  26.472  25.982  1.00  0.00     0.049 A 
ATOM     67  H   UNL A   1      46.064  24.627  26.903  1.00  0.00     0.167 HD
ATOM     68  C   UNL A   1      46.672  28.349  27.247  1.00  0.00     0.074 A 
ATOM     69  C   UNL A   1      47.600  29.295  27.854  1.00  0.00     0.031 C 
ATOM     70  C   UNL A   1      46.840  27.172  26.571  1.00  0.00     0.037 A 
BRANCH  57  71
ATOM     71  C   UNL A   1      43.443  22.256  26.496  1.00  0.00     0.064 A 
ATOM     72  C   UNL A   1      44.473  21.604  25.783  1.00  0.00     0.173 A 
ATOM     73  C   UNL A   1      42.297  21.453  26.720  1.00  0.00     0.173 A 
ATOM     74  F   UNL A   1      45.602  22.254  25.464  1.00  0.00    -0.203 F 
ATOM     75  C   UNL A   1      44.366  20.280  25.329  1.00  0.00     0.198 A 
ATOM     76  C   UNL A   1      42.206  20.115  26.299  1.00  0.00     0.198 A 
ATOM     77  F   UNL A   1      41.198  21.930  27.313  1.00  0.00    -0.203 F 
ATOM     78  F   UNL A   1      45.362  19.738  24.614  1.00  0.00    -0.200 F 
ATOM     79  C   UNL A   1      43.235  19.533  25.591  1.00  0.00     0.200 A 
ATOM     80  F   UNL A   1      41.100  19.404  26.566  1.00  0.00    -0.200 F 
ATOM     81  F   UNL A   1      43.128  18.273  25.147  1.00  0.00    -0.200 F 
ENDBRANCH  57  71
BRANCH  58  82
ATOM     82  C   UNL A   1      44.094  31.779  29.667  1.00  0.00     0.064 A 
ATOM     83  C   UNL A   1      43.346  32.974  29.441  1.00  0.00     0.173 A 
ATOM     84  C   UNL A   1      44.057  31.266  30.966  1.00  0.00     0.173 A 
ATOM     85  F   UNL A   1      43.328  33.529  28.216  1.00  0.00    -0.203 F 
ATOM     86  C   UNL A   1      42.454  33.482  30.384  1.00  0.00     0.198 A 
ATOM     87  C   UNL A   1      43.228  31.847  31.945  1.00  0.00     0.198 A 
ATOM     88  F   UNL A   1      44.693  30.125  31.265  1.00  0.00    -0.203 F 
ATOM     89  F   UNL A   1      41.594  34.454  30.041  1.00  0.00    -0.200 F 
ATOM     90  C   UNL A   1      42.383  32.906  31.633  1.00  0.00     0.200 A 
ATOM     91  F   UNL A   1      43.133  31.280  33.157  1.00  0.00    -0.200 F 
ATOM     92  F   UNL A   1      41.459  33.321  32.514  1.00  0.00    -0.200 F 
ENDBRANCH  58  82
BRANCH  70  93
ATOM     93  C   UNL A   1      48.211  26.597  26.427  1.00  0.00     0.064 A 
ATOM     94  C   UNL A   1      48.778  25.828  27.450  1.00  0.00     0.173 A 
ATOM     95  C   UNL A   1      49.007  26.838  25.292  1.00  0.00     0.173 A 
ATOM     96  F   UNL A   1      48.099  25.593  28.582  1.00  0.00    -0.203 F 
ATOM     97  C   UNL A   1      50.045  25.268  27.312  1.00  0.00     0.198 A 
ATOM     98  C   UNL A   1      50.304  26.350  25.194  1.00  0.00     0.198 A 
ATOM     99  F   UNL A   1      48.535  27.523  24.238  1.00  0.00    -0.203 F 
ATOM    100  F   UNL A   1      50.513  24.449  28.263  1.00  0.00    -0.200 F 
ATOM    101  C   UNL A   1      50.813  25.541  26.192  1.00  0.00     0.200 A 
ATOM    102  F   UNL A   1      51.046  26.649  24.118  1.00  0.00    -0.200 F 
ATOM    103  F   UNL A   1      52.036  25.010  26.066  1.00  0.00    -0.200 F 
ENDBRANCH  70  93
ENDBRANCH  44  45
ENDBRANCH  37  39
ENDBRANCH  36  37
ENDBRANCH  35  36
ENDBRANCH  34  35
ENDBRANCH  33  34
ENDBRANCH  32  33
ENDBRANCH   1  32
TORSDOF 21
ENDMDL
