MODEL 1
REMARK VINA RESULT:      -8.6      0.000      0.000
REMARK SMILES CCC1(CC)C[NH+]([C@H](CCS(C)(=O)=O)C(=O)OCCOCCOCCOC(=O)c2ccc(-c3c4nc(c(-c5c(F)c(F)c(F)c(F)c5F)c5ccc([nH]5)c(-c5c(F)c(F)c(F)c(F)c5F)c5nc(c(-c6c(F)c(F)c(F)c(F)c6F)c6ccc3[nH]6)C=C5)C=C4)cc2)C1
REMARK SMILES IDX 21 1 20 2 19 3 18 4 17 5 15 6 16 7 8 8 7 9 3 10 6 11 92 12
REMARK SMILES IDX 2 14 1 15 4 16 5 17 9 18 10 19 11 20 12 21 13 22 14 23 22 24
REMARK SMILES IDX 23 25 24 26 25 27 26 28 27 29 28 30 29 31 30 32 91 33 31 34
REMARK SMILES IDX 90 35 32 36 33 37 34 38 84 39 35 40 89 41 83 42 85 43 36 44
REMARK SMILES IDX 88 45 82 46 81 47 37 49 69 50 49 51 68 52 50 53 53 54 67 55
REMARK SMILES IDX 86 56 51 57 52 58 66 60 87 61 54 62 38 63 39 64 47 65 40 66
REMARK SMILES IDX 41 67 45 68 48 69 42 70 43 71 46 72 44 73 70 74 71 75 79 76
REMARK SMILES IDX 72 77 73 78 77 79 80 80 74 81 75 82 78 83 76 84 55 85 56 86
REMARK SMILES IDX 64 87 57 88 58 89 62 90 65 91 59 92 60 93 63 94 61 95
REMARK H PARENT 7 13 85 48 53 59
REMARK Flexibility Score: inf
ROOT
ATOM      1  C   UNL A   1      45.212  43.006  32.566  1.00  0.00     0.188 C 
ENDROOT
BRANCH   1   2
ATOM      2  O   UNL A   1      44.350  43.016  31.438  1.00  0.00    -0.376 OA
BRANCH   2   3
ATOM      3  C   UNL A   1      44.790  42.440  30.218  1.00  0.00     0.202 C 
BRANCH   3   4
ATOM      4  C   UNL A   1      44.883  43.323  28.962  1.00  0.00     0.261 C 
BRANCH   4   5
ATOM      5  O   UNL A   1      45.221  42.691  27.707  1.00  0.00    -0.459 OA
BRANCH   5   6
ATOM      6  C   UNL A   1      45.114  43.468  26.583  1.00  0.00     0.365 C 
ATOM      7  O   UNL A   1      45.258  44.686  26.585  1.00  0.00    -0.245 OA
BRANCH   6   8
ATOM      8  C   UNL A   1      44.711  42.658  25.298  1.00  0.00     0.296 C 
BRANCH   8   9
ATOM      9  N   UNL A   1      44.955  43.559  24.173  1.00  0.00    -0.322 N 
ATOM     10  C   UNL A   1      44.404  43.966  22.177  1.00  0.00     0.068 C 
ATOM     11  C   UNL A   1      43.805  44.245  23.602  1.00  0.00     0.275 C 
ATOM     12  C   UNL A   1      45.292  42.922  22.912  1.00  0.00     0.275 C 
ATOM     13  H   UNL A   1      45.657  44.125  24.649  1.00  0.00     0.348 HD
BRANCH  10  14
ATOM     14  C   UNL A   1      43.322  43.389  21.248  1.00  0.00     0.015 C 
ATOM     15  C   UNL A   1      42.200  42.717  22.028  1.00  0.00     0.005 C 
ENDBRANCH  10  14
BRANCH  10  16
ATOM     16  C   UNL A   1      45.316  45.024  21.532  1.00  0.00     0.015 C 
ATOM     17  C   UNL A   1      44.810  45.432  20.148  1.00  0.00     0.005 C 
ENDBRANCH  10  16
ENDBRANCH   8   9
BRANCH   8  18
ATOM     18  C   UNL A   1      43.384  41.862  25.480  1.00  0.00     0.094 C 
BRANCH  18  19
ATOM     19  C   UNL A   1      43.267  40.525  26.218  1.00  0.00     0.143 C 
BRANCH  19  20
ATOM     20  S   UNL A   1      41.640  40.006  26.758  1.00  0.00     0.147 S 
ATOM     21  C   UNL A   1      41.585  40.402  28.484  1.00  0.00     0.158 C 
ATOM     22  O   UNL A   1      40.673  40.868  26.103  1.00  0.00    -0.229 OA
ATOM     23  O   UNL A   1      41.536  38.566  26.654  1.00  0.00    -0.229 OA
ENDBRANCH  19  20
ENDBRANCH  18  19
ENDBRANCH   8  18
ENDBRANCH   6   8
ENDBRANCH   5   6
ENDBRANCH   4   5
ENDBRANCH   3   4
ENDBRANCH   2   3
ENDBRANCH   1   2
BRANCH   1  24
ATOM     24  C   UNL A   1      45.234  41.775  33.483  1.00  0.00     0.188 C 
BRANCH  24  25
ATOM     25  O   UNL A   1      45.114  40.534  32.826  1.00  0.00    -0.376 OA
BRANCH  25  26
ATOM     26  C   UNL A   1      43.867  39.877  32.933  1.00  0.00     0.202 C 
BRANCH  26  27
ATOM     27  C   UNL A   1      43.617  38.781  31.888  1.00  0.00     0.261 C 
BRANCH  27  28
ATOM     28  O   UNL A   1      44.784  38.274  31.209  1.00  0.00    -0.460 OA
BRANCH  28  29
ATOM     29  C   UNL A   1      44.720  38.143  29.866  1.00  0.00     0.338 C 
ATOM     30  O   UNL A   1      44.829  39.035  29.038  1.00  0.00    -0.246 OA
BRANCH  29  31
ATOM     31  C   UNL A   1      44.738  36.697  29.532  1.00  0.00     0.060 A 
ATOM     32  C   UNL A   1      44.154  36.276  28.327  1.00  0.00     0.016 A 
ATOM     33  C   UNL A   1      45.314  35.760  30.393  1.00  0.00     0.016 A 
ATOM     34  C   UNL A   1      44.089  34.916  28.013  1.00  0.00     0.010 A 
ATOM     35  C   UNL A   1      45.233  34.395  30.084  1.00  0.00     0.010 A 
ATOM     36  C   UNL A   1      44.576  33.963  28.918  1.00  0.00    -0.014 A 
BRANCH  36  37
ATOM     37  C   UNL A   1      44.175  32.538  28.756  1.00  0.00     0.031 A 
ATOM     38  C   UNL A   1      42.841  32.108  29.313  1.00  0.00     0.074 A 
ATOM     39  C   UNL A   1      44.931  31.651  28.086  1.00  0.00     0.049 A 
ATOM     40  N   UNL A   1      42.257  30.936  29.283  1.00  0.00    -0.248 NA
ATOM     41  C   UNL A   1      42.056  33.148  29.998  1.00  0.00     0.031 C 
ATOM     42  C   UNL A   1      46.221  31.934  27.464  1.00  0.00     0.029 A 
ATOM     43  N   UNL A   1      44.712  30.320  27.816  1.00  0.00    -0.354 N 
ATOM     44  C   UNL A   1      41.046  31.099  29.944  1.00  0.00     0.074 A 
ATOM     45  C   UNL A   1      40.995  32.469  30.402  1.00  0.00     0.031 C 
ATOM     46  C   UNL A   1      46.682  30.810  26.886  1.00  0.00     0.029 A 
ATOM     47  C   UNL A   1      45.733  29.721  27.118  1.00  0.00     0.049 A 
ATOM     48  H   UNL A   1      43.898  29.841  28.096  1.00  0.00     0.167 HD
ATOM     49  C   UNL A   1      40.055  30.196  30.141  1.00  0.00     0.037 A 
ATOM     50  C   UNL A   1      45.886  28.441  26.725  1.00  0.00     0.037 A 
ATOM     51  C   UNL A   1      40.100  28.829  29.693  1.00  0.00     0.049 A 
ATOM     52  C   UNL A   1      44.796  27.436  27.014  1.00  0.00     0.074 A 
ATOM     53  C   UNL A   1      39.144  27.840  29.841  1.00  0.00     0.029 A 
ATOM     54  N   UNL A   1      41.167  28.254  29.019  1.00  0.00    -0.354 N 
ATOM     55  N   UNL A   1      43.643  27.606  27.614  1.00  0.00    -0.248 NA
ATOM     56  C   UNL A   1      45.030  26.058  26.555  1.00  0.00     0.031 C 
ATOM     57  C   UNL A   1      39.655  26.652  29.309  1.00  0.00     0.029 A 
ATOM     58  C   UNL A   1      40.899  26.918  28.761  1.00  0.00     0.049 A 
ATOM     59  H   UNL A   1      41.992  28.725  28.761  1.00  0.00     0.167 HD
ATOM     60  C   UNL A   1      42.998  26.375  27.565  1.00  0.00     0.074 A 
ATOM     61  C   UNL A   1      43.885  25.469  26.864  1.00  0.00     0.031 C 
ATOM     62  C   UNL A   1      41.781  26.026  28.052  1.00  0.00     0.037 A 
BRANCH  49  63
ATOM     63  C   UNL A   1      38.844  30.656  30.902  1.00  0.00     0.064 A 
ATOM     64  C   UNL A   1      38.771  30.566  32.302  1.00  0.00     0.173 A 
ATOM     65  C   UNL A   1      37.749  31.215  30.225  1.00  0.00     0.173 A 
ATOM     66  F   UNL A   1      39.782  30.024  32.998  1.00  0.00    -0.203 F 
ATOM     67  C   UNL A   1      37.636  30.988  32.989  1.00  0.00     0.198 A 
ATOM     68  C   UNL A   1      36.631  31.668  30.919  1.00  0.00     0.198 A 
ATOM     69  F   UNL A   1      37.766  31.327  28.889  1.00  0.00    -0.203 F 
ATOM     70  F   UNL A   1      37.566  30.837  34.319  1.00  0.00    -0.200 F 
ATOM     71  C   UNL A   1      36.571  31.546  32.298  1.00  0.00     0.200 A 
ATOM     72  F   UNL A   1      35.608  32.219  30.251  1.00  0.00    -0.200 F 
ATOM     73  F   UNL A   1      35.482  31.957  32.963  1.00  0.00    -0.200 F 
ENDBRANCH  49  63
BRANCH  50  74
ATOM     74  C   UNL A   1      47.119  28.022  26.004  1.00  0.00     0.064 A 
ATOM     75  C   UNL A   1      47.134  27.876  24.609  1.00  0.00     0.173 A 
ATOM     76  C   UNL A   1      48.296  27.708  26.701  1.00  0.00     0.173 A 
ATOM     77  F   UNL A   1      46.025  28.130  23.898  1.00  0.00    -0.203 F 
ATOM     78  C   UNL A   1      48.267  27.409  23.943  1.00  0.00     0.198 A 
ATOM     79  C   UNL A   1      49.438  27.274  26.031  1.00  0.00     0.198 A 
ATOM     80  F   UNL A   1      48.334  27.819  28.037  1.00  0.00    -0.203 F 
ATOM     81  F   UNL A   1      48.229  27.217  22.617  1.00  0.00    -0.200 F 
ATOM     82  C   UNL A   1      49.419  27.114  24.654  1.00  0.00     0.200 A 
ATOM     83  F   UNL A   1      50.552  26.994  26.722  1.00  0.00    -0.200 F 
ATOM     84  F   UNL A   1      50.505  26.659  24.015  1.00  0.00    -0.200 F 
ENDBRANCH  50  74
BRANCH  62  85
ATOM     85  C   UNL A   1      41.302  24.623  27.785  1.00  0.00     0.064 A 
ATOM     86  C   UNL A   1      41.889  23.504  28.394  1.00  0.00     0.173 A 
ATOM     87  C   UNL A   1      40.226  24.400  26.911  1.00  0.00     0.173 A 
ATOM     88  F   UNL A   1      42.924  23.657  29.233  1.00  0.00    -0.203 F 
ATOM     89  C   UNL A   1      41.452  22.214  28.098  1.00  0.00     0.198 A 
ATOM     90  C   UNL A   1      39.765  23.112  26.648  1.00  0.00     0.198 A 
ATOM     91  F   UNL A   1      39.614  25.432  26.310  1.00  0.00    -0.203 F 
ATOM     92  F   UNL A   1      42.078  21.158  28.637  1.00  0.00    -0.200 F 
ATOM     93  C   UNL A   1      40.389  22.019  27.231  1.00  0.00     0.200 A 
ATOM     94  F   UNL A   1      38.723  22.929  25.826  1.00  0.00    -0.200 F 
ATOM     95  F   UNL A   1      39.970  20.778  26.947  1.00  0.00    -0.200 F 
ENDBRANCH  62  85
ENDBRANCH  36  37
ENDBRANCH  29  31
ENDBRANCH  28  29
ENDBRANCH  27  28
ENDBRANCH  26  27
ENDBRANCH  25  26
ENDBRANCH  24  25
ENDBRANCH   1  24
TORSDOF 23
ENDMDL
MODEL 2
REMARK VINA RESULT:      -8.6      4.139      9.196
REMARK SMILES CCC1(CC)C[NH+]([C@H](CCS(C)(=O)=O)C(=O)OCCOCCOCCOC(=O)c2ccc(-c3c4nc(c(-c5c(F)c(F)c(F)c(F)c5F)c5ccc([nH]5)c(-c5c(F)c(F)c(F)c(F)c5F)c5nc(c(-c6c(F)c(F)c(F)c(F)c6F)c6ccc3[nH]6)C=C5)C=C4)cc2)C1
REMARK SMILES IDX 21 1 20 2 19 3 18 4 17 5 15 6 16 7 8 8 7 9 3 10 6 11 92 12
REMARK SMILES IDX 2 14 1 15 4 16 5 17 9 18 10 19 11 20 12 21 13 22 14 23 22 24
REMARK SMILES IDX 23 25 24 26 25 27 26 28 27 29 28 30 29 31 30 32 91 33 31 34
REMARK SMILES IDX 90 35 32 36 33 37 34 38 84 39 35 40 89 41 83 42 85 43 36 44
REMARK SMILES IDX 88 45 82 46 81 47 37 49 69 50 49 51 68 52 50 53 53 54 67 55
REMARK SMILES IDX 86 56 51 57 52 58 66 60 87 61 54 62 38 63 39 64 47 65 40 66
REMARK SMILES IDX 41 67 45 68 48 69 42 70 43 71 46 72 44 73 70 74 71 75 79 76
REMARK SMILES IDX 72 77 73 78 77 79 80 80 74 81 75 82 78 83 76 84 55 85 56 86
REMARK SMILES IDX 64 87 57 88 58 89 62 90 65 91 59 92 60 93 63 94 61 95
REMARK H PARENT 7 13 85 48 53 59
REMARK Flexibility Score: inf
ROOT
ATOM      1  C   UNL A   1      46.278  41.526  25.609  1.00  0.00     0.188 C 
ENDROOT
BRANCH   1   2
ATOM      2  O   UNL A   1      46.482  42.011  24.291  1.00  0.00    -0.376 OA
BRANCH   2   3
ATOM      3  C   UNL A   1      47.066  41.160  23.317  1.00  0.00     0.202 C 
BRANCH   3   4
ATOM      4  C   UNL A   1      46.858  41.476  21.825  1.00  0.00     0.261 C 
BRANCH   4   5
ATOM      5  O   UNL A   1      47.201  42.800  21.354  1.00  0.00    -0.459 OA
BRANCH   5   6
ATOM      6  C   UNL A   1      46.549  43.237  20.230  1.00  0.00     0.365 C 
ATOM      7  O   UNL A   1      47.126  43.592  19.208  1.00  0.00    -0.245 OA
BRANCH   6   8
ATOM      8  C   UNL A   1      44.989  43.312  20.401  1.00  0.00     0.296 C 
BRANCH   8   9
ATOM      9  N   UNL A   1      44.470  43.716  19.095  1.00  0.00    -0.322 N 
ATOM     10  C   UNL A   1      42.803  44.572  18.124  1.00  0.00     0.068 C 
ATOM     11  C   UNL A   1      44.036  45.098  18.944  1.00  0.00     0.275 C 
ATOM     12  C   UNL A   1      43.162  43.191  18.742  1.00  0.00     0.275 C 
ATOM     13  H   UNL A   1      45.288  43.414  18.565  1.00  0.00     0.348 HD
BRANCH  10  14
ATOM     14  C   UNL A   1      41.507  45.220  18.640  1.00  0.00     0.015 C 
ATOM     15  C   UNL A   1      40.330  44.254  18.598  1.00  0.00     0.005 C 
ENDBRANCH  10  14
BRANCH  10  16
ATOM     16  C   UNL A   1      42.915  44.472  16.593  1.00  0.00     0.015 C 
ATOM     17  C   UNL A   1      41.884  45.361  15.896  1.00  0.00     0.005 C 
ENDBRANCH  10  16
ENDBRANCH   8   9
BRANCH   8  18
ATOM     18  C   UNL A   1      44.562  43.995  21.735  1.00  0.00     0.094 C 
BRANCH  18  19
ATOM     19  C   UNL A   1      43.909  43.265  22.913  1.00  0.00     0.143 C 
BRANCH  19  20
ATOM     20  S   UNL A   1      42.304  42.517  22.648  1.00  0.00     0.147 S 
ATOM     21  C   UNL A   1      41.848  41.848  24.224  1.00  0.00     0.158 C 
ATOM     22  O   UNL A   1      41.369  43.591  22.367  1.00  0.00    -0.229 OA
ATOM     23  O   UNL A   1      42.438  41.398  21.740  1.00  0.00    -0.229 OA
ENDBRANCH  19  20
ENDBRANCH  18  19
ENDBRANCH   8  18
ENDBRANCH   6   8
ENDBRANCH   5   6
ENDBRANCH   4   5
ENDBRANCH   3   4
ENDBRANCH   2   3
ENDBRANCH   1   2
BRANCH   1  24
ATOM     24  C   UNL A   1      45.344  40.327  25.832  1.00  0.00     0.188 C 
BRANCH  24  25
ATOM     25  O   UNL A   1      44.999  40.077  27.176  1.00  0.00    -0.376 OA
BRANCH  25  26
ATOM     26  C   UNL A   1      43.777  40.623  27.630  1.00  0.00     0.202 C 
BRANCH  26  27
ATOM     27  C   UNL A   1      42.852  39.637  28.355  1.00  0.00     0.261 C 
BRANCH  27  28
ATOM     28  O   UNL A   1      43.203  38.242  28.248  1.00  0.00    -0.460 OA
BRANCH  28  29
ATOM     29  C   UNL A   1      42.507  37.487  27.371  1.00  0.00     0.338 C 
ATOM     30  O   UNL A   1      41.605  37.862  26.638  1.00  0.00    -0.246 OA
BRANCH  29  31
ATOM     31  C   UNL A   1      43.173  36.166  27.254  1.00  0.00     0.060 A 
ATOM     32  C   UNL A   1      43.735  35.589  28.403  1.00  0.00     0.016 A 
ATOM     33  C   UNL A   1      43.255  35.500  26.028  1.00  0.00     0.016 A 
ATOM     34  C   UNL A   1      44.432  34.381  28.317  1.00  0.00     0.010 A 
ATOM     35  C   UNL A   1      43.969  34.296  25.940  1.00  0.00     0.010 A 
ATOM     36  C   UNL A   1      44.604  33.757  27.073  1.00  0.00    -0.014 A 
BRANCH  36  37
ATOM     37  C   UNL A   1      45.640  32.697  26.930  1.00  0.00     0.031 A 
ATOM     38  C   UNL A   1      47.073  33.126  26.740  1.00  0.00     0.074 A 
ATOM     39  C   UNL A   1      45.346  31.388  27.024  1.00  0.00     0.049 A 
ATOM     40  N   UNL A   1      48.156  32.401  26.614  1.00  0.00    -0.248 NA
ATOM     41  C   UNL A   1      47.316  34.577  26.688  1.00  0.00     0.031 C 
ATOM     42  C   UNL A   1      44.014  30.831  27.244  1.00  0.00     0.029 A 
ATOM     43  N   UNL A   1      46.164  30.285  26.946  1.00  0.00    -0.354 N 
ATOM     44  C   UNL A   1      49.201  33.304  26.464  1.00  0.00     0.074 A 
ATOM     45  C   UNL A   1      48.621  34.628  26.473  1.00  0.00     0.031 C 
ATOM     46  C   UNL A   1      44.104  29.489  27.281  1.00  0.00     0.029 A 
ATOM     47  C   UNL A   1      45.495  29.090  27.062  1.00  0.00     0.049 A 
ATOM     48  H   UNL A   1      47.139  30.346  26.820  1.00  0.00     0.167 HD
ATOM     49  C   UNL A   1      50.529  33.059  26.346  1.00  0.00     0.037 A 
ATOM     50  C   UNL A   1      45.953  27.825  26.989  1.00  0.00     0.037 A 
ATOM     51  C   UNL A   1      51.114  31.745  26.331  1.00  0.00     0.049 A 
ATOM     52  C   UNL A   1      47.429  27.575  26.790  1.00  0.00     0.074 A 
ATOM     53  C   UNL A   1      52.449  31.395  26.220  1.00  0.00     0.029 A 
ATOM     54  N   UNL A   1      50.398  30.560  26.418  1.00  0.00    -0.354 N 
ATOM     55  N   UNL A   1      48.413  28.435  26.679  1.00  0.00    -0.248 NA
ATOM     56  C   UNL A   1      47.858  26.170  26.720  1.00  0.00     0.031 C 
ATOM     57  C   UNL A   1      52.535  30.000  26.181  1.00  0.00     0.029 A 
ATOM     58  C   UNL A   1      51.262  29.479  26.344  1.00  0.00     0.049 A 
ATOM     59  H   UNL A   1      49.420  30.497  26.518  1.00  0.00     0.167 HD
ATOM     60  C   UNL A   1      49.575  27.680  26.571  1.00  0.00     0.074 A 
ATOM     61  C   UNL A   1      49.175  26.290  26.644  1.00  0.00     0.031 C 
ATOM     62  C   UNL A   1      50.858  28.097  26.430  1.00  0.00     0.037 A 
BRANCH  49  63
ATOM     63  C   UNL A   1      51.438  34.246  26.195  1.00  0.00     0.064 A 
ATOM     64  C   UNL A   1      51.819  34.729  24.932  1.00  0.00     0.173 A 
ATOM     65  C   UNL A   1      51.918  34.922  27.327  1.00  0.00     0.173 A 
ATOM     66  F   UNL A   1      51.405  34.109  23.817  1.00  0.00    -0.203 F 
ATOM     67  C   UNL A   1      52.672  35.823  24.811  1.00  0.00     0.198 A 
ATOM     68  C   UNL A   1      52.741  36.037  27.200  1.00  0.00     0.198 A 
ATOM     69  F   UNL A   1      51.583  34.505  28.556  1.00  0.00    -0.203 F 
ATOM     70  F   UNL A   1      53.070  36.230  23.598  1.00  0.00    -0.200 F 
ATOM     71  C   UNL A   1      53.125  36.481  25.945  1.00  0.00     0.200 A 
ATOM     72  F   UNL A   1      53.167  36.680  28.297  1.00  0.00    -0.200 F 
ATOM     73  F   UNL A   1      53.941  37.538  25.826  1.00  0.00    -0.200 F 
ENDBRANCH  49  63
BRANCH  50  74
ATOM     74  C   UNL A   1      45.009  26.679  27.109  1.00  0.00     0.064 A 
ATOM     75  C   UNL A   1      44.441  26.083  25.973  1.00  0.00     0.173 A 
ATOM     76  C   UNL A   1      44.618  26.189  28.363  1.00  0.00     0.173 A 
ATOM     77  F   UNL A   1      44.754  26.537  24.751  1.00  0.00    -0.203 F 
ATOM     78  C   UNL A   1      43.499  25.061  26.089  1.00  0.00     0.198 A 
ATOM     79  C   UNL A   1      43.702  25.145  28.478  1.00  0.00     0.198 A 
ATOM     80  F   UNL A   1      45.122  26.729  29.482  1.00  0.00    -0.203 F 
ATOM     81  F   UNL A   1      42.923  24.557  24.989  1.00  0.00    -0.200 F 
ATOM     82  C   UNL A   1      43.134  24.590  27.340  1.00  0.00     0.200 A 
ATOM     83  F   UNL A   1      43.356  24.688  29.689  1.00  0.00    -0.200 F 
ATOM     84  F   UNL A   1      42.225  23.612  27.452  1.00  0.00    -0.200 F 
ENDBRANCH  50  74
BRANCH  62  85
ATOM     85  C   UNL A   1      51.934  27.044  26.414  1.00  0.00     0.064 A 
ATOM     86  C   UNL A   1      52.183  26.247  25.286  1.00  0.00     0.173 A 
ATOM     87  C   UNL A   1      52.738  26.839  27.547  1.00  0.00     0.173 A 
ATOM     88  F   UNL A   1      51.442  26.395  24.178  1.00  0.00    -0.203 F 
ATOM     89  C   UNL A   1      53.159  25.252  25.311  1.00  0.00     0.198 A 
ATOM     90  C   UNL A   1      53.739  25.871  27.556  1.00  0.00     0.198 A 
ATOM     91  F   UNL A   1      52.556  27.581  28.650  1.00  0.00    -0.203 F 
ATOM     92  F   UNL A   1      53.327  24.455  24.247  1.00  0.00    -0.200 F 
ATOM     93  C   UNL A   1      53.938  25.068  26.443  1.00  0.00     0.200 A 
ATOM     94  F   UNL A   1      54.504  25.710  28.644  1.00  0.00    -0.200 F 
ATOM     95  F   UNL A   1      54.875  24.110  26.466  1.00  0.00    -0.200 F 
ENDBRANCH  62  85
ENDBRANCH  36  37
ENDBRANCH  29  31
ENDBRANCH  28  29
ENDBRANCH  27  28
ENDBRANCH  26  27
ENDBRANCH  25  26
ENDBRANCH  24  25
ENDBRANCH   1  24
TORSDOF 23
ENDMDL
MODEL 3
REMARK VINA RESULT:      -8.5      8.057     14.952
REMARK SMILES CCC1(CC)C[NH+]([C@H](CCS(C)(=O)=O)C(=O)OCCOCCOCCOC(=O)c2ccc(-c3c4nc(c(-c5c(F)c(F)c(F)c(F)c5F)c5ccc([nH]5)c(-c5c(F)c(F)c(F)c(F)c5F)c5nc(c(-c6c(F)c(F)c(F)c(F)c6F)c6ccc3[nH]6)C=C5)C=C4)cc2)C1
REMARK SMILES IDX 21 1 20 2 19 3 18 4 17 5 15 6 16 7 8 8 7 9 3 10 6 11 92 12
REMARK SMILES IDX 2 14 1 15 4 16 5 17 9 18 10 19 11 20 12 21 13 22 14 23 22 24
REMARK SMILES IDX 23 25 24 26 25 27 26 28 27 29 28 30 29 31 30 32 91 33 31 34
REMARK SMILES IDX 90 35 32 36 33 37 34 38 84 39 35 40 89 41 83 42 85 43 36 44
REMARK SMILES IDX 88 45 82 46 81 47 37 49 69 50 49 51 68 52 50 53 53 54 67 55
REMARK SMILES IDX 86 56 51 57 52 58 66 60 87 61 54 62 38 63 39 64 47 65 40 66
REMARK SMILES IDX 41 67 45 68 48 69 42 70 43 71 46 72 44 73 70 74 71 75 79 76
REMARK SMILES IDX 72 77 73 78 77 79 80 80 74 81 75 82 78 83 76 84 55 85 56 86
REMARK SMILES IDX 64 87 57 88 58 89 62 90 65 91 59 92 60 93 63 94 61 95
REMARK H PARENT 7 13 85 48 53 59
REMARK Flexibility Score: inf
ROOT
ATOM      1  C   UNL A   1      37.978  29.403  28.224  1.00  0.00     0.188 C 
ENDROOT
BRANCH   1   2
ATOM      2  O   UNL A   1      38.590  28.215  27.748  1.00  0.00    -0.376 OA
BRANCH   2   3
ATOM      3  C   UNL A   1      39.933  27.930  28.106  1.00  0.00     0.202 C 
BRANCH   3   4
ATOM      4  C   UNL A   1      40.635  26.714  27.476  1.00  0.00     0.261 C 
BRANCH   4   5
ATOM      5  O   UNL A   1      39.822  25.747  26.773  1.00  0.00    -0.459 OA
BRANCH   5   6
ATOM      6  C   UNL A   1      39.438  24.639  27.484  1.00  0.00     0.365 C 
ATOM      7  O   UNL A   1      39.134  24.670  28.673  1.00  0.00    -0.245 OA
BRANCH   6   8
ATOM      8  C   UNL A   1      39.496  23.309  26.651  1.00  0.00     0.296 C 
BRANCH   8   9
ATOM      9  N   UNL A   1      38.109  22.864  26.523  1.00  0.00    -0.322 N 
ATOM     10  C   UNL A   1      36.512  22.663  25.160  1.00  0.00     0.068 C 
ATOM     11  C   UNL A   1      37.817  21.862  25.509  1.00  0.00     0.275 C 
ATOM     12  C   UNL A   1      37.185  23.824  25.945  1.00  0.00     0.275 C 
ATOM     13  H   UNL A   1      38.001  22.595  27.502  1.00  0.00     0.348 HD
BRANCH  10  14
ATOM     14  C   UNL A   1      36.399  22.860  23.638  1.00  0.00     0.015 C 
ATOM     15  C   UNL A   1      34.977  23.195  23.210  1.00  0.00     0.005 C 
ENDBRANCH  10  14
BRANCH  10  16
ATOM     16  C   UNL A   1      35.197  22.288  25.865  1.00  0.00     0.015 C 
ATOM     17  C   UNL A   1      34.375  23.529  26.217  1.00  0.00     0.005 C 
ENDBRANCH  10  16
ENDBRANCH   8   9
BRANCH   8  18
ATOM     18  C   UNL A   1      40.655  22.368  27.101  1.00  0.00     0.094 C 
BRANCH  18  19
ATOM     19  C   UNL A   1      41.648  21.697  26.148  1.00  0.00     0.143 C 
BRANCH  19  20
ATOM     20  S   UNL A   1      41.622  19.910  26.033  1.00  0.00     0.147 S 
ATOM     21  C   UNL A   1      42.018  19.343  27.664  1.00  0.00     0.158 C 
ATOM     22  O   UNL A   1      40.249  19.515  25.779  1.00  0.00    -0.229 OA
ATOM     23  O   UNL A   1      42.691  19.468  25.164  1.00  0.00    -0.229 OA
ENDBRANCH  19  20
ENDBRANCH  18  19
ENDBRANCH   8  18
ENDBRANCH   6   8
ENDBRANCH   5   6
ENDBRANCH   4   5
ENDBRANCH   3   4
ENDBRANCH   2   3
ENDBRANCH   1   2
BRANCH   1  24
ATOM     24  C   UNL A   1      36.449  29.459  28.358  1.00  0.00     0.188 C 
BRANCH  24  25
ATOM     25  O   UNL A   1      35.809  30.418  27.546  1.00  0.00    -0.376 OA
BRANCH  25  26
ATOM     26  C   UNL A   1      34.405  30.310  27.423  1.00  0.00     0.202 C 
BRANCH  26  27
ATOM     27  C   UNL A   1      33.620  31.579  27.780  1.00  0.00     0.261 C 
BRANCH  27  28
ATOM     28  O   UNL A   1      34.409  32.746  28.090  1.00  0.00    -0.460 OA
BRANCH  28  29
ATOM     29  C   UNL A   1      34.003  33.522  29.118  1.00  0.00     0.338 C 
ATOM     30  O   UNL A   1      32.965  34.162  29.184  1.00  0.00    -0.246 OA
BRANCH  29  31
ATOM     31  C   UNL A   1      34.906  33.287  30.272  1.00  0.00     0.060 A 
ATOM     32  C   UNL A   1      35.664  34.360  30.765  1.00  0.00     0.016 A 
ATOM     33  C   UNL A   1      35.016  32.025  30.862  1.00  0.00     0.016 A 
ATOM     34  C   UNL A   1      36.577  34.160  31.803  1.00  0.00     0.010 A 
ATOM     35  C   UNL A   1      35.945  31.822  31.893  1.00  0.00     0.010 A 
ATOM     36  C   UNL A   1      36.766  32.876  32.334  1.00  0.00    -0.014 A 
BRANCH  36  37
ATOM     37  C   UNL A   1      37.976  32.601  33.157  1.00  0.00     0.031 A 
ATOM     38  C   UNL A   1      39.190  32.034  32.466  1.00  0.00     0.074 A 
ATOM     39  C   UNL A   1      38.035  32.897  34.467  1.00  0.00     0.049 A 
ATOM     40  N   UNL A   1      40.368  31.729  32.953  1.00  0.00    -0.248 NA
ATOM     41  C   UNL A   1      39.057  31.776  31.023  1.00  0.00     0.031 C 
ATOM     42  C   UNL A   1      36.954  33.483  35.255  1.00  0.00     0.029 A 
ATOM     43  N   UNL A   1      39.063  32.742  35.368  1.00  0.00    -0.354 N 
ATOM     44  C   UNL A   1      41.107  31.244  31.882  1.00  0.00     0.074 A 
ATOM     45  C   UNL A   1      40.236  31.253  30.728  1.00  0.00     0.031 C 
ATOM     46  C   UNL A   1      37.374  33.636  36.524  1.00  0.00     0.029 A 
ATOM     47  C   UNL A   1      38.744  33.136  36.645  1.00  0.00     0.049 A 
ATOM     48  H   UNL A   1      39.946  32.382  35.121  1.00  0.00     0.167 HD
ATOM     49  C   UNL A   1      42.400  30.841  31.853  1.00  0.00     0.037 A 
ATOM     50  C   UNL A   1      39.471  33.087  37.780  1.00  0.00     0.037 A 
ATOM     51  C   UNL A   1      43.272  30.823  32.998  1.00  0.00     0.049 A 
ATOM     52  C   UNL A   1      40.889  32.570  37.735  1.00  0.00     0.074 A 
ATOM     53  C   UNL A   1      44.598  30.435  33.068  1.00  0.00     0.029 A 
ATOM     54  N   UNL A   1      42.899  31.198  34.280  1.00  0.00    -0.354 N 
ATOM     55  N   UNL A   1      41.589  32.141  36.713  1.00  0.00    -0.248 NA
ATOM     56  C   UNL A   1      41.623  32.546  39.010  1.00  0.00     0.031 C 
ATOM     57  C   UNL A   1      45.012  30.521  34.401  1.00  0.00     0.029 A 
ATOM     58  C   UNL A   1      43.966  31.034  35.150  1.00  0.00     0.049 A 
ATOM     59  H   UNL A   1      42.009  31.534  34.534  1.00  0.00     0.167 HD
ATOM     60  C   UNL A   1      42.852  31.839  37.210  1.00  0.00     0.074 A 
ATOM     61  C   UNL A   1      42.826  32.148  38.625  1.00  0.00     0.031 C 
ATOM     62  C   UNL A   1      43.937  31.356  36.555  1.00  0.00     0.037 A 
BRANCH  49  63
ATOM     63  C   UNL A   1      42.941  30.356  30.538  1.00  0.00     0.064 A 
ATOM     64  C   UNL A   1      42.996  28.989  30.219  1.00  0.00     0.173 A 
ATOM     65  C   UNL A   1      43.392  31.271  29.575  1.00  0.00     0.173 A 
ATOM     66  F   UNL A   1      42.596  28.070  31.111  1.00  0.00    -0.203 F 
ATOM     67  C   UNL A   1      43.512  28.558  29.000  1.00  0.00     0.198 A 
ATOM     68  C   UNL A   1      43.874  30.837  28.343  1.00  0.00     0.198 A 
ATOM     69  F   UNL A   1      43.361  32.588  29.826  1.00  0.00    -0.203 F 
ATOM     70  F   UNL A   1      43.610  27.247  28.741  1.00  0.00    -0.200 F 
ATOM     71  C   UNL A   1      43.942  29.482  28.060  1.00  0.00     0.200 A 
ATOM     72  F   UNL A   1      44.277  31.733  27.431  1.00  0.00    -0.200 F 
ATOM     73  F   UNL A   1      44.433  29.066  26.884  1.00  0.00    -0.200 F 
ENDBRANCH  49  63
BRANCH  50  74
ATOM     74  C   UNL A   1      38.880  33.545  39.067  1.00  0.00     0.064 A 
ATOM     75  C   UNL A   1      38.001  32.729  39.796  1.00  0.00     0.173 A 
ATOM     76  C   UNL A   1      39.143  34.827  39.572  1.00  0.00     0.173 A 
ATOM     77  F   UNL A   1      37.689  31.507  39.340  1.00  0.00    -0.203 F 
ATOM     78  C   UNL A   1      37.389  33.188  40.962  1.00  0.00     0.198 A 
ATOM     79  C   UNL A   1      38.557  35.273  40.755  1.00  0.00     0.198 A 
ATOM     80  F   UNL A   1      39.967  35.652  38.910  1.00  0.00    -0.203 F 
ATOM     81  F   UNL A   1      36.502  32.411  41.599  1.00  0.00    -0.200 F 
ATOM     82  C   UNL A   1      37.671  34.457  41.443  1.00  0.00     0.200 A 
ATOM     83  F   UNL A   1      38.837  36.498  41.220  1.00  0.00    -0.200 F 
ATOM     84  F   UNL A   1      37.078  34.899  42.560  1.00  0.00    -0.200 F 
ENDBRANCH  50  74
BRANCH  62  85
ATOM     85  C   UNL A   1      45.210  31.193  37.344  1.00  0.00     0.064 A 
ATOM     86  C   UNL A   1      46.150  32.228  37.467  1.00  0.00     0.173 A 
ATOM     87  C   UNL A   1      45.485  29.981  37.997  1.00  0.00     0.173 A 
ATOM     88  F   UNL A   1      45.943  33.405  36.860  1.00  0.00    -0.203 F 
ATOM     89  C   UNL A   1      47.339  32.037  38.170  1.00  0.00     0.198 A 
ATOM     90  C   UNL A   1      46.655  29.807  38.732  1.00  0.00     0.198 A 
ATOM     91  F   UNL A   1      44.616  28.961  37.927  1.00  0.00    -0.203 F 
ATOM     92  F   UNL A   1      48.253  33.016  38.212  1.00  0.00    -0.200 F 
ATOM     93  C   UNL A   1      47.588  30.830  38.805  1.00  0.00     0.200 A 
ATOM     94  F   UNL A   1      46.883  28.647  39.362  1.00  0.00    -0.200 F 
ATOM     95  F   UNL A   1      48.731  30.648  39.479  1.00  0.00    -0.200 F 
ENDBRANCH  62  85
ENDBRANCH  36  37
ENDBRANCH  29  31
ENDBRANCH  28  29
ENDBRANCH  27  28
ENDBRANCH  26  27
ENDBRANCH  25  26
ENDBRANCH  24  25
ENDBRANCH   1  24
TORSDOF 23
ENDMDL
