MODEL 1
REMARK VINA RESULT:     -10.2      0.000      0.000
REMARK SMILES CC[C@](O)(C(=O)OCCOCCOCCOC(=O)c1ccc(-c2c3nc(c(-c4c(F)c(F)c(F)c(F)c4F)c4ccc([nH]4)c(-c4c(F)c(F)c(F)c(F)c4F)c4nc(c(-c5c(F)c(F)c(F)c(F)c5F)c5ccc2[nH]5)C=C4)C=C3)cc1)[C@@H](C)c1ccc(C)s1
REMARK SMILES IDX 11 1 10 2 9 3 8 4 7 5 5 6 6 7 3 8 2 9 1 10 82 11 83 12 84 13
REMARK SMILES IDX 85 14 89 15 86 16 87 17 88 18 4 19 12 21 13 22 14 23 15 24
REMARK SMILES IDX 16 25 17 26 18 27 19 28 20 29 81 30 21 31 80 32 22 33 23 34
REMARK SMILES IDX 24 35 74 36 25 37 79 38 73 39 75 40 26 41 78 42 72 43 71 44
REMARK SMILES IDX 27 46 59 47 39 48 58 49 40 50 43 51 57 52 76 53 41 54 42 55
REMARK SMILES IDX 56 57 77 58 44 59 28 60 29 61 37 62 30 63 31 64 35 65 38 66
REMARK SMILES IDX 32 67 33 68 36 69 34 70 60 71 61 72 69 73 62 74 63 75 67 76
REMARK SMILES IDX 70 77 64 78 65 79 68 80 66 81 45 82 46 83 54 84 47 85 48 86
REMARK SMILES IDX 52 87 55 88 49 89 50 90 53 91 51 92
REMARK H PARENT 4 20 75 45 43 56
REMARK Flexibility Score: inf
ROOT
ATOM      1  C   UNL A   1      29.981  27.809  23.018  1.00  0.00     0.188 C 
ENDROOT
BRANCH   1   2
ATOM      2  O   UNL A   1      30.827  26.998  22.234  1.00  0.00    -0.376 OA
BRANCH   2   3
ATOM      3  C   UNL A   1      32.233  27.106  22.404  1.00  0.00     0.202 C 
BRANCH   3   4
ATOM      4  C   UNL A   1      33.194  25.928  22.171  1.00  0.00     0.261 C 
BRANCH   4   5
ATOM      5  O   UNL A   1      32.684  24.621  22.471  1.00  0.00    -0.461 OA
BRANCH   5   6
ATOM      6  C   UNL A   1      33.571  23.707  22.970  1.00  0.00     0.338 C 
ATOM      7  O   UNL A   1      34.698  23.523  22.521  1.00  0.00    -0.249 OA
BRANCH   6   8
ATOM      8  C   UNL A   1      32.989  22.892  24.169  1.00  0.00     0.168 C 
BRANCH   8   9
ATOM      9  C   UNL A   1      33.376  21.428  23.838  1.00  0.00     0.044 C 
ATOM     10  C   UNL A   1      32.303  20.547  23.215  1.00  0.00     0.007 C 
ENDBRANCH   8   9
BRANCH   8  11
ATOM     11  C   UNL A   1      33.630  23.467  25.495  1.00  0.00     0.070 C 
ATOM     12  C   UNL A   1      35.159  23.332  25.594  1.00  0.00     0.017 C 
BRANCH  11  13
ATOM     13  C   UNL A   1      33.282  24.912  25.813  1.00  0.00     0.011 A 
ATOM     14  C   UNL A   1      34.076  26.024  25.597  1.00  0.00     0.016 A 
ATOM     15  S   UNL A   1      31.740  25.385  26.402  1.00  0.00    -0.145 S 
ATOM     16  C   UNL A   1      33.501  27.210  26.136  1.00  0.00     0.015 A 
ATOM     17  C   UNL A   1      32.282  26.967  26.731  1.00  0.00     0.002 A 
ATOM     18  C   UNL A   1      31.454  27.890  27.555  1.00  0.00     0.056 C 
ENDBRANCH  11  13
ENDBRANCH   8  11
BRANCH   8  19
ATOM     19  O   UNL A   1      31.564  22.959  24.194  1.00  0.00    -0.378 OA
ATOM     20  H   UNL A   1      31.238  23.244  23.325  1.00  0.00     0.212 HD
ENDBRANCH   8  19
ENDBRANCH   6   8
ENDBRANCH   5   6
ENDBRANCH   4   5
ENDBRANCH   3   4
ENDBRANCH   2   3
ENDBRANCH   1   2
BRANCH   1  21
ATOM     21  C   UNL A   1      29.938  29.331  22.790  1.00  0.00     0.188 C 
BRANCH  21  22
ATOM     22  O   UNL A   1      30.115  30.233  23.856  1.00  0.00    -0.376 OA
BRANCH  22  23
ATOM     23  C   UNL A   1      31.118  29.985  24.819  1.00  0.00     0.202 C 
BRANCH  23  24
ATOM     24  C   UNL A   1      31.536  31.031  25.867  1.00  0.00     0.261 C 
BRANCH  24  25
ATOM     25  O   UNL A   1      32.730  30.756  26.619  1.00  0.00    -0.460 OA
BRANCH  25  26
ATOM     26  C   UNL A   1      33.293  31.822  27.234  1.00  0.00     0.338 C 
ATOM     27  O   UNL A   1      32.767  32.906  27.473  1.00  0.00    -0.246 OA
BRANCH  26  28
ATOM     28  C   UNL A   1      34.619  31.454  27.768  1.00  0.00     0.060 A 
ATOM     29  C   UNL A   1      34.877  30.108  28.063  1.00  0.00     0.016 A 
ATOM     30  C   UNL A   1      35.580  32.430  28.034  1.00  0.00     0.016 A 
ATOM     31  C   UNL A   1      36.094  29.731  28.634  1.00  0.00     0.010 A 
ATOM     32  C   UNL A   1      36.788  32.055  28.636  1.00  0.00     0.010 A 
ATOM     33  C   UNL A   1      37.042  30.708  28.962  1.00  0.00    -0.014 A 
BRANCH  33  34
ATOM     34  C   UNL A   1      38.210  30.356  29.810  1.00  0.00     0.031 A 
ATOM     35  C   UNL A   1      39.229  29.392  29.265  1.00  0.00     0.074 A 
ATOM     36  C   UNL A   1      38.378  30.879  31.038  1.00  0.00     0.049 A 
ATOM     37  N   UNL A   1      40.279  28.869  29.847  1.00  0.00    -0.248 NA
ATOM     38  C   UNL A   1      39.034  28.963  27.871  1.00  0.00     0.031 C 
ATOM     39  C   UNL A   1      37.508  31.871  31.662  1.00  0.00     0.029 A 
ATOM     40  N   UNL A   1      39.344  30.630  31.985  1.00  0.00    -0.354 N 
ATOM     41  C   UNL A   1      40.862  28.040  28.896  1.00  0.00     0.074 A 
ATOM     42  C   UNL A   1      40.039  28.116  27.707  1.00  0.00     0.031 C 
ATOM     43  C   UNL A   1      37.967  32.134  32.899  1.00  0.00     0.029 A 
ATOM     44  C   UNL A   1      39.139  31.300  33.167  1.00  0.00     0.049 A 
ATOM     45  H   UNL A   1      40.108  30.030  31.830  1.00  0.00     0.167 HD
ATOM     46  C   UNL A   1      41.981  27.285  29.002  1.00  0.00     0.037 A 
ATOM     47  C   UNL A   1      39.804  31.221  34.338  1.00  0.00     0.037 A 
ATOM     48  C   UNL A   1      42.796  27.201  30.186  1.00  0.00     0.049 A 
ATOM     49  C   UNL A   1      40.987  30.291  34.465  1.00  0.00     0.074 A 
ATOM     50  C   UNL A   1      43.956  26.470  30.384  1.00  0.00     0.029 A 
ATOM     51  N   UNL A   1      42.530  27.857  31.378  1.00  0.00    -0.354 N 
ATOM     52  N   UNL A   1      41.545  29.525  33.559  1.00  0.00    -0.248 NA
ATOM     53  C   UNL A   1      41.634  30.216  35.785  1.00  0.00     0.031 C 
ATOM     54  C   UNL A   1      44.354  26.632  31.714  1.00  0.00     0.029 A 
ATOM     55  C   UNL A   1      43.484  27.520  32.326  1.00  0.00     0.049 A 
ATOM     56  H   UNL A   1      41.775  28.471  31.529  1.00  0.00     0.167 HD
ATOM     57  C   UNL A   1      42.624  28.911  34.186  1.00  0.00     0.074 A 
ATOM     58  C   UNL A   1      42.650  29.400  35.547  1.00  0.00     0.031 C 
ATOM     59  C   UNL A   1      43.515  28.023  33.676  1.00  0.00     0.037 A 
BRANCH  46  60
ATOM     60  C   UNL A   1      42.365  26.448  27.817  1.00  0.00     0.064 A 
ATOM     61  C   UNL A   1      41.813  25.177  27.595  1.00  0.00     0.173 A 
ATOM     62  C   UNL A   1      43.282  26.938  26.874  1.00  0.00     0.173 A 
ATOM     63  F   UNL A   1      40.943  24.656  28.473  1.00  0.00    -0.203 F 
ATOM     64  C   UNL A   1      42.188  24.417  26.490  1.00  0.00     0.198 A 
ATOM     65  C   UNL A   1      43.628  26.190  25.754  1.00  0.00     0.198 A 
ATOM     66  F   UNL A   1      43.835  28.149  27.036  1.00  0.00    -0.203 F 
ATOM     67  F   UNL A   1      41.688  23.184  26.327  1.00  0.00    -0.200 F 
ATOM     68  C   UNL A   1      43.089  24.927  25.567  1.00  0.00     0.200 A 
ATOM     69  F   UNL A   1      44.487  26.692  24.855  1.00  0.00    -0.200 F 
ATOM     70  F   UNL A   1      43.444  24.197  24.501  1.00  0.00    -0.200 F 
ENDBRANCH  46  60
BRANCH  47  71
ATOM     71  C   UNL A   1      39.358  32.026  35.508  1.00  0.00     0.064 A 
ATOM     72  C   UNL A   1      38.499  31.484  36.474  1.00  0.00     0.173 A 
ATOM     73  C   UNL A   1      39.743  33.367  35.659  1.00  0.00     0.173 A 
ATOM     74  F   UNL A   1      38.076  30.216  36.357  1.00  0.00    -0.203 F 
ATOM     75  C   UNL A   1      38.022  32.258  37.531  1.00  0.00     0.198 A 
ATOM     76  C   UNL A   1      39.292  34.130  36.735  1.00  0.00     0.198 A 
ATOM     77  F   UNL A   1      40.555  33.939  34.758  1.00  0.00    -0.203 F 
ATOM     78  F   UNL A   1      37.154  31.731  38.405  1.00  0.00    -0.200 F 
ATOM     79  C   UNL A   1      38.424  33.578  37.664  1.00  0.00     0.200 A 
ATOM     80  F   UNL A   1      39.688  35.403  36.863  1.00  0.00    -0.200 F 
ATOM     81  F   UNL A   1      37.963  34.322  38.679  1.00  0.00    -0.200 F 
ENDBRANCH  47  71
BRANCH  59  82
ATOM     82  C   UNL A   1      44.632  27.558  34.572  1.00  0.00     0.064 A 
ATOM     83  C   UNL A   1      45.841  28.261  34.680  1.00  0.00     0.173 A 
ATOM     84  C   UNL A   1      44.467  26.414  35.370  1.00  0.00     0.173 A 
ATOM     85  F   UNL A   1      46.056  29.353  33.931  1.00  0.00    -0.203 F 
ATOM     86  C   UNL A   1      46.851  27.822  35.533  1.00  0.00     0.198 A 
ATOM     87  C   UNL A   1      45.466  26.000  36.248  1.00  0.00     0.198 A 
ATOM     88  F   UNL A   1      43.328  25.707  35.314  1.00  0.00    -0.203 F 
ATOM     89  F   UNL A   1      48.017  28.482  35.582  1.00  0.00    -0.200 F 
ATOM     90  C   UNL A   1      46.660  26.698  36.323  1.00  0.00     0.200 A 
ATOM     91  F   UNL A   1      45.269  24.924  37.023  1.00  0.00    -0.200 F 
ATOM     92  F   UNL A   1      47.629  26.286  37.151  1.00  0.00    -0.200 F 
ENDBRANCH  59  82
ENDBRANCH  33  34
ENDBRANCH  26  28
ENDBRANCH  25  26
ENDBRANCH  24  25
ENDBRANCH  23  24
ENDBRANCH  22  23
ENDBRANCH  21  22
ENDBRANCH   1  21
TORSDOF 21
ENDMDL
MODEL 2
REMARK VINA RESULT:      -9.9      4.281      9.649
REMARK SMILES CC[C@](O)(C(=O)OCCOCCOCCOC(=O)c1ccc(-c2c3nc(c(-c4c(F)c(F)c(F)c(F)c4F)c4ccc([nH]4)c(-c4c(F)c(F)c(F)c(F)c4F)c4nc(c(-c5c(F)c(F)c(F)c(F)c5F)c5ccc2[nH]5)C=C4)C=C3)cc1)[C@@H](C)c1ccc(C)s1
REMARK SMILES IDX 11 1 10 2 9 3 8 4 7 5 5 6 6 7 3 8 2 9 1 10 82 11 83 12 84 13
REMARK SMILES IDX 85 14 89 15 86 16 87 17 88 18 4 19 12 21 13 22 14 23 15 24
REMARK SMILES IDX 16 25 17 26 18 27 19 28 20 29 81 30 21 31 80 32 22 33 23 34
REMARK SMILES IDX 24 35 74 36 25 37 79 38 73 39 75 40 26 41 78 42 72 43 71 44
REMARK SMILES IDX 27 46 59 47 39 48 58 49 40 50 43 51 57 52 76 53 41 54 42 55
REMARK SMILES IDX 56 57 77 58 44 59 28 60 29 61 37 62 30 63 31 64 35 65 38 66
REMARK SMILES IDX 32 67 33 68 36 69 34 70 60 71 61 72 69 73 62 74 63 75 67 76
REMARK SMILES IDX 70 77 64 78 65 79 68 80 66 81 45 82 46 83 54 84 47 85 48 86
REMARK SMILES IDX 52 87 55 88 49 89 50 90 53 91 51 92
REMARK H PARENT 4 20 75 45 43 56
REMARK Flexibility Score: inf
ROOT
ATOM      1  C   UNL A   1      34.619  22.476  26.401  1.00  0.00     0.188 C 
ENDROOT
BRANCH   1   2
ATOM      2  O   UNL A   1      35.639  23.358  25.990  1.00  0.00    -0.376 OA
BRANCH   2   3
ATOM      3  C   UNL A   1      35.601  23.885  24.672  1.00  0.00     0.202 C 
BRANCH   3   4
ATOM      4  C   UNL A   1      34.475  24.808  24.175  1.00  0.00     0.261 C 
BRANCH   4   5
ATOM      5  O   UNL A   1      33.403  24.177  23.461  1.00  0.00    -0.461 OA
BRANCH   5   6
ATOM      6  C   UNL A   1      32.415  24.990  22.978  1.00  0.00     0.338 C 
ATOM      7  O   UNL A   1      32.557  25.765  22.038  1.00  0.00    -0.249 OA
BRANCH   6   8
ATOM      8  C   UNL A   1      31.076  24.851  23.771  1.00  0.00     0.168 C 
BRANCH   8   9
ATOM      9  C   UNL A   1      31.510  24.202  25.111  1.00  0.00     0.044 C 
ATOM     10  C   UNL A   1      30.712  23.000  25.593  1.00  0.00     0.007 C 
ENDBRANCH   8   9
BRANCH   8  11
ATOM     11  C   UNL A   1      30.445  26.295  23.903  1.00  0.00     0.070 C 
ATOM     12  C   UNL A   1      28.912  26.330  24.016  1.00  0.00     0.017 C 
BRANCH  11  13
ATOM     13  C   UNL A   1      31.002  27.147  25.032  1.00  0.00     0.011 A 
ATOM     14  C   UNL A   1      31.024  26.831  26.378  1.00  0.00     0.016 A 
ATOM     15  S   UNL A   1      31.818  28.632  24.754  1.00  0.00    -0.145 S 
ATOM     16  C   UNL A   1      31.492  27.911  27.178  1.00  0.00     0.015 A 
ATOM     17  C   UNL A   1      31.826  29.010  26.417  1.00  0.00     0.002 A 
ATOM     18  C   UNL A   1      32.180  30.381  26.875  1.00  0.00     0.056 C 
ENDBRANCH  11  13
ENDBRANCH   8  11
BRANCH   8  19
ATOM     19  O   UNL A   1      30.188  23.938  23.126  1.00  0.00    -0.378 OA
ATOM     20  H   UNL A   1      30.208  23.086  23.590  1.00  0.00     0.212 HD
ENDBRANCH   8  19
ENDBRANCH   6   8
ENDBRANCH   5   6
ENDBRANCH   4   5
ENDBRANCH   3   4
ENDBRANCH   2   3
ENDBRANCH   1   2
BRANCH   1  21
ATOM     21  C   UNL A   1      34.124  21.369  25.453  1.00  0.00     0.188 C 
BRANCH  21  22
ATOM     22  O   UNL A   1      34.997  20.741  24.545  1.00  0.00    -0.376 OA
BRANCH  22  23
ATOM     23  C   UNL A   1      36.075  19.971  25.037  1.00  0.00     0.202 C 
BRANCH  23  24
ATOM     24  C   UNL A   1      37.541  20.291  24.699  1.00  0.00     0.261 C 
BRANCH  24  25
ATOM     25  O   UNL A   1      38.126  21.428  25.354  1.00  0.00    -0.460 OA
BRANCH  25  26
ATOM     26  C   UNL A   1      39.209  21.169  26.122  1.00  0.00     0.338 C 
ATOM     27  O   UNL A   1      39.788  20.093  26.253  1.00  0.00    -0.246 OA
BRANCH  26  28
ATOM     28  C   UNL A   1      39.749  22.426  26.675  1.00  0.00     0.060 A 
ATOM     29  C   UNL A   1      39.216  23.643  26.227  1.00  0.00     0.016 A 
ATOM     30  C   UNL A   1      40.811  22.415  27.580  1.00  0.00     0.016 A 
ATOM     31  C   UNL A   1      39.747  24.855  26.674  1.00  0.00     0.010 A 
ATOM     32  C   UNL A   1      41.364  23.630  28.002  1.00  0.00     0.010 A 
ATOM     33  C   UNL A   1      40.852  24.856  27.534  1.00  0.00    -0.014 A 
BRANCH  33  34
ATOM     34  C   UNL A   1      41.589  26.119  27.796  1.00  0.00     0.031 A 
ATOM     35  C   UNL A   1      40.884  27.222  28.536  1.00  0.00     0.074 A 
ATOM     36  C   UNL A   1      42.862  26.292  27.396  1.00  0.00     0.049 A 
ATOM     37  N   UNL A   1      41.287  28.439  28.805  1.00  0.00    -0.248 NA
ATOM     38  C   UNL A   1      39.540  26.906  29.045  1.00  0.00     0.031 C 
ATOM     39  C   UNL A   1      43.685  25.287  26.730  1.00  0.00     0.029 A 
ATOM     40  N   UNL A   1      43.678  27.395  27.485  1.00  0.00    -0.354 N 
ATOM     41  C   UNL A   1      40.243  29.036  29.500  1.00  0.00     0.074 A 
ATOM     42  C   UNL A   1      39.182  28.056  29.596  1.00  0.00     0.031 C 
ATOM     43  C   UNL A   1      44.886  25.825  26.451  1.00  0.00     0.029 A 
ATOM     44  C   UNL A   1      44.902  27.223  26.884  1.00  0.00     0.049 A 
ATOM     45  H   UNL A   1      43.412  28.228  27.937  1.00  0.00     0.167 HD
ATOM     46  C   UNL A   1      40.173  30.288  30.012  1.00  0.00     0.037 A 
ATOM     47  C   UNL A   1      45.903  28.104  26.679  1.00  0.00     0.037 A 
ATOM     48  C   UNL A   1      41.223  31.268  29.910  1.00  0.00     0.049 A 
ATOM     49  C   UNL A   1      45.759  29.526  27.169  1.00  0.00     0.074 A 
ATOM     50  C   UNL A   1      41.247  32.560  30.409  1.00  0.00     0.029 A 
ATOM     51  N   UNL A   1      42.428  31.072  29.254  1.00  0.00    -0.354 N 
ATOM     52  N   UNL A   1      44.779  30.080  27.841  1.00  0.00    -0.248 NA
ATOM     53  C   UNL A   1      46.867  30.446  26.866  1.00  0.00     0.031 C 
ATOM     54  C   UNL A   1      42.438  33.166  29.998  1.00  0.00     0.029 A 
ATOM     55  C   UNL A   1      43.188  32.231  29.304  1.00  0.00     0.049 A 
ATOM     56  H   UNL A   1      42.703  30.234  28.816  1.00  0.00     0.167 HD
ATOM     57  C   UNL A   1      45.168  31.395  28.073  1.00  0.00     0.074 A 
ATOM     58  C   UNL A   1      46.477  31.555  27.480  1.00  0.00     0.031 C 
ATOM     59  C   UNL A   1      44.499  32.380  28.724  1.00  0.00     0.037 A 
BRANCH  46  60
ATOM     60  C   UNL A   1      38.896  30.687  30.692  1.00  0.00     0.064 A 
ATOM     61  C   UNL A   1      38.741  30.609  32.085  1.00  0.00     0.173 A 
ATOM     62  C   UNL A   1      37.819  31.179  29.939  1.00  0.00     0.173 A 
ATOM     63  F   UNL A   1      39.734  30.133  32.849  1.00  0.00    -0.203 F 
ATOM     64  C   UNL A   1      37.545  30.982  32.693  1.00  0.00     0.198 A 
ATOM     65  C   UNL A   1      36.638  31.582  30.554  1.00  0.00     0.198 A 
ATOM     66  F   UNL A   1      37.917  31.278  28.605  1.00  0.00    -0.203 F 
ATOM     67  F   UNL A   1      37.400  30.850  34.019  1.00  0.00    -0.200 F 
ATOM     68  C   UNL A   1      36.498  31.474  31.928  1.00  0.00     0.200 A 
ATOM     69  F   UNL A   1      35.633  32.072  29.814  1.00  0.00    -0.200 F 
ATOM     70  F   UNL A   1      35.350  31.838  32.516  1.00  0.00    -0.200 F 
ENDBRANCH  46  60
BRANCH  47  71
ATOM     71  C   UNL A   1      47.133  27.685  25.953  1.00  0.00     0.064 A 
ATOM     72  C   UNL A   1      47.192  27.721  24.553  1.00  0.00     0.173 A 
ATOM     73  C   UNL A   1      48.254  27.196  26.639  1.00  0.00     0.173 A 
ATOM     74  F   UNL A   1      46.134  28.150  23.848  1.00  0.00    -0.203 F 
ATOM     75  C   UNL A   1      48.316  27.262  23.866  1.00  0.00     0.198 A 
ATOM     76  C   UNL A   1      49.389  26.767  25.953  1.00  0.00     0.198 A 
ATOM     77  F   UNL A   1      48.246  27.129  27.979  1.00  0.00    -0.203 F 
ATOM     78  F   UNL A   1      48.321  27.251  22.527  1.00  0.00    -0.200 F 
ATOM     79  C   UNL A   1      49.415  26.791  24.568  1.00  0.00     0.200 A 
ATOM     80  F   UNL A   1      50.452  26.320  26.635  1.00  0.00    -0.200 F 
ATOM     81  F   UNL A   1      50.494  26.347  23.908  1.00  0.00    -0.200 F 
ENDBRANCH  47  71
BRANCH  59  82
ATOM     82  C   UNL A   1      45.187  33.709  28.882  1.00  0.00     0.064 A 
ATOM     83  C   UNL A   1      45.017  34.750  27.957  1.00  0.00     0.173 A 
ATOM     84  C   UNL A   1      45.992  33.959  30.006  1.00  0.00     0.173 A 
ATOM     85  F   UNL A   1      44.269  34.562  26.859  1.00  0.00    -0.203 F 
ATOM     86  C   UNL A   1      45.648  35.979  28.137  1.00  0.00     0.198 A 
ATOM     87  C   UNL A   1      46.591  35.201  30.200  1.00  0.00     0.198 A 
ATOM     88  F   UNL A   1      46.183  33.003  30.928  1.00  0.00    -0.203 F 
ATOM     89  F   UNL A   1      45.510  36.941  27.214  1.00  0.00    -0.200 F 
ATOM     90  C   UNL A   1      46.426  36.207  29.262  1.00  0.00     0.200 A 
ATOM     91  F   UNL A   1      47.328  35.423  31.298  1.00  0.00    -0.200 F 
ATOM     92  F   UNL A   1      47.021  37.395  29.439  1.00  0.00    -0.200 F 
ENDBRANCH  59  82
ENDBRANCH  33  34
ENDBRANCH  26  28
ENDBRANCH  25  26
ENDBRANCH  24  25
ENDBRANCH  23  24
ENDBRANCH  22  23
ENDBRANCH  21  22
ENDBRANCH   1  21
TORSDOF 21
ENDMDL
MODEL 3
REMARK VINA RESULT:      -9.9      1.585      7.780
REMARK SMILES CC[C@](O)(C(=O)OCCOCCOCCOC(=O)c1ccc(-c2c3nc(c(-c4c(F)c(F)c(F)c(F)c4F)c4ccc([nH]4)c(-c4c(F)c(F)c(F)c(F)c4F)c4nc(c(-c5c(F)c(F)c(F)c(F)c5F)c5ccc2[nH]5)C=C4)C=C3)cc1)[C@@H](C)c1ccc(C)s1
REMARK SMILES IDX 11 1 10 2 9 3 8 4 7 5 5 6 6 7 3 8 2 9 1 10 82 11 83 12 84 13
REMARK SMILES IDX 85 14 89 15 86 16 87 17 88 18 4 19 12 21 13 22 14 23 15 24
REMARK SMILES IDX 16 25 17 26 18 27 19 28 20 29 81 30 21 31 80 32 22 33 23 34
REMARK SMILES IDX 24 35 74 36 25 37 79 38 73 39 75 40 26 41 78 42 72 43 71 44
REMARK SMILES IDX 27 46 59 47 39 48 58 49 40 50 43 51 57 52 76 53 41 54 42 55
REMARK SMILES IDX 56 57 77 58 44 59 28 60 29 61 37 62 30 63 31 64 35 65 38 66
REMARK SMILES IDX 32 67 33 68 36 69 34 70 60 71 61 72 69 73 62 74 63 75 67 76
REMARK SMILES IDX 70 77 64 78 65 79 68 80 66 81 45 82 46 83 54 84 47 85 48 86
REMARK SMILES IDX 52 87 55 88 49 89 50 90 53 91 51 92
REMARK H PARENT 4 20 75 45 43 56
REMARK Flexibility Score: inf
ROOT
ATOM      1  C   UNL A   1      31.519  28.366  26.009  1.00  0.00     0.188 C 
ENDROOT
BRANCH   1   2
ATOM      2  O   UNL A   1      30.988  27.315  26.784  1.00  0.00    -0.376 OA
BRANCH   2   3
ATOM      3  C   UNL A   1      30.328  26.243  26.127  1.00  0.00     0.202 C 
BRANCH   3   4
ATOM      4  C   UNL A   1      30.860  25.604  24.833  1.00  0.00     0.261 C 
BRANCH   4   5
ATOM      5  O   UNL A   1      31.705  24.455  24.991  1.00  0.00    -0.461 OA
BRANCH   5   6
ATOM      6  C   UNL A   1      33.039  24.688  25.184  1.00  0.00     0.338 C 
ATOM      7  O   UNL A   1      33.573  25.786  25.063  1.00  0.00    -0.249 OA
BRANCH   6   8
ATOM      8  C   UNL A   1      33.831  23.393  25.552  1.00  0.00     0.168 C 
BRANCH   8   9
ATOM      9  C   UNL A   1      32.941  22.713  26.625  1.00  0.00     0.044 C 
ATOM     10  C   UNL A   1      33.632  22.196  27.878  1.00  0.00     0.007 C 
ENDBRANCH   8   9
BRANCH   8  11
ATOM     11  C   UNL A   1      34.029  22.558  24.224  1.00  0.00     0.070 C 
ATOM     12  C   UNL A   1      35.255  22.950  23.383  1.00  0.00     0.017 C 
BRANCH  11  13
ATOM     13  C   UNL A   1      34.068  21.049  24.404  1.00  0.00     0.011 A 
ATOM     14  C   UNL A   1      35.109  20.301  24.923  1.00  0.00     0.016 A 
ATOM     15  S   UNL A   1      32.715  20.043  24.078  1.00  0.00    -0.145 S 
ATOM     16  C   UNL A   1      34.871  18.902  24.822  1.00  0.00     0.015 A 
ATOM     17  C   UNL A   1      33.650  18.627  24.244  1.00  0.00     0.002 A 
ATOM     18  C   UNL A   1      33.110  17.313  23.802  1.00  0.00     0.056 C 
ENDBRANCH  11  13
ENDBRANCH   8  11
BRANCH   8  19
ATOM     19  O   UNL A   1      35.076  23.710  26.174  1.00  0.00    -0.378 OA
ATOM     20  H   UNL A   1      34.979  24.522  26.696  1.00  0.00     0.212 HD
ENDBRANCH   8  19
ENDBRANCH   6   8
ENDBRANCH   5   6
ENDBRANCH   4   5
ENDBRANCH   3   4
ENDBRANCH   2   3
ENDBRANCH   1   2
BRANCH   1  21
ATOM     21  C   UNL A   1      31.877  29.710  26.669  1.00  0.00     0.188 C 
BRANCH  21  22
ATOM     22  O   UNL A   1      31.559  30.935  26.052  1.00  0.00    -0.376 OA
BRANCH  22  23
ATOM     23  C   UNL A   1      31.405  32.094  26.845  1.00  0.00     0.202 C 
BRANCH  23  24
ATOM     24  C   UNL A   1      32.526  33.134  27.017  1.00  0.00     0.261 C 
BRANCH  24  25
ATOM     25  O   UNL A   1      32.491  33.936  28.208  1.00  0.00    -0.460 OA
BRANCH  25  26
ATOM     26  C   UNL A   1      33.617  34.638  28.475  1.00  0.00     0.338 C 
ATOM     27  O   UNL A   1      33.726  35.857  28.577  1.00  0.00    -0.246 OA
BRANCH  26  28
ATOM     28  C   UNL A   1      34.716  33.716  28.822  1.00  0.00     0.060 A 
ATOM     29  C   UNL A   1      34.402  32.483  29.410  1.00  0.00     0.016 A 
ATOM     30  C   UNL A   1      36.048  34.084  28.628  1.00  0.00     0.016 A 
ATOM     31  C   UNL A   1      35.417  31.615  29.816  1.00  0.00     0.010 A 
ATOM     32  C   UNL A   1      37.065  33.226  29.064  1.00  0.00     0.010 A 
ATOM     33  C   UNL A   1      36.757  31.998  29.682  1.00  0.00    -0.014 A 
BRANCH  33  34
ATOM     34  C   UNL A   1      37.826  31.213  30.351  1.00  0.00     0.031 A 
ATOM     35  C   UNL A   1      38.128  31.496  31.797  1.00  0.00     0.074 A 
ATOM     36  C   UNL A   1      38.517  30.260  29.701  1.00  0.00     0.049 A 
ATOM     37  N   UNL A   1      39.068  31.007  32.567  1.00  0.00    -0.248 NA
ATOM     38  C   UNL A   1      37.245  32.466  32.465  1.00  0.00     0.031 C 
ATOM     39  C   UNL A   1      38.286  29.836  28.323  1.00  0.00     0.029 A 
ATOM     40  N   UNL A   1      39.572  29.484  30.122  1.00  0.00    -0.354 N 
ATOM     41  C   UNL A   1      38.897  31.616  33.803  1.00  0.00     0.074 A 
ATOM     42  C   UNL A   1      37.777  32.525  33.677  1.00  0.00     0.031 C 
ATOM     43  C   UNL A   1      39.186  28.889  28.003  1.00  0.00     0.029 A 
ATOM     44  C   UNL A   1      40.080  28.668  29.140  1.00  0.00     0.049 A 
ATOM     45  H   UNL A   1      39.927  29.509  31.039  1.00  0.00     0.167 HD
ATOM     46  C   UNL A   1      39.609  31.436  34.941  1.00  0.00     0.037 A 
ATOM     47  C   UNL A   1      41.162  27.863  29.151  1.00  0.00     0.037 A 
ATOM     48  C   UNL A   1      40.729  30.540  35.067  1.00  0.00     0.049 A 
ATOM     49  C   UNL A   1      42.003  27.758  30.402  1.00  0.00     0.074 A 
ATOM     50  C   UNL A   1      41.504  30.282  36.186  1.00  0.00     0.029 A 
ATOM     51  N   UNL A   1      41.243  29.766  34.039  1.00  0.00    -0.354 N 
ATOM     52  N   UNL A   1      41.827  28.321  31.573  1.00  0.00    -0.248 NA
ATOM     53  C   UNL A   1      43.197  26.902  30.329  1.00  0.00     0.031 C 
ATOM     54  C   UNL A   1      42.527  29.404  35.816  1.00  0.00     0.029 A 
ATOM     55  C   UNL A   1      42.347  29.058  34.486  1.00  0.00     0.049 A 
ATOM     56  H   UNL A   1      40.878  29.727  33.125  1.00  0.00     0.167 HD
ATOM     57  C   UNL A   1      42.861  27.860  32.381  1.00  0.00     0.074 A 
ATOM     58  C   UNL A   1      43.655  26.962  31.571  1.00  0.00     0.031 C 
ATOM     59  C   UNL A   1      43.125  28.152  33.679  1.00  0.00     0.037 A 
BRANCH  46  60
ATOM     60  C   UNL A   1      39.225  32.263  36.134  1.00  0.00     0.064 A 
ATOM     61  C   UNL A   1      38.299  31.808  37.085  1.00  0.00     0.173 A 
ATOM     62  C   UNL A   1      39.815  33.518  36.342  1.00  0.00     0.173 A 
ATOM     63  F   UNL A   1      37.696  30.620  36.927  1.00  0.00    -0.203 F 
ATOM     64  C   UNL A   1      37.956  32.593  38.182  1.00  0.00     0.198 A 
ATOM     65  C   UNL A   1      39.495  34.286  37.458  1.00  0.00     0.198 A 
ATOM     66  F   UNL A   1      40.711  33.998  35.466  1.00  0.00    -0.203 F 
ATOM     67  F   UNL A   1      37.030  32.162  39.050  1.00  0.00    -0.200 F 
ATOM     68  C   UNL A   1      38.560  33.828  38.372  1.00  0.00     0.200 A 
ATOM     69  F   UNL A   1      40.092  35.472  37.646  1.00  0.00    -0.200 F 
ATOM     70  F   UNL A   1      38.233  34.580  39.432  1.00  0.00    -0.200 F 
ENDBRANCH  46  60
BRANCH  47  71
ATOM     71  C   UNL A   1      41.542  27.101  27.931  1.00  0.00     0.064 A 
ATOM     72  C   UNL A   1      41.085  25.792  27.724  1.00  0.00     0.173 A 
ATOM     73  C   UNL A   1      42.409  27.646  26.971  1.00  0.00     0.173 A 
ATOM     74  F   UNL A   1      40.280  25.213  28.629  1.00  0.00    -0.203 F 
ATOM     75  C   UNL A   1      41.497  25.049  26.618  1.00  0.00     0.198 A 
ATOM     76  C   UNL A   1      42.795  26.914  25.850  1.00  0.00     0.198 A 
ATOM     77  F   UNL A   1      42.886  28.890  27.125  1.00  0.00    -0.203 F 
ATOM     78  F   UNL A   1      41.092  23.780  26.478  1.00  0.00    -0.200 F 
ATOM     79  C   UNL A   1      42.347  25.613  25.680  1.00  0.00     0.200 A 
ATOM     80  F   UNL A   1      43.610  27.465  24.941  1.00  0.00    -0.200 F 
ATOM     81  F   UNL A   1      42.745  24.898  24.618  1.00  0.00    -0.200 F 
ENDBRANCH  47  71
BRANCH  59  82
ATOM     82  C   UNL A   1      44.290  27.457  34.332  1.00  0.00     0.064 A 
ATOM     83  C   UNL A   1      44.171  26.182  34.904  1.00  0.00     0.173 A 
ATOM     84  C   UNL A   1      45.558  28.061  34.339  1.00  0.00     0.173 A 
ATOM     85  F   UNL A   1      42.980  25.565  34.935  1.00  0.00    -0.203 F 
ATOM     86  C   UNL A   1      45.270  25.550  35.483  1.00  0.00     0.198 A 
ATOM     87  C   UNL A   1      46.661  27.410  34.887  1.00  0.00     0.198 A 
ATOM     88  F   UNL A   1      45.734  29.276  33.799  1.00  0.00    -0.203 F 
ATOM     89  F   UNL A   1      45.120  24.354  36.067  1.00  0.00    -0.200 F 
ATOM     90  C   UNL A   1      46.515  26.160  35.466  1.00  0.00     0.200 A 
ATOM     91  F   UNL A   1      47.867  27.995  34.852  1.00  0.00    -0.200 F 
ATOM     92  F   UNL A   1      47.573  25.544  36.012  1.00  0.00    -0.200 F 
ENDBRANCH  59  82
ENDBRANCH  33  34
ENDBRANCH  26  28
ENDBRANCH  25  26
ENDBRANCH  24  25
ENDBRANCH  23  24
ENDBRANCH  22  23
ENDBRANCH  21  22
ENDBRANCH   1  21
TORSDOF 21
ENDMDL
