MODEL 1
REMARK VINA RESULT:      -9.3      0.000      0.000
REMARK SMILES CCC[C@H](C)C[N@H+]1[C@@H]2CC[C@H]1C[C@H](CC(=O)OCCOCCOCCOC(=O)c1ccc(-c3c4nc(c(-c5c(F)c(F)c(F)c(F)c5F)c5ccc([nH]5)c(-c5c(F)c(F)c(F)c(F)c5F)c5nc(c(-c6c(F)c(F)c(F)c(F)c6F)c6ccc3[nH]6)C=C5)C=C4)cc1)C2
REMARK SMILES IDX 20 1 19 2 18 3 17 4 15 5 16 6 14 7 13 8 7 9 8 10 11 11 9 13
REMARK SMILES IDX 92 14 10 15 12 16 6 17 4 18 5 19 3 20 2 21 1 22 21 23 22 24
REMARK SMILES IDX 23 25 24 26 25 27 26 28 27 29 28 30 29 31 30 32 91 33 31 34
REMARK SMILES IDX 90 35 32 36 33 37 34 38 84 39 35 40 89 41 83 42 85 43 36 44
REMARK SMILES IDX 88 45 82 46 81 47 37 49 69 50 49 51 68 52 50 53 53 54 67 55
REMARK SMILES IDX 86 56 51 57 52 58 66 60 87 61 54 62 38 63 39 64 47 65 40 66
REMARK SMILES IDX 41 67 45 68 48 69 42 70 43 71 46 72 44 73 70 74 71 75 79 76
REMARK SMILES IDX 72 77 73 78 77 79 80 80 74 81 75 82 78 83 76 84 55 85 56 86
REMARK SMILES IDX 64 87 57 88 58 89 62 90 65 91 59 92 60 93 63 94 61 95
REMARK H PARENT 7 12 85 48 53 59
REMARK Flexibility Score: inf
ROOT
ATOM      1  O   UNL A   1      35.623  32.299  27.625  1.00  0.00    -0.376 OA
ENDROOT
BRANCH   1   2
ATOM      2  C   UNL A   1      35.217  31.147  28.369  1.00  0.00     0.202 C 
BRANCH   2   3
ATOM      3  C   UNL A   1      35.359  29.782  27.675  1.00  0.00     0.261 C 
BRANCH   3   4
ATOM      4  O   UNL A   1      34.091  29.106  27.548  1.00  0.00    -0.463 OA
BRANCH   4   5
ATOM      5  C   UNL A   1      33.676  28.850  26.281  1.00  0.00     0.306 C 
ATOM      6  O   UNL A   1      33.539  29.697  25.404  1.00  0.00    -0.252 OA
BRANCH   5   7
ATOM      7  C   UNL A   1      33.565  27.362  25.996  1.00  0.00     0.126 C 
BRANCH   7   8
ATOM      8  C   UNL A   1      32.333  26.761  25.271  1.00  0.00     0.012 C 
ATOM      9  N   UNL A   1      30.815  24.251  25.429  1.00  0.00    -0.330 N 
ATOM     10  C   UNL A   1      30.154  25.477  25.858  1.00  0.00     0.184 C 
ATOM     11  C   UNL A   1      31.440  24.576  24.162  1.00  0.00     0.184 C 
ATOM     12  H   UNL A   1      30.240  23.442  25.197  1.00  0.00     0.348 HD
ATOM     13  C   UNL A   1      29.461  25.929  24.570  1.00  0.00     0.071 C 
ATOM     14  C   UNL A   1      31.215  26.479  26.318  1.00  0.00     0.069 C 
ATOM     15  C   UNL A   1      30.252  25.252  23.450  1.00  0.00     0.071 C 
ATOM     16  C   UNL A   1      32.587  25.596  24.283  1.00  0.00     0.069 C 
BRANCH   9  17
ATOM     17  C   UNL A   1      31.316  23.353  26.464  1.00  0.00     0.265 C 
BRANCH  17  18
ATOM     18  C   UNL A   1      32.775  22.806  26.578  1.00  0.00     0.041 C 
ATOM     19  C   UNL A   1      33.254  22.507  27.987  1.00  0.00     0.013 C 
BRANCH  18  20
ATOM     20  C   UNL A   1      32.976  21.567  25.652  1.00  0.00     0.009 C 
BRANCH  20  21
ATOM     21  C   UNL A   1      34.020  21.635  24.518  1.00  0.00    -0.003 C 
ATOM     22  C   UNL A   1      35.027  22.771  24.613  1.00  0.00     0.004 C 
ENDBRANCH  20  21
ENDBRANCH  18  20
ENDBRANCH  17  18
ENDBRANCH   9  17
ENDBRANCH   7   8
ENDBRANCH   5   7
ENDBRANCH   4   5
ENDBRANCH   3   4
ENDBRANCH   2   3
ENDBRANCH   1   2
BRANCH   1  23
ATOM     23  C   UNL A   1      35.246  33.566  28.142  1.00  0.00     0.188 C 
BRANCH  23  24
ATOM     24  C   UNL A   1      33.813  33.734  28.676  1.00  0.00     0.188 C 
BRANCH  24  25
ATOM     25  O   UNL A   1      33.689  34.151  30.029  1.00  0.00    -0.376 OA
BRANCH  25  26
ATOM     26  C   UNL A   1      34.487  33.430  30.978  1.00  0.00     0.202 C 
BRANCH  26  27
ATOM     27  C   UNL A   1      35.078  34.283  32.111  1.00  0.00     0.261 C 
BRANCH  27  28
ATOM     28  O   UNL A   1      36.483  34.044  32.333  1.00  0.00    -0.460 OA
BRANCH  28  29
ATOM     29  C   UNL A   1      36.829  32.858  32.886  1.00  0.00     0.338 C 
ATOM     30  O   UNL A   1      36.233  32.266  33.771  1.00  0.00    -0.246 OA
BRANCH  29  31
ATOM     31  C   UNL A   1      37.911  32.256  32.061  1.00  0.00     0.060 A 
ATOM     32  C   UNL A   1      38.931  31.551  32.716  1.00  0.00     0.016 A 
ATOM     33  C   UNL A   1      37.887  32.301  30.662  1.00  0.00     0.016 A 
ATOM     34  C   UNL A   1      39.940  30.921  31.981  1.00  0.00     0.010 A 
ATOM     35  C   UNL A   1      38.898  31.674  29.928  1.00  0.00     0.010 A 
ATOM     36  C   UNL A   1      39.946  31.007  30.582  1.00  0.00    -0.014 A 
BRANCH  36  37
ATOM     37  C   UNL A   1      41.142  30.583  29.812  1.00  0.00     0.031 A 
ATOM     38  C   UNL A   1      41.151  29.198  29.224  1.00  0.00     0.074 A 
ATOM     39  C   UNL A   1      42.199  31.393  29.628  1.00  0.00     0.049 A 
ATOM     40  N   UNL A   1      42.095  28.577  28.564  1.00  0.00    -0.248 NA
ATOM     41  C   UNL A   1      39.923  28.407  29.408  1.00  0.00     0.031 C 
ATOM     42  C   UNL A   1      42.309  32.767  30.106  1.00  0.00     0.029 A 
ATOM     43  N   UNL A   1      43.394  31.160  28.989  1.00  0.00    -0.354 N 
ATOM     44  C   UNL A   1      41.578  27.326  28.258  1.00  0.00     0.074 A 
ATOM     45  C   UNL A   1      40.250  27.262  28.830  1.00  0.00     0.031 C 
ATOM     46  C   UNL A   1      43.513  33.255  29.754  1.00  0.00     0.029 A 
ATOM     47  C   UNL A   1      44.269  32.216  29.054  1.00  0.00     0.049 A 
ATOM     48  H   UNL A   1      43.603  30.315  28.528  1.00  0.00     0.167 HD
ATOM     49  C   UNL A   1      42.150  26.322  27.554  1.00  0.00     0.037 A 
ATOM     50  C   UNL A   1      45.541  32.320  28.618  1.00  0.00     0.037 A 
ATOM     51  C   UNL A   1      43.471  26.372  26.989  1.00  0.00     0.049 A 
ATOM     52  C   UNL A   1      46.192  31.151  27.918  1.00  0.00     0.074 A 
ATOM     53  C   UNL A   1      44.128  25.406  26.247  1.00  0.00     0.029 A 
ATOM     54  N   UNL A   1      44.342  27.443  27.114  1.00  0.00    -0.354 N 
ATOM     55  N   UNL A   1      45.686  29.982  27.606  1.00  0.00    -0.248 NA
ATOM     56  C   UNL A   1      47.597  31.319  27.513  1.00  0.00     0.031 C 
ATOM     57  C   UNL A   1      45.417  25.871  25.967  1.00  0.00     0.029 A 
ATOM     58  C   UNL A   1      45.543  27.148  26.488  1.00  0.00     0.049 A 
ATOM     59  H   UNL A   1      44.139  28.286  27.577  1.00  0.00     0.167 HD
ATOM     60  C   UNL A   1      46.697  29.291  26.945  1.00  0.00     0.074 A 
ATOM     61  C   UNL A   1      47.842  30.174  26.890  1.00  0.00     0.031 C 
ATOM     62  C   UNL A   1      46.676  28.036  26.430  1.00  0.00     0.037 A 
BRANCH  49  63
ATOM     63  C   UNL A   1      41.351  25.065  27.380  1.00  0.00     0.064 A 
ATOM     64  C   UNL A   1      41.649  23.899  28.101  1.00  0.00     0.173 A 
ATOM     65  C   UNL A   1      40.262  25.034  26.497  1.00  0.00     0.173 A 
ATOM     66  F   UNL A   1      42.694  23.873  28.942  1.00  0.00    -0.203 F 
ATOM     67  C   UNL A   1      40.899  22.740  27.924  1.00  0.00     0.198 A 
ATOM     68  C   UNL A   1      39.498  23.882  26.345  1.00  0.00     0.198 A 
ATOM     69  F   UNL A   1      39.937  26.124  25.785  1.00  0.00    -0.203 F 
ATOM     70  F   UNL A   1      41.231  21.622  28.585  1.00  0.00    -0.200 F 
ATOM     71  C   UNL A   1      39.821  22.734  27.052  1.00  0.00     0.200 A 
ATOM     72  F   UNL A   1      38.451  23.880  25.509  1.00  0.00    -0.200 F 
ATOM     73  F   UNL A   1      39.098  21.617  26.886  1.00  0.00    -0.200 F 
ENDBRANCH  49  63
BRANCH  50  74
ATOM     74  C   UNL A   1      46.309  33.572  28.847  1.00  0.00     0.064 A 
ATOM     75  C   UNL A   1      47.027  33.774  30.034  1.00  0.00     0.173 A 
ATOM     76  C   UNL A   1      46.300  34.612  27.906  1.00  0.00     0.173 A 
ATOM     77  F   UNL A   1      47.038  32.822  30.979  1.00  0.00    -0.203 F 
ATOM     78  C   UNL A   1      47.690  34.976  30.280  1.00  0.00     0.198 A 
ATOM     79  C   UNL A   1      46.986  35.802  28.142  1.00  0.00     0.198 A 
ATOM     80  F   UNL A   1      45.618  34.475  26.760  1.00  0.00    -0.203 F 
ATOM     81  F   UNL A   1      48.322  35.162  31.447  1.00  0.00    -0.200 F 
ATOM     82  C   UNL A   1      47.673  35.987  29.332  1.00  0.00     0.200 A 
ATOM     83  F   UNL A   1      46.969  36.776  27.220  1.00  0.00    -0.200 F 
ATOM     84  F   UNL A   1      48.304  37.144  29.571  1.00  0.00    -0.200 F 
ENDBRANCH  50  74
BRANCH  62  85
ATOM     85  C   UNL A   1      47.912  27.548  25.731  1.00  0.00     0.064 A 
ATOM     86  C   UNL A   1      48.076  27.680  24.344  1.00  0.00     0.173 A 
ATOM     87  C   UNL A   1      48.970  26.989  26.465  1.00  0.00     0.173 A 
ATOM     88  F   UNL A   1      47.091  28.195  23.594  1.00  0.00    -0.203 F 
ATOM     89  C   UNL A   1      49.244  27.250  23.716  1.00  0.00     0.198 A 
ATOM     90  C   UNL A   1      50.148  26.589  25.839  1.00  0.00     0.198 A 
ATOM     91  F   UNL A   1      48.870  26.849  27.795  1.00  0.00    -0.203 F 
ATOM     92  F   UNL A   1      49.361  27.347  22.385  1.00  0.00    -0.200 F 
ATOM     93  C   UNL A   1      50.281  26.713  24.465  1.00  0.00     0.200 A 
ATOM     94  F   UNL A   1      51.154  26.085  26.566  1.00  0.00    -0.200 F 
ATOM     95  F   UNL A   1      51.407  26.309  23.859  1.00  0.00    -0.200 F 
ENDBRANCH  62  85
ENDBRANCH  36  37
ENDBRANCH  29  31
ENDBRANCH  28  29
ENDBRANCH  27  28
ENDBRANCH  26  27
ENDBRANCH  25  26
ENDBRANCH  24  25
ENDBRANCH  23  24
ENDBRANCH   1  23
TORSDOF 22
ENDMDL
MODEL 2
REMARK VINA RESULT:      -9.2      1.848      7.849
REMARK SMILES CCC[C@H](C)C[N@H+]1[C@@H]2CC[C@H]1C[C@H](CC(=O)OCCOCCOCCOC(=O)c1ccc(-c3c4nc(c(-c5c(F)c(F)c(F)c(F)c5F)c5ccc([nH]5)c(-c5c(F)c(F)c(F)c(F)c5F)c5nc(c(-c6c(F)c(F)c(F)c(F)c6F)c6ccc3[nH]6)C=C5)C=C4)cc1)C2
REMARK SMILES IDX 20 1 19 2 18 3 17 4 15 5 16 6 14 7 13 8 7 9 8 10 11 11 9 13
REMARK SMILES IDX 92 14 10 15 12 16 6 17 4 18 5 19 3 20 2 21 1 22 21 23 22 24
REMARK SMILES IDX 23 25 24 26 25 27 26 28 27 29 28 30 29 31 30 32 91 33 31 34
REMARK SMILES IDX 90 35 32 36 33 37 34 38 84 39 35 40 89 41 83 42 85 43 36 44
REMARK SMILES IDX 88 45 82 46 81 47 37 49 69 50 49 51 68 52 50 53 53 54 67 55
REMARK SMILES IDX 86 56 51 57 52 58 66 60 87 61 54 62 38 63 39 64 47 65 40 66
REMARK SMILES IDX 41 67 45 68 48 69 42 70 43 71 46 72 44 73 70 74 71 75 79 76
REMARK SMILES IDX 72 77 73 78 77 79 80 80 74 81 75 82 78 83 76 84 55 85 56 86
REMARK SMILES IDX 64 87 57 88 58 89 62 90 65 91 59 92 60 93 63 94 61 95
REMARK H PARENT 7 12 85 48 53 59
REMARK Flexibility Score: inf
ROOT
ATOM      1  O   UNL A   1      35.574  30.256  29.297  1.00  0.00    -0.376 OA
ENDROOT
BRANCH   1   2
ATOM      2  C   UNL A   1      36.068  29.528  28.168  1.00  0.00     0.202 C 
BRANCH   2   3
ATOM      3  C   UNL A   1      35.105  29.333  26.987  1.00  0.00     0.261 C 
BRANCH   3   4
ATOM      4  O   UNL A   1      33.836  28.792  27.408  1.00  0.00    -0.463 OA
BRANCH   4   5
ATOM      5  C   UNL A   1      32.731  29.417  26.925  1.00  0.00     0.306 C 
ATOM      6  O   UNL A   1      32.595  30.633  26.838  1.00  0.00    -0.252 OA
BRANCH   5   7
ATOM      7  C   UNL A   1      31.729  28.445  26.326  1.00  0.00     0.126 C 
BRANCH   7   8
ATOM      8  C   UNL A   1      31.917  27.855  24.905  1.00  0.00     0.012 C 
ATOM      9  N   UNL A   1      30.935  28.499  22.212  1.00  0.00    -0.330 N 
ATOM     10  C   UNL A   1      32.354  28.686  22.485  1.00  0.00     0.184 C 
ATOM     11  C   UNL A   1      30.613  27.190  22.746  1.00  0.00     0.184 C 
ATOM     12  H   UNL A   1      30.630  28.430  21.241  1.00  0.00     0.348 HD
ATOM     13  C   UNL A   1      32.940  27.339  22.055  1.00  0.00     0.071 C 
ATOM     14  C   UNL A   1      32.543  28.941  23.981  1.00  0.00     0.069 C 
ATOM     15  C   UNL A   1      31.762  26.367  22.132  1.00  0.00     0.071 C 
ATOM     16  C   UNL A   1      30.712  27.108  24.280  1.00  0.00     0.069 C 
BRANCH   9  17
ATOM     17  C   UNL A   1      30.086  29.686  22.189  1.00  0.00     0.265 C 
BRANCH  17  18
ATOM     18  C   UNL A   1      29.218  30.216  23.375  1.00  0.00     0.041 C 
ATOM     19  C   UNL A   1      29.887  31.245  24.267  1.00  0.00     0.013 C 
BRANCH  18  20
ATOM     20  C   UNL A   1      27.842  30.742  22.861  1.00  0.00     0.009 C 
BRANCH  20  21
ATOM     21  C   UNL A   1      27.639  30.969  21.348  1.00  0.00    -0.003 C 
ATOM     22  C   UNL A   1      28.066  32.330  20.820  1.00  0.00     0.004 C 
ENDBRANCH  20  21
ENDBRANCH  18  20
ENDBRANCH  17  18
ENDBRANCH   9  17
ENDBRANCH   7   8
ENDBRANCH   5   7
ENDBRANCH   4   5
ENDBRANCH   3   4
ENDBRANCH   2   3
ENDBRANCH   1   2
BRANCH   1  23
ATOM     23  C   UNL A   1      35.804  31.656  29.313  1.00  0.00     0.188 C 
BRANCH  23  24
ATOM     24  C   UNL A   1      34.593  32.588  29.491  1.00  0.00     0.188 C 
BRANCH  24  25
ATOM     25  O   UNL A   1      34.282  32.970  30.824  1.00  0.00    -0.376 OA
BRANCH  25  26
ATOM     26  C   UNL A   1      35.068  32.348  31.849  1.00  0.00     0.202 C 
BRANCH  26  27
ATOM     27  C   UNL A   1      35.296  33.206  33.103  1.00  0.00     0.261 C 
BRANCH  27  28
ATOM     28  O   UNL A   1      36.589  33.001  33.708  1.00  0.00    -0.460 OA
BRANCH  28  29
ATOM     29  C   UNL A   1      37.593  33.820  33.316  1.00  0.00     0.338 C 
ATOM     30  O   UNL A   1      37.828  34.938  33.743  1.00  0.00    -0.246 OA
BRANCH  29  31
ATOM     31  C   UNL A   1      38.529  33.037  32.465  1.00  0.00     0.060 A 
ATOM     32  C   UNL A   1      39.363  32.097  33.087  1.00  0.00     0.016 A 
ATOM     33  C   UNL A   1      38.534  33.154  31.070  1.00  0.00     0.016 A 
ATOM     34  C   UNL A   1      40.221  31.299  32.323  1.00  0.00     0.010 A 
ATOM     35  C   UNL A   1      39.394  32.359  30.307  1.00  0.00     0.010 A 
ATOM     36  C   UNL A   1      40.265  31.449  30.930  1.00  0.00    -0.014 A 
BRANCH  36  37
ATOM     37  C   UNL A   1      41.349  30.813  30.142  1.00  0.00     0.031 A 
ATOM     38  C   UNL A   1      42.584  31.622  29.853  1.00  0.00     0.074 A 
ATOM     39  C   UNL A   1      41.258  29.550  29.690  1.00  0.00     0.049 A 
ATOM     40  N   UNL A   1      43.638  31.313  29.142  1.00  0.00    -0.248 NA
ATOM     41  C   UNL A   1      42.633  32.966  30.450  1.00  0.00     0.031 C 
ATOM     42  C   UNL A   1      40.141  28.641  29.927  1.00  0.00     0.029 A 
ATOM     43  N   UNL A   1      42.131  28.820  28.919  1.00  0.00    -0.354 N 
ATOM     44  C   UNL A   1      44.470  32.421  29.204  1.00  0.00     0.074 A 
ATOM     45  C   UNL A   1      43.789  33.423  29.995  1.00  0.00     0.031 C 
ATOM     46  C   UNL A   1      40.390  27.474  29.305  1.00  0.00     0.029 A 
ATOM     47  C   UNL A   1      41.669  27.567  28.599  1.00  0.00     0.049 A 
ATOM     48  H   UNL A   1      43.006  29.162  28.624  1.00  0.00     0.167 HD
ATOM     49  C   UNL A   1      45.699  32.590  28.662  1.00  0.00     0.037 A 
ATOM     50  C   UNL A   1      42.207  26.616  27.808  1.00  0.00     0.037 A 
ATOM     51  C   UNL A   1      46.382  31.604  27.868  1.00  0.00     0.049 A 
ATOM     52  C   UNL A   1      43.536  26.864  27.136  1.00  0.00     0.074 A 
ATOM     53  C   UNL A   1      47.637  31.682  27.290  1.00  0.00     0.029 A 
ATOM     54  N   UNL A   1      45.861  30.365  27.530  1.00  0.00    -0.354 N 
ATOM     55  N   UNL A   1      44.332  27.902  27.224  1.00  0.00    -0.248 NA
ATOM     56  C   UNL A   1      44.040  25.802  26.249  1.00  0.00     0.031 C 
ATOM     57  C   UNL A   1      47.855  30.511  26.557  1.00  0.00     0.029 A 
ATOM     58  C   UNL A   1      46.758  29.681  26.725  1.00  0.00     0.049 A 
ATOM     59  H   UNL A   1      44.986  30.022  27.819  1.00  0.00     0.167 HD
ATOM     60  C   UNL A   1      45.436  27.607  26.432  1.00  0.00     0.074 A 
ATOM     61  C   UNL A   1      45.217  26.288  25.881  1.00  0.00     0.031 C 
ATOM     62  C   UNL A   1      46.535  28.364  26.186  1.00  0.00     0.037 A 
BRANCH  49  63
ATOM     63  C   UNL A   1      46.375  33.909  28.890  1.00  0.00     0.064 A 
ATOM     64  C   UNL A   1      46.198  34.987  28.010  1.00  0.00     0.173 A 
ATOM     65  C   UNL A   1      47.191  34.101  30.014  1.00  0.00     0.173 A 
ATOM     66  F   UNL A   1      45.442  34.845  26.911  1.00  0.00    -0.203 F 
ATOM     67  C   UNL A   1      46.836  36.203  28.235  1.00  0.00     0.198 A 
ATOM     68  C   UNL A   1      47.804  35.328  30.251  1.00  0.00     0.198 A 
ATOM     69  F   UNL A   1      47.392  33.100  30.885  1.00  0.00    -0.203 F 
ATOM     70  F   UNL A   1      46.693  37.205  27.356  1.00  0.00    -0.200 F 
ATOM     71  C   UNL A   1      47.632  36.375  29.358  1.00  0.00     0.200 A 
ATOM     72  F   UNL A   1      48.565  35.495  31.340  1.00  0.00    -0.200 F 
ATOM     73  F   UNL A   1      48.242  37.549  29.574  1.00  0.00    -0.200 F 
ENDBRANCH  49  63
BRANCH  50  74
ATOM     74  C   UNL A   1      41.483  25.337  27.579  1.00  0.00     0.064 A 
ATOM     75  C   UNL A   1      40.350  25.285  26.754  1.00  0.00     0.173 A 
ATOM     76  C   UNL A   1      41.879  24.154  28.218  1.00  0.00     0.173 A 
ATOM     77  F   UNL A   1      39.912  26.399  26.148  1.00  0.00    -0.203 F 
ATOM     78  C   UNL A   1      39.630  24.102  26.594  1.00  0.00     0.198 A 
ATOM     79  C   UNL A   1      41.174  22.966  28.035  1.00  0.00     0.198 A 
ATOM     80  F   UNL A   1      42.948  24.153  29.027  1.00  0.00    -0.203 F 
ATOM     81  F   UNL A   1      38.519  24.094  25.845  1.00  0.00    -0.200 F 
ATOM     82  C   UNL A   1      40.045  22.942  27.230  1.00  0.00     0.200 A 
ATOM     83  F   UNL A   1      41.581  21.846  28.649  1.00  0.00    -0.200 F 
ATOM     84  F   UNL A   1      39.349  21.808  27.081  1.00  0.00    -0.200 F 
ENDBRANCH  50  74
BRANCH  62  85
ATOM     85  C   UNL A   1      47.604  27.777  25.309  1.00  0.00     0.064 A 
ATOM     86  C   UNL A   1      47.536  27.855  23.909  1.00  0.00     0.173 A 
ATOM     87  C   UNL A   1      48.738  27.175  25.876  1.00  0.00     0.173 A 
ATOM     88  F   UNL A   1      46.468  28.408  23.316  1.00  0.00    -0.203 F 
ATOM     89  C   UNL A   1      48.553  27.332  23.113  1.00  0.00     0.198 A 
ATOM     90  C   UNL A   1      49.767  26.681  25.078  1.00  0.00     0.198 A 
ATOM     91  F   UNL A   1      48.858  27.083  27.209  1.00  0.00    -0.203 F 
ATOM     92  F   UNL A   1      48.446  27.380  21.778  1.00  0.00    -0.200 F 
ATOM     93  C   UNL A   1      49.670  26.754  23.697  1.00  0.00     0.200 A 
ATOM     94  F   UNL A   1      50.852  26.138  25.645  1.00  0.00    -0.200 F 
ATOM     95  F   UNL A   1      50.651  26.261  22.928  1.00  0.00    -0.200 F 
ENDBRANCH  62  85
ENDBRANCH  36  37
ENDBRANCH  29  31
ENDBRANCH  28  29
ENDBRANCH  27  28
ENDBRANCH  26  27
ENDBRANCH  25  26
ENDBRANCH  24  25
ENDBRANCH  23  24
ENDBRANCH   1  23
TORSDOF 22
ENDMDL
MODEL 3
REMARK VINA RESULT:      -8.9      1.380      7.696
REMARK SMILES CCC[C@H](C)C[N@H+]1[C@@H]2CC[C@H]1C[C@H](CC(=O)OCCOCCOCCOC(=O)c1ccc(-c3c4nc(c(-c5c(F)c(F)c(F)c(F)c5F)c5ccc([nH]5)c(-c5c(F)c(F)c(F)c(F)c5F)c5nc(c(-c6c(F)c(F)c(F)c(F)c6F)c6ccc3[nH]6)C=C5)C=C4)cc1)C2
REMARK SMILES IDX 20 1 19 2 18 3 17 4 15 5 16 6 14 7 13 8 7 9 8 10 11 11 9 13
REMARK SMILES IDX 92 14 10 15 12 16 6 17 4 18 5 19 3 20 2 21 1 22 21 23 22 24
REMARK SMILES IDX 23 25 24 26 25 27 26 28 27 29 28 30 29 31 30 32 91 33 31 34
REMARK SMILES IDX 90 35 32 36 33 37 34 38 84 39 35 40 89 41 83 42 85 43 36 44
REMARK SMILES IDX 88 45 82 46 81 47 37 49 69 50 49 51 68 52 50 53 53 54 67 55
REMARK SMILES IDX 86 56 51 57 52 58 66 60 87 61 54 62 38 63 39 64 47 65 40 66
REMARK SMILES IDX 41 67 45 68 48 69 42 70 43 71 46 72 44 73 70 74 71 75 79 76
REMARK SMILES IDX 72 77 73 78 77 79 80 80 74 81 75 82 78 83 76 84 55 85 56 86
REMARK SMILES IDX 64 87 57 88 58 89 62 90 65 91 59 92 60 93 63 94 61 95
REMARK H PARENT 7 12 85 48 53 59
REMARK Flexibility Score: inf
ROOT
ATOM      1  O   UNL A   1      35.844  30.476  29.907  1.00  0.00    -0.376 OA
ENDROOT
BRANCH   1   2
ATOM      2  C   UNL A   1      36.712  29.760  29.024  1.00  0.00     0.202 C 
BRANCH   2   3
ATOM      3  C   UNL A   1      36.389  29.826  27.522  1.00  0.00     0.261 C 
BRANCH   3   4
ATOM      4  O   UNL A   1      35.127  29.201  27.213  1.00  0.00    -0.463 OA
BRANCH   4   5
ATOM      5  C   UNL A   1      34.102  30.040  26.913  1.00  0.00     0.306 C 
ATOM      6  O   UNL A   1      34.061  31.229  27.211  1.00  0.00    -0.252 OA
BRANCH   5   7
ATOM      7  C   UNL A   1      33.072  29.396  26.002  1.00  0.00     0.126 C 
BRANCH   7   8
ATOM      8  C   UNL A   1      32.776  27.875  26.053  1.00  0.00     0.012 C 
ATOM      9  N   UNL A   1      31.044  26.017  24.577  1.00  0.00    -0.330 N 
ATOM     10  C   UNL A   1      32.486  25.884  24.414  1.00  0.00     0.184 C 
ATOM     11  C   UNL A   1      30.831  26.138  26.006  1.00  0.00     0.184 C 
ATOM     12  H   UNL A   1      30.449  25.228  24.325  1.00  0.00     0.348 HD
ATOM     13  C   UNL A   1      32.833  24.856  25.494  1.00  0.00     0.071 C 
ATOM     14  C   UNL A   1      33.144  27.239  24.680  1.00  0.00     0.069 C 
ATOM     15  C   UNL A   1      31.685  24.953  26.499  1.00  0.00     0.071 C 
ATOM     16  C   UNL A   1      31.397  27.437  26.606  1.00  0.00     0.069 C 
BRANCH   9  17
ATOM     17  C   UNL A   1      30.298  26.671  23.507  1.00  0.00     0.265 C 
BRANCH  17  18
ATOM     18  C   UNL A   1      29.913  28.183  23.446  1.00  0.00     0.041 C 
ATOM     19  C   UNL A   1      30.955  29.099  22.831  1.00  0.00     0.013 C 
BRANCH  18  20
ATOM     20  C   UNL A   1      28.530  28.376  22.751  1.00  0.00     0.009 C 
BRANCH  20  21
ATOM     21  C   UNL A   1      27.484  29.308  23.399  1.00  0.00    -0.003 C 
ATOM     22  C   UNL A   1      27.640  30.790  23.095  1.00  0.00     0.004 C 
ENDBRANCH  20  21
ENDBRANCH  18  20
ENDBRANCH  17  18
ENDBRANCH   9  17
ENDBRANCH   7   8
ENDBRANCH   5   7
ENDBRANCH   4   5
ENDBRANCH   3   4
ENDBRANCH   2   3
ENDBRANCH   1   2
BRANCH   1  23
ATOM     23  C   UNL A   1      36.022  31.881  29.988  1.00  0.00     0.188 C 
BRANCH  23  24
ATOM     24  C   UNL A   1      34.781  32.758  30.228  1.00  0.00     0.188 C 
BRANCH  24  25
ATOM     25  O   UNL A   1      34.281  32.792  31.558  1.00  0.00    -0.376 OA
BRANCH  25  26
ATOM     26  C   UNL A   1      35.160  32.278  32.567  1.00  0.00     0.202 C 
BRANCH  26  27
ATOM     27  C   UNL A   1      35.593  33.298  33.633  1.00  0.00     0.261 C 
BRANCH  27  28
ATOM     28  O   UNL A   1      36.902  33.034  34.177  1.00  0.00    -0.460 OA
BRANCH  28  29
ATOM     29  C   UNL A   1      37.910  33.848  33.786  1.00  0.00     0.338 C 
ATOM     30  O   UNL A   1      38.170  34.951  34.237  1.00  0.00    -0.246 OA
BRANCH  29  31
ATOM     31  C   UNL A   1      38.818  33.074  32.897  1.00  0.00     0.060 A 
ATOM     32  C   UNL A   1      39.646  32.103  33.476  1.00  0.00     0.016 A 
ATOM     33  C   UNL A   1      38.800  33.229  31.506  1.00  0.00     0.016 A 
ATOM     34  C   UNL A   1      40.476  31.313  32.676  1.00  0.00     0.010 A 
ATOM     35  C   UNL A   1      39.633  32.442  30.705  1.00  0.00     0.010 A 
ATOM     36  C   UNL A   1      40.498  31.501  31.287  1.00  0.00    -0.014 A 
BRANCH  36  37
ATOM     37  C   UNL A   1      41.557  30.868  30.462  1.00  0.00     0.031 A 
ATOM     38  C   UNL A   1      42.817  31.650  30.205  1.00  0.00     0.074 A 
ATOM     39  C   UNL A   1      41.422  29.633  29.949  1.00  0.00     0.049 A 
ATOM     40  N   UNL A   1      43.856  31.342  29.473  1.00  0.00    -0.248 NA
ATOM     41  C   UNL A   1      42.912  32.961  30.867  1.00  0.00     0.031 C 
ATOM     42  C   UNL A   1      40.277  28.751  30.148  1.00  0.00     0.029 A 
ATOM     43  N   UNL A   1      42.267  28.913  29.138  1.00  0.00    -0.354 N 
ATOM     44  C   UNL A   1      44.725  32.418  29.584  1.00  0.00     0.074 A 
ATOM     45  C   UNL A   1      44.081  33.401  30.427  1.00  0.00     0.031 C 
ATOM     46  C   UNL A   1      40.485  27.608  29.468  1.00  0.00     0.029 A 
ATOM     47  C   UNL A   1      41.762  27.693  28.760  1.00  0.00     0.049 A 
ATOM     48  H   UNL A   1      43.151  29.240  28.855  1.00  0.00     0.167 HD
ATOM     49  C   UNL A   1      45.957  32.572  29.043  1.00  0.00     0.037 A 
ATOM     50  C   UNL A   1      42.265  26.765  27.920  1.00  0.00     0.037 A 
ATOM     51  C   UNL A   1      46.602  31.605  28.198  1.00  0.00     0.049 A 
ATOM     52  C   UNL A   1      43.599  27.002  27.253  1.00  0.00     0.074 A 
ATOM     53  C   UNL A   1      47.857  31.670  27.616  1.00  0.00     0.029 A 
ATOM     54  N   UNL A   1      46.040  30.401  27.803  1.00  0.00    -0.354 N 
ATOM     55  N   UNL A   1      44.428  28.008  27.387  1.00  0.00    -0.248 NA
ATOM     56  C   UNL A   1      44.062  25.969  26.312  1.00  0.00     0.031 C 
ATOM     57  C   UNL A   1      48.033  30.529  26.826  1.00  0.00     0.029 A 
ATOM     58  C   UNL A   1      46.910  29.728  26.960  1.00  0.00     0.049 A 
ATOM     59  H   UNL A   1      45.155  30.073  28.080  1.00  0.00     0.167 HD
ATOM     60  C   UNL A   1      45.519  27.716  26.574  1.00  0.00     0.074 A 
ATOM     61  C   UNL A   1      45.253  26.433  25.961  1.00  0.00     0.031 C 
ATOM     62  C   UNL A   1      46.641  28.448  26.358  1.00  0.00     0.037 A 
BRANCH  49  63
ATOM     63  C   UNL A   1      46.676  33.856  29.331  1.00  0.00     0.064 A 
ATOM     64  C   UNL A   1      47.537  33.985  30.432  1.00  0.00     0.173 A 
ATOM     65  C   UNL A   1      46.518  34.962  28.484  1.00  0.00     0.173 A 
ATOM     66  F   UNL A   1      47.705  32.961  31.282  1.00  0.00    -0.203 F 
ATOM     67  C   UNL A   1      48.193  35.186  30.686  1.00  0.00     0.198 A 
ATOM     68  C   UNL A   1      47.198  36.151  28.726  1.00  0.00     0.198 A 
ATOM     69  F   UNL A   1      45.705  34.888  27.419  1.00  0.00    -0.203 F 
ATOM     70  F   UNL A   1      48.973  35.304  31.770  1.00  0.00    -0.200 F 
ATOM     71  C   UNL A   1      48.029  36.264  29.830  1.00  0.00     0.200 A 
ATOM     72  F   UNL A   1      47.046  37.189  27.893  1.00  0.00    -0.200 F 
ATOM     73  F   UNL A   1      48.666  37.418  30.075  1.00  0.00    -0.200 F 
ENDBRANCH  49  63
BRANCH  50  74
ATOM     74  C   UNL A   1      41.499  25.524  27.633  1.00  0.00     0.064 A 
ATOM     75  C   UNL A   1      40.397  25.538  26.766  1.00  0.00     0.173 A 
ATOM     76  C   UNL A   1      41.820  24.310  28.258  1.00  0.00     0.173 A 
ATOM     77  F   UNL A   1      40.028  26.683  26.172  1.00  0.00    -0.203 F 
ATOM     78  C   UNL A   1      39.634  24.391  26.550  1.00  0.00     0.198 A 
ATOM     79  C   UNL A   1      41.074  23.158  28.020  1.00  0.00     0.198 A 
ATOM     80  F   UNL A   1      42.857  24.246  29.106  1.00  0.00    -0.203 F 
ATOM     81  F   UNL A   1      38.553  24.447  25.761  1.00  0.00    -0.200 F 
ATOM     82  C   UNL A   1      39.977  23.200  27.174  1.00  0.00     0.200 A 
ATOM     83  F   UNL A   1      41.411  22.008  28.622  1.00  0.00    -0.200 F 
ATOM     84  F   UNL A   1      39.240  22.099  26.972  1.00  0.00    -0.200 F 
ENDBRANCH  50  74
BRANCH  62  85
ATOM     85  C   UNL A   1      47.686  27.870  25.447  1.00  0.00     0.064 A 
ATOM     86  C   UNL A   1      48.807  27.191  25.946  1.00  0.00     0.173 A 
ATOM     87  C   UNL A   1      47.536  27.950  24.053  1.00  0.00     0.173 A 
ATOM     88  F   UNL A   1      49.004  27.097  27.270  1.00  0.00    -0.203 F 
ATOM     89  C   UNL A   1      49.750  26.634  25.085  1.00  0.00     0.198 A 
ATOM     90  C   UNL A   1      48.464  27.366  23.195  1.00  0.00     0.198 A 
ATOM     91  F   UNL A   1      46.478  28.580  23.522  1.00  0.00    -0.203 F 
ATOM     92  F   UNL A   1      50.835  26.027  25.585  1.00  0.00    -0.200 F 
ATOM     93  C   UNL A   1      49.574  26.714  23.712  1.00  0.00     0.200 A 
ATOM     94  F   UNL A   1      48.284  27.432  21.869  1.00  0.00    -0.200 F 
ATOM     95  F   UNL A   1      50.478  26.169  22.885  1.00  0.00    -0.200 F 
ENDBRANCH  62  85
ENDBRANCH  36  37
ENDBRANCH  29  31
ENDBRANCH  28  29
ENDBRANCH  27  28
ENDBRANCH  26  27
ENDBRANCH  25  26
ENDBRANCH  24  25
ENDBRANCH  23  24
ENDBRANCH   1  23
TORSDOF 22
ENDMDL
