MODEL 1
REMARK VINA RESULT:     -10.6      0.000      0.000
REMARK SMILES O=C(/C=C\c1ccc([N+](=O)[O-])cc1)OCCOCCOCCOC(=O)c1ccc(-c2c3nc(c(-c4c(F)c(F)c(F)c(F)c4F)c4ccc([nH]4)c(-c4c(F)c(F)c(F)c(F)c4F)c4nc(c(-c5c(F)c(F)c(F)c(F)c5F)c5ccc2[nH]5)C=C4)C=C3)cc1
REMARK SMILES IDX 18 1 17 2 16 3 15 4 14 5 2 6 1 7 3 8 4 9 5 10 6 11 13 12
REMARK SMILES IDX 7 13 12 14 8 15 9 16 10 17 11 18 19 19 20 20 21 21 22 22
REMARK SMILES IDX 23 23 24 24 25 25 26 26 27 27 88 28 28 29 87 30 29 31 30 32
REMARK SMILES IDX 31 33 81 34 32 35 86 36 80 37 82 38 33 39 85 40 79 41 78 42
REMARK SMILES IDX 34 44 66 45 46 46 65 47 47 48 50 49 64 50 83 51 48 52 49 53
REMARK SMILES IDX 63 55 84 56 51 57 35 58 36 59 44 60 37 61 38 62 42 63 45 64
REMARK SMILES IDX 39 65 40 66 43 67 41 68 67 69 68 70 76 71 69 72 70 73 74 74
REMARK SMILES IDX 77 75 71 76 72 77 75 78 73 79 52 80 53 81 61 82 54 83 55 84
REMARK SMILES IDX 59 85 62 86 56 87 57 88 60 89 58 90
REMARK H PARENT 82 43 50 54
REMARK Flexibility Score: inf
ROOT
ATOM      1  C   UNL A   1      40.515  19.982  26.164  1.00  0.00     0.188 C 
ENDROOT
BRANCH   1   2
ATOM      2  O   UNL A   1      39.989  21.139  26.813  1.00  0.00    -0.376 OA
BRANCH   2   3
ATOM      3  C   UNL A   1      39.136  21.967  26.016  1.00  0.00     0.202 C 
BRANCH   3   4
ATOM      4  C   UNL A   1      37.869  21.290  25.459  1.00  0.00     0.261 C 
BRANCH   4   5
ATOM      5  O   UNL A   1      37.466  21.786  24.181  1.00  0.00    -0.460 OA
BRANCH   5   6
ATOM      6  C   UNL A   1      36.658  22.837  23.971  1.00  0.00     0.330 C 
ATOM      7  O   UNL A   1      36.573  23.311  22.838  1.00  0.00    -0.247 OA
BRANCH   6   8
ATOM      8  C   UNL A   1      35.986  23.574  25.065  1.00  0.00     0.094 C 
ATOM      9  C   UNL A   1      35.082  24.539  25.322  1.00  0.00     0.015 C 
BRANCH   9  10
ATOM     10  C   UNL A   1      34.199  25.474  24.596  1.00  0.00    -0.025 A 
ATOM     11  C   UNL A   1      33.587  26.483  25.359  1.00  0.00     0.015 A 
ATOM     12  C   UNL A   1      33.748  25.310  23.282  1.00  0.00     0.015 A 
ATOM     13  C   UNL A   1      32.613  27.331  24.813  1.00  0.00     0.086 A 
ATOM     14  C   UNL A   1      32.831  26.191  22.694  1.00  0.00     0.086 A 
ATOM     15  C   UNL A   1      32.259  27.199  23.468  1.00  0.00     0.269 A 
BRANCH  15  16
ATOM     16  N   UNL A   1      31.251  28.087  22.876  1.00  0.00     0.062 N 
ATOM     17  O   UNL A   1      31.261  29.277  23.219  1.00  0.00    -0.258 OA
ATOM     18  O   UNL A   1      30.448  27.590  22.074  1.00  0.00    -0.258 OA
ENDBRANCH  15  16
ENDBRANCH   9  10
ENDBRANCH   6   8
ENDBRANCH   5   6
ENDBRANCH   4   5
ENDBRANCH   3   4
ENDBRANCH   2   3
ENDBRANCH   1   2
BRANCH   1  19
ATOM     19  C   UNL A   1      41.989  19.656  26.468  1.00  0.00     0.188 C 
BRANCH  19  20
ATOM     20  O   UNL A   1      42.767  19.631  25.276  1.00  0.00    -0.376 OA
BRANCH  20  21
ATOM     21  C   UNL A   1      44.128  20.027  25.402  1.00  0.00     0.202 C 
BRANCH  21  22
ATOM     22  C   UNL A   1      44.522  21.482  25.049  1.00  0.00     0.261 C 
BRANCH  22  23
ATOM     23  O   UNL A   1      43.801  22.523  25.719  1.00  0.00    -0.460 OA
BRANCH  23  24
ATOM     24  C   UNL A   1      44.024  23.781  25.273  1.00  0.00     0.338 C 
ATOM     25  O   UNL A   1      44.622  24.112  24.266  1.00  0.00    -0.246 OA
BRANCH  24  26
ATOM     26  C   UNL A   1      43.297  24.730  26.132  1.00  0.00     0.060 A 
ATOM     27  C   UNL A   1      43.725  26.062  26.159  1.00  0.00     0.016 A 
ATOM     28  C   UNL A   1      42.265  24.295  26.966  1.00  0.00     0.016 A 
ATOM     29  C   UNL A   1      43.106  26.975  27.008  1.00  0.00     0.010 A 
ATOM     30  C   UNL A   1      41.675  25.202  27.852  1.00  0.00     0.010 A 
ATOM     31  C   UNL A   1      42.109  26.539  27.888  1.00  0.00    -0.014 A 
BRANCH  31  32
ATOM     32  C   UNL A   1      41.686  27.433  28.989  1.00  0.00     0.031 A 
ATOM     33  C   UNL A   1      42.490  27.414  30.258  1.00  0.00     0.074 A 
ATOM     34  C   UNL A   1      40.642  28.265  28.849  1.00  0.00     0.049 A 
ATOM     35  N   UNL A   1      42.317  28.091  31.364  1.00  0.00    -0.248 NA
ATOM     36  C   UNL A   1      43.654  26.512  30.278  1.00  0.00     0.031 C 
ATOM     37  C   UNL A   1      39.835  28.412  27.640  1.00  0.00     0.029 A 
ATOM     38  N   UNL A   1      40.082  29.144  29.741  1.00  0.00    -0.354 N 
ATOM     39  C   UNL A   1      43.356  27.706  32.202  1.00  0.00     0.074 A 
ATOM     40  C   UNL A   1      44.137  26.718  31.493  1.00  0.00     0.031 C 
ATOM     41  C   UNL A   1      38.869  29.318  27.872  1.00  0.00     0.029 A 
ATOM     42  C   UNL A   1      38.975  29.790  29.251  1.00  0.00     0.049 A 
ATOM     43  H   UNL A   1      40.440  29.296  30.645  1.00  0.00     0.167 HD
ATOM     44  C   UNL A   1      43.633  28.144  33.452  1.00  0.00     0.037 A 
ATOM     45  C   UNL A   1      38.136  30.650  29.864  1.00  0.00     0.037 A 
ATOM     46  C   UNL A   1      42.830  29.100  34.164  1.00  0.00     0.049 A 
ATOM     47  C   UNL A   1      38.403  31.037  31.297  1.00  0.00     0.074 A 
ATOM     48  C   UNL A   1      43.008  29.597  35.442  1.00  0.00     0.029 A 
ATOM     49  N   UNL A   1      41.683  29.694  33.657  1.00  0.00    -0.354 N 
ATOM     50  N   UNL A   1      39.394  30.683  32.083  1.00  0.00    -0.248 NA
ATOM     51  C   UNL A   1      37.436  31.945  31.930  1.00  0.00     0.031 C 
ATOM     52  C   UNL A   1      41.937  30.450  35.729  1.00  0.00     0.029 A 
ATOM     53  C   UNL A   1      41.125  30.532  34.608  1.00  0.00     0.049 A 
ATOM     54  H   UNL A   1      41.318  29.541  32.756  1.00  0.00     0.167 HD
ATOM     55  C   UNL A   1      39.188  31.349  33.284  1.00  0.00     0.074 A 
ATOM     56  C   UNL A   1      37.984  32.137  33.122  1.00  0.00     0.031 C 
ATOM     57  C   UNL A   1      39.930  31.316  34.419  1.00  0.00     0.037 A 
BRANCH  44  58
ATOM     58  C   UNL A   1      44.832  27.556  34.136  1.00  0.00     0.064 A 
ATOM     59  C   UNL A   1      44.749  26.363  34.871  1.00  0.00     0.173 A 
ATOM     60  C   UNL A   1      46.081  28.187  34.049  1.00  0.00     0.173 A 
ATOM     61  F   UNL A   1      43.571  25.732  35.003  1.00  0.00    -0.203 F 
ATOM     62  C   UNL A   1      45.867  25.839  35.514  1.00  0.00     0.198 A 
ATOM     63  C   UNL A   1      47.203  27.645  34.668  1.00  0.00     0.198 A 
ATOM     64  F   UNL A   1      46.213  29.332  33.361  1.00  0.00    -0.203 F 
ATOM     65  F   UNL A   1      45.754  24.726  36.252  1.00  0.00    -0.200 F 
ATOM     66  C   UNL A   1      47.094  26.475  35.406  1.00  0.00     0.200 A 
ATOM     67  F   UNL A   1      48.389  28.257  34.556  1.00  0.00    -0.200 F 
ATOM     68  F   UNL A   1      48.171  25.968  36.022  1.00  0.00    -0.200 F 
ENDBRANCH  44  58
BRANCH  45  69
ATOM     69  C   UNL A   1      36.958  31.193  29.137  1.00  0.00     0.064 A 
ATOM     70  C   UNL A   1      36.909  32.535  28.734  1.00  0.00     0.173 A 
ATOM     71  C   UNL A   1      35.844  30.389  28.855  1.00  0.00     0.173 A 
ATOM     72  F   UNL A   1      37.937  33.353  29.007  1.00  0.00    -0.203 F 
ATOM     73  C   UNL A   1      35.785  33.057  28.098  1.00  0.00     0.198 A 
ATOM     74  C   UNL A   1      34.731  30.903  28.192  1.00  0.00     0.198 A 
ATOM     75  F   UNL A   1      35.834  29.099  29.224  1.00  0.00    -0.203 F 
ATOM     76  F   UNL A   1      35.744  34.356  27.773  1.00  0.00    -0.200 F 
ATOM     77  C   UNL A   1      34.699  32.239  27.821  1.00  0.00     0.200 A 
ATOM     78  F   UNL A   1      33.688  30.108  27.921  1.00  0.00    -0.200 F 
ATOM     79  F   UNL A   1      33.617  32.741  27.212  1.00  0.00    -0.200 F 
ENDBRANCH  45  69
BRANCH  57  80
ATOM     80  C   UNL A   1      39.488  32.186  35.560  1.00  0.00     0.064 A 
ATOM     81  C   UNL A   1      39.938  33.507  35.699  1.00  0.00     0.173 A 
ATOM     82  C   UNL A   1      38.562  31.706  36.499  1.00  0.00     0.173 A 
ATOM     83  F   UNL A   1      40.834  34.010  34.835  1.00  0.00    -0.203 F 
ATOM     84  C   UNL A   1      39.494  34.308  36.748  1.00  0.00     0.198 A 
ATOM     85  C   UNL A   1      38.095  32.520  37.527  1.00  0.00     0.198 A 
ATOM     86  F   UNL A   1      38.092  30.452  36.406  1.00  0.00    -0.203 F 
ATOM     87  F   UNL A   1      39.972  35.552  36.887  1.00  0.00    -0.200 F 
ATOM     88  C   UNL A   1      38.567  33.816  37.656  1.00  0.00     0.200 A 
ATOM     89  F   UNL A   1      37.186  32.049  38.392  1.00  0.00    -0.200 F 
ATOM     90  F   UNL A   1      38.133  34.593  38.658  1.00  0.00    -0.200 F 
ENDBRANCH  57  80
ENDBRANCH  31  32
ENDBRANCH  24  26
ENDBRANCH  23  24
ENDBRANCH  22  23
ENDBRANCH  21  22
ENDBRANCH  20  21
ENDBRANCH  19  20
ENDBRANCH   1  19
TORSDOF 19
ENDMDL
MODEL 2
REMARK VINA RESULT:     -10.1      3.429      9.191
REMARK SMILES O=C(/C=C\c1ccc([N+](=O)[O-])cc1)OCCOCCOCCOC(=O)c1ccc(-c2c3nc(c(-c4c(F)c(F)c(F)c(F)c4F)c4ccc([nH]4)c(-c4c(F)c(F)c(F)c(F)c4F)c4nc(c(-c5c(F)c(F)c(F)c(F)c5F)c5ccc2[nH]5)C=C4)C=C3)cc1
REMARK SMILES IDX 18 1 17 2 16 3 15 4 14 5 2 6 1 7 3 8 4 9 5 10 6 11 13 12
REMARK SMILES IDX 7 13 12 14 8 15 9 16 10 17 11 18 19 19 20 20 21 21 22 22
REMARK SMILES IDX 23 23 24 24 25 25 26 26 27 27 88 28 28 29 87 30 29 31 30 32
REMARK SMILES IDX 31 33 81 34 32 35 86 36 80 37 82 38 33 39 85 40 79 41 78 42
REMARK SMILES IDX 34 44 66 45 46 46 65 47 47 48 50 49 64 50 83 51 48 52 49 53
REMARK SMILES IDX 63 55 84 56 51 57 35 58 36 59 44 60 37 61 38 62 42 63 45 64
REMARK SMILES IDX 39 65 40 66 43 67 41 68 67 69 68 70 76 71 69 72 70 73 74 74
REMARK SMILES IDX 77 75 71 76 72 77 75 78 73 79 52 80 53 81 61 82 54 83 55 84
REMARK SMILES IDX 59 85 62 86 56 87 57 88 60 89 58 90
REMARK H PARENT 82 43 50 54
REMARK Flexibility Score: inf
ROOT
ATOM      1  C   UNL A   1      33.380  26.782  24.295  1.00  0.00     0.188 C 
ENDROOT
BRANCH   1   2
ATOM      2  O   UNL A   1      33.083  25.747  25.232  1.00  0.00    -0.376 OA
BRANCH   2   3
ATOM      3  C   UNL A   1      34.208  25.173  25.905  1.00  0.00     0.202 C 
BRANCH   3   4
ATOM      4  C   UNL A   1      35.211  24.415  25.014  1.00  0.00     0.261 C 
BRANCH   4   5
ATOM      5  O   UNL A   1      34.817  23.075  24.714  1.00  0.00    -0.460 OA
BRANCH   5   6
ATOM      6  C   UNL A   1      34.102  22.693  23.645  1.00  0.00     0.330 C 
ATOM      7  O   UNL A   1      34.342  23.203  22.550  1.00  0.00    -0.247 OA
BRANCH   6   8
ATOM      8  C   UNL A   1      32.916  21.812  23.734  1.00  0.00     0.094 C 
ATOM      9  C   UNL A   1      32.529  20.534  23.917  1.00  0.00     0.015 C 
BRANCH   9  10
ATOM     10  C   UNL A   1      33.125  19.201  24.137  1.00  0.00    -0.025 A 
ATOM     11  C   UNL A   1      32.240  18.166  24.484  1.00  0.00     0.015 A 
ATOM     12  C   UNL A   1      34.493  18.932  24.250  1.00  0.00     0.015 A 
ATOM     13  C   UNL A   1      32.703  16.898  24.866  1.00  0.00     0.086 A 
ATOM     14  C   UNL A   1      34.977  17.653  24.558  1.00  0.00     0.086 A 
ATOM     15  C   UNL A   1      34.075  16.638  24.872  1.00  0.00     0.269 A 
BRANCH  15  16
ATOM     16  N   UNL A   1      34.577  15.313  25.257  1.00  0.00     0.062 N 
ATOM     17  O   UNL A   1      33.745  14.413  25.434  1.00  0.00    -0.258 OA
ATOM     18  O   UNL A   1      35.802  15.178  25.386  1.00  0.00    -0.258 OA
ENDBRANCH  15  16
ENDBRANCH   9  10
ENDBRANCH   6   8
ENDBRANCH   5   6
ENDBRANCH   4   5
ENDBRANCH   3   4
ENDBRANCH   2   3
ENDBRANCH   1   2
BRANCH   1  19
ATOM     19  C   UNL A   1      32.166  27.417  23.592  1.00  0.00     0.188 C 
BRANCH  19  20
ATOM     20  O   UNL A   1      31.904  28.723  24.096  1.00  0.00    -0.376 OA
BRANCH  20  21
ATOM     21  C   UNL A   1      32.275  28.963  25.448  1.00  0.00     0.202 C 
BRANCH  21  22
ATOM     22  C   UNL A   1      32.835  30.353  25.838  1.00  0.00     0.261 C 
BRANCH  22  23
ATOM     23  O   UNL A   1      32.788  30.697  27.229  1.00  0.00    -0.460 OA
BRANCH  23  24
ATOM     24  C   UNL A   1      33.562  31.739  27.608  1.00  0.00     0.338 C 
ATOM     25  O   UNL A   1      33.224  32.900  27.746  1.00  0.00    -0.246 OA
BRANCH  24  26
ATOM     26  C   UNL A   1      34.894  31.235  27.982  1.00  0.00     0.060 A 
ATOM     27  C   UNL A   1      35.012  29.898  28.375  1.00  0.00     0.016 A 
ATOM     28  C   UNL A   1      35.996  32.092  28.031  1.00  0.00     0.016 A 
ATOM     29  C   UNL A   1      36.240  29.401  28.800  1.00  0.00     0.010 A 
ATOM     30  C   UNL A   1      37.220  31.606  28.501  1.00  0.00     0.010 A 
ATOM     31  C   UNL A   1      37.338  30.264  28.906  1.00  0.00    -0.014 A 
BRANCH  31  32
ATOM     32  C   UNL A   1      38.535  29.808  29.646  1.00  0.00     0.031 A 
ATOM     33  C   UNL A   1      38.783  30.390  31.009  1.00  0.00     0.074 A 
ATOM     34  C   UNL A   1      39.357  28.877  29.137  1.00  0.00     0.049 A 
ATOM     35  N   UNL A   1      39.761  30.164  31.847  1.00  0.00    -0.248 NA
ATOM     36  C   UNL A   1      37.782  31.353  31.497  1.00  0.00     0.031 C 
ATOM     37  C   UNL A   1      39.175  28.200  27.855  1.00  0.00     0.029 A 
ATOM     38  N   UNL A   1      40.515  28.342  29.643  1.00  0.00    -0.354 N 
ATOM     39  C   UNL A   1      39.486  30.945  32.961  1.00  0.00     0.074 A 
ATOM     40  C   UNL A   1      38.268  31.673  32.686  1.00  0.00     0.031 C 
ATOM     41  C   UNL A   1      40.199  27.348  27.666  1.00  0.00     0.029 A 
ATOM     42  C   UNL A   1      41.117  27.443  28.799  1.00  0.00     0.049 A 
ATOM     43  H   UNL A   1      40.877  28.581  30.527  1.00  0.00     0.167 HD
ATOM     44  C   UNL A   1      40.189  31.042  34.114  1.00  0.00     0.037 A 
ATOM     45  C   UNL A   1      42.290  26.792  28.929  1.00  0.00     0.037 A 
ATOM     46  C   UNL A   1      41.419  30.341  34.366  1.00  0.00     0.049 A 
ATOM     47  C   UNL A   1      43.111  27.002  30.177  1.00  0.00     0.074 A 
ATOM     48  C   UNL A   1      42.223  30.384  35.490  1.00  0.00     0.029 A 
ATOM     49  N   UNL A   1      42.030  29.481  33.465  1.00  0.00    -0.354 N 
ATOM     50  N   UNL A   1      42.842  27.731  31.235  1.00  0.00    -0.248 NA
ATOM     51  C   UNL A   1      44.400  26.299  30.249  1.00  0.00     0.031 C 
ATOM     52  C   UNL A   1      43.349  29.590  35.248  1.00  0.00     0.029 A 
ATOM     53  C   UNL A   1      43.217  29.006  33.998  1.00  0.00     0.049 A 
ATOM     54  H   UNL A   1      41.674  29.243  32.579  1.00  0.00     0.167 HD
ATOM     55  C   UNL A   1      43.906  27.547  32.109  1.00  0.00     0.074 A 
ATOM     56  C   UNL A   1      44.821  26.630  31.462  1.00  0.00     0.031 C 
ATOM     57  C   UNL A   1      44.107  28.084  33.337  1.00  0.00     0.037 A 
BRANCH  44  58
ATOM     58  C   UNL A   1      39.658  31.969  35.166  1.00  0.00     0.064 A 
ATOM     59  C   UNL A   1      39.971  33.338  35.168  1.00  0.00     0.173 A 
ATOM     60  C   UNL A   1      38.818  31.488  36.181  1.00  0.00     0.173 A 
ATOM     61  F   UNL A   1      40.789  33.844  34.231  1.00  0.00    -0.203 F 
ATOM     62  C   UNL A   1      39.484  34.183  36.161  1.00  0.00     0.198 A 
ATOM     63  C   UNL A   1      38.309  32.341  37.155  1.00  0.00     0.198 A 
ATOM     64  F   UNL A   1      38.491  30.187  36.227  1.00  0.00    -0.203 F 
ATOM     65  F   UNL A   1      39.837  35.475  36.172  1.00  0.00    -0.200 F 
ATOM     66  C   UNL A   1      38.648  33.686  37.149  1.00  0.00     0.200 A 
ATOM     67  F   UNL A   1      37.495  31.861  38.105  1.00  0.00    -0.200 F 
ATOM     68  F   UNL A   1      38.176  34.501  38.103  1.00  0.00    -0.200 F 
ENDBRANCH  44  58
BRANCH  45  69
ATOM     69  C   UNL A   1      42.769  25.890  27.847  1.00  0.00     0.064 A 
ATOM     70  C   UNL A   1      42.412  24.536  27.819  1.00  0.00     0.173 A 
ATOM     71  C   UNL A   1      43.620  26.360  26.834  1.00  0.00     0.173 A 
ATOM     72  F   UNL A   1      41.626  24.032  28.783  1.00  0.00    -0.203 F 
ATOM     73  C   UNL A   1      42.901  23.680  26.835  1.00  0.00     0.198 A 
ATOM     74  C   UNL A   1      44.085  25.510  25.832  1.00  0.00     0.198 A 
ATOM     75  F   UNL A   1      43.999  27.645  26.816  1.00  0.00    -0.203 F 
ATOM     76  F   UNL A   1      42.586  22.378  26.864  1.00  0.00    -0.200 F 
ATOM     77  C   UNL A   1      43.732  24.169  25.837  1.00  0.00     0.200 A 
ATOM     78  F   UNL A   1      44.882  25.989  24.867  1.00  0.00    -0.200 F 
ATOM     79  F   UNL A   1      44.205  23.346  24.892  1.00  0.00    -0.200 F 
ENDBRANCH  45  69
BRANCH  57  80
ATOM     80  C   UNL A   1      45.341  27.663  34.083  1.00  0.00     0.064 A 
ATOM     81  C   UNL A   1      46.549  28.366  33.968  1.00  0.00     0.173 A 
ATOM     82  C   UNL A   1      45.297  26.573  34.966  1.00  0.00     0.173 A 
ATOM     83  F   UNL A   1      46.648  29.408  33.128  1.00  0.00    -0.203 F 
ATOM     84  C   UNL A   1      47.674  27.977  34.690  1.00  0.00     0.198 A 
ATOM     85  C   UNL A   1      46.414  26.208  35.712  1.00  0.00     0.198 A 
ATOM     86  F   UNL A   1      44.162  25.874  35.121  1.00  0.00    -0.203 F 
ATOM     87  F   UNL A   1      48.831  28.635  34.530  1.00  0.00    -0.200 F 
ATOM     88  C   UNL A   1      47.603  26.904  35.568  1.00  0.00     0.200 A 
ATOM     89  F   UNL A   1      46.338  25.183  36.572  1.00  0.00    -0.200 F 
ATOM     90  F   UNL A   1      48.685  26.540  36.271  1.00  0.00    -0.200 F 
ENDBRANCH  57  80
ENDBRANCH  31  32
ENDBRANCH  24  26
ENDBRANCH  23  24
ENDBRANCH  22  23
ENDBRANCH  21  22
ENDBRANCH  20  21
ENDBRANCH  19  20
ENDBRANCH   1  19
TORSDOF 19
ENDMDL
MODEL 3
REMARK VINA RESULT:     -10.1      5.768     11.438
REMARK SMILES O=C(/C=C\c1ccc([N+](=O)[O-])cc1)OCCOCCOCCOC(=O)c1ccc(-c2c3nc(c(-c4c(F)c(F)c(F)c(F)c4F)c4ccc([nH]4)c(-c4c(F)c(F)c(F)c(F)c4F)c4nc(c(-c5c(F)c(F)c(F)c(F)c5F)c5ccc2[nH]5)C=C4)C=C3)cc1
REMARK SMILES IDX 18 1 17 2 16 3 15 4 14 5 2 6 1 7 3 8 4 9 5 10 6 11 13 12
REMARK SMILES IDX 7 13 12 14 8 15 9 16 10 17 11 18 19 19 20 20 21 21 22 22
REMARK SMILES IDX 23 23 24 24 25 25 26 26 27 27 88 28 28 29 87 30 29 31 30 32
REMARK SMILES IDX 31 33 81 34 32 35 86 36 80 37 82 38 33 39 85 40 79 41 78 42
REMARK SMILES IDX 34 44 66 45 46 46 65 47 47 48 50 49 64 50 83 51 48 52 49 53
REMARK SMILES IDX 63 55 84 56 51 57 35 58 36 59 44 60 37 61 38 62 42 63 45 64
REMARK SMILES IDX 39 65 40 66 43 67 41 68 67 69 68 70 76 71 69 72 70 73 74 74
REMARK SMILES IDX 77 75 71 76 72 77 75 78 73 79 52 80 53 81 61 82 54 83 55 84
REMARK SMILES IDX 59 85 62 86 56 87 57 88 60 89 58 90
REMARK H PARENT 82 43 50 54
REMARK Flexibility Score: inf
ROOT
ATOM      1  C   UNL A   1      33.722  37.613  32.152  1.00  0.00     0.188 C 
ENDROOT
BRANCH   1   2
ATOM      2  O   UNL A   1      32.755  37.260  31.163  1.00  0.00    -0.376 OA
BRANCH   2   3
ATOM      3  C   UNL A   1      33.278  36.771  29.924  1.00  0.00     0.202 C 
BRANCH   3   4
ATOM      4  C   UNL A   1      33.092  35.264  29.663  1.00  0.00     0.261 C 
BRANCH   4   5
ATOM      5  O   UNL A   1      34.321  34.548  29.529  1.00  0.00    -0.460 OA
BRANCH   5   6
ATOM      6  C   UNL A   1      34.653  33.754  28.499  1.00  0.00     0.330 C 
ATOM      7  O   UNL A   1      34.436  34.140  27.350  1.00  0.00    -0.247 OA
BRANCH   6   8
ATOM      8  C   UNL A   1      35.112  32.356  28.666  1.00  0.00     0.094 C 
ATOM      9  C   UNL A   1      34.892  31.090  28.263  1.00  0.00     0.015 C 
BRANCH   9  10
ATOM     10  C   UNL A   1      33.990  30.337  27.369  1.00  0.00    -0.025 A 
ATOM     11  C   UNL A   1      34.471  29.112  26.876  1.00  0.00     0.015 A 
ATOM     12  C   UNL A   1      32.813  30.832  26.797  1.00  0.00     0.015 A 
ATOM     13  C   UNL A   1      33.773  28.384  25.901  1.00  0.00     0.086 A 
ATOM     14  C   UNL A   1      32.062  30.089  25.877  1.00  0.00     0.086 A 
ATOM     15  C   UNL A   1      32.551  28.864  25.426  1.00  0.00     0.269 A 
BRANCH  15  16
ATOM     16  N   UNL A   1      31.800  28.109  24.415  1.00  0.00     0.062 N 
ATOM     17  O   UNL A   1      30.570  28.248  24.391  1.00  0.00    -0.258 OA
ATOM     18  O   UNL A   1      32.443  27.374  23.652  1.00  0.00    -0.258 OA
ENDBRANCH  15  16
ENDBRANCH   9  10
ENDBRANCH   6   8
ENDBRANCH   5   6
ENDBRANCH   4   5
ENDBRANCH   3   4
ENDBRANCH   2   3
ENDBRANCH   1   2
BRANCH   1  19
ATOM     19  C   UNL A   1      33.896  36.608  33.306  1.00  0.00     0.188 C 
BRANCH  19  20
ATOM     20  O   UNL A   1      34.871  35.620  32.986  1.00  0.00    -0.376 OA
BRANCH  20  21
ATOM     21  C   UNL A   1      35.103  34.621  33.971  1.00  0.00     0.202 C 
BRANCH  21  22
ATOM     22  C   UNL A   1      36.476  33.906  34.007  1.00  0.00     0.261 C 
BRANCH  22  23
ATOM     23  O   UNL A   1      36.455  32.474  33.961  1.00  0.00    -0.460 OA
BRANCH  23  24
ATOM     24  C   UNL A   1      36.256  31.923  32.742  1.00  0.00     0.338 C 
ATOM     25  O   UNL A   1      35.192  31.734  32.182  1.00  0.00    -0.246 OA
BRANCH  24  26
ATOM     26  C   UNL A   1      37.561  31.701  32.097  1.00  0.00     0.060 A 
ATOM     27  C   UNL A   1      37.689  32.005  30.737  1.00  0.00     0.016 A 
ATOM     28  C   UNL A   1      38.617  31.119  32.801  1.00  0.00     0.016 A 
ATOM     29  C   UNL A   1      38.885  31.748  30.075  1.00  0.00     0.010 A 
ATOM     30  C   UNL A   1      39.804  30.817  32.125  1.00  0.00     0.010 A 
ATOM     31  C   UNL A   1      39.932  31.113  30.756  1.00  0.00    -0.014 A 
BRANCH  31  32
ATOM     32  C   UNL A   1      41.064  30.566  29.975  1.00  0.00     0.031 A 
ATOM     33  C   UNL A   1      42.228  31.472  29.695  1.00  0.00     0.074 A 
ATOM     34  C   UNL A   1      41.071  29.289  29.560  1.00  0.00     0.049 A 
ATOM     35  N   UNL A   1      43.327  31.235  29.027  1.00  0.00    -0.248 NA
ATOM     36  C   UNL A   1      42.144  32.832  30.254  1.00  0.00     0.031 C 
ATOM     37  C   UNL A   1      40.025  28.306  29.832  1.00  0.00     0.029 A 
ATOM     38  N   UNL A   1      41.997  28.603  28.816  1.00  0.00    -0.354 N 
ATOM     39  C   UNL A   1      44.067  32.408  29.097  1.00  0.00     0.074 A 
ATOM     40  C   UNL A   1      43.284  33.366  29.846  1.00  0.00     0.031 C 
ATOM     41  C   UNL A   1      40.361  27.143  29.247  1.00  0.00     0.029 A 
ATOM     42  C   UNL A   1      41.628  27.311  28.538  1.00  0.00     0.049 A 
ATOM     43  H   UNL A   1      42.845  29.000  28.511  1.00  0.00     0.167 HD
ATOM     44  C   UNL A   1      45.294  32.661  28.584  1.00  0.00     0.037 A 
ATOM     45  C   UNL A   1      42.244  26.383  27.778  1.00  0.00     0.037 A 
ATOM     46  C   UNL A   1      46.050  31.715  27.810  1.00  0.00     0.049 A 
ATOM     47  C   UNL A   1      43.558  26.726  27.124  1.00  0.00     0.074 A 
ATOM     48  C   UNL A   1      47.292  31.874  27.224  1.00  0.00     0.029 A 
ATOM     49  N   UNL A   1      45.620  30.432  27.501  1.00  0.00    -0.354 N 
ATOM     50  N   UNL A   1      44.262  27.832  27.203  1.00  0.00    -0.248 NA
ATOM     51  C   UNL A   1      44.166  25.693  26.274  1.00  0.00     0.031 C 
ATOM     52  C   UNL A   1      47.591  30.706  26.515  1.00  0.00     0.029 A 
ATOM     53  C   UNL A   1      46.562  29.797  26.709  1.00  0.00     0.049 A 
ATOM     54  H   UNL A   1      44.771  30.032  27.799  1.00  0.00     0.167 HD
ATOM     55  C   UNL A   1      45.406  27.614  26.446  1.00  0.00     0.074 A 
ATOM     56  C   UNL A   1      45.307  26.268  25.922  1.00  0.00     0.031 C 
ATOM     57  C   UNL A   1      46.446  28.450  26.207  1.00  0.00     0.037 A 
BRANCH  44  58
ATOM     58  C   UNL A   1      45.866  34.028  28.814  1.00  0.00     0.064 A 
ATOM     59  C   UNL A   1      45.625  35.087  27.924  1.00  0.00     0.173 A 
ATOM     60  C   UNL A   1      46.659  34.287  29.941  1.00  0.00     0.173 A 
ATOM     61  F   UNL A   1      44.892  34.885  26.818  1.00  0.00    -0.203 F 
ATOM     62  C   UNL A   1      46.177  36.346  28.142  1.00  0.00     0.198 A 
ATOM     63  C   UNL A   1      47.185  35.554  30.172  1.00  0.00     0.198 A 
ATOM     64  F   UNL A   1      46.923  33.308  30.821  1.00  0.00    -0.203 F 
ATOM     65  F   UNL A   1      45.976  37.328  27.254  1.00  0.00    -0.200 F 
ATOM     66  C   UNL A   1      46.950  36.581  29.269  1.00  0.00     0.200 A 
ATOM     67  F   UNL A   1      47.925  35.781  31.266  1.00  0.00    -0.200 F 
ATOM     68  F   UNL A   1      47.479  37.794  29.481  1.00  0.00    -0.200 F 
ENDBRANCH  44  58
BRANCH  45  69
ATOM     69  C   UNL A   1      41.622  25.046  27.580  1.00  0.00     0.064 A 
ATOM     70  C   UNL A   1      40.496  24.884  26.762  1.00  0.00     0.173 A 
ATOM     71  C   UNL A   1      42.124  23.908  28.228  1.00  0.00     0.173 A 
ATOM     72  F   UNL A   1      39.959  25.948  26.144  1.00  0.00    -0.203 F 
ATOM     73  C   UNL A   1      39.882  23.642  26.616  1.00  0.00     0.198 A 
ATOM     74  C   UNL A   1      41.528  22.659  28.059  1.00  0.00     0.198 A 
ATOM     75  F   UNL A   1      43.196  24.007  29.028  1.00  0.00    -0.203 F 
ATOM     76  F   UNL A   1      38.775  23.526  25.870  1.00  0.00    -0.200 F 
ATOM     77  C   UNL A   1      40.403  22.528  27.259  1.00  0.00     0.200 A 
ATOM     78  F   UNL A   1      42.039  21.586  28.676  1.00  0.00    -0.200 F 
ATOM     79  F   UNL A   1      39.813  21.334  27.121  1.00  0.00    -0.200 F 
ENDBRANCH  45  69
BRANCH  57  80
ATOM     80  C   UNL A   1      47.583  27.923  25.380  1.00  0.00     0.064 A 
ATOM     81  C   UNL A   1      48.729  27.367  25.967  1.00  0.00     0.173 A 
ATOM     82  C   UNL A   1      47.499  27.926  23.979  1.00  0.00     0.173 A 
ATOM     83  F   UNL A   1      48.864  27.351  27.302  1.00  0.00    -0.203 F 
ATOM     84  C   UNL A   1      49.759  26.857  25.182  1.00  0.00     0.198 A 
ATOM     85  C   UNL A   1      48.516  27.385  23.197  1.00  0.00     0.198 A 
ATOM     86  F   UNL A   1      46.419  28.437  23.367  1.00  0.00    -0.203 F 
ATOM     87  F   UNL A   1      50.866  26.373  25.763  1.00  0.00    -0.200 F 
ATOM     88  C   UNL A   1      49.648  26.859  23.798  1.00  0.00     0.200 A 
ATOM     89  F   UNL A   1      48.398  27.372  21.863  1.00  0.00    -0.200 F 
ATOM     90  F   UNL A   1      50.637  26.357  23.045  1.00  0.00    -0.200 F 
ENDBRANCH  57  80
ENDBRANCH  31  32
ENDBRANCH  24  26
ENDBRANCH  23  24
ENDBRANCH  22  23
ENDBRANCH  21  22
ENDBRANCH  20  21
ENDBRANCH  19  20
ENDBRANCH   1  19
TORSDOF 19
ENDMDL
