MODEL 1
REMARK VINA RESULT:     -10.4      0.000      0.000
REMARK SMILES CC[C@@H](NC(=O)N1CCO[C@H](CC(=O)OCCOCCOCCOC(=O)c2ccc(-c3c4nc(c(-c5c(F)c(F)c(F)c(F)c5F)c5ccc([nH]5)c(-c5c(F)c(F)c(F)c(F)c5F)c5nc(c(-c6c(F)c(F)c(F)c(F)c6F)c6ccc3[nH]6)C=C5)C=C4)cc2)C1)c1cccs1
REMARK SMILES IDX 19 1 18 2 17 3 16 4 15 5 13 6 14 7 12 8 11 9 7 10 8 11 90 12
REMARK SMILES IDX 9 13 10 14 5 15 4 16 6 18 3 19 2 20 1 21 91 22 92 23 95 24
REMARK SMILES IDX 93 25 94 26 20 27 21 28 22 29 23 30 24 31 25 32 26 33 27 34
REMARK SMILES IDX 28 35 89 36 29 37 88 38 30 39 31 40 32 41 82 42 33 43 87 44
REMARK SMILES IDX 81 45 83 46 34 47 86 48 80 49 79 50 35 52 67 53 47 54 66 55
REMARK SMILES IDX 48 56 51 57 65 58 84 59 49 60 50 61 64 63 85 64 52 65 36 66
REMARK SMILES IDX 37 67 45 68 38 69 39 70 43 71 46 72 40 73 41 74 44 75 42 76
REMARK SMILES IDX 68 77 69 78 77 79 70 80 71 81 75 82 78 83 72 84 73 85 76 86
REMARK SMILES IDX 74 87 53 88 54 89 62 90 55 91 56 92 60 93 63 94 57 95 58 96
REMARK SMILES IDX 61 97 59 98
REMARK H PARENT 4 17 83 51 51 62
REMARK Flexibility Score: inf
ROOT
ATOM      1  C   UNL A   1      35.079  31.680  28.386  1.00  0.00     0.188 C 
ENDROOT
BRANCH   1   2
ATOM      2  O   UNL A   1      33.889  31.052  27.939  1.00  0.00    -0.376 OA
BRANCH   2   3
ATOM      3  C   UNL A   1      34.029  29.983  27.002  1.00  0.00     0.202 C 
BRANCH   3   4
ATOM      4  C   UNL A   1      33.167  28.733  27.233  1.00  0.00     0.261 C 
BRANCH   4   5
ATOM      5  O   UNL A   1      32.475  28.306  26.029  1.00  0.00    -0.463 OA
BRANCH   5   6
ATOM      6  C   UNL A   1      31.713  27.189  26.134  1.00  0.00     0.308 C 
ATOM      7  O   UNL A   1      30.978  26.940  27.086  1.00  0.00    -0.252 OA
BRANCH   6   8
ATOM      8  C   UNL A   1      31.904  26.182  25.024  1.00  0.00     0.156 C 
BRANCH   8   9
ATOM      9  C   UNL A   1      31.187  26.405  23.694  1.00  0.00     0.149 C 
ATOM     10  N   UNL A   1      32.353  24.831  22.131  1.00  0.00    -0.320 N 
ATOM     11  C   UNL A   1      32.946  25.952  21.412  1.00  0.00     0.150 C 
ATOM     12  C   UNL A   1      31.099  25.146  22.808  1.00  0.00     0.154 C 
ATOM     13  C   UNL A   1      33.096  27.122  22.390  1.00  0.00     0.182 C 
ATOM     14  O   UNL A   1      31.826  27.489  22.967  1.00  0.00    -0.374 OA
BRANCH  10  15
ATOM     15  C   UNL A   1      33.072  23.662  22.217  1.00  0.00     0.318 C 
ATOM     16  N   UNL A   1      32.314  22.576  22.591  1.00  0.00    -0.330 N 
ATOM     17  H   UNL A   1      31.425  22.425  22.194  1.00  0.00     0.166 HD
ATOM     18  O   UNL A   1      34.299  23.635  22.201  1.00  0.00    -0.249 OA
BRANCH  16  19
ATOM     19  C   UNL A   1      32.852  21.651  23.584  1.00  0.00     0.124 C 
BRANCH  19  20
ATOM     20  C   UNL A   1      32.302  20.224  23.413  1.00  0.00     0.027 C 
ATOM     21  C   UNL A   1      32.649  19.319  24.581  1.00  0.00     0.006 C 
ENDBRANCH  19  20
BRANCH  19  22
ATOM     22  C   UNL A   1      32.521  22.241  24.953  1.00  0.00     0.027 A 
ATOM     23  C   UNL A   1      31.257  22.548  25.430  1.00  0.00     0.017 A 
ATOM     24  S   UNL A   1      33.708  22.514  26.163  1.00  0.00    -0.147 S 
ATOM     25  C   UNL A   1      31.258  22.915  26.804  1.00  0.00     0.012 A 
ATOM     26  C   UNL A   1      32.528  22.933  27.326  1.00  0.00     0.065 A 
ENDBRANCH  19  22
ENDBRANCH  16  19
ENDBRANCH  10  15
ENDBRANCH   8   9
ENDBRANCH   6   8
ENDBRANCH   5   6
ENDBRANCH   4   5
ENDBRANCH   3   4
ENDBRANCH   2   3
ENDBRANCH   1   2
BRANCH   1  27
ATOM     27  C   UNL A   1      35.138  33.187  28.156  1.00  0.00     0.188 C 
BRANCH  27  28
ATOM     28  O   UNL A   1      34.480  33.978  29.131  1.00  0.00    -0.376 OA
BRANCH  28  29
ATOM     29  C   UNL A   1      33.529  34.963  28.718  1.00  0.00     0.202 C 
BRANCH  29  30
ATOM     30  C   UNL A   1      32.888  35.947  29.717  1.00  0.00     0.261 C 
BRANCH  30  31
ATOM     31  O   UNL A   1      32.272  35.364  30.870  1.00  0.00    -0.460 OA
BRANCH  31  32
ATOM     32  C   UNL A   1      32.606  35.890  32.061  1.00  0.00     0.338 C 
ATOM     33  O   UNL A   1      31.980  36.720  32.707  1.00  0.00    -0.246 OA
BRANCH  32  34
ATOM     34  C   UNL A   1      33.739  35.096  32.567  1.00  0.00     0.060 A 
ATOM     35  C   UNL A   1      34.989  35.715  32.583  1.00  0.00     0.016 A 
ATOM     36  C   UNL A   1      33.586  33.800  33.064  1.00  0.00     0.016 A 
ATOM     37  C   UNL A   1      36.101  35.046  33.088  1.00  0.00     0.010 A 
ATOM     38  C   UNL A   1      34.708  33.115  33.548  1.00  0.00     0.010 A 
ATOM     39  C   UNL A   1      35.974  33.732  33.550  1.00  0.00    -0.014 A 
BRANCH  39  40
ATOM     40  C   UNL A   1      37.199  32.955  33.860  1.00  0.00     0.031 A 
ATOM     41  C   UNL A   1      37.803  33.097  35.226  1.00  0.00     0.074 A 
ATOM     42  C   UNL A   1      37.724  32.080  32.984  1.00  0.00     0.049 A 
ATOM     43  N   UNL A   1      38.952  32.663  35.673  1.00  0.00    -0.248 NA
ATOM     44  C   UNL A   1      37.006  33.836  36.217  1.00  0.00     0.031 C 
ATOM     45  C   UNL A   1      37.172  31.775  31.668  1.00  0.00     0.029 A 
ATOM     46  N   UNL A   1      38.826  31.266  33.082  1.00  0.00    -0.354 N 
ATOM     47  C   UNL A   1      39.049  33.141  36.971  1.00  0.00     0.074 A 
ATOM     48  C   UNL A   1      37.827  33.861  37.256  1.00  0.00     0.031 C 
ATOM     49  C   UNL A   1      37.909  30.807  31.098  1.00  0.00     0.029 A 
ATOM     50  C   UNL A   1      39.034  30.481  31.973  1.00  0.00     0.049 A 
ATOM     51  H   UNL A   1      39.412  31.247  33.872  1.00  0.00     0.167 HD
ATOM     52  C   UNL A   1      40.085  33.014  37.831  1.00  0.00     0.037 A 
ATOM     53  C   UNL A   1      40.039  29.629  31.687  1.00  0.00     0.037 A 
ATOM     54  C   UNL A   1      41.271  32.249  37.554  1.00  0.00     0.049 A 
ATOM     55  C   UNL A   1      41.184  29.503  32.661  1.00  0.00     0.074 A 
ATOM     56  C   UNL A   1      42.400  32.090  38.337  1.00  0.00     0.029 A 
ATOM     57  N   UNL A   1      41.467  31.494  36.407  1.00  0.00    -0.354 N 
ATOM     58  N   UNL A   1      41.334  30.056  33.840  1.00  0.00    -0.248 NA
ATOM     59  C   UNL A   1      42.324  28.671  32.244  1.00  0.00     0.031 C 
ATOM     60  C   UNL A   1      43.294  31.264  37.648  1.00  0.00     0.029 A 
ATOM     61  C   UNL A   1      42.703  30.875  36.457  1.00  0.00     0.049 A 
ATOM     62  H   UNL A   1      40.822  31.411  35.669  1.00  0.00     0.167 HD
ATOM     63  C   UNL A   1      42.581  29.654  34.298  1.00  0.00     0.074 A 
ATOM     64  C   UNL A   1      43.132  28.773  33.290  1.00  0.00     0.031 C 
ATOM     65  C   UNL A   1      43.225  30.000  35.439  1.00  0.00     0.037 A 
BRANCH  52  66
ATOM     66  C   UNL A   1      40.018  33.792  39.109  1.00  0.00     0.064 A 
ATOM     67  C   UNL A   1      39.393  33.295  40.260  1.00  0.00     0.173 A 
ATOM     68  C   UNL A   1      40.615  35.061  39.177  1.00  0.00     0.173 A 
ATOM     69  F   UNL A   1      38.789  32.098  40.238  1.00  0.00    -0.203 F 
ATOM     70  C   UNL A   1      39.352  34.051  41.430  1.00  0.00     0.198 A 
ATOM     71  C   UNL A   1      40.594  35.801  40.354  1.00  0.00     0.198 A 
ATOM     72  F   UNL A   1      41.222  35.581  38.100  1.00  0.00    -0.203 F 
ATOM     73  F   UNL A   1      38.714  33.578  42.509  1.00  0.00    -0.200 F 
ATOM     74  C   UNL A   1      39.958  35.299  41.478  1.00  0.00     0.200 A 
ATOM     75  F   UNL A   1      41.187  37.003  40.399  1.00  0.00    -0.200 F 
ATOM     76  F   UNL A   1      39.923  36.020  42.607  1.00  0.00    -0.200 F 
ENDBRANCH  52  66
BRANCH  53  77
ATOM     77  C   UNL A   1      40.053  28.879  30.399  1.00  0.00     0.064 A 
ATOM     78  C   UNL A   1      40.655  29.419  29.252  1.00  0.00     0.173 A 
ATOM     79  C   UNL A   1      39.440  27.623  30.277  1.00  0.00     0.173 A 
ATOM     80  F   UNL A   1      41.226  30.631  29.303  1.00  0.00    -0.203 F 
ATOM     81  C   UNL A   1      40.631  28.738  28.035  1.00  0.00     0.198 A 
ATOM     82  C   UNL A   1      39.447  26.928  29.070  1.00  0.00     0.198 A 
ATOM     83  F   UNL A   1      38.835  27.064  31.336  1.00  0.00    -0.203 F 
ATOM     84  F   UNL A   1      41.167  29.301  26.944  1.00  0.00    -0.200 F 
ATOM     85  C   UNL A   1      40.034  27.489  27.947  1.00  0.00     0.200 A 
ATOM     86  F   UNL A   1      38.881  25.716  28.995  1.00  0.00    -0.200 F 
ATOM     87  F   UNL A   1      40.016  26.833  26.778  1.00  0.00    -0.200 F 
ENDBRANCH  53  77
BRANCH  65  88
ATOM     88  C   UNL A   1      44.595  29.429  35.657  1.00  0.00     0.064 A 
ATOM     89  C   UNL A   1      44.776  28.204  36.316  1.00  0.00     0.173 A 
ATOM     90  C   UNL A   1      45.729  30.077  35.147  1.00  0.00     0.173 A 
ATOM     91  F   UNL A   1      43.722  27.553  36.833  1.00  0.00    -0.203 F 
ATOM     92  C   UNL A   1      46.046  27.657  36.472  1.00  0.00     0.198 A 
ATOM     93  C   UNL A   1      46.994  29.515  35.283  1.00  0.00     0.198 A 
ATOM     94  F   UNL A   1      45.605  31.246  34.501  1.00  0.00    -0.203 F 
ATOM     95  F   UNL A   1      46.200  26.502  37.134  1.00  0.00    -0.200 F 
ATOM     96  C   UNL A   1      47.152  28.308  35.948  1.00  0.00     0.200 A 
ATOM     97  F   UNL A   1      48.062  30.139  34.765  1.00  0.00    -0.200 F 
ATOM     98  F   UNL A   1      48.374  27.776  36.088  1.00  0.00    -0.200 F 
ENDBRANCH  65  88
ENDBRANCH  39  40
ENDBRANCH  32  34
ENDBRANCH  31  32
ENDBRANCH  30  31
ENDBRANCH  29  30
ENDBRANCH  28  29
ENDBRANCH  27  28
ENDBRANCH   1  27
TORSDOF 22
ENDMDL
MODEL 2
REMARK VINA RESULT:     -10.2      3.794      9.123
REMARK SMILES CC[C@@H](NC(=O)N1CCO[C@H](CC(=O)OCCOCCOCCOC(=O)c2ccc(-c3c4nc(c(-c5c(F)c(F)c(F)c(F)c5F)c5ccc([nH]5)c(-c5c(F)c(F)c(F)c(F)c5F)c5nc(c(-c6c(F)c(F)c(F)c(F)c6F)c6ccc3[nH]6)C=C5)C=C4)cc2)C1)c1cccs1
REMARK SMILES IDX 19 1 18 2 17 3 16 4 15 5 13 6 14 7 12 8 11 9 7 10 8 11 90 12
REMARK SMILES IDX 9 13 10 14 5 15 4 16 6 18 3 19 2 20 1 21 91 22 92 23 95 24
REMARK SMILES IDX 93 25 94 26 20 27 21 28 22 29 23 30 24 31 25 32 26 33 27 34
REMARK SMILES IDX 28 35 89 36 29 37 88 38 30 39 31 40 32 41 82 42 33 43 87 44
REMARK SMILES IDX 81 45 83 46 34 47 86 48 80 49 79 50 35 52 67 53 47 54 66 55
REMARK SMILES IDX 48 56 51 57 65 58 84 59 49 60 50 61 64 63 85 64 52 65 36 66
REMARK SMILES IDX 37 67 45 68 38 69 39 70 43 71 46 72 40 73 41 74 44 75 42 76
REMARK SMILES IDX 68 77 69 78 77 79 70 80 71 81 75 82 78 83 72 84 73 85 76 86
REMARK SMILES IDX 74 87 53 88 54 89 62 90 55 91 56 92 60 93 63 94 57 95 58 96
REMARK SMILES IDX 61 97 59 98
REMARK H PARENT 4 17 83 51 51 62
REMARK Flexibility Score: inf
ROOT
ATOM      1  C   UNL A   1      41.160  20.001  27.547  1.00  0.00     0.188 C 
ENDROOT
BRANCH   1   2
ATOM      2  O   UNL A   1      40.364  21.171  27.451  1.00  0.00    -0.376 OA
BRANCH   2   3
ATOM      3  C   UNL A   1      39.697  21.404  26.209  1.00  0.00     0.202 C 
BRANCH   3   4
ATOM      4  C   UNL A   1      38.788  22.639  26.126  1.00  0.00     0.261 C 
BRANCH   4   5
ATOM      5  O   UNL A   1      37.741  22.491  25.129  1.00  0.00    -0.463 OA
BRANCH   5   6
ATOM      6  C   UNL A   1      36.758  21.600  25.411  1.00  0.00     0.308 C 
ATOM      7  O   UNL A   1      36.799  20.409  25.113  1.00  0.00    -0.252 OA
BRANCH   6   8
ATOM      8  C   UNL A   1      35.522  22.195  26.042  1.00  0.00     0.156 C 
BRANCH   8   9
ATOM      9  C   UNL A   1      34.363  21.272  26.411  1.00  0.00     0.149 C 
ATOM     10  N   UNL A   1      32.437  22.199  25.103  1.00  0.00    -0.320 N 
ATOM     11  C   UNL A   1      31.795  22.651  26.331  1.00  0.00     0.150 C 
ATOM     12  C   UNL A   1      33.338  21.064  25.278  1.00  0.00     0.154 C 
ATOM     13  C   UNL A   1      32.888  22.936  27.366  1.00  0.00     0.182 C 
ATOM     14  O   UNL A   1      33.700  21.768  27.605  1.00  0.00    -0.374 OA
BRANCH  10  15
ATOM     15  C   UNL A   1      32.250  22.941  23.961  1.00  0.00     0.318 C 
ATOM     16  N   UNL A   1      33.093  24.025  23.864  1.00  0.00    -0.330 N 
ATOM     17  H   UNL A   1      34.049  23.937  24.086  1.00  0.00     0.166 HD
ATOM     18  O   UNL A   1      31.277  22.796  23.227  1.00  0.00    -0.249 OA
BRANCH  16  19
ATOM     19  C   UNL A   1      32.545  25.305  23.425  1.00  0.00     0.124 C 
BRANCH  19  20
ATOM     20  C   UNL A   1      33.327  25.900  22.241  1.00  0.00     0.027 C 
ATOM     21  C   UNL A   1      32.630  25.684  20.911  1.00  0.00     0.006 C 
ENDBRANCH  19  20
BRANCH  19  22
ATOM     22  C   UNL A   1      32.551  26.222  24.645  1.00  0.00     0.027 A 
ATOM     23  C   UNL A   1      33.611  26.425  25.515  1.00  0.00     0.017 A 
ATOM     24  S   UNL A   1      31.230  27.240  25.054  1.00  0.00    -0.147 S 
ATOM     25  C   UNL A   1      33.370  27.470  26.448  1.00  0.00     0.012 A 
ATOM     26  C   UNL A   1      32.111  28.002  26.304  1.00  0.00     0.065 A 
ENDBRANCH  19  22
ENDBRANCH  16  19
ENDBRANCH  10  15
ENDBRANCH   8   9
ENDBRANCH   6   8
ENDBRANCH   5   6
ENDBRANCH   4   5
ENDBRANCH   3   4
ENDBRANCH   2   3
ENDBRANCH   1   2
BRANCH   1  27
ATOM     27  C   UNL A   1      41.577  19.394  26.211  1.00  0.00     0.188 C 
BRANCH  27  28
ATOM     28  O   UNL A   1      42.972  19.371  25.961  1.00  0.00    -0.376 OA
BRANCH  28  29
ATOM     29  C   UNL A   1      43.597  20.495  25.335  1.00  0.00     0.202 C 
BRANCH  29  30
ATOM     30  C   UNL A   1      43.697  21.866  26.034  1.00  0.00     0.261 C 
BRANCH  30  31
ATOM     31  O   UNL A   1      43.003  22.947  25.405  1.00  0.00    -0.460 OA
BRANCH  31  32
ATOM     32  C   UNL A   1      43.656  24.119  25.331  1.00  0.00     0.338 C 
ATOM     33  O   UNL A   1      44.456  24.470  24.473  1.00  0.00    -0.246 OA
BRANCH  32  34
ATOM     34  C   UNL A   1      43.042  25.006  26.333  1.00  0.00     0.060 A 
ATOM     35  C   UNL A   1      43.468  26.334  26.350  1.00  0.00     0.016 A 
ATOM     36  C   UNL A   1      42.039  24.576  27.204  1.00  0.00     0.016 A 
ATOM     37  C   UNL A   1      42.904  27.245  27.239  1.00  0.00     0.010 A 
ATOM     38  C   UNL A   1      41.487  25.485  28.117  1.00  0.00     0.010 A 
ATOM     39  C   UNL A   1      41.928  26.821  28.147  1.00  0.00    -0.014 A 
BRANCH  39  40
ATOM     40  C   UNL A   1      41.512  27.737  29.237  1.00  0.00     0.031 A 
ATOM     41  C   UNL A   1      42.377  27.829  30.458  1.00  0.00     0.074 A 
ATOM     42  C   UNL A   1      40.434  28.534  29.119  1.00  0.00     0.049 A 
ATOM     43  N   UNL A   1      42.139  28.417  31.601  1.00  0.00    -0.248 NA
ATOM     44  C   UNL A   1      43.684  27.158  30.382  1.00  0.00     0.031 C 
ATOM     45  C   UNL A   1      39.573  28.614  27.944  1.00  0.00     0.029 A 
ATOM     46  N   UNL A   1      39.896  29.447  29.991  1.00  0.00    -0.354 N 
ATOM     47  C   UNL A   1      43.231  28.123  32.403  1.00  0.00     0.074 A 
ATOM     48  C   UNL A   1      44.152  27.342  31.607  1.00  0.00     0.031 C 
ATOM     49  C   UNL A   1      38.642  29.561  28.148  1.00  0.00     0.029 A 
ATOM     50  C   UNL A   1      38.789  30.097  29.500  1.00  0.00     0.049 A 
ATOM     51  H   UNL A   1      40.269  29.622  30.886  1.00  0.00     0.167 HD
ATOM     52  C   UNL A   1      43.424  28.453  33.701  1.00  0.00     0.037 A 
ATOM     53  C   UNL A   1      37.970  30.990  30.092  1.00  0.00     0.037 A 
ATOM     54  C   UNL A   1      42.526  29.277  34.464  1.00  0.00     0.049 A 
ATOM     55  C   UNL A   1      38.205  31.343  31.540  1.00  0.00     0.074 A 
ATOM     56  C   UNL A   1      42.604  29.637  35.797  1.00  0.00     0.029 A 
ATOM     57  N   UNL A   1      41.395  29.891  33.947  1.00  0.00    -0.354 N 
ATOM     58  N   UNL A   1      39.173  30.964  32.338  1.00  0.00    -0.248 NA
ATOM     59  C   UNL A   1      37.207  32.211  32.183  1.00  0.00     0.031 C 
ATOM     60  C   UNL A   1      41.500  30.441  36.096  1.00  0.00     0.029 A 
ATOM     61  C   UNL A   1      40.759  30.618  34.938  1.00  0.00     0.049 A 
ATOM     62  H   UNL A   1      41.090  29.819  33.014  1.00  0.00     0.167 HD
ATOM     63  C   UNL A   1      38.896  31.532  33.575  1.00  0.00     0.074 A 
ATOM     64  C   UNL A   1      37.692  32.318  33.413  1.00  0.00     0.031 C 
ATOM     65  C   UNL A   1      39.562  31.395  34.747  1.00  0.00     0.037 A 
BRANCH  52  66
ATOM     66  C   UNL A   1      44.603  27.846  34.397  1.00  0.00     0.064 A 
ATOM     67  C   UNL A   1      44.507  26.673  35.155  1.00  0.00     0.173 A 
ATOM     68  C   UNL A   1      45.863  28.457  34.283  1.00  0.00     0.173 A 
ATOM     69  F   UNL A   1      43.321  26.066  35.314  1.00  0.00    -0.203 F 
ATOM     70  C   UNL A   1      45.628  26.140  35.788  1.00  0.00     0.198 A 
ATOM     71  C   UNL A   1      46.984  27.908  34.895  1.00  0.00     0.198 A 
ATOM     72  F   UNL A   1      46.005  29.585  33.571  1.00  0.00    -0.203 F 
ATOM     73  F   UNL A   1      45.510  25.038  36.543  1.00  0.00    -0.200 F 
ATOM     74  C   UNL A   1      46.865  26.754  35.652  1.00  0.00     0.200 A 
ATOM     75  F   UNL A   1      48.179  28.499  34.754  1.00  0.00    -0.200 F 
ATOM     76  F   UNL A   1      47.944  26.235  36.256  1.00  0.00    -0.200 F 
ENDBRANCH  52  66
BRANCH  53  77
ATOM     77  C   UNL A   1      36.812  31.564  29.350  1.00  0.00     0.064 A 
ATOM     78  C   UNL A   1      36.763  32.928  29.025  1.00  0.00     0.173 A 
ATOM     79  C   UNL A   1      35.716  30.771  28.978  1.00  0.00     0.173 A 
ATOM     80  F   UNL A   1      37.768  33.739  29.387  1.00  0.00    -0.203 F 
ATOM     81  C   UNL A   1      35.661  33.476  28.370  1.00  0.00     0.198 A 
ATOM     82  C   UNL A   1      34.631  31.312  28.292  1.00  0.00     0.198 A 
ATOM     83  F   UNL A   1      35.700  29.463  29.275  1.00  0.00    -0.203 F 
ATOM     84  F   UNL A   1      35.617  34.791  28.120  1.00  0.00    -0.200 F 
ATOM     85  C   UNL A   1      34.599  32.665  27.996  1.00  0.00     0.200 A 
ATOM     86  F   UNL A   1      33.615  30.521  27.921  1.00  0.00    -0.200 F 
ATOM     87  F   UNL A   1      33.542  33.191  27.362  1.00  0.00    -0.200 F 
ENDBRANCH  53  77
BRANCH  65  88
ATOM     88  C   UNL A   1      39.006  32.110  35.943  1.00  0.00     0.064 A 
ATOM     89  C   UNL A   1      38.178  31.452  36.863  1.00  0.00     0.173 A 
ATOM     90  C   UNL A   1      39.357  33.442  36.205  1.00  0.00     0.173 A 
ATOM     91  F   UNL A   1      37.804  30.180  36.647  1.00  0.00    -0.203 F 
ATOM     92  C   UNL A   1      37.705  32.108  37.996  1.00  0.00     0.198 A 
ATOM     93  C   UNL A   1      38.903  34.087  37.351  1.00  0.00     0.198 A 
ATOM     94  F   UNL A   1      40.154  34.110  35.359  1.00  0.00    -0.203 F 
ATOM     95  F   UNL A   1      36.888  31.471  38.846  1.00  0.00    -0.200 F 
ATOM     96  C   UNL A   1      38.075  33.421  38.243  1.00  0.00     0.200 A 
ATOM     97  F   UNL A   1      39.271  35.353  37.597  1.00  0.00    -0.200 F 
ATOM     98  F   UNL A   1      37.630  34.049  39.340  1.00  0.00    -0.200 F 
ENDBRANCH  65  88
ENDBRANCH  39  40
ENDBRANCH  32  34
ENDBRANCH  31  32
ENDBRANCH  30  31
ENDBRANCH  29  30
ENDBRANCH  28  29
ENDBRANCH  27  28
ENDBRANCH   1  27
TORSDOF 22
ENDMDL
MODEL 3
REMARK VINA RESULT:     -10.2      6.694     12.500
REMARK SMILES CC[C@@H](NC(=O)N1CCO[C@H](CC(=O)OCCOCCOCCOC(=O)c2ccc(-c3c4nc(c(-c5c(F)c(F)c(F)c(F)c5F)c5ccc([nH]5)c(-c5c(F)c(F)c(F)c(F)c5F)c5nc(c(-c6c(F)c(F)c(F)c(F)c6F)c6ccc3[nH]6)C=C5)C=C4)cc2)C1)c1cccs1
REMARK SMILES IDX 19 1 18 2 17 3 16 4 15 5 13 6 14 7 12 8 11 9 7 10 8 11 90 12
REMARK SMILES IDX 9 13 10 14 5 15 4 16 6 18 3 19 2 20 1 21 91 22 92 23 95 24
REMARK SMILES IDX 93 25 94 26 20 27 21 28 22 29 23 30 24 31 25 32 26 33 27 34
REMARK SMILES IDX 28 35 89 36 29 37 88 38 30 39 31 40 32 41 82 42 33 43 87 44
REMARK SMILES IDX 81 45 83 46 34 47 86 48 80 49 79 50 35 52 67 53 47 54 66 55
REMARK SMILES IDX 48 56 51 57 65 58 84 59 49 60 50 61 64 63 85 64 52 65 36 66
REMARK SMILES IDX 37 67 45 68 38 69 39 70 43 71 46 72 40 73 41 74 44 75 42 76
REMARK SMILES IDX 68 77 69 78 77 79 70 80 71 81 75 82 78 83 72 84 73 85 76 86
REMARK SMILES IDX 74 87 53 88 54 89 62 90 55 91 56 92 60 93 63 94 57 95 58 96
REMARK SMILES IDX 61 97 59 98
REMARK H PARENT 4 17 83 51 51 62
REMARK Flexibility Score: inf
ROOT
ATOM      1  C   UNL A   1      39.643  21.677  26.454  1.00  0.00     0.188 C 
ENDROOT
BRANCH   1   2
ATOM      2  O   UNL A   1      38.807  20.888  25.625  1.00  0.00    -0.376 OA
BRANCH   2   3
ATOM      3  C   UNL A   1      37.803  21.572  24.873  1.00  0.00     0.202 C 
BRANCH   3   4
ATOM      4  C   UNL A   1      36.707  22.296  25.668  1.00  0.00     0.261 C 
BRANCH   4   5
ATOM      5  O   UNL A   1      35.686  21.386  26.161  1.00  0.00    -0.463 OA
BRANCH   5   6
ATOM      6  C   UNL A   1      34.593  21.953  26.730  1.00  0.00     0.308 C 
ATOM      7  O   UNL A   1      34.626  22.945  27.454  1.00  0.00    -0.252 OA
BRANCH   6   8
ATOM      8  C   UNL A   1      33.299  21.210  26.498  1.00  0.00     0.156 C 
BRANCH   8   9
ATOM      9  C   UNL A   1      32.583  21.373  25.160  1.00  0.00     0.149 C 
ATOM     10  N   UNL A   1      32.437  23.858  24.872  1.00  0.00    -0.320 N 
ATOM     11  C   UNL A   1      30.992  23.815  25.057  1.00  0.00     0.150 C 
ATOM     12  C   UNL A   1      33.016  22.619  24.361  1.00  0.00     0.154 C 
ATOM     13  C   UNL A   1      30.659  22.613  25.947  1.00  0.00     0.182 C 
ATOM     14  O   UNL A   1      31.144  21.384  25.370  1.00  0.00    -0.374 OA
BRANCH  10  15
ATOM     15  C   UNL A   1      33.115  24.971  25.309  1.00  0.00     0.318 C 
ATOM     16  N   UNL A   1      32.367  25.786  26.128  1.00  0.00    -0.330 N 
ATOM     17  H   UNL A   1      31.807  25.401  26.841  1.00  0.00     0.166 HD
ATOM     18  O   UNL A   1      34.188  25.326  24.829  1.00  0.00    -0.249 OA
BRANCH  16  19
ATOM     19  C   UNL A   1      32.421  27.231  25.922  1.00  0.00     0.124 C 
BRANCH  19  20
ATOM     20  C   UNL A   1      31.892  28.014  27.135  1.00  0.00     0.027 C 
ATOM     21  C   UNL A   1      31.983  29.517  26.947  1.00  0.00     0.006 C 
ENDBRANCH  19  20
BRANCH  19  22
ATOM     22  C   UNL A   1      31.624  27.519  24.652  1.00  0.00     0.027 A 
ATOM     23  C   UNL A   1      30.273  27.280  24.459  1.00  0.00     0.017 A 
ATOM     24  S   UNL A   1      32.302  28.302  23.283  1.00  0.00    -0.147 S 
ATOM     25  C   UNL A   1      29.784  27.818  23.237  1.00  0.00     0.012 A 
ATOM     26  C   UNL A   1      30.786  28.405  22.502  1.00  0.00     0.065 A 
ENDBRANCH  19  22
ENDBRANCH  16  19
ENDBRANCH  10  15
ENDBRANCH   8   9
ENDBRANCH   6   8
ENDBRANCH   5   6
ENDBRANCH   4   5
ENDBRANCH   3   4
ENDBRANCH   2   3
ENDBRANCH   1   2
BRANCH   1  27
ATOM     27  C   UNL A   1      41.130  21.608  26.122  1.00  0.00     0.188 C 
BRANCH  27  28
ATOM     28  O   UNL A   1      41.842  20.544  26.731  1.00  0.00    -0.376 OA
BRANCH  28  29
ATOM     29  C   UNL A   1      41.868  19.259  26.104  1.00  0.00     0.202 C 
BRANCH  29  30
ATOM     30  C   UNL A   1      43.184  18.610  25.630  1.00  0.00     0.261 C 
BRANCH  30  31
ATOM     31  O   UNL A   1      43.586  18.905  24.289  1.00  0.00    -0.460 OA
BRANCH  31  32
ATOM     32  C   UNL A   1      44.843  19.349  24.122  1.00  0.00     0.338 C 
ATOM     33  O   UNL A   1      45.731  18.831  23.455  1.00  0.00    -0.246 OA
BRANCH  32  34
ATOM     34  C   UNL A   1      44.886  20.710  24.682  1.00  0.00     0.060 A 
ATOM     35  C   UNL A   1      44.177  21.699  24.000  1.00  0.00     0.016 A 
ATOM     36  C   UNL A   1      45.554  21.013  25.871  1.00  0.00     0.016 A 
ATOM     37  C   UNL A   1      44.133  23.001  24.490  1.00  0.00     0.010 A 
ATOM     38  C   UNL A   1      45.532  22.328  26.353  1.00  0.00     0.010 A 
ATOM     39  C   UNL A   1      44.832  23.332  25.656  1.00  0.00    -0.014 A 
BRANCH  39  40
ATOM     40  C   UNL A   1      44.970  24.760  26.033  1.00  0.00     0.031 A 
ATOM     41  C   UNL A   1      46.263  25.454  25.723  1.00  0.00     0.074 A 
ATOM     42  C   UNL A   1      43.949  25.454  26.564  1.00  0.00     0.049 A 
ATOM     43  N   UNL A   1      46.683  26.632  26.104  1.00  0.00    -0.248 NA
ATOM     44  C   UNL A   1      47.213  24.716  24.877  1.00  0.00     0.031 C 
ATOM     45  C   UNL A   1      42.613  24.923  26.817  1.00  0.00     0.029 A 
ATOM     46  N   UNL A   1      43.868  26.765  26.963  1.00  0.00    -0.354 N 
ATOM     47  C   UNL A   1      47.973  26.743  25.607  1.00  0.00     0.074 A 
ATOM     48  C   UNL A   1      48.254  25.535  24.863  1.00  0.00     0.031 C 
ATOM     49  C   UNL A   1      41.830  25.911  27.283  1.00  0.00     0.029 A 
ATOM     50  C   UNL A   1      42.630  27.124  27.441  1.00  0.00     0.049 A 
ATOM     51  H   UNL A   1      44.626  27.392  26.910  1.00  0.00     0.167 HD
ATOM     52  C   UNL A   1      48.852  27.755  25.790  1.00  0.00     0.037 A 
ATOM     53  C   UNL A   1      42.208  28.286  27.979  1.00  0.00     0.037 A 
ATOM     54  C   UNL A   1      48.541  28.975  26.486  1.00  0.00     0.049 A 
ATOM     55  C   UNL A   1      43.206  29.401  28.173  1.00  0.00     0.074 A 
ATOM     56  C   UNL A   1      49.370  30.046  26.766  1.00  0.00     0.029 A 
ATOM     57  N   UNL A   1      47.288  29.292  26.990  1.00  0.00    -0.354 N 
ATOM     58  N   UNL A   1      44.465  29.458  27.815  1.00  0.00    -0.248 NA
ATOM     59  C   UNL A   1      42.736  30.596  28.891  1.00  0.00     0.031 C 
ATOM     60  C   UNL A   1      48.626  30.998  27.471  1.00  0.00     0.029 A 
ATOM     61  C   UNL A   1      47.324  30.539  27.590  1.00  0.00     0.049 A 
ATOM     62  H   UNL A   1      46.493  28.716  26.930  1.00  0.00     0.167 HD
ATOM     63  C   UNL A   1      44.941  30.680  28.270  1.00  0.00     0.074 A 
ATOM     64  C   UNL A   1      43.824  31.355  28.896  1.00  0.00     0.031 C 
ATOM     65  C   UNL A   1      46.195  31.189  28.202  1.00  0.00     0.037 A 
BRANCH  52  66
ATOM     66  C   UNL A   1      50.255  27.544  25.310  1.00  0.00     0.064 A 
ATOM     67  C   UNL A   1      51.289  27.139  26.163  1.00  0.00     0.173 A 
ATOM     68  C   UNL A   1      50.557  27.740  23.953  1.00  0.00     0.173 A 
ATOM     69  F   UNL A   1      51.055  26.962  27.472  1.00  0.00    -0.203 F 
ATOM     70  C   UNL A   1      52.581  26.954  25.677  1.00  0.00     0.198 A 
ATOM     71  C   UNL A   1      51.843  27.530  23.467  1.00  0.00     0.198 A 
ATOM     72  F   UNL A   1      49.601  28.133  23.097  1.00  0.00    -0.203 F 
ATOM     73  F   UNL A   1      53.568  26.606  26.516  1.00  0.00    -0.200 F 
ATOM     74  C   UNL A   1      52.855  27.142  24.330  1.00  0.00     0.200 A 
ATOM     75  F   UNL A   1      52.102  27.705  22.163  1.00  0.00    -0.200 F 
ATOM     76  F   UNL A   1      54.098  26.957  23.864  1.00  0.00    -0.200 F 
ENDBRANCH  52  66
BRANCH  53  77
ATOM     77  C   UNL A   1      40.799  28.441  28.438  1.00  0.00     0.064 A 
ATOM     78  C   UNL A   1      39.812  28.961  27.587  1.00  0.00     0.173 A 
ATOM     79  C   UNL A   1      40.414  28.105  29.745  1.00  0.00     0.173 A 
ATOM     80  F   UNL A   1      40.132  29.331  26.339  1.00  0.00    -0.203 F 
ATOM     81  C   UNL A   1      38.503  29.148  28.029  1.00  0.00     0.198 A 
ATOM     82  C   UNL A   1      39.098  28.259  30.175  1.00  0.00     0.198 A 
ATOM     83  F   UNL A   1      41.318  27.618  30.608  1.00  0.00    -0.203 F 
ATOM     84  F   UNL A   1      37.593  29.696  27.211  1.00  0.00    -0.200 F 
ATOM     85  C   UNL A   1      38.144  28.789  29.320  1.00  0.00     0.200 A 
ATOM     86  F   UNL A   1      38.756  27.898  31.419  1.00  0.00    -0.200 F 
ATOM     87  F   UNL A   1      36.885  28.964  29.742  1.00  0.00    -0.200 F 
ENDBRANCH  53  77
BRANCH  65  88
ATOM     88  C   UNL A   1      46.425  32.538  28.817  1.00  0.00     0.064 A 
ATOM     89  C   UNL A   1      46.315  33.711  28.057  1.00  0.00     0.173 A 
ATOM     90  C   UNL A   1      46.694  32.661  30.187  1.00  0.00     0.173 A 
ATOM     91  F   UNL A   1      46.072  33.643  26.739  1.00  0.00    -0.203 F 
ATOM     92  C   UNL A   1      46.483  34.961  28.646  1.00  0.00     0.198 A 
ATOM     93  C   UNL A   1      46.836  33.913  30.777  1.00  0.00     0.198 A 
ATOM     94  F   UNL A   1      46.799  31.567  30.956  1.00  0.00    -0.203 F 
ATOM     95  F   UNL A   1      46.406  36.070  27.896  1.00  0.00    -0.200 F 
ATOM     96  C   UNL A   1      46.734  35.061  30.006  1.00  0.00     0.200 A 
ATOM     97  F   UNL A   1      47.067  34.009  32.094  1.00  0.00    -0.200 F 
ATOM     98  F   UNL A   1      46.884  36.266  30.575  1.00  0.00    -0.200 F 
ENDBRANCH  65  88
ENDBRANCH  39  40
ENDBRANCH  32  34
ENDBRANCH  31  32
ENDBRANCH  30  31
ENDBRANCH  29  30
ENDBRANCH  28  29
ENDBRANCH  27  28
ENDBRANCH   1  27
TORSDOF 22
ENDMDL
