MODEL 1
REMARK VINA RESULT:     -10.6      0.000      0.000
REMARK SMILES N#C[C@H]1CN(c2cc(C(=O)OCCOCCOCCOC(=O)c3ccc(-c4c5nc(c(-c6c(F)c(F)c(F)c(F)c6F)c6ccc([nH]6)c(-c6c(F)c(F)c(F)c(F)c6F)c6nc(c(-c7c(F)c(F)c(F)c(F)c7F)c7ccc4[nH]7)C=C6)C=C5)cc3)c(N)cc2F)CCO1
REMARK SMILES IDX 15 1 14 2 13 3 12 4 11 5 9 6 10 7 8 8 6 9 7 10 89 11 88 12
REMARK SMILES IDX 90 13 86 14 5 15 3 16 4 17 93 18 92 19 91 20 2 21 1 22 87 23
REMARK SMILES IDX 16 26 17 27 18 28 19 29 20 30 21 31 22 32 23 33 24 34 85 35
REMARK SMILES IDX 25 36 84 37 26 38 27 39 28 40 78 41 29 42 83 43 77 44 79 45
REMARK SMILES IDX 30 46 82 47 76 48 75 49 31 51 63 52 43 53 62 54 44 55 47 56
REMARK SMILES IDX 61 57 80 58 45 59 46 60 60 62 81 63 48 64 32 65 33 66 41 67
REMARK SMILES IDX 34 68 35 69 39 70 42 71 36 72 37 73 40 74 38 75 64 76 65 77
REMARK SMILES IDX 73 78 66 79 67 80 71 81 74 82 68 83 69 84 72 85 70 86 49 87
REMARK SMILES IDX 50 88 58 89 51 90 52 91 56 92 59 93 53 94 54 95 57 96 55 97
REMARK H PARENT 87 24 87 25 79 50 47 61
REMARK Flexibility Score: inf
ROOT
ATOM      1  C   UNL A   1      40.722  19.998  26.317  1.00  0.00     0.188 C 
ENDROOT
BRANCH   1   2
ATOM      2  O   UNL A   1      40.406  21.322  25.937  1.00  0.00    -0.376 OA
BRANCH   2   3
ATOM      3  C   UNL A   1      39.296  21.994  26.515  1.00  0.00     0.202 C 
BRANCH   3   4
ATOM      4  C   UNL A   1      38.554  23.169  25.845  1.00  0.00     0.261 C 
BRANCH   4   5
ATOM      5  O   UNL A   1      37.178  23.357  26.200  1.00  0.00    -0.460 OA
BRANCH   5   6
ATOM      6  C   UNL A   1      36.266  22.721  25.418  1.00  0.00     0.340 C 
ATOM      7  O   UNL A   1      36.498  21.808  24.641  1.00  0.00    -0.246 OA
BRANCH   6   8
ATOM      8  C   UNL A   1      34.882  23.125  25.790  1.00  0.00     0.085 A 
ATOM      9  C   UNL A   1      33.245  24.950  25.761  1.00  0.00     0.074 A 
ATOM     10  C   UNL A   1      34.496  24.434  25.417  1.00  0.00     0.047 A 
ATOM     11  C   UNL A   1      32.398  24.123  26.511  1.00  0.00     0.148 A 
ATOM     12  C   UNL A   1      32.747  22.815  26.849  1.00  0.00     0.067 A 
ATOM     13  F   UNL A   1      31.205  24.591  26.913  1.00  0.00    -0.205 F 
ATOM     14  C   UNL A   1      33.970  22.272  26.440  1.00  0.00     0.049 A 
BRANCH   9  15
ATOM     15  N   UNL A   1      32.901  26.241  25.432  1.00  0.00    -0.363 N 
ATOM     16  C   UNL A   1      31.017  27.448  24.353  1.00  0.00     0.240 C 
ATOM     17  C   UNL A   1      32.301  26.604  24.142  1.00  0.00     0.164 C 
ATOM     18  O   UNL A   1      31.262  28.550  25.258  1.00  0.00    -0.360 OA
ATOM     19  C   UNL A   1      31.679  28.057  26.542  1.00  0.00     0.183 C 
ATOM     20  C   UNL A   1      33.007  27.298  26.438  1.00  0.00     0.145 C 
BRANCH  16  21
ATOM     21  C   UNL A   1      30.524  27.951  23.061  1.00  0.00     0.096 C 
ATOM     22  N   UNL A   1      30.184  28.339  22.017  1.00  0.00    -0.195 NA
ENDBRANCH  16  21
ENDBRANCH   9  15
BRANCH  14  23
ATOM     23  N   UNL A   1      34.278  20.964  26.809  1.00  0.00    -0.398 N 
ATOM     24  H   UNL A   1      35.211  20.651  26.777  1.00  0.00     0.156 HD
ATOM     25  H   UNL A   1      33.563  20.354  27.101  1.00  0.00     0.156 HD
ENDBRANCH  14  23
ENDBRANCH   6   8
ENDBRANCH   5   6
ENDBRANCH   4   5
ENDBRANCH   3   4
ENDBRANCH   2   3
ENDBRANCH   1   2
BRANCH   1  26
ATOM     26  C   UNL A   1      42.100  19.695  26.940  1.00  0.00     0.188 C 
BRANCH  26  27
ATOM     27  O   UNL A   1      43.069  19.171  26.066  1.00  0.00    -0.376 OA
BRANCH  27  28
ATOM     28  C   UNL A   1      43.680  20.024  25.112  1.00  0.00     0.202 C 
BRANCH  28  29
ATOM     29  C   UNL A   1      44.200  21.460  25.367  1.00  0.00     0.261 C 
BRANCH  29  30
ATOM     30  O   UNL A   1      43.393  22.580  24.983  1.00  0.00    -0.460 OA
BRANCH  30  31
ATOM     31  C   UNL A   1      44.007  23.789  24.992  1.00  0.00     0.338 C 
ATOM     32  O   UNL A   1      44.868  24.182  24.225  1.00  0.00    -0.246 OA
BRANCH  31  33
ATOM     33  C   UNL A   1      43.322  24.677  25.956  1.00  0.00     0.060 A 
ATOM     34  C   UNL A   1      43.812  25.979  26.127  1.00  0.00     0.016 A 
ATOM     35  C   UNL A   1      42.253  24.222  26.728  1.00  0.00     0.016 A 
ATOM     36  C   UNL A   1      43.245  26.818  27.083  1.00  0.00     0.010 A 
ATOM     37  C   UNL A   1      41.694  25.065  27.698  1.00  0.00     0.010 A 
ATOM     38  C   UNL A   1      42.202  26.361  27.897  1.00  0.00    -0.014 A 
BRANCH  38  39
ATOM     39  C   UNL A   1      41.766  27.206  29.039  1.00  0.00     0.031 A 
ATOM     40  C   UNL A   1      42.564  27.186  30.314  1.00  0.00     0.074 A 
ATOM     41  C   UNL A   1      40.721  28.045  28.918  1.00  0.00     0.049 A 
ATOM     42  N   UNL A   1      42.372  27.838  31.433  1.00  0.00    -0.248 NA
ATOM     43  C   UNL A   1      43.735  26.298  30.329  1.00  0.00     0.031 C 
ATOM     44  C   UNL A   1      39.901  28.204  27.719  1.00  0.00     0.029 A 
ATOM     45  N   UNL A   1      40.181  28.931  29.816  1.00  0.00    -0.354 N 
ATOM     46  C   UNL A   1      43.402  27.448  32.280  1.00  0.00     0.074 A 
ATOM     47  C   UNL A   1      44.180  26.458  31.567  1.00  0.00     0.031 C 
ATOM     48  C   UNL A   1      38.966  29.141  27.954  1.00  0.00     0.029 A 
ATOM     49  C   UNL A   1      39.096  29.617  29.330  1.00  0.00     0.049 A 
ATOM     50  H   UNL A   1      40.539  29.063  30.723  1.00  0.00     0.167 HD
ATOM     51  C   UNL A   1      43.681  27.885  33.533  1.00  0.00     0.037 A 
ATOM     52  C   UNL A   1      38.290  30.511  29.936  1.00  0.00     0.037 A 
ATOM     53  C   UNL A   1      42.903  28.869  34.242  1.00  0.00     0.049 A 
ATOM     54  C   UNL A   1      38.561  30.905  31.367  1.00  0.00     0.074 A 
ATOM     55  C   UNL A   1      43.100  29.374  35.516  1.00  0.00     0.029 A 
ATOM     56  N   UNL A   1      41.772  29.498  33.737  1.00  0.00    -0.354 N 
ATOM     57  N   UNL A   1      39.530  30.529  32.166  1.00  0.00    -0.248 NA
ATOM     58  C   UNL A   1      37.620  31.854  31.977  1.00  0.00     0.031 C 
ATOM     59  C   UNL A   1      42.043  30.241  35.814  1.00  0.00     0.029 A 
ATOM     60  C   UNL A   1      41.233  30.347  34.694  1.00  0.00     0.049 A 
ATOM     61  H   UNL A   1      41.405  29.361  32.834  1.00  0.00     0.167 HD
ATOM     62  C   UNL A   1      39.337  31.220  33.357  1.00  0.00     0.074 A 
ATOM     63  C   UNL A   1      38.169  32.054  33.166  1.00  0.00     0.031 C 
ATOM     64  C   UNL A   1      40.061  31.167  34.504  1.00  0.00     0.037 A 
BRANCH  51  65
ATOM     65  C   UNL A   1      44.853  27.255  34.237  1.00  0.00     0.064 A 
ATOM     66  C   UNL A   1      44.722  26.094  35.016  1.00  0.00     0.173 A 
ATOM     67  C   UNL A   1      46.132  27.823  34.127  1.00  0.00     0.173 A 
ATOM     68  F   UNL A   1      43.523  25.513  35.170  1.00  0.00    -0.203 F 
ATOM     69  C   UNL A   1      45.815  25.554  35.691  1.00  0.00     0.198 A 
ATOM     70  C   UNL A   1      47.230  27.258  34.769  1.00  0.00     0.198 A 
ATOM     71  F   UNL A   1      46.321  28.930  33.391  1.00  0.00    -0.203 F 
ATOM     72  F   UNL A   1      45.651  24.487  36.486  1.00  0.00    -0.200 F 
ATOM     73  C   UNL A   1      47.068  26.132  35.561  1.00  0.00     0.200 A 
ATOM     74  F   UNL A   1      48.443  27.807  34.625  1.00  0.00    -0.200 F 
ATOM     75  F   UNL A   1      48.120  25.611  36.209  1.00  0.00    -0.200 F 
ENDBRANCH  51  65
BRANCH  52  76
ATOM     76  C   UNL A   1      37.134  31.089  29.198  1.00  0.00     0.064 A 
ATOM     77  C   UNL A   1      37.139  32.422  28.766  1.00  0.00     0.173 A 
ATOM     78  C   UNL A   1      35.987  30.324  28.932  1.00  0.00     0.173 A 
ATOM     79  F   UNL A   1      38.196  33.206  29.021  1.00  0.00    -0.203 F 
ATOM     80  C   UNL A   1      36.037  32.974  28.114  1.00  0.00     0.198 A 
ATOM     81  C   UNL A   1      34.901  30.866  28.249  1.00  0.00     0.198 A 
ATOM     82  F   UNL A   1      35.924  29.045  29.329  1.00  0.00    -0.203 F 
ATOM     83  F   UNL A   1      36.048  34.266  27.762  1.00  0.00    -0.200 F 
ATOM     84  C   UNL A   1      34.922  32.192  27.849  1.00  0.00     0.200 A 
ATOM     85  F   UNL A   1      33.832  30.102  27.982  1.00  0.00    -0.200 F 
ATOM     86  F   UNL A   1      33.866  32.721  27.216  1.00  0.00    -0.200 F 
ENDBRANCH  52  76
BRANCH  64  87
ATOM     87  C   UNL A   1      39.627  32.066  35.633  1.00  0.00     0.064 A 
ATOM     88  C   UNL A   1      38.637  31.681  36.552  1.00  0.00     0.173 A 
ATOM     89  C   UNL A   1      40.206  33.335  35.796  1.00  0.00     0.173 A 
ATOM     90  F   UNL A   1      38.043  30.483  36.444  1.00  0.00    -0.203 F 
ATOM     91  C   UNL A   1      38.203  32.553  37.548  1.00  0.00     0.198 A 
ATOM     92  C   UNL A   1      39.802  34.185  36.822  1.00  0.00     0.198 A 
ATOM     93  F   UNL A   1      41.168  33.754  34.961  1.00  0.00    -0.203 F 
ATOM     94  F   UNL A   1      37.196  32.194  38.357  1.00  0.00    -0.200 F 
ATOM     95  C   UNL A   1      38.788  33.803  37.686  1.00  0.00     0.200 A 
ATOM     96  F   UNL A   1      40.386  35.384  36.968  1.00  0.00    -0.200 F 
ATOM     97  F   UNL A   1      38.365  34.641  38.641  1.00  0.00    -0.200 F 
ENDBRANCH  64  87
ENDBRANCH  38  39
ENDBRANCH  31  33
ENDBRANCH  30  31
ENDBRANCH  29  30
ENDBRANCH  28  29
ENDBRANCH  27  28
ENDBRANCH  26  27
ENDBRANCH   1  26
TORSDOF 20
ENDMDL
MODEL 2
REMARK VINA RESULT:     -10.5      2.421      7.946
REMARK SMILES N#C[C@H]1CN(c2cc(C(=O)OCCOCCOCCOC(=O)c3ccc(-c4c5nc(c(-c6c(F)c(F)c(F)c(F)c6F)c6ccc([nH]6)c(-c6c(F)c(F)c(F)c(F)c6F)c6nc(c(-c7c(F)c(F)c(F)c(F)c7F)c7ccc4[nH]7)C=C6)C=C5)cc3)c(N)cc2F)CCO1
REMARK SMILES IDX 15 1 14 2 13 3 12 4 11 5 9 6 10 7 8 8 6 9 7 10 89 11 88 12
REMARK SMILES IDX 90 13 86 14 5 15 3 16 4 17 93 18 92 19 91 20 2 21 1 22 87 23
REMARK SMILES IDX 16 26 17 27 18 28 19 29 20 30 21 31 22 32 23 33 24 34 85 35
REMARK SMILES IDX 25 36 84 37 26 38 27 39 28 40 78 41 29 42 83 43 77 44 79 45
REMARK SMILES IDX 30 46 82 47 76 48 75 49 31 51 63 52 43 53 62 54 44 55 47 56
REMARK SMILES IDX 61 57 80 58 45 59 46 60 60 62 81 63 48 64 32 65 33 66 41 67
REMARK SMILES IDX 34 68 35 69 39 70 42 71 36 72 37 73 40 74 38 75 64 76 65 77
REMARK SMILES IDX 73 78 66 79 67 80 71 81 74 82 68 83 69 84 72 85 70 86 49 87
REMARK SMILES IDX 50 88 58 89 51 90 52 91 56 92 59 93 53 94 54 95 57 96 55 97
REMARK H PARENT 87 24 87 25 79 50 47 61
REMARK Flexibility Score: inf
ROOT
ATOM      1  C   UNL A   1      46.021  19.314  25.443  1.00  0.00     0.188 C 
ENDROOT
BRANCH   1   2
ATOM      2  O   UNL A   1      45.060  18.431  24.896  1.00  0.00    -0.376 OA
BRANCH   2   3
ATOM      3  C   UNL A   1      43.716  18.455  25.353  1.00  0.00     0.202 C 
BRANCH   3   4
ATOM      4  C   UNL A   1      42.965  19.739  25.761  1.00  0.00     0.261 C 
BRANCH   4   5
ATOM      5  O   UNL A   1      41.533  19.705  25.695  1.00  0.00    -0.460 OA
BRANCH   5   6
ATOM      6  C   UNL A   1      40.874  20.030  26.839  1.00  0.00     0.340 C 
ATOM      7  O   UNL A   1      41.089  19.569  27.948  1.00  0.00    -0.246 OA
BRANCH   6   8
ATOM      8  C   UNL A   1      39.988  21.207  26.617  1.00  0.00     0.085 A 
ATOM      9  C   UNL A   1      37.950  22.008  25.516  1.00  0.00     0.074 A 
ATOM     10  C   UNL A   1      38.828  20.973  25.842  1.00  0.00     0.047 A 
ATOM     11  C   UNL A   1      38.280  23.292  25.970  1.00  0.00     0.148 A 
ATOM     12  C   UNL A   1      39.397  23.531  26.772  1.00  0.00     0.067 A 
ATOM     13  F   UNL A   1      37.496  24.331  25.638  1.00  0.00    -0.205 F 
ATOM     14  C   UNL A   1      40.236  22.482  27.161  1.00  0.00     0.049 A 
BRANCH   9  15
ATOM     15  N   UNL A   1      36.850  21.775  24.722  1.00  0.00    -0.363 N 
ATOM     16  C   UNL A   1      34.425  21.312  24.990  1.00  0.00     0.240 C 
ATOM     17  C   UNL A   1      35.862  20.729  25.013  1.00  0.00     0.164 C 
ATOM     18  O   UNL A   1      34.190  22.071  23.781  1.00  0.00    -0.360 OA
ATOM     19  C   UNL A   1      35.111  23.171  23.697  1.00  0.00     0.183 C 
ATOM     20  C   UNL A   1      36.559  22.675  23.605  1.00  0.00     0.145 C 
BRANCH  16  21
ATOM     21  C   UNL A   1      33.438  20.227  25.109  1.00  0.00     0.096 C 
ATOM     22  N   UNL A   1      32.677  19.357  25.252  1.00  0.00    -0.195 NA
ENDBRANCH  16  21
ENDBRANCH   9  15
BRANCH  14  23
ATOM     23  N   UNL A   1      41.344  22.771  27.955  1.00  0.00    -0.398 N 
ATOM     24  H   UNL A   1      41.956  22.048  28.228  1.00  0.00     0.156 HD
ATOM     25  H   UNL A   1      41.515  23.696  28.244  1.00  0.00     0.156 HD
ENDBRANCH  14  23
ENDBRANCH   6   8
ENDBRANCH   5   6
ENDBRANCH   4   5
ENDBRANCH   3   4
ENDBRANCH   2   3
ENDBRANCH   1   2
BRANCH   1  26
ATOM     26  C   UNL A   1      46.288  20.667  24.752  1.00  0.00     0.188 C 
BRANCH  26  27
ATOM     27  O   UNL A   1      45.320  21.083  23.820  1.00  0.00    -0.376 OA
BRANCH  27  28
ATOM     28  C   UNL A   1      44.824  22.411  23.878  1.00  0.00     0.202 C 
BRANCH  28  29
ATOM     29  C   UNL A   1      44.308  23.142  25.141  1.00  0.00     0.261 C 
BRANCH  29  30
ATOM     30  O   UNL A   1      43.568  24.361  24.996  1.00  0.00    -0.460 OA
BRANCH  30  31
ATOM     31  C   UNL A   1      44.251  25.507  25.239  1.00  0.00     0.338 C 
ATOM     32  O   UNL A   1      45.192  25.951  24.603  1.00  0.00    -0.246 OA
BRANCH  31  33
ATOM     33  C   UNL A   1      43.550  26.282  26.285  1.00  0.00     0.060 A 
ATOM     34  C   UNL A   1      44.147  27.460  26.754  1.00  0.00     0.016 A 
ATOM     35  C   UNL A   1      42.354  25.829  26.843  1.00  0.00     0.016 A 
ATOM     36  C   UNL A   1      43.558  28.174  27.795  1.00  0.00     0.010 A 
ATOM     37  C   UNL A   1      41.772  26.544  27.899  1.00  0.00     0.010 A 
ATOM     38  C   UNL A   1      42.383  27.709  28.396  1.00  0.00    -0.014 A 
BRANCH  38  39
ATOM     39  C   UNL A   1      41.900  28.379  29.632  1.00  0.00     0.031 A 
ATOM     40  C   UNL A   1      40.622  29.170  29.587  1.00  0.00     0.074 A 
ATOM     41  C   UNL A   1      42.546  28.218  30.801  1.00  0.00     0.049 A 
ATOM     42  N   UNL A   1      40.013  29.835  30.538  1.00  0.00    -0.248 NA
ATOM     43  C   UNL A   1      39.943  29.227  28.284  1.00  0.00     0.031 C 
ATOM     44  C   UNL A   1      43.761  27.430  30.994  1.00  0.00     0.029 A 
ATOM     45  N   UNL A   1      42.257  28.703  32.052  1.00  0.00    -0.354 N 
ATOM     46  C   UNL A   1      38.877  30.378  29.951  1.00  0.00     0.074 A 
ATOM     47  C   UNL A   1      38.913  30.016  28.550  1.00  0.00     0.031 C 
ATOM     48  C   UNL A   1      44.108  27.477  32.292  1.00  0.00     0.029 A 
ATOM     49  C   UNL A   1      43.165  28.330  33.012  1.00  0.00     0.049 A 
ATOM     50  H   UNL A   1      41.472  29.265  32.244  1.00  0.00     0.167 HD
ATOM     51  C   UNL A   1      37.887  31.101  30.531  1.00  0.00     0.037 A 
ATOM     52  C   UNL A   1      43.235  28.659  34.317  1.00  0.00     0.037 A 
ATOM     53  C   UNL A   1      37.856  31.462  31.926  1.00  0.00     0.049 A 
ATOM     54  C   UNL A   1      42.177  29.551  34.916  1.00  0.00     0.074 A 
ATOM     55  C   UNL A   1      36.901  32.197  32.608  1.00  0.00     0.029 A 
ATOM     56  N   UNL A   1      38.828  31.117  32.855  1.00  0.00    -0.354 N 
ATOM     57  N   UNL A   1      41.109  30.068  34.358  1.00  0.00    -0.248 NA
ATOM     58  C   UNL A   1      42.337  29.901  36.334  1.00  0.00     0.031 C 
ATOM     59  C   UNL A   1      37.337  32.368  33.926  1.00  0.00     0.029 A 
ATOM     60  C   UNL A   1      38.520  31.667  34.092  1.00  0.00     0.049 A 
ATOM     61  H   UNL A   1      39.620  30.563  32.666  1.00  0.00     0.167 HD
ATOM     62  C   UNL A   1      40.453  30.773  35.361  1.00  0.00     0.074 A 
ATOM     63  C   UNL A   1      41.234  30.598  36.567  1.00  0.00     0.031 C 
ATOM     64  C   UNL A   1      39.309  31.499  35.289  1.00  0.00     0.037 A 
BRANCH  51  65
ATOM     65  C   UNL A   1      36.782  31.597  29.638  1.00  0.00     0.064 A 
ATOM     66  C   UNL A   1      36.671  32.946  29.263  1.00  0.00     0.173 A 
ATOM     67  C   UNL A   1      35.818  30.704  29.145  1.00  0.00     0.173 A 
ATOM     68  F   UNL A   1      37.555  33.849  29.712  1.00  0.00    -0.203 F 
ATOM     69  C   UNL A   1      35.615  33.386  28.467  1.00  0.00     0.198 A 
ATOM     70  C   UNL A   1      34.788  31.140  28.317  1.00  0.00     0.198 A 
ATOM     71  F   UNL A   1      35.875  29.401  29.463  1.00  0.00    -0.203 F 
ATOM     72  F   UNL A   1      35.490  34.690  28.182  1.00  0.00    -0.200 F 
ATOM     73  C   UNL A   1      34.679  32.482  27.990  1.00  0.00     0.200 A 
ATOM     74  F   UNL A   1      33.896  30.260  27.841  1.00  0.00    -0.200 F 
ATOM     75  F   UNL A   1      33.664  32.907  27.223  1.00  0.00    -0.200 F 
ENDBRANCH  51  65
BRANCH  52  76
ATOM     76  C   UNL A   1      44.361  28.156  35.151  1.00  0.00     0.064 A 
ATOM     77  C   UNL A   1      45.569  28.861  35.244  1.00  0.00     0.173 A 
ATOM     78  C   UNL A   1      44.259  26.945  35.853  1.00  0.00     0.173 A 
ATOM     79  F   UNL A   1      45.730  30.008  34.569  1.00  0.00    -0.203 F 
ATOM     80  C   UNL A   1      46.637  28.366  35.991  1.00  0.00     0.198 A 
ATOM     81  C   UNL A   1      45.315  26.469  36.628  1.00  0.00     0.198 A 
ATOM     82  F   UNL A   1      43.129  26.225  35.794  1.00  0.00    -0.203 F 
ATOM     83  F   UNL A   1      47.799  29.033  36.017  1.00  0.00    -0.200 F 
ATOM     84  C   UNL A   1      46.506  27.174  36.688  1.00  0.00     0.200 A 
ATOM     85  F   UNL A   1      45.178  25.324  37.312  1.00  0.00    -0.200 F 
ATOM     86  F   UNL A   1      47.531  26.703  37.411  1.00  0.00    -0.200 F 
ENDBRANCH  52  76
BRANCH  64  87
ATOM     87  C   UNL A   1      38.814  32.132  36.564  1.00  0.00     0.064 A 
ATOM     88  C   UNL A   1      37.963  31.453  37.451  1.00  0.00     0.173 A 
ATOM     89  C   UNL A   1      39.191  33.442  36.903  1.00  0.00     0.173 A 
ATOM     90  F   UNL A   1      37.563  30.201  37.179  1.00  0.00    -0.203 F 
ATOM     91  C   UNL A   1      37.463  32.080  38.591  1.00  0.00     0.198 A 
ATOM     92  C   UNL A   1      38.726  34.049  38.067  1.00  0.00     0.198 A 
ATOM     93  F   UNL A   1      40.015  34.138  36.105  1.00  0.00    -0.203 F 
ATOM     94  F   UNL A   1      36.584  31.438  39.374  1.00  0.00    -0.200 F 
ATOM     95  C   UNL A   1      37.848  33.375  38.901  1.00  0.00     0.200 A 
ATOM     96  F   UNL A   1      39.119  35.293  38.377  1.00  0.00    -0.200 F 
ATOM     97  F   UNL A   1      37.362  33.977  39.994  1.00  0.00    -0.200 F 
ENDBRANCH  64  87
ENDBRANCH  38  39
ENDBRANCH  31  33
ENDBRANCH  30  31
ENDBRANCH  29  30
ENDBRANCH  28  29
ENDBRANCH  27  28
ENDBRANCH  26  27
ENDBRANCH   1  26
TORSDOF 20
ENDMDL
MODEL 3
REMARK VINA RESULT:     -10.4      2.330      3.580
REMARK SMILES N#C[C@H]1CN(c2cc(C(=O)OCCOCCOCCOC(=O)c3ccc(-c4c5nc(c(-c6c(F)c(F)c(F)c(F)c6F)c6ccc([nH]6)c(-c6c(F)c(F)c(F)c(F)c6F)c6nc(c(-c7c(F)c(F)c(F)c(F)c7F)c7ccc4[nH]7)C=C6)C=C5)cc3)c(N)cc2F)CCO1
REMARK SMILES IDX 15 1 14 2 13 3 12 4 11 5 9 6 10 7 8 8 6 9 7 10 89 11 88 12
REMARK SMILES IDX 90 13 86 14 5 15 3 16 4 17 93 18 92 19 91 20 2 21 1 22 87 23
REMARK SMILES IDX 16 26 17 27 18 28 19 29 20 30 21 31 22 32 23 33 24 34 85 35
REMARK SMILES IDX 25 36 84 37 26 38 27 39 28 40 78 41 29 42 83 43 77 44 79 45
REMARK SMILES IDX 30 46 82 47 76 48 75 49 31 51 63 52 43 53 62 54 44 55 47 56
REMARK SMILES IDX 61 57 80 58 45 59 46 60 60 62 81 63 48 64 32 65 33 66 41 67
REMARK SMILES IDX 34 68 35 69 39 70 42 71 36 72 37 73 40 74 38 75 64 76 65 77
REMARK SMILES IDX 73 78 66 79 67 80 71 81 74 82 68 83 69 84 72 85 70 86 49 87
REMARK SMILES IDX 50 88 58 89 51 90 52 91 56 92 59 93 53 94 54 95 57 96 55 97
REMARK H PARENT 87 24 87 25 79 50 47 61
REMARK Flexibility Score: inf
ROOT
ATOM      1  C   UNL A   1      44.544  18.828  25.306  1.00  0.00     0.188 C 
ENDROOT
BRANCH   1   2
ATOM      2  O   UNL A   1      43.137  18.708  25.239  1.00  0.00    -0.376 OA
BRANCH   2   3
ATOM      3  C   UNL A   1      42.377  18.465  26.414  1.00  0.00     0.202 C 
BRANCH   3   4
ATOM      4  C   UNL A   1      41.540  19.540  27.139  1.00  0.00     0.261 C 
BRANCH   4   5
ATOM      5  O   UNL A   1      40.570  20.248  26.356  1.00  0.00    -0.460 OA
BRANCH   5   6
ATOM      6  C   UNL A   1      40.807  21.573  26.167  1.00  0.00     0.340 C 
ATOM      7  O   UNL A   1      41.867  22.072  25.826  1.00  0.00    -0.246 OA
BRANCH   6   8
ATOM      8  C   UNL A   1      39.533  22.345  26.209  1.00  0.00     0.085 A 
ATOM      9  C   UNL A   1      37.216  22.442  25.416  1.00  0.00     0.074 A 
ATOM     10  C   UNL A   1      38.445  21.785  25.501  1.00  0.00     0.047 A 
ATOM     11  C   UNL A   1      37.116  23.691  26.043  1.00  0.00     0.148 A 
ATOM     12  C   UNL A   1      38.167  24.236  26.782  1.00  0.00     0.067 A 
ATOM     13  F   UNL A   1      35.972  24.388  25.946  1.00  0.00    -0.205 F 
ATOM     14  C   UNL A   1      39.373  23.544  26.930  1.00  0.00     0.049 A 
BRANCH   9  15
ATOM     15  N   UNL A   1      36.180  21.907  24.685  1.00  0.00    -0.363 N 
ATOM     16  C   UNL A   1      33.892  21.019  25.071  1.00  0.00     0.240 C 
ATOM     17  C   UNL A   1      35.416  20.732  25.123  1.00  0.00     0.164 C 
ATOM     18  O   UNL A   1      33.510  21.568  23.788  1.00  0.00    -0.360 OA
ATOM     19  C   UNL A   1      34.198  22.807  23.552  1.00  0.00     0.183 C 
ATOM     20  C   UNL A   1      35.715  22.593  23.479  1.00  0.00     0.145 C 
BRANCH  16  21
ATOM     21  C   UNL A   1      33.136  19.786  25.343  1.00  0.00     0.096 C 
ATOM     22  N   UNL A   1      32.497  18.831  25.529  1.00  0.00    -0.195 NA
ENDBRANCH  16  21
ENDBRANCH   9  15
BRANCH  14  23
ATOM     23  N   UNL A   1      40.396  24.133  27.669  1.00  0.00    -0.398 N 
ATOM     24  H   UNL A   1      41.246  24.371  27.231  1.00  0.00     0.156 HD
ATOM     25  H   UNL A   1      40.271  24.310  28.629  1.00  0.00     0.156 HD
ENDBRANCH  14  23
ENDBRANCH   6   8
ENDBRANCH   5   6
ENDBRANCH   4   5
ENDBRANCH   3   4
ENDBRANCH   2   3
ENDBRANCH   1   2
BRANCH   1  26
ATOM     26  C   UNL A   1      45.273  19.771  24.326  1.00  0.00     0.188 C 
BRANCH  26  27
ATOM     27  O   UNL A   1      44.522  20.861  23.850  1.00  0.00    -0.376 OA
BRANCH  27  28
ATOM     28  C   UNL A   1      45.104  22.155  23.839  1.00  0.00     0.202 C 
BRANCH  28  29
ATOM     29  C   UNL A   1      44.467  23.450  24.400  1.00  0.00     0.261 C 
BRANCH  29  30
ATOM     30  O   UNL A   1      45.295  24.598  24.632  1.00  0.00    -0.460 OA
BRANCH  30  31
ATOM     31  C   UNL A   1      45.879  24.675  25.853  1.00  0.00     0.338 C 
ATOM     32  O   UNL A   1      47.019  24.360  26.145  1.00  0.00    -0.246 OA
BRANCH  31  33
ATOM     33  C   UNL A   1      44.988  25.412  26.775  1.00  0.00     0.060 A 
ATOM     34  C   UNL A   1      45.103  26.807  26.839  1.00  0.00     0.016 A 
ATOM     35  C   UNL A   1      44.094  24.742  27.610  1.00  0.00     0.016 A 
ATOM     36  C   UNL A   1      44.339  27.530  27.752  1.00  0.00     0.010 A 
ATOM     37  C   UNL A   1      43.336  25.472  28.537  1.00  0.00     0.010 A 
ATOM     38  C   UNL A   1      43.471  26.869  28.628  1.00  0.00    -0.014 A 
BRANCH  38  39
ATOM     39  C   UNL A   1      42.832  27.647  29.722  1.00  0.00     0.031 A 
ATOM     40  C   UNL A   1      43.523  27.742  31.055  1.00  0.00     0.074 A 
ATOM     41  C   UNL A   1      41.693  28.329  29.509  1.00  0.00     0.049 A 
ATOM     42  N   UNL A   1      43.154  28.363  32.147  1.00  0.00    -0.248 NA
ATOM     43  C   UNL A   1      44.802  27.027  31.172  1.00  0.00     0.031 C 
ATOM     44  C   UNL A   1      40.955  28.370  28.249  1.00  0.00     0.029 A 
ATOM     45  N   UNL A   1      40.966  29.133  30.351  1.00  0.00    -0.354 N 
ATOM     46  C   UNL A   1      44.160  28.123  33.076  1.00  0.00     0.074 A 
ATOM     47  C   UNL A   1      45.122  27.251  32.438  1.00  0.00     0.031 C 
ATOM     48  C   UNL A   1      39.883  29.167  28.398  1.00  0.00     0.029 A 
ATOM     49  C   UNL A   1      39.837  29.659  29.774  1.00  0.00     0.049 A 
ATOM     50  H   UNL A   1      41.229  29.316  31.282  1.00  0.00     0.167 HD
ATOM     51  C   UNL A   1      44.276  28.598  34.341  1.00  0.00     0.037 A 
ATOM     52  C   UNL A   1      38.869  30.432  30.304  1.00  0.00     0.037 A 
ATOM     53  C   UNL A   1      43.314  29.465  34.974  1.00  0.00     0.049 A 
ATOM     54  C   UNL A   1      38.969  30.863  31.746  1.00  0.00     0.074 A 
ATOM     55  C   UNL A   1      43.338  29.995  36.253  1.00  0.00     0.029 A 
ATOM     56  N   UNL A   1      42.150  29.927  34.376  1.00  0.00    -0.354 N 
ATOM     57  N   UNL A   1      39.916  30.629  32.622  1.00  0.00    -0.248 NA
ATOM     58  C   UNL A   1      37.860  31.672  32.269  1.00  0.00     0.031 C 
ATOM     59  C   UNL A   1      42.151  30.705  36.457  1.00  0.00     0.029 A 
ATOM     60  C   UNL A   1      41.424  30.694  35.277  1.00  0.00     0.049 A 
ATOM     61  H   UNL A   1      41.878  29.738  33.449  1.00  0.00     0.167 HD
ATOM     62  C   UNL A   1      39.535  31.288  33.786  1.00  0.00     0.074 A 
ATOM     63  C   UNL A   1      38.281  31.950  33.494  1.00  0.00     0.031 C 
ATOM     64  C   UNL A   1      40.167  31.341  34.986  1.00  0.00     0.037 A 
BRANCH  51  65
ATOM     65  C   UNL A   1      45.465  28.141  35.142  1.00  0.00     0.064 A 
ATOM     66  C   UNL A   1      46.689  28.831  35.126  1.00  0.00     0.173 A 
ATOM     67  C   UNL A   1      45.377  26.992  35.944  1.00  0.00     0.173 A 
ATOM     68  F   UNL A   1      46.838  29.928  34.369  1.00  0.00    -0.203 F 
ATOM     69  C   UNL A   1      47.787  28.363  35.846  1.00  0.00     0.198 A 
ATOM     70  C   UNL A   1      46.463  26.551  36.694  1.00  0.00     0.198 A 
ATOM     71  F   UNL A   1      44.232  26.294  36.006  1.00  0.00    -0.203 F 
ATOM     72  F   UNL A   1      48.964  28.998  35.757  1.00  0.00    -0.200 F 
ATOM     73  C   UNL A   1      47.671  27.228  36.633  1.00  0.00     0.200 A 
ATOM     74  F   UNL A   1      46.343  25.465  37.470  1.00  0.00    -0.200 F 
ATOM     75  F   UNL A   1      48.728  26.781  37.327  1.00  0.00    -0.200 F 
ENDBRANCH  51  65
BRANCH  52  76
ATOM     76  C   UNL A   1      37.704  30.840  29.472  1.00  0.00     0.064 A 
ATOM     77  C   UNL A   1      37.569  32.154  29.004  1.00  0.00     0.173 A 
ATOM     78  C   UNL A   1      36.689  29.927  29.148  1.00  0.00     0.173 A 
ATOM     79  F   UNL A   1      38.495  33.075  29.310  1.00  0.00    -0.203 F 
ATOM     80  C   UNL A   1      36.455  32.545  28.262  1.00  0.00     0.198 A 
ATOM     81  C   UNL A   1      35.594  30.309  28.375  1.00  0.00     0.198 A 
ATOM     82  F   UNL A   1      36.762  28.658  29.575  1.00  0.00    -0.203 F 
ATOM     83  F   UNL A   1      36.325  33.821  27.874  1.00  0.00    -0.200 F 
ATOM     84  C   UNL A   1      35.473  31.620  27.941  1.00  0.00     0.200 A 
ATOM     85  F   UNL A   1      34.655  29.408  28.056  1.00  0.00    -0.200 F 
ATOM     86  F   UNL A   1      34.406  31.994  27.221  1.00  0.00    -0.200 F 
ENDBRANCH  52  76
BRANCH  64  87
ATOM     87  C   UNL A   1      39.525  32.172  36.066  1.00  0.00     0.064 A 
ATOM     88  C   UNL A   1      39.908  33.502  36.309  1.00  0.00     0.173 A 
ATOM     89  C   UNL A   1      38.515  31.630  36.877  1.00  0.00     0.173 A 
ATOM     90  F   UNL A   1      40.872  34.073  35.571  1.00  0.00    -0.203 F 
ATOM     91  C   UNL A   1      39.349  34.231  37.356  1.00  0.00     0.198 A 
ATOM     92  C   UNL A   1      37.926  32.378  37.893  1.00  0.00     0.198 A 
ATOM     93  F   UNL A   1      38.093  30.371  36.684  1.00  0.00    -0.203 F 
ATOM     94  F   UNL A   1      39.795  35.468  37.620  1.00  0.00    -0.200 F 
ATOM     95  C   UNL A   1      38.356  33.671  38.145  1.00  0.00     0.200 A 
ATOM     96  F   UNL A   1      36.948  31.842  38.639  1.00  0.00    -0.200 F 
ATOM     97  F   UNL A   1      37.823  34.373  39.154  1.00  0.00    -0.200 F 
ENDBRANCH  64  87
ENDBRANCH  38  39
ENDBRANCH  31  33
ENDBRANCH  30  31
ENDBRANCH  29  30
ENDBRANCH  28  29
ENDBRANCH  27  28
ENDBRANCH  26  27
ENDBRANCH   1  26
TORSDOF 20
ENDMDL
