MODEL 1
REMARK VINA RESULT:     -11.2      0.000      0.000
REMARK SMILES O=C(OCCOCCOCCOC(=O)c1ccccc1/C=C1/SC(=S)N(C2CCCCC2)C1=O)c1ccc(-c2c3nc(c(-c4c(F)c(F)c(F)c(F)c4F)c4ccc([nH]4)c(-c4c(F)c(F)c(F)c(F)c4F)c4nc(c(-c5c(F)c(F)c(F)c(F)c5F)c5ccc2[nH]5)C=C4)C=C3)cc1
REMARK SMILES IDX 7 1 6 2 5 3 4 4 3 5 2 6 1 7 35 8 36 9 97 10 37 11 96 12
REMARK SMILES IDX 38 13 39 14 40 15 90 16 41 17 95 18 89 19 91 20 42 21 94 22
REMARK SMILES IDX 88 23 87 24 43 26 75 27 55 28 74 29 56 30 59 31 73 32 92 33
REMARK SMILES IDX 57 34 58 35 72 37 93 38 60 39 44 40 45 41 53 42 46 43 47 44
REMARK SMILES IDX 51 45 54 46 48 47 49 48 52 49 50 50 76 51 77 52 85 53 78 54
REMARK SMILES IDX 79 55 83 56 86 57 80 58 81 59 84 60 82 61 61 62 62 63 70 64
REMARK SMILES IDX 63 65 64 66 68 67 71 68 65 69 66 70 69 71 67 72 8 73 9 74
REMARK SMILES IDX 10 75 11 76 12 77 13 78 14 79 15 80 16 81 20 82 17 83 19 84
REMARK SMILES IDX 18 85 21 86 22 87 23 88 33 89 24 90 26 91 34 92 25 93 27 94
REMARK SMILES IDX 28 95 32 96 29 97 31 98 30 99
REMARK H PARENT 91 25 59 36
REMARK Flexibility Score: inf
ROOT
ATOM      1  C   UNL A   1      35.567  20.706  25.309  1.00  0.00     0.188 C 
ENDROOT
BRANCH   1   2
ATOM      2  O   UNL A   1      36.670  20.036  24.682  1.00  0.00    -0.376 OA
BRANCH   2   3
ATOM      3  C   UNL A   1      37.945  20.543  25.075  1.00  0.00     0.202 C 
BRANCH   3   4
ATOM      4  C   UNL A   1      38.906  19.451  25.552  1.00  0.00     0.261 C 
BRANCH   4   5
ATOM      5  O   UNL A   1      40.210  19.982  25.845  1.00  0.00    -0.460 OA
BRANCH   5   6
ATOM      6  C   UNL A   1      40.670  20.434  27.039  1.00  0.00     0.338 C 
ATOM      7  O   UNL A   1      41.024  19.618  27.888  1.00  0.00    -0.246 OA
BRANCH   6   8
ATOM      8  C   UNL A   1      40.876  21.883  27.343  1.00  0.00     0.060 A 
ATOM      9  C   UNL A   1      40.219  22.940  26.709  1.00  0.00     0.016 A 
ATOM     10  C   UNL A   1      41.768  22.190  28.384  1.00  0.00     0.016 A 
ATOM     11  C   UNL A   1      40.553  24.263  26.987  1.00  0.00     0.010 A 
ATOM     12  C   UNL A   1      42.059  23.517  28.715  1.00  0.00     0.010 A 
ATOM     13  C   UNL A   1      41.493  24.561  27.975  1.00  0.00    -0.014 A 
BRANCH  13  14
ATOM     14  C   UNL A   1      41.969  25.954  28.126  1.00  0.00     0.031 A 
ATOM     15  C   UNL A   1      43.289  26.332  27.525  1.00  0.00     0.074 A 
ATOM     16  C   UNL A   1      41.190  26.884  28.704  1.00  0.00     0.049 A 
ATOM     17  N   UNL A   1      43.922  27.475  27.563  1.00  0.00    -0.248 NA
ATOM     18  C   UNL A   1      43.986  25.283  26.763  1.00  0.00     0.031 C 
ATOM     19  C   UNL A   1      39.847  26.644  29.223  1.00  0.00     0.029 A 
ATOM     20  N   UNL A   1      41.405  28.218  28.932  1.00  0.00    -0.354 N 
ATOM     21  C   UNL A   1      45.092  27.279  26.845  1.00  0.00     0.074 A 
ATOM     22  C   UNL A   1      45.096  25.904  26.397  1.00  0.00     0.031 C 
ATOM     23  C   UNL A   1      39.352  27.796  29.704  1.00  0.00     0.029 A 
ATOM     24  C   UNL A   1      40.364  28.838  29.578  1.00  0.00     0.049 A 
ATOM     25  H   UNL A   1      42.227  28.688  28.661  1.00  0.00     0.167 HD
ATOM     26  C   UNL A   1      46.074  28.172  26.579  1.00  0.00     0.037 A 
ATOM     27  C   UNL A   1      40.250  30.097  30.040  1.00  0.00     0.037 A 
ATOM     28  C   UNL A   1      46.059  29.536  27.031  1.00  0.00     0.049 A 
ATOM     29  C   UNL A   1      41.394  31.046  29.817  1.00  0.00     0.074 A 
ATOM     30  C   UNL A   1      47.022  30.514  26.870  1.00  0.00     0.029 A 
ATOM     31  N   UNL A   1      45.012  30.112  27.737  1.00  0.00    -0.354 N 
ATOM     32  N   UNL A   1      42.523  30.839  29.181  1.00  0.00    -0.248 NA
ATOM     33  C   UNL A   1      41.257  32.396  30.375  1.00  0.00     0.031 C 
ATOM     34  C   UNL A   1      46.571  31.676  27.508  1.00  0.00     0.029 A 
ATOM     35  C   UNL A   1      45.311  31.431  28.034  1.00  0.00     0.049 A 
ATOM     36  H   UNL A   1      44.180  29.652  27.991  1.00  0.00     0.167 HD
ATOM     37  C   UNL A   1      43.222  32.035  29.246  1.00  0.00     0.074 A 
ATOM     38  C   UNL A   1      42.384  32.968  29.972  1.00  0.00     0.031 C 
ATOM     39  C   UNL A   1      44.449  32.334  28.752  1.00  0.00     0.037 A 
BRANCH  26  40
ATOM     40  C   UNL A   1      47.255  27.666  25.808  1.00  0.00     0.064 A 
ATOM     41  C   UNL A   1      48.401  27.177  26.452  1.00  0.00     0.173 A 
ATOM     42  C   UNL A   1      47.258  27.714  24.407  1.00  0.00     0.173 A 
ATOM     43  F   UNL A   1      48.458  27.139  27.792  1.00  0.00    -0.203 F 
ATOM     44  C   UNL A   1      49.520  26.783  25.721  1.00  0.00     0.198 A 
ATOM     45  C   UNL A   1      48.368  27.298  23.677  1.00  0.00     0.198 A 
ATOM     46  F   UNL A   1      46.189  28.182  23.744  1.00  0.00    -0.203 F 
ATOM     47  F   UNL A   1      50.627  26.376  26.358  1.00  0.00    -0.200 F 
ATOM     48  C   UNL A   1      49.501  26.843  24.335  1.00  0.00     0.200 A 
ATOM     49  F   UNL A   1      48.350  27.358  22.338  1.00  0.00    -0.200 F 
ATOM     50  F   UNL A   1      50.583  26.478  23.633  1.00  0.00    -0.200 F 
ENDBRANCH  26  40
BRANCH  27  51
ATOM     51  C   UNL A   1      39.027  30.512  30.776  1.00  0.00     0.064 A 
ATOM     52  C   UNL A   1      38.954  30.427  32.172  1.00  0.00     0.173 A 
ATOM     53  C   UNL A   1      37.908  31.017  30.095  1.00  0.00     0.173 A 
ATOM     54  F   UNL A   1      39.990  29.937  32.868  1.00  0.00    -0.203 F 
ATOM     55  C   UNL A   1      37.806  30.823  32.859  1.00  0.00     0.198 A 
ATOM     56  C   UNL A   1      36.772  31.437  30.784  1.00  0.00     0.198 A 
ATOM     57  F   UNL A   1      37.926  31.125  28.757  1.00  0.00    -0.203 F 
ATOM     58  F   UNL A   1      37.751  30.703  34.192  1.00  0.00    -0.200 F 
ATOM     59  C   UNL A   1      36.719  31.334  32.165  1.00  0.00     0.200 A 
ATOM     60  F   UNL A   1      35.732  31.947  30.109  1.00  0.00    -0.200 F 
ATOM     61  F   UNL A   1      35.621  31.724  32.827  1.00  0.00    -0.200 F 
ENDBRANCH  27  51
BRANCH  39  62
ATOM     62  C   UNL A   1      44.941  33.732  28.964  1.00  0.00     0.064 A 
ATOM     63  C   UNL A   1      44.656  34.752  28.046  1.00  0.00     0.173 A 
ATOM     64  C   UNL A   1      45.663  34.061  30.119  1.00  0.00     0.173 A 
ATOM     65  F   UNL A   1      43.982  34.477  26.919  1.00  0.00    -0.203 F 
ATOM     66  C   UNL A   1      45.091  36.054  28.271  1.00  0.00     0.198 A 
ATOM     67  C   UNL A   1      46.077  35.368  30.352  1.00  0.00     0.198 A 
ATOM     68  F   UNL A   1      45.956  33.116  31.026  1.00  0.00    -0.203 F 
ATOM     69  F   UNL A   1      44.838  37.009  27.366  1.00  0.00    -0.200 F 
ATOM     70  C   UNL A   1      45.794  36.363  29.427  1.00  0.00     0.200 A 
ATOM     71  F   UNL A   1      46.750  35.667  31.472  1.00  0.00    -0.200 F 
ATOM     72  F   UNL A   1      46.206  37.618  29.646  1.00  0.00    -0.200 F 
ENDBRANCH  39  62
ENDBRANCH  13  14
ENDBRANCH   6   8
ENDBRANCH   5   6
ENDBRANCH   4   5
ENDBRANCH   3   4
ENDBRANCH   2   3
ENDBRANCH   1   2
BRANCH   1  73
ATOM     73  C   UNL A   1      35.807  22.214  25.294  1.00  0.00     0.188 C 
BRANCH  73  74
ATOM     74  O   UNL A   1      35.343  22.913  26.453  1.00  0.00    -0.376 OA
BRANCH  74  75
ATOM     75  C   UNL A   1      34.676  22.160  27.460  1.00  0.00     0.202 C 
BRANCH  75  76
ATOM     76  C   UNL A   1      33.143  22.224  27.498  1.00  0.00     0.261 C 
BRANCH  76  77
ATOM     77  O   UNL A   1      32.429  21.667  26.382  1.00  0.00    -0.460 OA
BRANCH  77  78
ATOM     78  C   UNL A   1      31.608  22.554  25.769  1.00  0.00     0.338 C 
ATOM     79  O   UNL A   1      30.535  22.958  26.185  1.00  0.00    -0.246 OA
BRANCH  78  80
ATOM     80  C   UNL A   1      32.118  22.936  24.443  1.00  0.00     0.067 A 
ATOM     81  C   UNL A   1      31.982  22.007  23.406  1.00  0.00     0.016 A 
ATOM     82  C   UNL A   1      32.874  24.114  24.269  1.00  0.00    -0.010 A 
ATOM     83  C   UNL A   1      32.600  22.246  22.180  1.00  0.00     0.001 A 
ATOM     84  C   UNL A   1      33.510  24.321  23.039  1.00  0.00     0.009 A 
ATOM     85  C   UNL A   1      33.374  23.392  22.002  1.00  0.00     0.001 A 
BRANCH  82  86
ATOM     86  C   UNL A   1      32.993  25.162  25.300  1.00  0.00     0.030 C 
ATOM     87  C   UNL A   1      32.200  26.235  25.410  1.00  0.00     0.081 C 
ATOM     88  S   UNL A   1      32.564  27.600  26.385  1.00  0.00    -0.054 SA
ATOM     89  C   UNL A   1      31.007  26.541  24.585  1.00  0.00     0.266 C 
ATOM     90  C   UNL A   1      31.556  28.662  25.385  1.00  0.00     0.148 C 
ATOM     91  N   UNL A   1      30.889  27.915  24.433  1.00  0.00    -0.290 N 
ATOM     92  O   UNL A   1      30.241  25.681  24.174  1.00  0.00    -0.268 OA
ATOM     93  S   UNL A   1      31.537  30.305  25.666  1.00  0.00    -0.052 S 
BRANCH  91  94
ATOM     94  C   UNL A   1      30.022  28.391  23.335  1.00  0.00     0.092 C 
ATOM     95  C   UNL A   1      28.555  28.528  23.756  1.00  0.00     0.025 C 
ATOM     96  C   UNL A   1      30.548  29.647  22.612  1.00  0.00     0.025 C 
ATOM     97  C   UNL A   1      27.681  28.942  22.573  1.00  0.00     0.002 C 
ATOM     98  C   UNL A   1      29.642  30.061  21.455  1.00  0.00     0.002 C 
ATOM     99  C   UNL A   1      28.196  30.216  21.911  1.00  0.00     0.000 C 
ENDBRANCH  91  94
ENDBRANCH  82  86
ENDBRANCH  78  80
ENDBRANCH  77  78
ENDBRANCH  76  77
ENDBRANCH  75  76
ENDBRANCH  74  75
ENDBRANCH  73  74
ENDBRANCH   1  73
TORSDOF 19
ENDMDL
MODEL 2
REMARK VINA RESULT:     -10.7      1.576      2.519
REMARK SMILES O=C(OCCOCCOCCOC(=O)c1ccccc1/C=C1/SC(=S)N(C2CCCCC2)C1=O)c1ccc(-c2c3nc(c(-c4c(F)c(F)c(F)c(F)c4F)c4ccc([nH]4)c(-c4c(F)c(F)c(F)c(F)c4F)c4nc(c(-c5c(F)c(F)c(F)c(F)c5F)c5ccc2[nH]5)C=C4)C=C3)cc1
REMARK SMILES IDX 7 1 6 2 5 3 4 4 3 5 2 6 1 7 35 8 36 9 97 10 37 11 96 12
REMARK SMILES IDX 38 13 39 14 40 15 90 16 41 17 95 18 89 19 91 20 42 21 94 22
REMARK SMILES IDX 88 23 87 24 43 26 75 27 55 28 74 29 56 30 59 31 73 32 92 33
REMARK SMILES IDX 57 34 58 35 72 37 93 38 60 39 44 40 45 41 53 42 46 43 47 44
REMARK SMILES IDX 51 45 54 46 48 47 49 48 52 49 50 50 76 51 77 52 85 53 78 54
REMARK SMILES IDX 79 55 83 56 86 57 80 58 81 59 84 60 82 61 61 62 62 63 70 64
REMARK SMILES IDX 63 65 64 66 68 67 71 68 65 69 66 70 69 71 67 72 8 73 9 74
REMARK SMILES IDX 10 75 11 76 12 77 13 78 14 79 15 80 16 81 20 82 17 83 19 84
REMARK SMILES IDX 18 85 21 86 22 87 23 88 33 89 24 90 26 91 34 92 25 93 27 94
REMARK SMILES IDX 28 95 32 96 29 97 31 98 30 99
REMARK H PARENT 91 25 59 36
REMARK Flexibility Score: inf
ROOT
ATOM      1  C   UNL A   1      36.326  20.835  25.114  1.00  0.00     0.188 C 
ENDROOT
BRANCH   1   2
ATOM      2  O   UNL A   1      37.570  21.222  24.515  1.00  0.00    -0.376 OA
BRANCH   2   3
ATOM      3  C   UNL A   1      38.690  21.101  25.392  1.00  0.00     0.202 C 
BRANCH   3   4
ATOM      4  C   UNL A   1      38.987  19.652  25.790  1.00  0.00     0.261 C 
BRANCH   4   5
ATOM      5  O   UNL A   1      40.280  19.229  25.324  1.00  0.00    -0.460 OA
BRANCH   5   6
ATOM      6  C   UNL A   1      41.466  19.319  25.976  1.00  0.00     0.338 C 
ATOM      7  O   UNL A   1      42.121  18.297  26.165  1.00  0.00    -0.246 OA
BRANCH   6   8
ATOM      8  C   UNL A   1      42.078  20.620  26.387  1.00  0.00     0.060 A 
ATOM      9  C   UNL A   1      42.301  21.025  27.705  1.00  0.00     0.016 A 
ATOM     10  C   UNL A   1      42.502  21.473  25.354  1.00  0.00     0.016 A 
ATOM     11  C   UNL A   1      42.782  22.300  27.993  1.00  0.00     0.010 A 
ATOM     12  C   UNL A   1      43.048  22.729  25.635  1.00  0.00     0.010 A 
ATOM     13  C   UNL A   1      43.136  23.170  26.960  1.00  0.00    -0.014 A 
BRANCH  13  14
ATOM     14  C   UNL A   1      43.465  24.577  27.280  1.00  0.00     0.031 A 
ATOM     15  C   UNL A   1      44.854  25.070  27.004  1.00  0.00     0.074 A 
ATOM     16  C   UNL A   1      42.515  25.421  27.716  1.00  0.00     0.049 A 
ATOM     17  N   UNL A   1      45.380  26.244  27.236  1.00  0.00    -0.248 NA
ATOM     18  C   UNL A   1      45.773  24.114  26.364  1.00  0.00     0.031 C 
ATOM     19  C   UNL A   1      41.112  25.069  27.914  1.00  0.00     0.029 A 
ATOM     20  N   UNL A   1      42.579  26.748  28.051  1.00  0.00    -0.354 N 
ATOM     21  C   UNL A   1      46.688  26.164  26.785  1.00  0.00     0.074 A 
ATOM     22  C   UNL A   1      46.888  24.822  26.283  1.00  0.00     0.031 C 
ATOM     23  C   UNL A   1      40.444  26.157  28.330  1.00  0.00     0.029 A 
ATOM     24  C   UNL A   1      41.381  27.263  28.481  1.00  0.00     0.049 A 
ATOM     25  H   UNL A   1      43.404  27.282  27.990  1.00  0.00     0.167 HD
ATOM     26  C   UNL A   1      47.638  27.129  26.785  1.00  0.00     0.037 A 
ATOM     27  C   UNL A   1      41.080  28.481  28.967  1.00  0.00     0.037 A 
ATOM     28  C   UNL A   1      47.427  28.458  27.289  1.00  0.00     0.049 A 
ATOM     29  C   UNL A   1      42.174  29.509  29.048  1.00  0.00     0.074 A 
ATOM     30  C   UNL A   1      48.329  29.500  27.392  1.00  0.00     0.029 A 
ATOM     31  N   UNL A   1      46.214  28.925  27.774  1.00  0.00    -0.354 N 
ATOM     32  N   UNL A   1      43.425  29.410  28.667  1.00  0.00    -0.248 NA
ATOM     33  C   UNL A   1      41.821  30.811  29.627  1.00  0.00     0.031 C 
ATOM     34  C   UNL A   1      47.668  30.590  27.970  1.00  0.00     0.029 A 
ATOM     35  C   UNL A   1      46.345  30.238  28.193  1.00  0.00     0.049 A 
ATOM     36  H   UNL A   1      45.382  28.401  27.815  1.00  0.00     0.167 HD
ATOM     37  C   UNL A   1      44.006  30.639  28.943  1.00  0.00     0.074 A 
ATOM     38  C   UNL A   1      42.965  31.473  29.511  1.00  0.00     0.031 C 
ATOM     39  C   UNL A   1      45.286  31.041  28.746  1.00  0.00     0.037 A 
BRANCH  26  40
ATOM     40  C   UNL A   1      48.991  26.743  26.270  1.00  0.00     0.064 A 
ATOM     41  C   UNL A   1      49.963  26.172  27.105  1.00  0.00     0.173 A 
ATOM     42  C   UNL A   1      49.336  26.992  24.934  1.00  0.00     0.173 A 
ATOM     43  F   UNL A   1      49.690  25.943  28.399  1.00  0.00    -0.203 F 
ATOM     44  C   UNL A   1      51.242  25.892  26.628  1.00  0.00     0.198 A 
ATOM     45  C   UNL A   1      50.607  26.690  24.454  1.00  0.00     0.198 A 
ATOM     46  F   UNL A   1      48.445  27.545  24.098  1.00  0.00    -0.203 F 
ATOM     47  F   UNL A   1      52.173  25.402  27.458  1.00  0.00    -0.200 F 
ATOM     48  C   UNL A   1      51.561  26.150  25.303  1.00  0.00     0.200 A 
ATOM     49  F   UNL A   1      50.916  26.941  23.174  1.00  0.00    -0.200 F 
ATOM     50  F   UNL A   1      52.796  25.894  24.849  1.00  0.00    -0.200 F 
ENDBRANCH  26  40
BRANCH  27  51
ATOM     51  C   UNL A   1      39.700  28.775  29.434  1.00  0.00     0.064 A 
ATOM     52  C   UNL A   1      38.743  29.330  28.575  1.00  0.00     0.173 A 
ATOM     53  C   UNL A   1      39.305  28.492  30.752  1.00  0.00     0.173 A 
ATOM     54  F   UNL A   1      39.074  29.635  27.312  1.00  0.00    -0.203 F 
ATOM     55  C   UNL A   1      37.447  29.600  29.017  1.00  0.00     0.198 A 
ATOM     56  C   UNL A   1      38.003  28.737  31.185  1.00  0.00     0.198 A 
ATOM     57  F   UNL A   1      40.180  27.954  31.615  1.00  0.00    -0.203 F 
ATOM     58  F   UNL A   1      36.560  30.159  28.184  1.00  0.00    -0.200 F 
ATOM     59  C   UNL A   1      37.077  29.296  30.319  1.00  0.00     0.200 A 
ATOM     60  F   UNL A   1      37.647  28.423  32.439  1.00  0.00    -0.200 F 
ATOM     61  F   UNL A   1      35.829  29.544  30.739  1.00  0.00    -0.200 F 
ENDBRANCH  27  51
BRANCH  39  62
ATOM     62  C   UNL A   1      45.618  32.450  29.128  1.00  0.00     0.064 A 
ATOM     63  C   UNL A   1      46.134  32.760  30.394  1.00  0.00     0.173 A 
ATOM     64  C   UNL A   1      45.461  33.490  28.202  1.00  0.00     0.173 A 
ATOM     65  F   UNL A   1      46.284  31.797  31.316  1.00  0.00    -0.203 F 
ATOM     66  C   UNL A   1      46.470  34.069  30.724  1.00  0.00     0.198 A 
ATOM     67  C   UNL A   1      45.818  34.794  28.528  1.00  0.00     0.198 A 
ATOM     68  F   UNL A   1      44.972  33.238  26.978  1.00  0.00    -0.203 F 
ATOM     69  F   UNL A   1      46.930  34.352  31.950  1.00  0.00    -0.200 F 
ATOM     70  C   UNL A   1      46.318  35.084  29.789  1.00  0.00     0.200 A 
ATOM     71  F   UNL A   1      45.678  35.772  27.622  1.00  0.00    -0.200 F 
ATOM     72  F   UNL A   1      46.648  36.342  30.106  1.00  0.00    -0.200 F 
ENDBRANCH  39  62
ENDBRANCH  13  14
ENDBRANCH   6   8
ENDBRANCH   5   6
ENDBRANCH   4   5
ENDBRANCH   3   4
ENDBRANCH   2   3
ENDBRANCH   1   2
BRANCH   1  73
ATOM     73  C   UNL A   1      35.571  22.078  25.582  1.00  0.00     0.188 C 
BRANCH  73  74
ATOM     74  O   UNL A   1      35.252  22.105  26.975  1.00  0.00    -0.376 OA
BRANCH  74  75
ATOM     75  C   UNL A   1      34.009  21.545  27.383  1.00  0.00     0.202 C 
BRANCH  75  76
ATOM     76  C   UNL A   1      32.736  22.351  27.092  1.00  0.00     0.261 C 
BRANCH  76  77
ATOM     77  O   UNL A   1      32.864  23.780  26.997  1.00  0.00    -0.460 OA
BRANCH  77  78
ATOM     78  C   UNL A   1      31.894  24.360  26.250  1.00  0.00     0.338 C 
ATOM     79  O   UNL A   1      30.723  24.500  26.560  1.00  0.00    -0.246 OA
BRANCH  78  80
ATOM     80  C   UNL A   1      32.394  24.747  24.921  1.00  0.00     0.067 A 
ATOM     81  C   UNL A   1      32.287  23.807  23.890  1.00  0.00     0.016 A 
ATOM     82  C   UNL A   1      33.117  25.946  24.740  1.00  0.00    -0.010 A 
ATOM     83  C   UNL A   1      32.900  24.055  22.663  1.00  0.00     0.001 A 
ATOM     84  C   UNL A   1      33.749  26.162  23.508  1.00  0.00     0.009 A 
ATOM     85  C   UNL A   1      33.641  25.222  22.478  1.00  0.00     0.001 A 
BRANCH  82  86
ATOM     86  C   UNL A   1      33.204  27.003  25.763  1.00  0.00     0.030 C 
ATOM     87  C   UNL A   1      32.338  28.014  25.909  1.00  0.00     0.081 C 
ATOM     88  S   UNL A   1      32.642  29.407  26.865  1.00  0.00    -0.054 SA
ATOM     89  C   UNL A   1      31.088  28.225  25.141  1.00  0.00     0.266 C 
ATOM     90  C   UNL A   1      31.511  30.385  25.912  1.00  0.00     0.148 C 
ATOM     91  N   UNL A   1      30.860  29.586  24.993  1.00  0.00    -0.290 N 
ATOM     92  O   UNL A   1      30.371  27.308  24.766  1.00  0.00    -0.268 OA
ATOM     93  S   UNL A   1      31.381  32.024  26.193  1.00  0.00    -0.052 S 
BRANCH  91  94
ATOM     94  C   UNL A   1      29.909  29.991  23.936  1.00  0.00     0.092 C 
ATOM     95  C   UNL A   1      29.270  31.357  24.206  1.00  0.00     0.025 C 
ATOM     96  C   UNL A   1      30.466  29.872  22.504  1.00  0.00     0.025 C 
ATOM     97  C   UNL A   1      28.235  31.700  23.136  1.00  0.00     0.002 C 
ATOM     98  C   UNL A   1      29.425  30.251  21.453  1.00  0.00     0.002 C 
ATOM     99  C   UNL A   1      28.830  31.626  21.733  1.00  0.00     0.000 C 
ENDBRANCH  91  94
ENDBRANCH  82  86
ENDBRANCH  78  80
ENDBRANCH  77  78
ENDBRANCH  76  77
ENDBRANCH  75  76
ENDBRANCH  74  75
ENDBRANCH  73  74
ENDBRANCH   1  73
TORSDOF 19
ENDMDL
MODEL 3
REMARK VINA RESULT:     -10.6      0.814      7.247
REMARK SMILES O=C(OCCOCCOCCOC(=O)c1ccccc1/C=C1/SC(=S)N(C2CCCCC2)C1=O)c1ccc(-c2c3nc(c(-c4c(F)c(F)c(F)c(F)c4F)c4ccc([nH]4)c(-c4c(F)c(F)c(F)c(F)c4F)c4nc(c(-c5c(F)c(F)c(F)c(F)c5F)c5ccc2[nH]5)C=C4)C=C3)cc1
REMARK SMILES IDX 7 1 6 2 5 3 4 4 3 5 2 6 1 7 35 8 36 9 97 10 37 11 96 12
REMARK SMILES IDX 38 13 39 14 40 15 90 16 41 17 95 18 89 19 91 20 42 21 94 22
REMARK SMILES IDX 88 23 87 24 43 26 75 27 55 28 74 29 56 30 59 31 73 32 92 33
REMARK SMILES IDX 57 34 58 35 72 37 93 38 60 39 44 40 45 41 53 42 46 43 47 44
REMARK SMILES IDX 51 45 54 46 48 47 49 48 52 49 50 50 76 51 77 52 85 53 78 54
REMARK SMILES IDX 79 55 83 56 86 57 80 58 81 59 84 60 82 61 61 62 62 63 70 64
REMARK SMILES IDX 63 65 64 66 68 67 71 68 65 69 66 70 69 71 67 72 8 73 9 74
REMARK SMILES IDX 10 75 11 76 12 77 13 78 14 79 15 80 16 81 20 82 17 83 19 84
REMARK SMILES IDX 18 85 21 86 22 87 23 88 33 89 24 90 26 91 34 92 25 93 27 94
REMARK SMILES IDX 28 95 32 96 29 97 31 98 30 99
REMARK H PARENT 91 25 59 36
REMARK Flexibility Score: inf
ROOT
ATOM      1  C   UNL A   1      35.471  21.631  24.630  1.00  0.00     0.188 C 
ENDROOT
BRANCH   1   2
ATOM      2  O   UNL A   1      36.826  21.482  24.181  1.00  0.00    -0.376 OA
BRANCH   2   3
ATOM      3  C   UNL A   1      37.782  21.479  25.241  1.00  0.00     0.202 C 
BRANCH   3   4
ATOM      4  C   UNL A   1      38.435  20.111  25.459  1.00  0.00     0.261 C 
BRANCH   4   5
ATOM      5  O   UNL A   1      39.835  20.234  25.764  1.00  0.00    -0.460 OA
BRANCH   5   6
ATOM      6  C   UNL A   1      40.395  20.672  26.919  1.00  0.00     0.338 C 
ATOM      7  O   UNL A   1      40.730  19.850  27.769  1.00  0.00    -0.246 OA
BRANCH   6   8
ATOM      8  C   UNL A   1      40.731  22.107  27.174  1.00  0.00     0.060 A 
ATOM      9  C   UNL A   1      40.212  23.194  26.468  1.00  0.00     0.016 A 
ATOM     10  C   UNL A   1      41.602  22.371  28.244  1.00  0.00     0.016 A 
ATOM     11  C   UNL A   1      40.663  24.489  26.709  1.00  0.00     0.010 A 
ATOM     12  C   UNL A   1      42.009  23.676  28.536  1.00  0.00     0.010 A 
ATOM     13  C   UNL A   1      41.584  24.736  27.728  1.00  0.00    -0.014 A 
BRANCH  13  14
ATOM     14  C   UNL A   1      42.189  26.081  27.847  1.00  0.00     0.031 A 
ATOM     15  C   UNL A   1      41.453  27.136  28.617  1.00  0.00     0.074 A 
ATOM     16  C   UNL A   1      43.417  26.325  27.359  1.00  0.00     0.049 A 
ATOM     17  N   UNL A   1      41.768  28.388  28.821  1.00  0.00    -0.248 NA
ATOM     18  C   UNL A   1      40.196  26.719  29.260  1.00  0.00     0.031 C 
ATOM     19  C   UNL A   1      44.261  25.340  26.689  1.00  0.00     0.029 A 
ATOM     20  N   UNL A   1      44.176  27.466  27.368  1.00  0.00    -0.354 N 
ATOM     21  C   UNL A   1      40.746  28.909  29.601  1.00  0.00     0.074 A 
ATOM     22  C   UNL A   1      39.789  27.847  29.819  1.00  0.00     0.031 C 
ATOM     23  C   UNL A   1      45.427  25.917  26.357  1.00  0.00     0.029 A 
ATOM     24  C   UNL A   1      45.388  27.323  26.739  1.00  0.00     0.049 A 
ATOM     25  H   UNL A   1      43.882  28.309  27.785  1.00  0.00     0.167 HD
ATOM     26  C   UNL A   1      40.622  30.163  30.095  1.00  0.00     0.037 A 
ATOM     27  C   UNL A   1      46.347  28.230  26.478  1.00  0.00     0.037 A 
ATOM     28  C   UNL A   1      41.579  31.210  29.868  1.00  0.00     0.049 A 
ATOM     29  C   UNL A   1      46.145  29.642  26.953  1.00  0.00     0.074 A 
ATOM     30  C   UNL A   1      41.531  32.531  30.271  1.00  0.00     0.029 A 
ATOM     31  N   UNL A   1      42.768  31.043  29.173  1.00  0.00    -0.354 N 
ATOM     32  N   UNL A   1      45.150  30.142  27.646  1.00  0.00    -0.248 NA
ATOM     33  C   UNL A   1      47.188  30.616  26.609  1.00  0.00     0.031 C 
ATOM     34  C   UNL A   1      42.679  33.173  29.790  1.00  0.00     0.029 A 
ATOM     35  C   UNL A   1      43.459  32.241  29.120  1.00  0.00     0.049 A 
ATOM     36  H   UNL A   1      43.076  30.197  28.774  1.00  0.00     0.167 HD
ATOM     37  C   UNL A   1      45.452  31.481  27.838  1.00  0.00     0.074 A 
ATOM     38  C   UNL A   1      46.732  31.713  27.199  1.00  0.00     0.031 C 
ATOM     39  C   UNL A   1      44.735  32.435  28.482  1.00  0.00     0.037 A 
BRANCH  26  40
ATOM     40  C   UNL A   1      39.379  30.460  30.877  1.00  0.00     0.064 A 
ATOM     41  C   UNL A   1      38.224  30.965  30.263  1.00  0.00     0.173 A 
ATOM     42  C   UNL A   1      39.359  30.279  32.267  1.00  0.00     0.173 A 
ATOM     43  F   UNL A   1      38.204  31.184  28.939  1.00  0.00    -0.203 F 
ATOM     44  C   UNL A   1      37.103  31.308  31.017  1.00  0.00     0.198 A 
ATOM     45  C   UNL A   1      38.230  30.601  33.016  1.00  0.00     0.198 A 
ATOM     46  F   UNL A   1      40.442  29.806  32.903  1.00  0.00    -0.203 F 
ATOM     47  F   UNL A   1      36.033  31.847  30.417  1.00  0.00    -0.200 F 
ATOM     48  C   UNL A   1      37.108  31.125  32.392  1.00  0.00     0.200 A 
ATOM     49  F   UNL A   1      38.236  30.424  34.345  1.00  0.00    -0.200 F 
ATOM     50  F   UNL A   1      36.036  31.470  33.118  1.00  0.00    -0.200 F 
ENDBRANCH  26  40
BRANCH  27  51
ATOM     51  C   UNL A   1      47.557  27.834  25.711  1.00  0.00     0.064 A 
ATOM     52  C   UNL A   1      47.556  27.808  24.311  1.00  0.00     0.173 A 
ATOM     53  C   UNL A   1      48.750  27.486  26.367  1.00  0.00     0.173 A 
ATOM     54  F   UNL A   1      46.438  28.116  23.637  1.00  0.00    -0.203 F 
ATOM     55  C   UNL A   1      48.696  27.440  23.595  1.00  0.00     0.198 A 
ATOM     56  C   UNL A   1      49.895  27.144  25.651  1.00  0.00     0.198 A 
ATOM     57  F   UNL A   1      48.808  27.500  27.708  1.00  0.00    -0.203 F 
ATOM     58  F   UNL A   1      48.658  27.394  22.257  1.00  0.00    -0.200 F 
ATOM     59  C   UNL A   1      49.866  27.116  24.265  1.00  0.00     0.200 A 
ATOM     60  F   UNL A   1      51.028  26.850  26.305  1.00  0.00    -0.200 F 
ATOM     61  F   UNL A   1      50.963  26.773  23.577  1.00  0.00    -0.200 F 
ENDBRANCH  27  51
BRANCH  39  62
ATOM     62  C   UNL A   1      45.335  33.805  28.544  1.00  0.00     0.064 A 
ATOM     63  C   UNL A   1      46.284  34.143  29.517  1.00  0.00     0.173 A 
ATOM     64  C   UNL A   1      44.988  34.773  27.590  1.00  0.00     0.173 A 
ATOM     65  F   UNL A   1      46.631  33.253  30.459  1.00  0.00    -0.203 F 
ATOM     66  C   UNL A   1      46.858  35.410  29.543  1.00  0.00     0.198 A 
ATOM     67  C   UNL A   1      45.580  36.031  27.605  1.00  0.00     0.198 A 
ATOM     68  F   UNL A   1      44.085  34.491  26.638  1.00  0.00    -0.203 F 
ATOM     69  F   UNL A   1      47.739  35.726  30.501  1.00  0.00    -0.200 F 
ATOM     70  C   UNL A   1      46.511  36.350  28.583  1.00  0.00     0.200 A 
ATOM     71  F   UNL A   1      45.250  36.936  26.673  1.00  0.00    -0.200 F 
ATOM     72  F   UNL A   1      47.069  37.568  28.604  1.00  0.00    -0.200 F 
ENDBRANCH  39  62
ENDBRANCH  13  14
ENDBRANCH   6   8
ENDBRANCH   5   6
ENDBRANCH   4   5
ENDBRANCH   3   4
ENDBRANCH   2   3
ENDBRANCH   1   2
BRANCH   1  73
ATOM     73  C   UNL A   1      35.390  22.763  25.651  1.00  0.00     0.188 C 
BRANCH  73  74
ATOM     74  O   UNL A   1      34.972  22.369  26.961  1.00  0.00    -0.376 OA
BRANCH  74  75
ATOM     75  C   UNL A   1      33.705  21.733  27.090  1.00  0.00     0.202 C 
BRANCH  75  76
ATOM     76  C   UNL A   1      32.505  22.611  27.472  1.00  0.00     0.261 C 
BRANCH  76  77
ATOM     77  O   UNL A   1      31.360  22.582  26.603  1.00  0.00    -0.460 OA
BRANCH  77  78
ATOM     78  C   UNL A   1      30.998  23.805  26.145  1.00  0.00     0.338 C 
ATOM     79  O   UNL A   1      30.097  24.504  26.575  1.00  0.00    -0.246 OA
BRANCH  78  80
ATOM     80  C   UNL A   1      31.779  24.191  24.960  1.00  0.00     0.067 A 
ATOM     81  C   UNL A   1      31.717  23.350  23.842  1.00  0.00     0.016 A 
ATOM     82  C   UNL A   1      32.694  25.264  25.012  1.00  0.00    -0.010 A 
ATOM     83  C   UNL A   1      32.569  23.575  22.762  1.00  0.00     0.001 A 
ATOM     84  C   UNL A   1      33.560  25.453  23.928  1.00  0.00     0.009 A 
ATOM     85  C   UNL A   1      33.497  24.614  22.811  1.00  0.00     0.001 A 
BRANCH  82  86
ATOM     86  C   UNL A   1      32.756  26.223  26.130  1.00  0.00     0.030 C 
ATOM     87  C   UNL A   1      32.106  27.393  26.185  1.00  0.00     0.081 C 
ATOM     88  S   UNL A   1      32.459  28.633  27.317  1.00  0.00    -0.054 SA
ATOM     89  C   UNL A   1      31.141  27.915  25.188  1.00  0.00     0.266 C 
ATOM     90  C   UNL A   1      31.807  29.885  26.243  1.00  0.00     0.148 C 
ATOM     91  N   UNL A   1      31.238  29.298  25.130  1.00  0.00    -0.290 N 
ATOM     92  O   UNL A   1      30.359  27.200  24.578  1.00  0.00    -0.268 OA
ATOM     93  S   UNL A   1      31.955  31.495  26.650  1.00  0.00    -0.052 S 
BRANCH  91  94
ATOM     94  C   UNL A   1      30.663  29.956  23.938  1.00  0.00     0.092 C 
ATOM     95  C   UNL A   1      30.575  29.019  22.729  1.00  0.00     0.025 C 
ATOM     96  C   UNL A   1      29.343  30.705  24.203  1.00  0.00     0.025 C 
ATOM     97  C   UNL A   1      30.054  29.758  21.497  1.00  0.00     0.002 C 
ATOM     98  C   UNL A   1      28.825  31.409  22.951  1.00  0.00     0.002 C 
ATOM     99  C   UNL A   1      28.720  30.445  21.775  1.00  0.00     0.000 C 
ENDBRANCH  91  94
ENDBRANCH  82  86
ENDBRANCH  78  80
ENDBRANCH  77  78
ENDBRANCH  76  77
ENDBRANCH  75  76
ENDBRANCH  74  75
ENDBRANCH  73  74
ENDBRANCH   1  73
TORSDOF 19
ENDMDL
