MODEL 1
REMARK VINA RESULT:     -10.6      0.000      0.000
REMARK SMILES O=C(C[C@@H]([NH2+]C[C@H]1CCCO1)C(=O)OCCOCCOCCOC(=O)c1ccc(-c2c3nc(c(-c4c(F)c(F)c(F)c(F)c4F)c4ccc([nH]4)c(-c4c(F)c(F)c(F)c(F)c4F)c4nc(c(-c5c(F)c(F)c(F)c(F)c5F)c5ccc2[nH]5)C=C4)C=C3)cc1)Nc1cccc(Cl)c1
REMARK SMILES IDX 18 1 17 2 16 3 15 4 14 5 12 6 13 7 4 8 3 9 2 10 1 11 89 12
REMARK SMILES IDX 90 14 91 15 96 16 92 17 94 18 93 19 95 20 5 21 6 24 7 25
REMARK SMILES IDX 8 26 11 27 9 28 10 29 19 30 20 31 21 32 22 33 23 34 24 35
REMARK SMILES IDX 25 36 26 37 27 38 88 39 28 40 87 41 29 42 30 43 31 44 81 45
REMARK SMILES IDX 32 46 86 47 80 48 82 49 33 50 85 51 79 52 78 53 34 55 66 56
REMARK SMILES IDX 46 57 65 58 47 59 50 60 64 61 83 62 48 63 49 64 63 66 84 67
REMARK SMILES IDX 51 68 35 69 36 70 44 71 37 72 38 73 42 74 45 75 39 76 40 77
REMARK SMILES IDX 43 78 41 79 67 80 68 81 76 82 69 83 70 84 74 85 77 86 71 87
REMARK SMILES IDX 72 88 75 89 73 90 52 91 53 92 61 93 54 94 55 95 59 96 62 97
REMARK SMILES IDX 56 98 57 99 60 100 58 101
REMARK H PARENT 89 13 5 22 5 23 82 54 50 65
REMARK Flexibility Score: inf
ROOT
ATOM      1  C   UNL A   1      39.643  21.718  26.228  1.00  0.00     0.188 C 
ENDROOT
BRANCH   1   2
ATOM      2  O   UNL A   1      38.817  20.900  25.418  1.00  0.00    -0.376 OA
BRANCH   2   3
ATOM      3  C   UNL A   1      37.431  21.205  25.294  1.00  0.00     0.202 C 
BRANCH   3   4
ATOM      4  C   UNL A   1      36.864  22.601  25.631  1.00  0.00     0.261 C 
BRANCH   4   5
ATOM      5  O   UNL A   1      35.676  22.636  26.456  1.00  0.00    -0.459 OA
BRANCH   5   6
ATOM      6  C   UNL A   1      34.500  22.692  25.781  1.00  0.00     0.365 C 
ATOM      7  O   UNL A   1      34.417  23.215  24.673  1.00  0.00    -0.245 OA
BRANCH   6   8
ATOM      8  C   UNL A   1      33.353  21.855  26.421  1.00  0.00     0.302 C 
BRANCH   8   9
ATOM      9  C   UNL A   1      31.928  22.170  25.914  1.00  0.00     0.177 C 
BRANCH   9  10
ATOM     10  C   UNL A   1      31.549  23.635  26.155  1.00  0.00     0.231 C 
ATOM     11  O   UNL A   1      31.171  24.036  27.250  1.00  0.00    -0.274 OA
ATOM     12  N   UNL A   1      31.604  24.381  24.989  1.00  0.00    -0.326 N 
ATOM     13  H   UNL A   1      31.827  23.879  24.172  1.00  0.00     0.169 HD
BRANCH  12  14
ATOM     14  C   UNL A   1      31.383  25.759  24.817  1.00  0.00     0.042 A 
ATOM     15  C   UNL A   1      30.231  26.127  24.107  1.00  0.00     0.026 A 
ATOM     16  C   UNL A   1      32.269  26.748  25.243  1.00  0.00     0.046 A 
ATOM     17  C   UNL A   1      29.966  27.465  23.812  1.00  0.00     0.004 A 
ATOM     18  C   UNL A   1      32.020  28.084  24.906  1.00  0.00     0.043 A 
ATOM     19  C   UNL A   1      30.874  28.446  24.195  1.00  0.00     0.020 A 
ATOM     20  Cl  UNL A   1      33.161  29.304  25.329  1.00  0.00    -0.084 Cl
ENDBRANCH  12  14
ENDBRANCH   9  10
ENDBRANCH   8   9
BRANCH   8  21
ATOM     21  N   UNL A   1      33.579  20.381  26.312  1.00  0.00    -0.332 N 
ATOM     22  H   UNL A   1      32.758  19.915  26.700  1.00  0.00     0.347 HD
ATOM     23  H   UNL A   1      34.451  20.212  26.814  1.00  0.00     0.347 HD
BRANCH  21  24
ATOM     24  C   UNL A   1      33.806  19.827  24.961  1.00  0.00     0.293 C 
BRANCH  24  25
ATOM     25  C   UNL A   1      32.833  18.702  24.546  1.00  0.00     0.173 C 
ATOM     26  C   UNL A   1      33.334  17.671  23.546  1.00  0.00     0.040 C 
ATOM     27  O   UNL A   1      32.429  17.997  25.738  1.00  0.00    -0.372 OA
ATOM     28  C   UNL A   1      33.385  16.364  24.297  1.00  0.00     0.031 C 
ATOM     29  C   UNL A   1      32.517  16.590  25.513  1.00  0.00     0.161 C 
ENDBRANCH  24  25
ENDBRANCH  21  24
ENDBRANCH   8  21
ENDBRANCH   6   8
ENDBRANCH   5   6
ENDBRANCH   4   5
ENDBRANCH   3   4
ENDBRANCH   2   3
ENDBRANCH   1   2
BRANCH   1  30
ATOM     30  C   UNL A   1      41.166  21.547  26.164  1.00  0.00     0.188 C 
BRANCH  30  31
ATOM     31  O   UNL A   1      41.661  20.402  26.812  1.00  0.00    -0.376 OA
BRANCH  31  32
ATOM     32  C   UNL A   1      41.824  19.185  26.101  1.00  0.00     0.202 C 
BRANCH  32  33
ATOM     33  C   UNL A   1      43.189  18.620  25.649  1.00  0.00     0.261 C 
BRANCH  33  34
ATOM     34  O   UNL A   1      43.660  18.953  24.337  1.00  0.00    -0.460 OA
BRANCH  34  35
ATOM     35  C   UNL A   1      44.901  19.488  24.247  1.00  0.00     0.338 C 
ATOM     36  O   UNL A   1      45.871  19.007  23.680  1.00  0.00    -0.246 OA
BRANCH  35  37
ATOM     37  C   UNL A   1      44.818  20.880  24.742  1.00  0.00     0.060 A 
ATOM     38  C   UNL A   1      44.453  21.901  23.849  1.00  0.00     0.016 A 
ATOM     39  C   UNL A   1      45.059  21.174  26.085  1.00  0.00     0.016 A 
ATOM     40  C   UNL A   1      44.345  23.219  24.295  1.00  0.00     0.010 A 
ATOM     41  C   UNL A   1      44.981  22.500  26.523  1.00  0.00     0.010 A 
ATOM     42  C   UNL A   1      44.648  23.531  25.625  1.00  0.00    -0.014 A 
BRANCH  42  43
ATOM     43  C   UNL A   1      44.813  24.947  26.039  1.00  0.00     0.031 A 
ATOM     44  C   UNL A   1      46.179  25.568  25.923  1.00  0.00     0.074 A 
ATOM     45  C   UNL A   1      43.783  25.673  26.508  1.00  0.00     0.049 A 
ATOM     46  N   UNL A   1      46.595  26.747  26.307  1.00  0.00    -0.248 NA
ATOM     47  C   UNL A   1      47.217  24.737  25.292  1.00  0.00     0.031 C 
ATOM     48  C   UNL A   1      42.405  25.207  26.628  1.00  0.00     0.029 A 
ATOM     49  N   UNL A   1      43.748  26.959  26.988  1.00  0.00    -0.354 N 
ATOM     50  C   UNL A   1      47.943  26.795  25.976  1.00  0.00     0.074 A 
ATOM     51  C   UNL A   1      48.282  25.517  25.389  1.00  0.00     0.031 C 
ATOM     52  C   UNL A   1      41.659  26.189  27.163  1.00  0.00     0.029 A 
ATOM     53  C   UNL A   1      42.516  27.337  27.464  1.00  0.00     0.049 A 
ATOM     54  H   UNL A   1      44.532  27.556  26.992  1.00  0.00     0.167 HD
ATOM     55  C   UNL A   1      48.819  27.815  26.143  1.00  0.00     0.037 A 
ATOM     56  C   UNL A   1      42.137  28.464  28.099  1.00  0.00     0.037 A 
ATOM     57  C   UNL A   1      48.481  29.083  26.733  1.00  0.00     0.049 A 
ATOM     58  C   UNL A   1      43.152  29.552  28.354  1.00  0.00     0.074 A 
ATOM     59  C   UNL A   1      49.295  30.186  26.929  1.00  0.00     0.029 A 
ATOM     60  N   UNL A   1      47.231  29.416  27.230  1.00  0.00    -0.354 N 
ATOM     61  N   UNL A   1      44.420  29.602  28.020  1.00  0.00    -0.248 NA
ATOM     62  C   UNL A   1      42.680  30.744  29.075  1.00  0.00     0.031 C 
ATOM     63  C   UNL A   1      48.555  31.160  27.605  1.00  0.00     0.029 A 
ATOM     64  C   UNL A   1      47.260  30.695  27.764  1.00  0.00     0.049 A 
ATOM     65  H   UNL A   1      46.439  28.830  27.208  1.00  0.00     0.167 HD
ATOM     66  C   UNL A   1      44.885  30.836  28.458  1.00  0.00     0.074 A 
ATOM     67  C   UNL A   1      43.760  31.512  29.070  1.00  0.00     0.031 C 
ATOM     68  C   UNL A   1      46.131  31.364  28.362  1.00  0.00     0.037 A 
BRANCH  55  69
ATOM     69  C   UNL A   1      50.239  27.585  25.714  1.00  0.00     0.064 A 
ATOM     70  C   UNL A   1      50.637  27.703  24.373  1.00  0.00     0.173 A 
ATOM     71  C   UNL A   1      51.224  27.273  26.664  1.00  0.00     0.173 A 
ATOM     72  F   UNL A   1      49.733  27.986  23.423  1.00  0.00    -0.203 F 
ATOM     73  C   UNL A   1      51.960  27.489  23.997  1.00  0.00     0.198 A 
ATOM     74  C   UNL A   1      52.552  27.095  26.289  1.00  0.00     0.198 A 
ATOM     75  F   UNL A   1      50.899  27.151  27.960  1.00  0.00    -0.203 F 
ATOM     76  F   UNL A   1      52.307  27.557  22.705  1.00  0.00    -0.200 F 
ATOM     77  C   UNL A   1      52.918  27.195  24.956  1.00  0.00     0.200 A 
ATOM     78  F   UNL A   1      53.478  26.825  27.220  1.00  0.00    -0.200 F 
ATOM     79  F   UNL A   1      54.194  26.999  24.594  1.00  0.00    -0.200 F 
ENDBRANCH  55  69
BRANCH  56  80
ATOM     80  C   UNL A   1      40.732  28.622  28.565  1.00  0.00     0.064 A 
ATOM     81  C   UNL A   1      40.361  28.282  29.873  1.00  0.00     0.173 A 
ATOM     82  C   UNL A   1      39.725  29.081  27.702  1.00  0.00     0.173 A 
ATOM     83  F   UNL A   1      41.280  27.810  30.729  1.00  0.00    -0.203 F 
ATOM     84  C   UNL A   1      39.035  28.372  30.294  1.00  0.00     0.198 A 
ATOM     85  C   UNL A   1      38.406  29.203  28.134  1.00  0.00     0.198 A 
ATOM     86  F   UNL A   1      40.024  29.414  26.438  1.00  0.00    -0.203 F 
ATOM     87  F   UNL A   1      38.699  27.987  31.532  1.00  0.00    -0.200 F 
ATOM     88  C   UNL A   1      38.060  28.840  29.426  1.00  0.00     0.200 A 
ATOM     89  F   UNL A   1      37.470  29.666  27.295  1.00  0.00    -0.200 F 
ATOM     90  F   UNL A   1      36.786  28.930  29.831  1.00  0.00    -0.200 F 
ENDBRANCH  56  80
BRANCH  68  91
ATOM     91  C   UNL A   1      46.341  32.759  28.884  1.00  0.00     0.064 A 
ATOM     92  C   UNL A   1      46.155  33.890  28.076  1.00  0.00     0.173 A 
ATOM     93  C   UNL A   1      46.693  32.967  30.228  1.00  0.00     0.173 A 
ATOM     94  F   UNL A   1      45.831  33.750  26.781  1.00  0.00    -0.203 F 
ATOM     95  C   UNL A   1      46.341  35.174  28.584  1.00  0.00     0.198 A 
ATOM     96  C   UNL A   1      46.842  34.252  30.741  1.00  0.00     0.198 A 
ATOM     97  F   UNL A   1      46.874  31.922  31.048  1.00  0.00    -0.203 F 
ATOM     98  F   UNL A   1      46.210  36.237  27.777  1.00  0.00    -0.200 F 
ATOM     99  C   UNL A   1      46.677  35.354  29.917  1.00  0.00     0.200 A 
ATOM    100  F   UNL A   1      47.147  34.424  32.035  1.00  0.00    -0.200 F 
ATOM    101  F   UNL A   1      46.846  36.590  30.407  1.00  0.00    -0.200 F 
ENDBRANCH  68  91
ENDBRANCH  42  43
ENDBRANCH  35  37
ENDBRANCH  34  35
ENDBRANCH  33  34
ENDBRANCH  32  33
ENDBRANCH  31  32
ENDBRANCH  30  31
ENDBRANCH   1  30
TORSDOF 23
ENDMDL
MODEL 2
REMARK VINA RESULT:     -10.6      6.759     12.536
REMARK SMILES O=C(C[C@@H]([NH2+]C[C@H]1CCCO1)C(=O)OCCOCCOCCOC(=O)c1ccc(-c2c3nc(c(-c4c(F)c(F)c(F)c(F)c4F)c4ccc([nH]4)c(-c4c(F)c(F)c(F)c(F)c4F)c4nc(c(-c5c(F)c(F)c(F)c(F)c5F)c5ccc2[nH]5)C=C4)C=C3)cc1)Nc1cccc(Cl)c1
REMARK SMILES IDX 18 1 17 2 16 3 15 4 14 5 12 6 13 7 4 8 3 9 2 10 1 11 89 12
REMARK SMILES IDX 90 14 91 15 96 16 92 17 94 18 93 19 95 20 5 21 6 24 7 25
REMARK SMILES IDX 8 26 11 27 9 28 10 29 19 30 20 31 21 32 22 33 23 34 24 35
REMARK SMILES IDX 25 36 26 37 27 38 88 39 28 40 87 41 29 42 30 43 31 44 81 45
REMARK SMILES IDX 32 46 86 47 80 48 82 49 33 50 85 51 79 52 78 53 34 55 66 56
REMARK SMILES IDX 46 57 65 58 47 59 50 60 64 61 83 62 48 63 49 64 63 66 84 67
REMARK SMILES IDX 51 68 35 69 36 70 44 71 37 72 38 73 42 74 45 75 39 76 40 77
REMARK SMILES IDX 43 78 41 79 67 80 68 81 76 82 69 83 70 84 74 85 77 86 71 87
REMARK SMILES IDX 72 88 75 89 73 90 52 91 53 92 61 93 54 94 55 95 59 96 62 97
REMARK SMILES IDX 56 98 57 99 60 100 58 101
REMARK H PARENT 89 13 5 22 5 23 82 54 50 65
REMARK Flexibility Score: inf
ROOT
ATOM      1  C   UNL A   1      34.783  32.114  28.037  1.00  0.00     0.188 C 
ENDROOT
BRANCH   1   2
ATOM      2  O   UNL A   1      34.268  30.798  27.933  1.00  0.00    -0.376 OA
BRANCH   2   3
ATOM      3  C   UNL A   1      33.256  30.513  26.973  1.00  0.00     0.202 C 
BRANCH   3   4
ATOM      4  C   UNL A   1      33.402  29.374  25.940  1.00  0.00     0.261 C 
BRANCH   4   5
ATOM      5  O   UNL A   1      32.258  29.116  25.094  1.00  0.00    -0.459 OA
BRANCH   5   6
ATOM      6  C   UNL A   1      32.524  29.025  23.766  1.00  0.00     0.365 C 
ATOM      7  O   UNL A   1      33.671  28.909  23.345  1.00  0.00    -0.245 OA
BRANCH   6   8
ATOM      8  C   UNL A   1      31.262  28.854  22.869  1.00  0.00     0.302 C 
BRANCH   8   9
ATOM      9  C   UNL A   1      31.084  27.466  22.216  1.00  0.00     0.177 C 
BRANCH   9  10
ATOM     10  C   UNL A   1      31.415  26.331  23.192  1.00  0.00     0.231 C 
ATOM     11  O   UNL A   1      30.842  26.215  24.271  1.00  0.00    -0.274 OA
ATOM     12  N   UNL A   1      32.466  25.551  22.740  1.00  0.00    -0.326 N 
ATOM     13  H   UNL A   1      32.884  25.845  21.898  1.00  0.00     0.169 HD
BRANCH  12  14
ATOM     14  C   UNL A   1      33.016  24.395  23.323  1.00  0.00     0.042 A 
ATOM     15  C   UNL A   1      32.581  23.165  22.810  1.00  0.00     0.026 A 
ATOM     16  C   UNL A   1      33.895  24.413  24.406  1.00  0.00     0.046 A 
ATOM     17  C   UNL A   1      33.005  21.961  23.374  1.00  0.00     0.004 A 
ATOM     18  C   UNL A   1      34.281  23.203  24.996  1.00  0.00     0.043 A 
ATOM     19  C   UNL A   1      33.843  21.980  24.485  1.00  0.00     0.020 A 
ATOM     20  Cl  UNL A   1      35.276  23.212  26.402  1.00  0.00    -0.084 Cl
ENDBRANCH  12  14
ENDBRANCH   9  10
ENDBRANCH   8   9
BRANCH   8  21
ATOM     21  N   UNL A   1      29.993  29.209  23.578  1.00  0.00    -0.332 N 
ATOM     22  H   UNL A   1      29.943  30.227  23.625  1.00  0.00     0.347 HD
ATOM     23  H   UNL A   1      30.055  28.735  24.479  1.00  0.00     0.347 HD
BRANCH  21  24
ATOM     24  C   UNL A   1      28.728  28.730  22.983  1.00  0.00     0.293 C 
BRANCH  24  25
ATOM     25  C   UNL A   1      27.782  29.842  22.479  1.00  0.00     0.173 C 
ATOM     26  C   UNL A   1      27.753  31.148  23.259  1.00  0.00     0.040 C 
ATOM     27  O   UNL A   1      28.141  30.153  21.117  1.00  0.00    -0.372 OA
ATOM     28  C   UNL A   1      28.307  32.194  22.327  1.00  0.00     0.031 C 
ATOM     29  C   UNL A   1      28.211  31.569  20.954  1.00  0.00     0.161 C 
ENDBRANCH  24  25
ENDBRANCH  21  24
ENDBRANCH   8  21
ENDBRANCH   6   8
ENDBRANCH   5   6
ENDBRANCH   4   5
ENDBRANCH   3   4
ENDBRANCH   2   3
ENDBRANCH   1   2
BRANCH   1  30
ATOM     30  C   UNL A   1      34.439  32.962  29.269  1.00  0.00     0.188 C 
BRANCH  30  31
ATOM     31  O   UNL A   1      34.379  34.347  29.036  1.00  0.00    -0.376 OA
BRANCH  31  32
ATOM     32  C   UNL A   1      33.133  35.024  29.023  1.00  0.00     0.202 C 
BRANCH  32  33
ATOM     33  C   UNL A   1      32.732  36.126  30.029  1.00  0.00     0.261 C 
BRANCH  33  34
ATOM     34  O   UNL A   1      32.133  35.728  31.268  1.00  0.00    -0.460 OA
BRANCH  34  35
ATOM     35  C   UNL A   1      32.781  36.076  32.404  1.00  0.00     0.338 C 
ATOM     36  O   UNL A   1      32.380  36.827  33.282  1.00  0.00    -0.246 OA
BRANCH  35  37
ATOM     37  C   UNL A   1      33.961  35.191  32.527  1.00  0.00     0.060 A 
ATOM     38  C   UNL A   1      33.779  33.866  32.954  1.00  0.00     0.016 A 
ATOM     39  C   UNL A   1      35.234  35.651  32.187  1.00  0.00     0.016 A 
ATOM     40  C   UNL A   1      34.872  33.004  33.056  1.00  0.00     0.010 A 
ATOM     41  C   UNL A   1      36.332  34.796  32.320  1.00  0.00     0.010 A 
ATOM     42  C   UNL A   1      36.160  33.477  32.779  1.00  0.00    -0.014 A 
BRANCH  42  43
ATOM     43  C   UNL A   1      37.348  32.668  33.152  1.00  0.00     0.031 A 
ATOM     44  C   UNL A   1      38.032  32.969  34.457  1.00  0.00     0.074 A 
ATOM     45  C   UNL A   1      37.815  31.687  32.359  1.00  0.00     0.049 A 
ATOM     46  N   UNL A   1      39.134  32.472  34.956  1.00  0.00    -0.248 NA
ATOM     47  C   UNL A   1      37.384  33.977  35.312  1.00  0.00     0.031 C 
ATOM     48  C   UNL A   1      37.219  31.266  31.095  1.00  0.00     0.029 A 
ATOM     49  N   UNL A   1      38.916  30.879  32.501  1.00  0.00    -0.354 N 
ATOM     50  C   UNL A   1      39.318  33.113  36.174  1.00  0.00     0.074 A 
ATOM     51  C   UNL A   1      38.232  34.057  36.325  1.00  0.00     0.031 C 
ATOM     52  C   UNL A   1      37.971  30.285  30.566  1.00  0.00     0.029 A 
ATOM     53  C   UNL A   1      39.125  30.041  31.433  1.00  0.00     0.049 A 
ATOM     54  H   UNL A   1      39.502  30.899  33.292  1.00  0.00     0.167 HD
ATOM     55  C   UNL A   1      40.301  32.929  37.087  1.00  0.00     0.037 A 
ATOM     56  C   UNL A   1      40.148  29.201  31.174  1.00  0.00     0.037 A 
ATOM     57  C   UNL A   1      41.384  31.994  36.933  1.00  0.00     0.049 A 
ATOM     58  C   UNL A   1      41.279  29.077  32.166  1.00  0.00     0.074 A 
ATOM     59  C   UNL A   1      42.419  31.722  37.811  1.00  0.00     0.029 A 
ATOM     60  N   UNL A   1      41.578  31.185  35.824  1.00  0.00    -0.354 N 
ATOM     61  N   UNL A   1      41.437  29.670  33.325  1.00  0.00    -0.248 NA
ATOM     62  C   UNL A   1      42.376  28.165  31.810  1.00  0.00     0.031 C 
ATOM     63  C   UNL A   1      43.275  30.798  37.205  1.00  0.00     0.029 A 
ATOM     64  C   UNL A   1      42.735  30.438  35.981  1.00  0.00     0.049 A 
ATOM     65  H   UNL A   1      40.982  31.147  35.041  1.00  0.00     0.167 HD
ATOM     66  C   UNL A   1      42.627  29.178  33.850  1.00  0.00     0.074 A 
ATOM     67  C   UNL A   1      43.145  28.228  32.888  1.00  0.00     0.031 C 
ATOM     68  C   UNL A   1      43.237  29.485  35.022  1.00  0.00     0.037 A 
BRANCH  55  69
ATOM     69  C   UNL A   1      40.270  33.785  38.321  1.00  0.00     0.064 A 
ATOM     70  C   UNL A   1      41.019  34.966  38.424  1.00  0.00     0.173 A 
ATOM     71  C   UNL A   1      39.454  33.430  39.406  1.00  0.00     0.173 A 
ATOM     72  F   UNL A   1      41.827  35.343  37.420  1.00  0.00    -0.203 F 
ATOM     73  C   UNL A   1      40.974  35.746  39.576  1.00  0.00     0.198 A 
ATOM     74  C   UNL A   1      39.384  34.231  40.543  1.00  0.00     0.198 A 
ATOM     75  F   UNL A   1      38.715  32.312  39.360  1.00  0.00    -0.203 F 
ATOM     76  F   UNL A   1      41.737  36.844  39.671  1.00  0.00    -0.200 F 
ATOM     77  C   UNL A   1      40.149  35.383  40.631  1.00  0.00     0.200 A 
ATOM     78  F   UNL A   1      38.574  33.885  41.554  1.00  0.00    -0.200 F 
ATOM     79  F   UNL A   1      40.098  36.140  41.736  1.00  0.00    -0.200 F 
ENDBRANCH  55  69
BRANCH  56  80
ATOM     80  C   UNL A   1      40.169  28.419  29.907  1.00  0.00     0.064 A 
ATOM     81  C   UNL A   1      40.815  28.911  28.765  1.00  0.00     0.173 A 
ATOM     82  C   UNL A   1      39.513  27.183  29.802  1.00  0.00     0.173 A 
ATOM     83  F   UNL A   1      41.432  30.102  28.804  1.00  0.00    -0.203 F 
ATOM     84  C   UNL A   1      40.786  28.209  27.561  1.00  0.00     0.198 A 
ATOM     85  C   UNL A   1      39.513  26.467  28.607  1.00  0.00     0.198 A 
ATOM     86  F   UNL A   1      38.874  26.669  30.862  1.00  0.00    -0.203 F 
ATOM     87  F   UNL A   1      41.364  28.729  26.470  1.00  0.00    -0.200 F 
ATOM     88  C   UNL A   1      40.141  26.984  27.485  1.00  0.00     0.200 A 
ATOM     89  F   UNL A   1      38.899  25.278  28.542  1.00  0.00    -0.200 F 
ATOM     90  F   UNL A   1      40.116  26.307  26.328  1.00  0.00    -0.200 F 
ENDBRANCH  56  80
BRANCH  68  91
ATOM     91  C   UNL A   1      44.506  28.754  35.362  1.00  0.00     0.064 A 
ATOM     92  C   UNL A   1      45.769  29.260  35.019  1.00  0.00     0.173 A 
ATOM     93  C   UNL A   1      44.459  27.549  36.081  1.00  0.00     0.173 A 
ATOM     94  F   UNL A   1      45.873  30.401  34.321  1.00  0.00    -0.203 F 
ATOM     95  C   UNL A   1      46.934  28.573  35.356  1.00  0.00     0.198 A 
ATOM     96  C   UNL A   1      45.626  26.884  36.448  1.00  0.00     0.198 A 
ATOM     97  F   UNL A   1      43.279  27.024  36.443  1.00  0.00    -0.203 F 
ATOM     98  F   UNL A   1      48.126  29.049  34.969  1.00  0.00    -0.200 F 
ATOM     99  C   UNL A   1      46.861  27.390  36.076  1.00  0.00     0.200 A 
ATOM    100  F   UNL A   1      45.554  25.751  37.161  1.00  0.00    -0.200 F 
ATOM    101  F   UNL A   1      47.983  26.735  36.408  1.00  0.00    -0.200 F 
ENDBRANCH  68  91
ENDBRANCH  42  43
ENDBRANCH  35  37
ENDBRANCH  34  35
ENDBRANCH  33  34
ENDBRANCH  32  33
ENDBRANCH  31  32
ENDBRANCH  30  31
ENDBRANCH   1  30
TORSDOF 23
ENDMDL
MODEL 3
REMARK VINA RESULT:     -10.5      4.781      7.126
REMARK SMILES O=C(C[C@@H]([NH2+]C[C@H]1CCCO1)C(=O)OCCOCCOCCOC(=O)c1ccc(-c2c3nc(c(-c4c(F)c(F)c(F)c(F)c4F)c4ccc([nH]4)c(-c4c(F)c(F)c(F)c(F)c4F)c4nc(c(-c5c(F)c(F)c(F)c(F)c5F)c5ccc2[nH]5)C=C4)C=C3)cc1)Nc1cccc(Cl)c1
REMARK SMILES IDX 18 1 17 2 16 3 15 4 14 5 12 6 13 7 4 8 3 9 2 10 1 11 89 12
REMARK SMILES IDX 90 14 91 15 96 16 92 17 94 18 93 19 95 20 5 21 6 24 7 25
REMARK SMILES IDX 8 26 11 27 9 28 10 29 19 30 20 31 21 32 22 33 23 34 24 35
REMARK SMILES IDX 25 36 26 37 27 38 88 39 28 40 87 41 29 42 30 43 31 44 81 45
REMARK SMILES IDX 32 46 86 47 80 48 82 49 33 50 85 51 79 52 78 53 34 55 66 56
REMARK SMILES IDX 46 57 65 58 47 59 50 60 64 61 83 62 48 63 49 64 63 66 84 67
REMARK SMILES IDX 51 68 35 69 36 70 44 71 37 72 38 73 42 74 45 75 39 76 40 77
REMARK SMILES IDX 43 78 41 79 67 80 68 81 76 82 69 83 70 84 74 85 77 86 71 87
REMARK SMILES IDX 72 88 75 89 73 90 52 91 53 92 61 93 54 94 55 95 59 96 62 97
REMARK SMILES IDX 56 98 57 99 60 100 58 101
REMARK H PARENT 89 13 5 22 5 23 82 54 50 65
REMARK Flexibility Score: inf
ROOT
ATOM      1  C   UNL A   1      39.421  21.312  26.148  1.00  0.00     0.188 C 
ENDROOT
BRANCH   1   2
ATOM      2  O   UNL A   1      38.188  21.960  25.895  1.00  0.00    -0.376 OA
BRANCH   2   3
ATOM      3  C   UNL A   1      37.403  21.566  24.774  1.00  0.00     0.202 C 
BRANCH   3   4
ATOM      4  C   UNL A   1      35.946  21.076  24.923  1.00  0.00     0.261 C 
BRANCH   4   5
ATOM      5  O   UNL A   1      34.938  22.092  25.128  1.00  0.00    -0.459 OA
BRANCH   5   6
ATOM      6  C   UNL A   1      34.250  22.003  26.296  1.00  0.00     0.365 C 
ATOM      7  O   UNL A   1      34.734  22.378  27.359  1.00  0.00    -0.245 OA
BRANCH   6   8
ATOM      8  C   UNL A   1      32.753  21.608  26.129  1.00  0.00     0.302 C 
BRANCH   8   9
ATOM      9  C   UNL A   1      31.927  22.493  25.169  1.00  0.00     0.177 C 
BRANCH   9  10
ATOM     10  C   UNL A   1      31.943  23.965  25.598  1.00  0.00     0.231 C 
ATOM     11  O   UNL A   1      31.693  24.308  26.749  1.00  0.00    -0.274 OA
ATOM     12  N   UNL A   1      32.177  24.812  24.528  1.00  0.00    -0.326 N 
ATOM     13  H   UNL A   1      32.254  24.376  23.648  1.00  0.00     0.169 HD
BRANCH  12  14
ATOM     14  C   UNL A   1      32.319  26.211  24.530  1.00  0.00     0.042 A 
ATOM     15  C   UNL A   1      33.494  26.722  25.101  1.00  0.00     0.026 A 
ATOM     16  C   UNL A   1      31.341  27.093  24.070  1.00  0.00     0.046 A 
ATOM     17  C   UNL A   1      33.691  28.098  25.225  1.00  0.00     0.004 A 
ATOM     18  C   UNL A   1      31.526  28.470  24.238  1.00  0.00     0.043 A 
ATOM     19  C   UNL A   1      32.695  28.976  24.810  1.00  0.00     0.020 A 
ATOM     20  Cl  UNL A   1      30.280  29.567  23.777  1.00  0.00    -0.084 Cl
ENDBRANCH  12  14
ENDBRANCH   9  10
ENDBRANCH   8   9
BRANCH   8  21
ATOM     21  N   UNL A   1      32.570  20.178  25.728  1.00  0.00    -0.332 N 
ATOM     22  H   UNL A   1      31.705  19.848  26.157  1.00  0.00     0.347 HD
ATOM     23  H   UNL A   1      33.418  19.707  26.044  1.00  0.00     0.347 HD
BRANCH  21  24
ATOM     24  C   UNL A   1      32.488  19.884  24.282  1.00  0.00     0.293 C 
BRANCH  24  25
ATOM     25  C   UNL A   1      32.229  18.402  23.932  1.00  0.00     0.173 C 
ATOM     26  C   UNL A   1      33.237  17.705  23.032  1.00  0.00     0.040 C 
ATOM     27  O   UNL A   1      32.153  17.658  25.166  1.00  0.00    -0.372 OA
ATOM     28  C   UNL A   1      33.881  16.642  23.885  1.00  0.00     0.031 C 
ATOM     29  C   UNL A   1      32.940  16.472  25.056  1.00  0.00     0.161 C 
ENDBRANCH  24  25
ENDBRANCH  21  24
ENDBRANCH   8  21
ENDBRANCH   6   8
ENDBRANCH   5   6
ENDBRANCH   4   5
ENDBRANCH   3   4
ENDBRANCH   2   3
ENDBRANCH   1   2
BRANCH   1  30
ATOM     30  C   UNL A   1      40.609  22.130  26.672  1.00  0.00     0.188 C 
BRANCH  30  31
ATOM     31  O   UNL A   1      41.788  21.393  26.883  1.00  0.00    -0.376 OA
BRANCH  31  32
ATOM     32  C   UNL A   1      42.575  20.962  25.785  1.00  0.00     0.202 C 
BRANCH  32  33
ATOM     33  C   UNL A   1      43.817  21.715  25.258  1.00  0.00     0.261 C 
BRANCH  33  34
ATOM     34  O   UNL A   1      44.424  22.698  26.105  1.00  0.00    -0.460 OA
BRANCH  34  35
ATOM     35  C   UNL A   1      44.552  23.949  25.603  1.00  0.00     0.338 C 
ATOM     36  O   UNL A   1      44.972  24.261  24.498  1.00  0.00    -0.246 OA
BRANCH  35  37
ATOM     37  C   UNL A   1      43.856  24.869  26.530  1.00  0.00     0.060 A 
ATOM     38  C   UNL A   1      44.054  26.253  26.394  1.00  0.00     0.016 A 
ATOM     39  C   UNL A   1      42.984  24.376  27.502  1.00  0.00     0.016 A 
ATOM     40  C   UNL A   1      43.392  27.144  27.241  1.00  0.00     0.010 A 
ATOM     41  C   UNL A   1      42.346  25.268  28.369  1.00  0.00     0.010 A 
ATOM     42  C   UNL A   1      42.567  26.654  28.260  1.00  0.00    -0.014 A 
BRANCH  42  43
ATOM     43  C   UNL A   1      42.088  27.561  29.333  1.00  0.00     0.031 A 
ATOM     44  C   UNL A   1      42.816  27.551  30.649  1.00  0.00     0.074 A 
ATOM     45  C   UNL A   1      41.036  28.378  29.153  1.00  0.00     0.049 A 
ATOM     46  N   UNL A   1      42.533  28.176  31.763  1.00  0.00    -0.248 NA
ATOM     47  C   UNL A   1      44.024  26.714  30.717  1.00  0.00     0.031 C 
ATOM     48  C   UNL A   1      40.274  28.517  27.915  1.00  0.00     0.029 A 
ATOM     49  N   UNL A   1      40.416  29.235  30.029  1.00  0.00    -0.354 N 
ATOM     50  C   UNL A   1      43.519  27.798  32.666  1.00  0.00     0.074 A 
ATOM     51  C   UNL A   1      44.388  26.868  31.979  1.00  0.00     0.031 C 
ATOM     52  C   UNL A   1      39.278  29.398  28.114  1.00  0.00     0.029 A 
ATOM     53  C   UNL A   1      39.305  29.850  29.506  1.00  0.00     0.049 A 
ATOM     54  H   UNL A   1      40.738  29.395  30.946  1.00  0.00     0.167 HD
ATOM     55  C   UNL A   1      43.688  28.195  33.950  1.00  0.00     0.037 A 
ATOM     56  C   UNL A   1      38.397  30.655  30.095  1.00  0.00     0.037 A 
ATOM     57  C   UNL A   1      42.819  29.117  34.633  1.00  0.00     0.049 A 
ATOM     58  C   UNL A   1      38.556  31.013  31.553  1.00  0.00     0.074 A 
ATOM     59  C   UNL A   1      42.916  29.594  35.928  1.00  0.00     0.029 A 
ATOM     60  N   UNL A   1      41.686  29.694  34.078  1.00  0.00    -0.354 N 
ATOM     61  N   UNL A   1      39.502  30.671  32.395  1.00  0.00    -0.248 NA
ATOM     62  C   UNL A   1      37.519  31.873  32.141  1.00  0.00     0.031 C 
ATOM     63  C   UNL A   1      41.807  30.407  36.179  1.00  0.00     0.029 A 
ATOM     64  C   UNL A   1      41.057  30.496  35.018  1.00  0.00     0.049 A 
ATOM     65  H   UNL A   1      41.374  29.554  33.155  1.00  0.00     0.167 HD
ATOM     66  C   UNL A   1      39.192  31.298  33.597  1.00  0.00     0.074 A 
ATOM     67  C   UNL A   1      37.978  32.054  33.371  1.00  0.00     0.031 C 
ATOM     68  C   UNL A   1      39.854  31.254  34.780  1.00  0.00     0.037 A 
BRANCH  55  69
ATOM     69  C   UNL A   1      44.838  27.604  34.713  1.00  0.00     0.064 A 
ATOM     70  C   UNL A   1      46.087  28.239  34.780  1.00  0.00     0.173 A 
ATOM     71  C   UNL A   1      44.677  26.398  35.412  1.00  0.00     0.173 A 
ATOM     72  F   UNL A   1      46.299  29.387  34.118  1.00  0.00    -0.203 F 
ATOM     73  C   UNL A   1      47.140  27.675  35.496  1.00  0.00     0.198 A 
ATOM     74  C   UNL A   1      45.721  25.855  36.155  1.00  0.00     0.198 A 
ATOM     75  F   UNL A   1      43.503  25.751  35.384  1.00  0.00    -0.203 F 
ATOM     76  F   UNL A   1      48.339  28.273  35.505  1.00  0.00    -0.200 F 
ATOM     77  C   UNL A   1      46.953  26.489  36.191  1.00  0.00     0.200 A 
ATOM     78  F   UNL A   1      45.533  24.717  36.839  1.00  0.00    -0.200 F 
ATOM     79  F   UNL A   1      47.964  25.952  36.888  1.00  0.00    -0.200 F 
ENDBRANCH  55  69
BRANCH  56  80
ATOM     80  C   UNL A   1      37.236  31.167  29.316  1.00  0.00     0.064 A 
ATOM     81  C   UNL A   1      37.154  32.515  28.942  1.00  0.00     0.173 A 
ATOM     82  C   UNL A   1      36.169  30.328  28.963  1.00  0.00     0.173 A 
ATOM     83  F   UNL A   1      38.135  33.365  29.281  1.00  0.00    -0.203 F 
ATOM     84  C   UNL A   1      36.040  33.009  28.265  1.00  0.00     0.198 A 
ATOM     85  C   UNL A   1      35.071  30.816  28.257  1.00  0.00     0.198 A 
ATOM     86  F   UNL A   1      36.193  29.030  29.301  1.00  0.00    -0.203 F 
ATOM     87  F   UNL A   1      35.963  34.313  27.970  1.00  0.00    -0.200 F 
ATOM     88  C   UNL A   1      35.004  32.158  27.917  1.00  0.00     0.200 A 
ATOM     89  F   UNL A   1      34.077  29.986  27.912  1.00  0.00    -0.200 F 
ATOM     90  F   UNL A   1      33.933  32.632  27.264  1.00  0.00    -0.200 F 
ENDBRANCH  56  80
BRANCH  68  91
ATOM     91  C   UNL A   1      39.313  32.081  35.914  1.00  0.00     0.064 A 
ATOM     92  C   UNL A   1      39.687  33.420  36.102  1.00  0.00     0.173 A 
ATOM     93  C   UNL A   1      38.371  31.536  36.802  1.00  0.00     0.173 A 
ATOM     94  F   UNL A   1      40.593  33.988  35.290  1.00  0.00    -0.203 F 
ATOM     95  C   UNL A   1      39.163  34.172  37.151  1.00  0.00     0.198 A 
ATOM     96  C   UNL A   1      37.822  32.301  37.827  1.00  0.00     0.198 A 
ATOM     97  F   UNL A   1      37.970  30.263  36.665  1.00  0.00    -0.203 F 
ATOM     98  F   UNL A   1      39.577  35.432  37.341  1.00  0.00    -0.200 F 
ATOM     99  C   UNL A   1      38.225  33.615  38.008  1.00  0.00     0.200 A 
ATOM    100  F   UNL A   1      36.901  31.766  38.642  1.00  0.00    -0.200 F 
ATOM    101  F   UNL A   1      37.715  34.342  39.011  1.00  0.00    -0.200 F 
ENDBRANCH  68  91
ENDBRANCH  42  43
ENDBRANCH  35  37
ENDBRANCH  34  35
ENDBRANCH  33  34
ENDBRANCH  32  33
ENDBRANCH  31  32
ENDBRANCH  30  31
ENDBRANCH   1  30
TORSDOF 23
ENDMDL
