MODEL 1
REMARK VINA RESULT:      -9.1      0.000      0.000
REMARK SMILES CCCC[C@@H](C(=O)OCCOCCOCCOC(=O)c1ccc(-c2c3nc(c(-c4c(F)c(F)c(F)c(F)c4F)c4ccc([nH]4)c(-c4c(F)c(F)c(F)c(F)c4F)c4nc(c(-c5c(F)c(F)c(F)c(F)c5F)c5ccc2[nH]5)C=C4)C=C3)cc1)[C@]1(O)COc2cc(O)ccc21
REMARK SMILES IDX 12 1 11 2 10 3 9 4 8 5 6 6 7 7 5 8 4 9 3 10 2 11 1 12 83 13
REMARK SMILES IDX 85 14 93 15 86 16 87 17 92 18 88 19 91 20 89 21 84 22 90 24
REMARK SMILES IDX 13 26 14 27 15 28 16 29 17 30 18 31 19 32 20 33 21 34 82 35
REMARK SMILES IDX 22 36 81 37 23 38 24 39 25 40 75 41 26 42 80 43 74 44 76 45
REMARK SMILES IDX 27 46 79 47 73 48 72 49 28 51 60 52 40 53 59 54 41 55 44 56
REMARK SMILES IDX 58 57 77 58 42 59 43 60 57 62 78 63 45 64 29 65 30 66 38 67
REMARK SMILES IDX 31 68 32 69 36 70 39 71 33 72 34 73 37 74 35 75 61 76 62 77
REMARK SMILES IDX 70 78 63 79 64 80 68 81 71 82 65 83 66 84 69 85 67 86 46 87
REMARK SMILES IDX 47 88 55 89 48 90 49 91 53 92 56 93 50 94 51 95 54 96 52 97
REMARK H PARENT 84 23 90 25 76 50 44 61
REMARK Flexibility Score: inf
ROOT
ATOM      1  C   UNL A   1      32.527  36.351  29.943  1.00  0.00     0.188 C 
ENDROOT
BRANCH   1   2
ATOM      2  O   UNL A   1      32.381  37.071  31.162  1.00  0.00    -0.376 OA
BRANCH   2   3
ATOM      3  C   UNL A   1      33.589  37.339  31.866  1.00  0.00     0.202 C 
BRANCH   3   4
ATOM      4  C   UNL A   1      33.859  36.360  33.008  1.00  0.00     0.261 C 
BRANCH   4   5
ATOM      5  O   UNL A   1      35.261  36.027  33.061  1.00  0.00    -0.463 OA
BRANCH   5   6
ATOM      6  C   UNL A   1      35.647  34.751  32.880  1.00  0.00     0.312 C 
ATOM      7  O   UNL A   1      34.952  33.875  32.379  1.00  0.00    -0.252 OA
BRANCH   6   8
ATOM      8  C   UNL A   1      37.083  34.512  33.333  1.00  0.00     0.139 C 
BRANCH   8   9
ATOM      9  C   UNL A   1      38.134  34.374  32.199  1.00  0.00     0.019 C 
BRANCH   9  10
ATOM     10  C   UNL A   1      37.777  33.554  30.947  1.00  0.00     0.001 C 
BRANCH  10  11
ATOM     11  C   UNL A   1      37.894  34.267  29.605  1.00  0.00    -0.003 C 
ATOM     12  C   UNL A   1      39.335  34.476  29.171  1.00  0.00     0.004 C 
ENDBRANCH  10  11
ENDBRANCH   9  10
ENDBRANCH   8   9
BRANCH   8  13
ATOM     13  C   UNL A   1      37.179  33.428  34.467  1.00  0.00     0.140 C 
ATOM     14  C   UNL A   1      38.209  33.669  35.608  1.00  0.00     0.270 C 
ATOM     15  C   UNL A   1      37.676  32.061  34.088  1.00  0.00     0.030 A 
ATOM     16  O   UNL A   1      39.425  32.944  35.311  1.00  0.00    -0.490 OA
ATOM     17  C   UNL A   1      38.954  31.867  34.605  1.00  0.00     0.129 A 
ATOM     18  C   UNL A   1      37.077  31.052  33.345  1.00  0.00     0.014 A 
ATOM     19  C   UNL A   1      39.682  30.714  34.383  1.00  0.00     0.093 A 
ATOM     20  C   UNL A   1      37.792  29.870  33.110  1.00  0.00     0.047 A 
ATOM     21  C   UNL A   1      39.085  29.715  33.622  1.00  0.00     0.119 A 
BRANCH  13  22
ATOM     22  O   UNL A   1      35.887  33.313  35.080  1.00  0.00    -0.381 OA
ATOM     23  H   UNL A   1      35.208  33.640  34.469  1.00  0.00     0.212 HD
ENDBRANCH  13  22
BRANCH  21  24
ATOM     24  O   UNL A   1      39.808  28.583  33.385  1.00  0.00    -0.508 OA
ATOM     25  H   UNL A   1      40.561  28.616  32.828  1.00  0.00     0.293 HD
ENDBRANCH  21  24
ENDBRANCH   8  13
ENDBRANCH   6   8
ENDBRANCH   5   6
ENDBRANCH   4   5
ENDBRANCH   3   4
ENDBRANCH   2   3
ENDBRANCH   1   2
BRANCH   1  26
ATOM     26  C   UNL A   1      33.992  36.160  29.516  1.00  0.00     0.188 C 
BRANCH  26  27
ATOM     27  O   UNL A   1      34.329  35.808  28.180  1.00  0.00    -0.376 OA
BRANCH  27  28
ATOM     28  C   UNL A   1      34.709  34.474  27.906  1.00  0.00     0.202 C 
BRANCH  28  29
ATOM     29  C   UNL A   1      34.036  33.389  28.754  1.00  0.00     0.261 C 
BRANCH  29  30
ATOM     30  O   UNL A   1      34.907  32.312  29.141  1.00  0.00    -0.460 OA
BRANCH  30  31
ATOM     31  C   UNL A   1      34.724  31.157  28.457  1.00  0.00     0.338 C 
ATOM     32  O   UNL A   1      33.736  30.832  27.814  1.00  0.00    -0.246 OA
BRANCH  31  33
ATOM     33  C   UNL A   1      35.955  30.334  28.469  1.00  0.00     0.060 A 
ATOM     34  C   UNL A   1      36.286  29.683  29.666  1.00  0.00     0.016 A 
ATOM     35  C   UNL A   1      36.823  30.272  27.376  1.00  0.00     0.016 A 
ATOM     36  C   UNL A   1      37.509  29.027  29.797  1.00  0.00     0.010 A 
ATOM     37  C   UNL A   1      38.063  29.630  27.516  1.00  0.00     0.010 A 
ATOM     38  C   UNL A   1      38.430  29.047  28.743  1.00  0.00    -0.014 A 
BRANCH  38  39
ATOM     39  C   UNL A   1      39.843  28.676  29.020  1.00  0.00     0.031 A 
ATOM     40  C   UNL A   1      40.678  29.620  29.845  1.00  0.00     0.074 A 
ATOM     41  C   UNL A   1      40.371  27.512  28.606  1.00  0.00     0.049 A 
ATOM     42  N   UNL A   1      41.916  29.500  30.255  1.00  0.00    -0.248 NA
ATOM     43  C   UNL A   1      40.022  30.867  30.269  1.00  0.00     0.031 C 
ATOM     44  C   UNL A   1      39.668  26.489  27.840  1.00  0.00     0.029 A 
ATOM     45  N   UNL A   1      41.634  26.997  28.779  1.00  0.00    -0.354 N 
ATOM     46  C   UNL A   1      42.180  30.646  30.995  1.00  0.00     0.074 A 
ATOM     47  C   UNL A   1      40.989  31.466  30.947  1.00  0.00     0.031 C 
ATOM     48  C   UNL A   1      40.513  25.472  27.592  1.00  0.00     0.029 A 
ATOM     49  C   UNL A   1      41.820  25.780  28.172  1.00  0.00     0.049 A 
ATOM     50  H   UNL A   1      42.338  27.458  29.290  1.00  0.00     0.167 HD
ATOM     51  C   UNL A   1      43.306  30.982  31.666  1.00  0.00     0.037 A 
ATOM     52  C   UNL A   1      42.923  25.009  28.090  1.00  0.00     0.037 A 
ATOM     53  C   UNL A   1      44.504  30.186  31.701  1.00  0.00     0.049 A 
ATOM     54  C   UNL A   1      44.195  25.446  28.777  1.00  0.00     0.074 A 
ATOM     55  C   UNL A   1      45.697  30.448  32.354  1.00  0.00     0.029 A 
ATOM     56  N   UNL A   1      44.667  28.977  31.042  1.00  0.00    -0.354 N 
ATOM     57  N   UNL A   1      44.422  26.509  29.509  1.00  0.00    -0.248 NA
ATOM     58  C   UNL A   1      45.363  24.564  28.630  1.00  0.00     0.031 C 
ATOM     59  C   UNL A   1      46.598  29.422  32.050  1.00  0.00     0.029 A 
ATOM     60  C   UNL A   1      45.948  28.493  31.253  1.00  0.00     0.049 A 
ATOM     61  H   UNL A   1      43.974  28.529  30.506  1.00  0.00     0.167 HD
ATOM     62  C   UNL A   1      45.740  26.404  29.939  1.00  0.00     0.074 A 
ATOM     63  C   UNL A   1      46.261  25.169  29.395  1.00  0.00     0.031 C 
ATOM     64  C   UNL A   1      46.455  27.255  30.718  1.00  0.00     0.037 A 
BRANCH  51  65
ATOM     65  C   UNL A   1      43.300  32.291  32.398  1.00  0.00     0.064 A 
ATOM     66  C   UNL A   1      43.010  32.364  33.769  1.00  0.00     0.173 A 
ATOM     67  C   UNL A   1      43.603  33.483  31.724  1.00  0.00     0.173 A 
ATOM     68  F   UNL A   1      42.699  31.253  34.453  1.00  0.00    -0.203 F 
ATOM     69  C   UNL A   1      42.996  33.588  34.432  1.00  0.00     0.198 A 
ATOM     70  C   UNL A   1      43.613  34.702  32.398  1.00  0.00     0.198 A 
ATOM     71  F   UNL A   1      43.888  33.467  30.414  1.00  0.00    -0.203 F 
ATOM     72  F   UNL A   1      42.668  33.640  35.732  1.00  0.00    -0.200 F 
ATOM     73  C   UNL A   1      43.303  34.754  33.748  1.00  0.00     0.200 A 
ATOM     74  F   UNL A   1      43.921  35.827  31.737  1.00  0.00    -0.200 F 
ATOM     75  F   UNL A   1      43.291  35.931  34.389  1.00  0.00    -0.200 F 
ENDBRANCH  51  65
BRANCH  52  76
ATOM     76  C   UNL A   1      42.890  23.735  27.326  1.00  0.00     0.064 A 
ATOM     77  C   UNL A   1      42.474  22.539  27.929  1.00  0.00     0.173 A 
ATOM     78  C   UNL A   1      43.322  23.678  25.993  1.00  0.00     0.173 A 
ATOM     79  F   UNL A   1      42.083  22.537  29.211  1.00  0.00    -0.203 F 
ATOM     80  C   UNL A   1      42.519  21.331  27.235  1.00  0.00     0.198 A 
ATOM     81  C   UNL A   1      43.339  22.474  25.292  1.00  0.00     0.198 A 
ATOM     82  F   UNL A   1      43.740  24.791  25.374  1.00  0.00    -0.203 F 
ATOM     83  F   UNL A   1      42.173  20.193  27.854  1.00  0.00    -0.200 F 
ATOM     84  C   UNL A   1      42.946  21.301  25.917  1.00  0.00     0.200 A 
ATOM     85  F   UNL A   1      43.750  22.449  24.017  1.00  0.00    -0.200 F 
ATOM     86  F   UNL A   1      42.996  20.137  25.254  1.00  0.00    -0.200 F 
ENDBRANCH  52  76
BRANCH  64  87
ATOM     87  C   UNL A   1      47.862  26.860  31.069  1.00  0.00     0.064 A 
ATOM     88  C   UNL A   1      48.959  27.257  30.290  1.00  0.00     0.173 A 
ATOM     89  C   UNL A   1      48.119  26.101  32.222  1.00  0.00     0.173 A 
ATOM     90  F   UNL A   1      48.770  27.972  29.171  1.00  0.00    -0.203 F 
ATOM     91  C   UNL A   1      50.255  26.880  30.633  1.00  0.00     0.198 A 
ATOM     92  C   UNL A   1      49.418  25.753  32.579  1.00  0.00     0.198 A 
ATOM     93  F   UNL A   1      47.107  25.703  33.009  1.00  0.00    -0.203 F 
ATOM     94  F   UNL A   1      51.283  27.225  29.844  1.00  0.00    -0.200 F 
ATOM     95  C   UNL A   1      50.485  26.135  31.780  1.00  0.00     0.200 A 
ATOM     96  F   UNL A   1      49.639  25.046  33.696  1.00  0.00    -0.200 F 
ATOM     97  F   UNL A   1      51.733  25.776  32.110  1.00  0.00    -0.200 F 
ENDBRANCH  64  87
ENDBRANCH  38  39
ENDBRANCH  31  33
ENDBRANCH  30  31
ENDBRANCH  29  30
ENDBRANCH  28  29
ENDBRANCH  27  28
ENDBRANCH  26  27
ENDBRANCH   1  26
TORSDOF 23
ENDMDL
MODEL 2
REMARK VINA RESULT:      -9.1      5.246     11.093
REMARK SMILES CCCC[C@@H](C(=O)OCCOCCOCCOC(=O)c1ccc(-c2c3nc(c(-c4c(F)c(F)c(F)c(F)c4F)c4ccc([nH]4)c(-c4c(F)c(F)c(F)c(F)c4F)c4nc(c(-c5c(F)c(F)c(F)c(F)c5F)c5ccc2[nH]5)C=C4)C=C3)cc1)[C@]1(O)COc2cc(O)ccc21
REMARK SMILES IDX 12 1 11 2 10 3 9 4 8 5 6 6 7 7 5 8 4 9 3 10 2 11 1 12 83 13
REMARK SMILES IDX 85 14 93 15 86 16 87 17 92 18 88 19 91 20 89 21 84 22 90 24
REMARK SMILES IDX 13 26 14 27 15 28 16 29 17 30 18 31 19 32 20 33 21 34 82 35
REMARK SMILES IDX 22 36 81 37 23 38 24 39 25 40 75 41 26 42 80 43 74 44 76 45
REMARK SMILES IDX 27 46 79 47 73 48 72 49 28 51 60 52 40 53 59 54 41 55 44 56
REMARK SMILES IDX 58 57 77 58 42 59 43 60 57 62 78 63 45 64 29 65 30 66 38 67
REMARK SMILES IDX 31 68 32 69 36 70 39 71 33 72 34 73 37 74 35 75 61 76 62 77
REMARK SMILES IDX 70 78 63 79 64 80 68 81 71 82 65 83 66 84 69 85 67 86 46 87
REMARK SMILES IDX 47 88 55 89 48 90 49 91 53 92 56 93 50 94 51 95 54 96 52 97
REMARK H PARENT 84 23 90 25 76 50 44 61
REMARK Flexibility Score: inf
ROOT
ATOM      1  C   UNL A   1      34.439  20.230  24.930  1.00  0.00     0.188 C 
ENDROOT
BRANCH   1   2
ATOM      2  O   UNL A   1      33.526  21.320  24.879  1.00  0.00    -0.376 OA
BRANCH   2   3
ATOM      3  C   UNL A   1      32.337  21.092  24.129  1.00  0.00     0.202 C 
BRANCH   3   4
ATOM      4  C   UNL A   1      32.108  22.119  23.021  1.00  0.00     0.261 C 
BRANCH   4   5
ATOM      5  O   UNL A   1      33.346  22.778  22.686  1.00  0.00    -0.463 OA
BRANCH   5   6
ATOM      6  C   UNL A   1      33.496  24.088  22.961  1.00  0.00     0.312 C 
ATOM      7  O   UNL A   1      34.434  24.778  22.582  1.00  0.00    -0.252 OA
BRANCH   6   8
ATOM      8  C   UNL A   1      32.332  24.644  23.773  1.00  0.00     0.139 C 
BRANCH   8   9
ATOM      9  C   UNL A   1      31.597  25.862  23.151  1.00  0.00     0.019 C 
BRANCH   9  10
ATOM     10  C   UNL A   1      30.084  26.019  23.383  1.00  0.00     0.001 C 
BRANCH  10  11
ATOM     11  C   UNL A   1      29.600  27.390  23.840  1.00  0.00    -0.003 C 
ATOM     12  C   UNL A   1      30.645  28.477  23.655  1.00  0.00     0.004 C 
ENDBRANCH  10  11
ENDBRANCH   9  10
ENDBRANCH   8   9
BRANCH   8  13
ATOM     13  C   UNL A   1      32.682  24.784  25.299  1.00  0.00     0.140 C 
ATOM     14  C   UNL A   1      31.592  24.368  26.329  1.00  0.00     0.270 C 
ATOM     15  C   UNL A   1      32.896  26.169  25.843  1.00  0.00     0.030 A 
ATOM     16  O   UNL A   1      30.869  25.545  26.758  1.00  0.00    -0.490 OA
ATOM     17  C   UNL A   1      31.825  26.522  26.659  1.00  0.00     0.129 A 
ATOM     18  C   UNL A   1      33.936  27.068  25.649  1.00  0.00     0.014 A 
ATOM     19  C   UNL A   1      31.727  27.759  27.269  1.00  0.00     0.093 A 
ATOM     20  C   UNL A   1      33.864  28.328  26.261  1.00  0.00     0.047 A 
ATOM     21  C   UNL A   1      32.762  28.662  27.055  1.00  0.00     0.119 A 
BRANCH  13  22
ATOM     22  O   UNL A   1      33.843  23.983  25.563  1.00  0.00    -0.381 OA
ATOM     23  H   UNL A   1      34.363  24.391  26.272  1.00  0.00     0.212 HD
ENDBRANCH  13  22
BRANCH  21  24
ATOM     24  O   UNL A   1      32.659  29.891  27.639  1.00  0.00    -0.508 OA
ATOM     25  H   UNL A   1      32.607  29.963  28.572  1.00  0.00     0.293 HD
ENDBRANCH  21  24
ENDBRANCH   8  13
ENDBRANCH   6   8
ENDBRANCH   5   6
ENDBRANCH   4   5
ENDBRANCH   3   4
ENDBRANCH   2   3
ENDBRANCH   1   2
BRANCH   1  26
ATOM     26  C   UNL A   1      35.906  20.650  24.739  1.00  0.00     0.188 C 
BRANCH  26  27
ATOM     27  O   UNL A   1      36.968  19.877  25.282  1.00  0.00    -0.376 OA
BRANCH  27  28
ATOM     28  C   UNL A   1      38.300  20.261  24.997  1.00  0.00     0.202 C 
BRANCH  28  29
ATOM     29  C   UNL A   1      39.401  19.488  25.729  1.00  0.00     0.261 C 
BRANCH  29  30
ATOM     30  O   UNL A   1      40.739  19.875  25.370  1.00  0.00    -0.460 OA
BRANCH  30  31
ATOM     31  C   UNL A   1      41.589  20.026  26.414  1.00  0.00     0.338 C 
ATOM     32  O   UNL A   1      42.390  19.204  26.835  1.00  0.00    -0.246 OA
BRANCH  31  33
ATOM     33  C   UNL A   1      41.531  21.406  26.949  1.00  0.00     0.060 A 
ATOM     34  C   UNL A   1      41.062  22.412  26.091  1.00  0.00     0.016 A 
ATOM     35  C   UNL A   1      42.013  21.737  28.218  1.00  0.00     0.016 A 
ATOM     36  C   UNL A   1      41.134  23.752  26.471  1.00  0.00     0.010 A 
ATOM     37  C   UNL A   1      42.105  23.087  28.589  1.00  0.00     0.010 A 
ATOM     38  C   UNL A   1      41.711  24.102  27.698  1.00  0.00    -0.014 A 
BRANCH  38  39
ATOM     39  C   UNL A   1      42.112  25.515  27.923  1.00  0.00     0.031 A 
ATOM     40  C   UNL A   1      43.452  25.965  27.400  1.00  0.00     0.074 A 
ATOM     41  C   UNL A   1      41.302  26.403  28.523  1.00  0.00     0.049 A 
ATOM     42  N   UNL A   1      44.005  27.152  27.434  1.00  0.00    -0.248 NA
ATOM     43  C   UNL A   1      44.274  24.936  26.745  1.00  0.00     0.031 C 
ATOM     44  C   UNL A   1      39.967  26.117  29.037  1.00  0.00     0.029 A 
ATOM     45  N   UNL A   1      41.492  27.736  28.799  1.00  0.00    -0.354 N 
ATOM     46  C   UNL A   1      45.231  27.014  26.794  1.00  0.00     0.074 A 
ATOM     47  C   UNL A   1      45.357  25.622  26.415  1.00  0.00     0.031 C 
ATOM     48  C   UNL A   1      39.460  27.237  29.583  1.00  0.00     0.029 A 
ATOM     49  C   UNL A   1      40.442  28.315  29.467  1.00  0.00     0.049 A 
ATOM     50  H   UNL A   1      42.304  28.228  28.542  1.00  0.00     0.167 HD
ATOM     51  C   UNL A   1      46.163  27.959  26.531  1.00  0.00     0.037 A 
ATOM     52  C   UNL A   1      40.297  29.570  29.937  1.00  0.00     0.037 A 
ATOM     53  C   UNL A   1      46.059  29.339  26.923  1.00  0.00     0.049 A 
ATOM     54  C   UNL A   1      41.389  30.587  29.706  1.00  0.00     0.074 A 
ATOM     55  C   UNL A   1      46.957  30.370  26.702  1.00  0.00     0.029 A 
ATOM     56  N   UNL A   1      44.997  29.879  27.632  1.00  0.00    -0.354 N 
ATOM     57  N   UNL A   1      42.523  30.458  29.063  1.00  0.00    -0.248 NA
ATOM     58  C   UNL A   1      41.170  31.931  30.262  1.00  0.00     0.031 C 
ATOM     59  C   UNL A   1      46.461  31.523  27.321  1.00  0.00     0.029 A 
ATOM     60  C   UNL A   1      45.228  31.223  27.879  1.00  0.00     0.049 A 
ATOM     61  H   UNL A   1      44.198  29.382  27.917  1.00  0.00     0.167 HD
ATOM     62  C   UNL A   1      43.132  31.707  29.104  1.00  0.00     0.074 A 
ATOM     63  C   UNL A   1      42.237  32.585  29.827  1.00  0.00     0.031 C 
ATOM     64  C   UNL A   1      44.326  32.093  28.588  1.00  0.00     0.037 A 
BRANCH  51  65
ATOM     65  C   UNL A   1      47.398  27.517  25.803  1.00  0.00     0.064 A 
ATOM     66  C   UNL A   1      47.485  27.575  24.404  1.00  0.00     0.173 A 
ATOM     67  C   UNL A   1      48.511  27.045  26.513  1.00  0.00     0.173 A 
ATOM     68  F   UNL A   1      46.440  28.004  23.679  1.00  0.00    -0.203 F 
ATOM     69  C   UNL A   1      48.633  27.150  23.741  1.00  0.00     0.198 A 
ATOM     70  C   UNL A   1      49.667  26.646  25.848  1.00  0.00     0.198 A 
ATOM     71  F   UNL A   1      48.479  26.971  27.852  1.00  0.00    -0.203 F 
ATOM     72  F   UNL A   1      48.676  27.168  22.401  1.00  0.00    -0.200 F 
ATOM     73  C   UNL A   1      49.724  26.691  24.464  1.00  0.00     0.200 A 
ATOM     74  F   UNL A   1      50.724  26.212  26.547  1.00  0.00    -0.200 F 
ATOM     75  F   UNL A   1      50.829  26.285  23.824  1.00  0.00    -0.200 F 
ENDBRANCH  51  65
BRANCH  52  76
ATOM     76  C   UNL A   1      39.068  29.952  30.682  1.00  0.00     0.064 A 
ATOM     77  C   UNL A   1      37.971  30.525  30.023  1.00  0.00     0.173 A 
ATOM     78  C   UNL A   1      38.988  29.801  32.073  1.00  0.00     0.173 A 
ATOM     79  F   UNL A   1      38.013  30.721  28.697  1.00  0.00    -0.203 F 
ATOM     80  C   UNL A   1      36.852  30.956  30.732  1.00  0.00     0.198 A 
ATOM     81  C   UNL A   1      37.857  30.206  32.778  1.00  0.00     0.198 A 
ATOM     82  F   UNL A   1      40.015  29.269  32.752  1.00  0.00    -0.203 F 
ATOM     83  F   UNL A   1      35.842  31.555  30.086  1.00  0.00    -0.200 F 
ATOM     84  C   UNL A   1      36.794  30.792  32.108  1.00  0.00     0.200 A 
ATOM     85  F   UNL A   1      37.803  30.044  34.107  1.00  0.00    -0.200 F 
ATOM     86  F   UNL A   1      35.720  31.214  32.790  1.00  0.00    -0.200 F 
ENDBRANCH  52  76
BRANCH  64  87
ATOM     87  C   UNL A   1      44.716  33.537  28.741  1.00  0.00     0.064 A 
ATOM     88  C   UNL A   1      45.476  33.987  29.831  1.00  0.00     0.173 A 
ATOM     89  C   UNL A   1      44.350  34.478  27.766  1.00  0.00     0.173 A 
ATOM     90  F   UNL A   1      45.841  33.133  30.798  1.00  0.00    -0.203 F 
ATOM     91  C   UNL A   1      45.826  35.330  29.954  1.00  0.00     0.198 A 
ATOM     92  C   UNL A   1      44.729  35.812  27.875  1.00  0.00     0.198 A 
ATOM     93  F   UNL A   1      43.631  34.100  26.697  1.00  0.00    -0.203 F 
ATOM     94  F   UNL A   1      46.507  35.746  31.032  1.00  0.00    -0.200 F 
ATOM     95  C   UNL A   1      45.459  36.239  28.974  1.00  0.00     0.200 A 
ATOM     96  F   UNL A   1      44.386  36.687  26.920  1.00  0.00    -0.200 F 
ATOM     97  F   UNL A   1      45.801  37.530  29.093  1.00  0.00    -0.200 F 
ENDBRANCH  64  87
ENDBRANCH  38  39
ENDBRANCH  31  33
ENDBRANCH  30  31
ENDBRANCH  29  30
ENDBRANCH  28  29
ENDBRANCH  27  28
ENDBRANCH  26  27
ENDBRANCH   1  26
TORSDOF 23
ENDMDL
MODEL 3
REMARK VINA RESULT:      -9.0      4.976     11.368
REMARK SMILES CCCC[C@@H](C(=O)OCCOCCOCCOC(=O)c1ccc(-c2c3nc(c(-c4c(F)c(F)c(F)c(F)c4F)c4ccc([nH]4)c(-c4c(F)c(F)c(F)c(F)c4F)c4nc(c(-c5c(F)c(F)c(F)c(F)c5F)c5ccc2[nH]5)C=C4)C=C3)cc1)[C@]1(O)COc2cc(O)ccc21
REMARK SMILES IDX 12 1 11 2 10 3 9 4 8 5 6 6 7 7 5 8 4 9 3 10 2 11 1 12 83 13
REMARK SMILES IDX 85 14 93 15 86 16 87 17 92 18 88 19 91 20 89 21 84 22 90 24
REMARK SMILES IDX 13 26 14 27 15 28 16 29 17 30 18 31 19 32 20 33 21 34 82 35
REMARK SMILES IDX 22 36 81 37 23 38 24 39 25 40 75 41 26 42 80 43 74 44 76 45
REMARK SMILES IDX 27 46 79 47 73 48 72 49 28 51 60 52 40 53 59 54 41 55 44 56
REMARK SMILES IDX 58 57 77 58 42 59 43 60 57 62 78 63 45 64 29 65 30 66 38 67
REMARK SMILES IDX 31 68 32 69 36 70 39 71 33 72 34 73 37 74 35 75 61 76 62 77
REMARK SMILES IDX 70 78 63 79 64 80 68 81 71 82 65 83 66 84 69 85 67 86 46 87
REMARK SMILES IDX 47 88 55 89 48 90 49 91 53 92 56 93 50 94 51 95 54 96 52 97
REMARK H PARENT 84 23 90 25 76 50 44 61
REMARK Flexibility Score: inf
ROOT
ATOM      1  C   UNL A   1      38.508  20.686  25.379  1.00  0.00     0.188 C 
ENDROOT
BRANCH   1   2
ATOM      2  O   UNL A   1      37.336  21.485  25.493  1.00  0.00    -0.376 OA
BRANCH   2   3
ATOM      3  C   UNL A   1      37.508  22.871  25.215  1.00  0.00     0.202 C 
BRANCH   3   4
ATOM      4  C   UNL A   1      36.671  23.781  26.112  1.00  0.00     0.261 C 
BRANCH   4   5
ATOM      5  O   UNL A   1      35.621  24.408  25.348  1.00  0.00    -0.463 OA
BRANCH   5   6
ATOM      6  C   UNL A   1      34.345  24.307  25.766  1.00  0.00     0.312 C 
ATOM      7  O   UNL A   1      33.905  23.390  26.448  1.00  0.00    -0.252 OA
BRANCH   6   8
ATOM      8  C   UNL A   1      33.499  25.497  25.329  1.00  0.00     0.139 C 
BRANCH   8   9
ATOM      9  C   UNL A   1      32.678  26.188  26.451  1.00  0.00     0.019 C 
BRANCH   9  10
ATOM     10  C   UNL A   1      32.851  27.701  26.679  1.00  0.00     0.001 C 
BRANCH  10  11
ATOM     11  C   UNL A   1      33.793  28.433  25.730  1.00  0.00    -0.003 C 
ATOM     12  C   UNL A   1      33.080  29.458  24.865  1.00  0.00     0.004 C 
ENDBRANCH  10  11
ENDBRANCH   9  10
ENDBRANCH   8   9
BRANCH   8  13
ATOM     13  C   UNL A   1      32.706  25.211  24.003  1.00  0.00     0.140 C 
ATOM     14  C   UNL A   1      33.475  25.358  22.658  1.00  0.00     0.270 C 
ATOM     15  C   UNL A   1      31.579  26.141  23.646  1.00  0.00     0.030 A 
ATOM     16  O   UNL A   1      33.215  26.669  22.104  1.00  0.00    -0.490 OA
ATOM     17  C   UNL A   1      31.949  26.930  22.561  1.00  0.00     0.129 A 
ATOM     18  C   UNL A   1      30.323  26.303  24.216  1.00  0.00     0.014 A 
ATOM     19  C   UNL A   1      31.127  27.909  22.035  1.00  0.00     0.093 A 
ATOM     20  C   UNL A   1      29.468  27.285  23.698  1.00  0.00     0.047 A 
ATOM     21  C   UNL A   1      29.879  28.080  22.622  1.00  0.00     0.119 A 
BRANCH  13  22
ATOM     22  O   UNL A   1      32.213  23.865  24.063  1.00  0.00    -0.381 OA
ATOM     23  H   UNL A   1      32.752  23.297  23.491  1.00  0.00     0.212 HD
ENDBRANCH  13  22
BRANCH  21  24
ATOM     24  O   UNL A   1      29.072  29.059  22.118  1.00  0.00    -0.508 OA
ATOM     25  H   UNL A   1      28.458  28.856  21.440  1.00  0.00     0.293 HD
ENDBRANCH  21  24
ENDBRANCH   8  13
ENDBRANCH   6   8
ENDBRANCH   5   6
ENDBRANCH   4   5
ENDBRANCH   3   4
ENDBRANCH   2   3
ENDBRANCH   1   2
BRANCH   1  26
ATOM     26  C   UNL A   1      39.749  21.321  26.028  1.00  0.00     0.188 C 
BRANCH  26  27
ATOM     27  O   UNL A   1      40.983  20.617  26.099  1.00  0.00    -0.376 OA
BRANCH  27  28
ATOM     28  C   UNL A   1      42.107  21.275  26.651  1.00  0.00     0.202 C 
BRANCH  28  29
ATOM     29  C   UNL A   1      43.157  21.777  25.656  1.00  0.00     0.261 C 
BRANCH  29  30
ATOM     30  O   UNL A   1      42.717  22.866  24.826  1.00  0.00    -0.460 OA
BRANCH  30  31
ATOM     31  C   UNL A   1      43.450  24.001  24.940  1.00  0.00     0.338 C 
ATOM     32  O   UNL A   1      44.528  24.236  24.412  1.00  0.00    -0.246 OA
BRANCH  31  33
ATOM     33  C   UNL A   1      42.716  25.030  25.711  1.00  0.00     0.060 A 
ATOM     34  C   UNL A   1      43.389  26.226  25.996  1.00  0.00     0.016 A 
ATOM     35  C   UNL A   1      41.438  24.804  26.232  1.00  0.00     0.016 A 
ATOM     36  C   UNL A   1      42.821  27.168  26.853  1.00  0.00     0.010 A 
ATOM     37  C   UNL A   1      40.878  25.743  27.111  1.00  0.00     0.010 A 
ATOM     38  C   UNL A   1      41.588  26.906  27.462  1.00  0.00    -0.014 A 
BRANCH  38  39
ATOM     39  C   UNL A   1      41.178  27.727  28.632  1.00  0.00     0.031 A 
ATOM     40  C   UNL A   1      41.986  27.613  29.898  1.00  0.00     0.074 A 
ATOM     41  C   UNL A   1      40.155  28.596  28.574  1.00  0.00     0.049 A 
ATOM     42  N   UNL A   1      41.855  28.254  31.033  1.00  0.00    -0.248 NA
ATOM     43  C   UNL A   1      43.097  26.649  29.877  1.00  0.00     0.031 C 
ATOM     44  C   UNL A   1      39.318  28.839  27.404  1.00  0.00     0.029 A 
ATOM     45  N   UNL A   1      39.649  29.439  29.534  1.00  0.00    -0.354 N 
ATOM     46  C   UNL A   1      42.873  27.780  31.852  1.00  0.00     0.074 A 
ATOM     47  C   UNL A   1      43.590  26.773  31.099  1.00  0.00     0.031 C 
ATOM     48  C   UNL A   1      38.388  29.759  27.718  1.00  0.00     0.029 A 
ATOM     49  C   UNL A   1      38.558  30.159  29.114  1.00  0.00     0.049 A 
ATOM     50  H   UNL A   1      40.033  29.519  30.437  1.00  0.00     0.167 HD
ATOM     51  C   UNL A   1      43.194  28.157  33.112  1.00  0.00     0.037 A 
ATOM     52  C   UNL A   1      37.784  31.035  29.786  1.00  0.00     0.037 A 
ATOM     53  C   UNL A   1      42.475  29.139  33.878  1.00  0.00     0.049 A 
ATOM     54  C   UNL A   1      38.111  31.376  31.220  1.00  0.00     0.074 A 
ATOM     55  C   UNL A   1      42.725  29.584  35.165  1.00  0.00     0.029 A 
ATOM     56  N   UNL A   1      41.352  29.820  33.432  1.00  0.00    -0.354 N 
ATOM     57  N   UNL A   1      39.099  30.957  31.971  1.00  0.00    -0.248 NA
ATOM     58  C   UNL A   1      37.212  32.326  31.895  1.00  0.00     0.031 C 
ATOM     59  C   UNL A   1      41.725  30.497  35.516  1.00  0.00     0.029 A 
ATOM     60  C   UNL A   1      40.883  30.663  34.427  1.00  0.00     0.049 A 
ATOM     61  H   UNL A   1      40.948  29.719  32.540  1.00  0.00     0.167 HD
ATOM     62  C   UNL A   1      38.965  31.617  33.187  1.00  0.00     0.074 A 
ATOM     63  C   UNL A   1      37.804  32.473  33.072  1.00  0.00     0.031 C 
ATOM     64  C   UNL A   1      39.735  31.522  34.300  1.00  0.00     0.037 A 
BRANCH  51  65
ATOM     65  C   UNL A   1      44.367  27.475  33.751  1.00  0.00     0.064 A 
ATOM     66  C   UNL A   1      45.661  28.011  33.669  1.00  0.00     0.173 A 
ATOM     67  C   UNL A   1      44.192  26.281  34.466  1.00  0.00     0.173 A 
ATOM     68  F   UNL A   1      45.881  29.142  32.983  1.00  0.00    -0.203 F 
ATOM     69  C   UNL A   1      46.742  27.360  34.257  1.00  0.00     0.198 A 
ATOM     70  C   UNL A   1      45.272  25.648  35.075  1.00  0.00     0.198 A 
ATOM     71  F   UNL A   1      42.975  25.729  34.575  1.00  0.00    -0.203 F 
ATOM     72  F   UNL A   1      47.978  27.864  34.125  1.00  0.00    -0.200 F 
ATOM     73  C   UNL A   1      46.546  26.184  34.964  1.00  0.00     0.200 A 
ATOM     74  F   UNL A   1      45.080  24.517  35.766  1.00  0.00    -0.200 F 
ATOM     75  F   UNL A   1      47.588  25.560  35.531  1.00  0.00    -0.200 F 
ENDBRANCH  51  65
BRANCH  52  76
ATOM     76  C   UNL A   1      36.612  31.661  29.119  1.00  0.00     0.064 A 
ATOM     77  C   UNL A   1      36.589  33.034  28.834  1.00  0.00     0.173 A 
ATOM     78  C   UNL A   1      35.472  30.909  28.803  1.00  0.00     0.173 A 
ATOM     79  F   UNL A   1      37.642  33.801  29.150  1.00  0.00    -0.203 F 
ATOM     80  C   UNL A   1      35.459  33.634  28.283  1.00  0.00     0.198 A 
ATOM     81  C   UNL A   1      34.354  31.505  28.224  1.00  0.00     0.198 A 
ATOM     82  F   UNL A   1      35.439  29.595  29.065  1.00  0.00    -0.203 F 
ATOM     83  F   UNL A   1      35.440  34.958  28.076  1.00  0.00    -0.200 F 
ATOM     84  C   UNL A   1      34.345  32.869  27.974  1.00  0.00     0.200 A 
ATOM     85  F   UNL A   1      33.280  30.762  27.925  1.00  0.00    -0.200 F 
ATOM     86  F   UNL A   1      33.255  33.449  27.450  1.00  0.00    -0.200 F 
ENDBRANCH  52  76
BRANCH  64  87
ATOM     87  C   UNL A   1      39.380  32.400  35.468  1.00  0.00     0.064 A 
ATOM     88  C   UNL A   1      38.545  31.954  36.503  1.00  0.00     0.173 A 
ATOM     89  C   UNL A   1      39.910  33.696  35.568  1.00  0.00     0.173 A 
ATOM     90  F   UNL A   1      38.001  30.729  36.451  1.00  0.00    -0.203 F 
ATOM     91  C   UNL A   1      38.228  32.784  37.576  1.00  0.00     0.198 A 
ATOM     92  C   UNL A   1      39.618  34.511  36.657  1.00  0.00     0.198 A 
ATOM     93  F   UNL A   1      40.723  34.170  34.611  1.00  0.00    -0.203 F 
ATOM     94  F   UNL A   1      37.385  32.355  38.526  1.00  0.00    -0.200 F 
ATOM     95  C   UNL A   1      38.770  34.057  37.656  1.00  0.00     0.200 A 
ATOM     96  F   UNL A   1      40.154  35.736  36.741  1.00  0.00    -0.200 F 
ATOM     97  F   UNL A   1      38.467  34.853  38.692  1.00  0.00    -0.200 F 
ENDBRANCH  64  87
ENDBRANCH  38  39
ENDBRANCH  31  33
ENDBRANCH  30  31
ENDBRANCH  29  30
ENDBRANCH  28  29
ENDBRANCH  27  28
ENDBRANCH  26  27
ENDBRANCH   1  26
TORSDOF 23
ENDMDL
