MODEL 1
REMARK VINA RESULT:     -12.2      0.000      0.000
REMARK SMILES O=C(OCCOCCOCCOC(=O)c1ccc(-c2c3nc(c(-c4c(F)c(F)c(F)c(F)c4F)c4ccc([nH]4)c(-c4c(F)c(F)c(F)c(F)c4F)c4nc(c(-c5c(F)c(F)c(F)c(F)c5F)c5ccc2[nH]5)C=C4)C=C3)cc1)c1ccc(NS(=O)(=O)C2=Cc3ccccc3CC2)cc1
REMARK SMILES IDX 7 1 6 2 5 3 4 4 3 5 2 6 1 7 78 8 79 9 97 10 80 11 96 12
REMARK SMILES IDX 81 13 82 14 83 16 84 17 85 18 86 19 87 20 95 21 88 22 94 23
REMARK SMILES IDX 89 24 93 25 90 26 92 27 91 28 8 29 9 30 10 31 11 32 12 33
REMARK SMILES IDX 13 34 14 35 15 36 16 37 77 38 17 39 76 40 18 41 19 42 20 43
REMARK SMILES IDX 70 44 21 45 75 46 69 47 71 48 22 49 74 50 68 51 67 52 23 54
REMARK SMILES IDX 55 55 35 56 54 57 36 58 39 59 53 60 72 61 37 62 38 63 52 65
REMARK SMILES IDX 73 66 40 67 24 68 25 69 33 70 26 71 27 72 31 73 34 74 28 75
REMARK SMILES IDX 29 76 32 77 30 78 56 79 57 80 65 81 58 82 59 83 63 84 66 85
REMARK SMILES IDX 60 86 61 87 64 88 62 89 41 90 42 91 50 92 43 93 44 94 48 95
REMARK SMILES IDX 51 96 45 97 46 98 49 99 47 100
REMARK H PARENT 82 15 71 53 39 64
REMARK Flexibility Score: inf
ROOT
ATOM      1  C   UNL A   1      39.708  21.573  26.508  1.00  0.00     0.188 C 
ENDROOT
BRANCH   1   2
ATOM      2  O   UNL A   1      38.564  22.045  25.786  1.00  0.00    -0.376 OA
BRANCH   2   3
ATOM      3  C   UNL A   1      37.913  21.053  24.996  1.00  0.00     0.202 C 
BRANCH   3   4
ATOM      4  C   UNL A   1      36.408  21.238  24.753  1.00  0.00     0.261 C 
BRANCH   4   5
ATOM      5  O   UNL A   1      35.522  20.156  25.098  1.00  0.00    -0.460 OA
BRANCH   5   6
ATOM      6  C   UNL A   1      34.175  20.056  25.049  1.00  0.00     0.338 C 
ATOM      7  O   UNL A   1      33.667  19.213  24.311  1.00  0.00    -0.246 OA
BRANCH   6   8
ATOM      8  C   UNL A   1      33.265  20.997  25.755  1.00  0.00     0.060 A 
ATOM      9  C   UNL A   1      33.531  21.605  26.975  1.00  0.00     0.018 A 
ATOM     10  C   UNL A   1      32.035  21.273  25.142  1.00  0.00     0.018 A 
ATOM     11  C   UNL A   1      32.696  22.618  27.453  1.00  0.00     0.027 A 
ATOM     12  C   UNL A   1      31.205  22.284  25.632  1.00  0.00     0.027 A 
ATOM     13  C   UNL A   1      31.595  23.047  26.730  1.00  0.00     0.049 A 
BRANCH  13  14
ATOM     14  N   UNL A   1      30.959  24.305  26.922  1.00  0.00    -0.280 N 
ATOM     15  H   UNL A   1      30.179  24.325  27.523  1.00  0.00     0.180 HD
BRANCH  14  16
ATOM     16  S   UNL A   1      31.415  25.763  26.216  1.00  0.00     0.258 S 
ATOM     17  O   UNL A   1      31.126  26.736  27.242  1.00  0.00    -0.202 OA
ATOM     18  O   UNL A   1      32.793  25.565  25.786  1.00  0.00    -0.202 OA
BRANCH  16  19
ATOM     19  C   UNL A   1      30.373  26.064  24.786  1.00  0.00     0.066 C 
ATOM     20  C   UNL A   1      30.422  27.329  24.296  1.00  0.00     0.026 C 
ATOM     21  C   UNL A   1      30.472  25.033  23.673  1.00  0.00     0.055 C 
ATOM     22  C   UNL A   1      31.617  27.589  23.430  1.00  0.00    -0.021 A 
ATOM     23  C   UNL A   1      31.858  25.089  23.020  1.00  0.00     0.041 C 
ATOM     24  C   UNL A   1      32.017  28.899  23.161  1.00  0.00     0.008 A 
ATOM     25  C   UNL A   1      32.351  26.512  22.883  1.00  0.00    -0.040 A 
ATOM     26  C   UNL A   1      33.190  29.135  22.439  1.00  0.00     0.001 A 
ATOM     27  C   UNL A   1      33.554  26.757  22.216  1.00  0.00     0.004 A 
ATOM     28  C   UNL A   1      33.976  28.066  22.003  1.00  0.00     0.000 A 
ENDBRANCH  16  19
ENDBRANCH  14  16
ENDBRANCH  13  14
ENDBRANCH   6   8
ENDBRANCH   5   6
ENDBRANCH   4   5
ENDBRANCH   3   4
ENDBRANCH   2   3
ENDBRANCH   1   2
BRANCH   1  29
ATOM     29  C   UNL A   1      40.224  20.195  26.083  1.00  0.00     0.188 C 
BRANCH  29  30
ATOM     30  O   UNL A   1      41.294  19.802  26.924  1.00  0.00    -0.376 OA
BRANCH  30  31
ATOM     31  C   UNL A   1      42.566  19.636  26.319  1.00  0.00     0.202 C 
BRANCH  31  32
ATOM     32  C   UNL A   1      43.305  20.830  25.674  1.00  0.00     0.261 C 
BRANCH  32  33
ATOM     33  O   UNL A   1      43.168  22.130  26.267  1.00  0.00    -0.460 OA
BRANCH  33  34
ATOM     34  C   UNL A   1      43.053  23.172  25.418  1.00  0.00     0.338 C 
ATOM     35  O   UNL A   1      43.337  23.190  24.227  1.00  0.00    -0.246 OA
BRANCH  34  36
ATOM     36  C   UNL A   1      42.549  24.346  26.150  1.00  0.00     0.060 A 
ATOM     37  C   UNL A   1      43.066  25.623  25.901  1.00  0.00     0.016 A 
ATOM     38  C   UNL A   1      41.645  24.140  27.193  1.00  0.00     0.016 A 
ATOM     39  C   UNL A   1      42.711  26.693  26.735  1.00  0.00     0.010 A 
ATOM     40  C   UNL A   1      41.280  25.211  28.010  1.00  0.00     0.010 A 
ATOM     41  C   UNL A   1      41.843  26.486  27.817  1.00  0.00    -0.014 A 
BRANCH  41  42
ATOM     42  C   UNL A   1      41.597  27.526  28.855  1.00  0.00     0.031 A 
ATOM     43  C   UNL A   1      42.379  27.480  30.130  1.00  0.00     0.074 A 
ATOM     44  C   UNL A   1      40.629  28.446  28.717  1.00  0.00     0.049 A 
ATOM     45  N   UNL A   1      42.188  28.136  31.246  1.00  0.00    -0.248 NA
ATOM     46  C   UNL A   1      43.536  26.574  30.147  1.00  0.00     0.031 C 
ATOM     47  C   UNL A   1      39.861  28.651  27.504  1.00  0.00     0.029 A 
ATOM     48  N   UNL A   1      40.088  29.340  29.608  1.00  0.00    -0.354 N 
ATOM     49  C   UNL A   1      43.194  27.716  32.102  1.00  0.00     0.074 A 
ATOM     50  C   UNL A   1      43.975  26.728  31.387  1.00  0.00     0.031 C 
ATOM     51  C   UNL A   1      38.879  29.535  27.738  1.00  0.00     0.029 A 
ATOM     52  C   UNL A   1      38.947  29.946  29.137  1.00  0.00     0.049 A 
ATOM     53  H   UNL A   1      40.477  29.526  30.494  1.00  0.00     0.167 HD
ATOM     54  C   UNL A   1      43.444  28.130  33.366  1.00  0.00     0.037 A 
ATOM     55  C   UNL A   1      38.036  30.707  29.773  1.00  0.00     0.037 A 
ATOM     56  C   UNL A   1      42.655  29.105  34.071  1.00  0.00     0.049 A 
ATOM     57  C   UNL A   1      38.261  31.068  31.215  1.00  0.00     0.074 A 
ATOM     58  C   UNL A   1      42.852  29.619  35.340  1.00  0.00     0.029 A 
ATOM     59  N   UNL A   1      41.504  29.699  33.573  1.00  0.00    -0.354 N 
ATOM     60  N   UNL A   1      39.236  30.705  32.012  1.00  0.00    -0.248 NA
ATOM     61  C   UNL A   1      37.277  31.963  31.842  1.00  0.00     0.031 C 
ATOM     62  C   UNL A   1      41.788  30.479  35.634  1.00  0.00     0.029 A 
ATOM     63  C   UNL A   1      40.961  30.550  34.523  1.00  0.00     0.049 A 
ATOM     64  H   UNL A   1      41.127  29.539  32.677  1.00  0.00     0.167 HD
ATOM     65  C   UNL A   1      39.013  31.360  33.215  1.00  0.00     0.074 A 
ATOM     66  C   UNL A   1      37.802  32.136  33.047  1.00  0.00     0.031 C 
ATOM     67  C   UNL A   1      39.760  31.331  34.346  1.00  0.00     0.037 A 
BRANCH  54  68
ATOM     68  C   UNL A   1      44.601  27.490  34.074  1.00  0.00     0.064 A 
ATOM     69  C   UNL A   1      45.871  28.086  34.106  1.00  0.00     0.173 A 
ATOM     70  C   UNL A   1      44.438  26.258  34.726  1.00  0.00     0.173 A 
ATOM     71  F   UNL A   1      46.083  29.257  33.485  1.00  0.00    -0.203 F 
ATOM     72  C   UNL A   1      46.943  27.454  34.729  1.00  0.00     0.198 A 
ATOM     73  C   UNL A   1      45.505  25.645  35.376  1.00  0.00     0.198 A 
ATOM     74  F   UNL A   1      43.244  25.647  34.729  1.00  0.00    -0.203 F 
ATOM     75  F   UNL A   1      48.161  28.012  34.692  1.00  0.00    -0.200 F 
ATOM     76  C   UNL A   1      46.758  26.237  35.367  1.00  0.00     0.200 A 
ATOM     77  F   UNL A   1      45.321  24.474  36.002  1.00  0.00    -0.200 F 
ATOM     78  F   UNL A   1      47.792  25.628  35.963  1.00  0.00    -0.200 F 
ENDBRANCH  54  68
BRANCH  55  79
ATOM     79  C   UNL A   1      36.826  31.168  29.044  1.00  0.00     0.064 A 
ATOM     80  C   UNL A   1      35.757  30.300  28.798  1.00  0.00     0.173 A 
ATOM     81  C   UNL A   1      36.708  32.495  28.602  1.00  0.00     0.173 A 
ATOM     82  F   UNL A   1      35.832  29.018  29.186  1.00  0.00    -0.203 F 
ATOM     83  C   UNL A   1      34.614  30.737  28.129  1.00  0.00     0.198 A 
ATOM     84  C   UNL A   1      35.557  32.937  27.952  1.00  0.00     0.198 A 
ATOM     85  F   UNL A   1      37.702  33.367  28.822  1.00  0.00    -0.203 F 
ATOM     86  F   UNL A   1      33.614  29.880  27.885  1.00  0.00    -0.200 F 
ATOM     87  C   UNL A   1      34.512  32.057  27.713  1.00  0.00     0.200 A 
ATOM     88  F   UNL A   1      35.457  34.214  27.561  1.00  0.00    -0.200 F 
ATOM     89  F   UNL A   1      33.409  32.478  27.082  1.00  0.00    -0.200 F 
ENDBRANCH  55  79
BRANCH  67  90
ATOM     90  C   UNL A   1      39.331  32.210  35.484  1.00  0.00     0.064 A 
ATOM     91  C   UNL A   1      38.514  31.738  36.521  1.00  0.00     0.173 A 
ATOM     92  C   UNL A   1      39.802  33.530  35.568  1.00  0.00     0.173 A 
ATOM     93  F   UNL A   1      38.025  30.489  36.480  1.00  0.00    -0.203 F 
ATOM     94  C   UNL A   1      38.175  32.559  37.594  1.00  0.00     0.198 A 
ATOM     95  C   UNL A   1      39.484  34.339  36.655  1.00  0.00     0.198 A 
ATOM     96  F   UNL A   1      40.590  34.030  34.603  1.00  0.00    -0.203 F 
ATOM     97  F   UNL A   1      37.365  32.098  38.557  1.00  0.00    -0.200 F 
ATOM     98  C   UNL A   1      38.668  33.853  37.666  1.00  0.00     0.200 A 
ATOM     99  F   UNL A   1      39.974  35.584  36.729  1.00  0.00    -0.200 F 
ATOM    100  F   UNL A   1      38.353  34.636  38.707  1.00  0.00    -0.200 F 
ENDBRANCH  67  90
ENDBRANCH  41  42
ENDBRANCH  34  36
ENDBRANCH  33  34
ENDBRANCH  32  33
ENDBRANCH  31  32
ENDBRANCH  30  31
ENDBRANCH  29  30
ENDBRANCH   1  29
TORSDOF 20
ENDMDL
MODEL 2
REMARK VINA RESULT:     -12.1      1.008      2.044
REMARK SMILES O=C(OCCOCCOCCOC(=O)c1ccc(-c2c3nc(c(-c4c(F)c(F)c(F)c(F)c4F)c4ccc([nH]4)c(-c4c(F)c(F)c(F)c(F)c4F)c4nc(c(-c5c(F)c(F)c(F)c(F)c5F)c5ccc2[nH]5)C=C4)C=C3)cc1)c1ccc(NS(=O)(=O)C2=Cc3ccccc3CC2)cc1
REMARK SMILES IDX 7 1 6 2 5 3 4 4 3 5 2 6 1 7 78 8 79 9 97 10 80 11 96 12
REMARK SMILES IDX 81 13 82 14 83 16 84 17 85 18 86 19 87 20 95 21 88 22 94 23
REMARK SMILES IDX 89 24 93 25 90 26 92 27 91 28 8 29 9 30 10 31 11 32 12 33
REMARK SMILES IDX 13 34 14 35 15 36 16 37 77 38 17 39 76 40 18 41 19 42 20 43
REMARK SMILES IDX 70 44 21 45 75 46 69 47 71 48 22 49 74 50 68 51 67 52 23 54
REMARK SMILES IDX 55 55 35 56 54 57 36 58 39 59 53 60 72 61 37 62 38 63 52 65
REMARK SMILES IDX 73 66 40 67 24 68 25 69 33 70 26 71 27 72 31 73 34 74 28 75
REMARK SMILES IDX 29 76 32 77 30 78 56 79 57 80 65 81 58 82 59 83 63 84 66 85
REMARK SMILES IDX 60 86 61 87 64 88 62 89 41 90 42 91 50 92 43 93 44 94 48 95
REMARK SMILES IDX 51 96 45 97 46 98 49 99 47 100
REMARK H PARENT 82 15 71 53 39 64
REMARK Flexibility Score: inf
ROOT
ATOM      1  C   UNL A   1      41.277  19.960  27.510  1.00  0.00     0.188 C 
ENDROOT
BRANCH   1   2
ATOM      2  O   UNL A   1      40.388  21.082  27.436  1.00  0.00    -0.376 OA
BRANCH   2   3
ATOM      3  C   UNL A   1      39.837  21.315  26.142  1.00  0.00     0.202 C 
BRANCH   3   4
ATOM      4  C   UNL A   1      38.649  22.284  26.059  1.00  0.00     0.261 C 
BRANCH   4   5
ATOM      5  O   UNL A   1      37.669  22.076  25.025  1.00  0.00    -0.460 OA
BRANCH   5   6
ATOM      6  C   UNL A   1      36.647  21.196  24.928  1.00  0.00     0.338 C 
ATOM      7  O   UNL A   1      36.887  19.993  25.015  1.00  0.00    -0.246 OA
BRANCH   6   8
ATOM      8  C   UNL A   1      35.254  21.603  24.603  1.00  0.00     0.060 A 
ATOM      9  C   UNL A   1      34.156  20.752  24.579  1.00  0.00     0.018 A 
ATOM     10  C   UNL A   1      35.043  22.950  24.279  1.00  0.00     0.018 A 
ATOM     11  C   UNL A   1      32.865  21.273  24.452  1.00  0.00     0.027 A 
ATOM     12  C   UNL A   1      33.749  23.459  24.148  1.00  0.00     0.027 A 
ATOM     13  C   UNL A   1      32.644  22.637  24.356  1.00  0.00     0.049 A 
BRANCH  13  14
ATOM     14  N   UNL A   1      31.397  23.262  24.639  1.00  0.00    -0.280 N 
ATOM     15  H   UNL A   1      30.713  23.237  23.932  1.00  0.00     0.180 HD
BRANCH  14  16
ATOM     16  S   UNL A   1      30.985  24.042  26.072  1.00  0.00     0.258 S 
ATOM     17  O   UNL A   1      30.095  23.107  26.717  1.00  0.00    -0.202 OA
ATOM     18  O   UNL A   1      32.254  24.375  26.705  1.00  0.00    -0.202 OA
BRANCH  16  19
ATOM     19  C   UNL A   1      30.093  25.548  25.675  1.00  0.00     0.066 C 
ATOM     20  C   UNL A   1      30.672  26.692  26.122  1.00  0.00     0.026 C 
ATOM     21  C   UNL A   1      29.643  25.682  24.228  1.00  0.00     0.055 C 
ATOM     22  C   UNL A   1      31.794  27.174  25.254  1.00  0.00    -0.021 A 
ATOM     23  C   UNL A   1      30.859  25.829  23.306  1.00  0.00     0.041 C 
ATOM     24  C   UNL A   1      32.719  28.094  25.750  1.00  0.00     0.008 A 
ATOM     25  C   UNL A   1      31.927  26.700  23.929  1.00  0.00    -0.040 A 
ATOM     26  C   UNL A   1      33.821  28.461  24.973  1.00  0.00     0.001 A 
ATOM     27  C   UNL A   1      33.064  27.025  23.184  1.00  0.00     0.004 A 
ATOM     28  C   UNL A   1      34.012  27.898  23.710  1.00  0.00     0.000 A 
ENDBRANCH  16  19
ENDBRANCH  14  16
ENDBRANCH  13  14
ENDBRANCH   6   8
ENDBRANCH   5   6
ENDBRANCH   4   5
ENDBRANCH   3   4
ENDBRANCH   2   3
ENDBRANCH   1   2
BRANCH   1  29
ATOM     29  C   UNL A   1      41.620  19.311  26.165  1.00  0.00     0.188 C 
BRANCH  29  30
ATOM     30  O   UNL A   1      43.018  19.106  26.074  1.00  0.00    -0.376 OA
BRANCH  30  31
ATOM     31  C   UNL A   1      43.744  19.968  25.212  1.00  0.00     0.202 C 
BRANCH  31  32
ATOM     32  C   UNL A   1      44.234  21.351  25.694  1.00  0.00     0.261 C 
BRANCH  32  33
ATOM     33  O   UNL A   1      43.261  22.350  26.036  1.00  0.00    -0.460 OA
BRANCH  33  34
ATOM     34  C   UNL A   1      43.267  23.477  25.296  1.00  0.00     0.338 C 
ATOM     35  O   UNL A   1      43.686  23.609  24.152  1.00  0.00    -0.246 OA
BRANCH  34  36
ATOM     36  C   UNL A   1      42.712  24.587  26.089  1.00  0.00     0.060 A 
ATOM     37  C   UNL A   1      43.070  25.913  25.818  1.00  0.00     0.016 A 
ATOM     38  C   UNL A   1      41.929  24.279  27.203  1.00  0.00     0.016 A 
ATOM     39  C   UNL A   1      42.682  26.933  26.699  1.00  0.00     0.010 A 
ATOM     40  C   UNL A   1      41.528  25.299  28.066  1.00  0.00     0.010 A 
ATOM     41  C   UNL A   1      41.938  26.627  27.848  1.00  0.00    -0.014 A 
BRANCH  41  42
ATOM     42  C   UNL A   1      41.678  27.627  28.921  1.00  0.00     0.031 A 
ATOM     43  C   UNL A   1      42.439  27.529  30.206  1.00  0.00     0.074 A 
ATOM     44  C   UNL A   1      40.715  28.556  28.803  1.00  0.00     0.049 A 
ATOM     45  N   UNL A   1      42.232  28.142  31.343  1.00  0.00    -0.248 NA
ATOM     46  C   UNL A   1      43.593  26.619  30.207  1.00  0.00     0.031 C 
ATOM     47  C   UNL A   1      39.969  28.810  27.587  1.00  0.00     0.029 A 
ATOM     48  N   UNL A   1      40.163  29.416  29.719  1.00  0.00    -0.354 N 
ATOM     49  C   UNL A   1      43.222  27.685  32.198  1.00  0.00     0.074 A 
ATOM     50  C   UNL A   1      44.012  26.723  31.459  1.00  0.00     0.031 C 
ATOM     51  C   UNL A   1      38.985  29.688  27.838  1.00  0.00     0.029 A 
ATOM     52  C   UNL A   1      39.032  30.045  29.254  1.00  0.00     0.049 A 
ATOM     53  H   UNL A   1      40.538  29.567  30.618  1.00  0.00     0.167 HD
ATOM     54  C   UNL A   1      43.453  28.049  33.481  1.00  0.00     0.037 A 
ATOM     55  C   UNL A   1      38.113  30.784  29.904  1.00  0.00     0.037 A 
ATOM     56  C   UNL A   1      42.656  28.999  34.211  1.00  0.00     0.049 A 
ATOM     57  C   UNL A   1      38.315  31.088  31.363  1.00  0.00     0.074 A 
ATOM     58  C   UNL A   1      42.834  29.463  35.502  1.00  0.00     0.029 A 
ATOM     59  N   UNL A   1      41.515  29.616  33.718  1.00  0.00    -0.354 N 
ATOM     60  N   UNL A   1      39.276  30.690  32.160  1.00  0.00    -0.248 NA
ATOM     61  C   UNL A   1      37.324  31.961  32.007  1.00  0.00     0.031 C 
ATOM     62  C   UNL A   1      41.767  30.315  35.811  1.00  0.00     0.029 A 
ATOM     63  C   UNL A   1      40.959  30.432  34.692  1.00  0.00     0.049 A 
ATOM     64  H   UNL A   1      41.152  29.493  32.811  1.00  0.00     0.167 HD
ATOM     65  C   UNL A   1      39.036  31.299  33.384  1.00  0.00     0.074 A 
ATOM     66  C   UNL A   1      37.829  32.085  33.227  1.00  0.00     0.031 C 
ATOM     67  C   UNL A   1      39.764  31.223  34.525  1.00  0.00     0.037 A 
BRANCH  54  68
ATOM     68  C   UNL A   1      44.597  27.378  34.183  1.00  0.00     0.064 A 
ATOM     69  C   UNL A   1      44.430  26.174  34.884  1.00  0.00     0.173 A 
ATOM     70  C   UNL A   1      45.876  27.953  34.159  1.00  0.00     0.173 A 
ATOM     71  F   UNL A   1      43.223  25.592  34.950  1.00  0.00    -0.203 F 
ATOM     72  C   UNL A   1      45.493  25.592  35.568  1.00  0.00     0.198 A 
ATOM     73  C   UNL A   1      46.945  27.349  34.817  1.00  0.00     0.198 A 
ATOM     74  F   UNL A   1      46.090  29.101  33.501  1.00  0.00    -0.203 F 
ATOM     75  F   UNL A   1      45.296  24.475  36.284  1.00  0.00    -0.200 F 
ATOM     76  C   UNL A   1      46.750  26.177  35.530  1.00  0.00     0.200 A 
ATOM     77  F   UNL A   1      48.160  27.911  34.769  1.00  0.00    -0.200 F 
ATOM     78  F   UNL A   1      47.771  25.617  36.192  1.00  0.00    -0.200 F 
ENDBRANCH  54  68
BRANCH  55  79
ATOM     79  C   UNL A   1      36.916  31.277  29.174  1.00  0.00     0.064 A 
ATOM     80  C   UNL A   1      35.838  30.429  28.898  1.00  0.00     0.173 A 
ATOM     81  C   UNL A   1      36.820  32.615  28.760  1.00  0.00     0.173 A 
ATOM     82  F   UNL A   1      35.892  29.138  29.259  1.00  0.00    -0.203 F 
ATOM     83  C   UNL A   1      34.708  30.897  28.229  1.00  0.00     0.198 A 
ATOM     84  C   UNL A   1      35.682  33.087  28.109  1.00  0.00     0.198 A 
ATOM     85  F   UNL A   1      37.824  33.468  29.009  1.00  0.00    -0.203 F 
ATOM     86  F   UNL A   1      33.699  30.059  27.956  1.00  0.00    -0.200 F 
ATOM     87  C   UNL A   1      34.628  32.226  27.841  1.00  0.00     0.200 A 
ATOM     88  F   UNL A   1      35.603  34.374  27.745  1.00  0.00    -0.200 F 
ATOM     89  F   UNL A   1      33.536  32.677  27.209  1.00  0.00    -0.200 F 
ENDBRANCH  55  79
BRANCH  67  90
ATOM     90  C   UNL A   1      39.319  32.060  35.689  1.00  0.00     0.064 A 
ATOM     91  C   UNL A   1      39.728  33.391  35.847  1.00  0.00     0.173 A 
ATOM     92  C   UNL A   1      38.413  31.536  36.626  1.00  0.00     0.173 A 
ATOM     93  F   UNL A   1      40.605  33.934  34.989  1.00  0.00    -0.203 F 
ATOM     94  C   UNL A   1      39.257  34.163  36.906  1.00  0.00     0.198 A 
ATOM     95  C   UNL A   1      37.923  32.318  37.667  1.00  0.00     0.198 A 
ATOM     96  F   UNL A   1      37.987  30.267  36.518  1.00  0.00    -0.203 F 
ATOM     97  F   UNL A   1      39.689  35.424  37.058  1.00  0.00    -0.200 F 
ATOM     98  C   UNL A   1      38.348  33.630  37.808  1.00  0.00     0.200 A 
ATOM     99  F   UNL A   1      37.034  31.806  38.528  1.00  0.00    -0.200 F 
ATOM    100  F   UNL A   1      37.884  34.381  38.817  1.00  0.00    -0.200 F 
ENDBRANCH  67  90
ENDBRANCH  41  42
ENDBRANCH  34  36
ENDBRANCH  33  34
ENDBRANCH  32  33
ENDBRANCH  31  32
ENDBRANCH  30  31
ENDBRANCH  29  30
ENDBRANCH   1  29
TORSDOF 20
ENDMDL
MODEL 3
REMARK VINA RESULT:     -11.8      1.690      2.485
REMARK SMILES O=C(OCCOCCOCCOC(=O)c1ccc(-c2c3nc(c(-c4c(F)c(F)c(F)c(F)c4F)c4ccc([nH]4)c(-c4c(F)c(F)c(F)c(F)c4F)c4nc(c(-c5c(F)c(F)c(F)c(F)c5F)c5ccc2[nH]5)C=C4)C=C3)cc1)c1ccc(NS(=O)(=O)C2=Cc3ccccc3CC2)cc1
REMARK SMILES IDX 7 1 6 2 5 3 4 4 3 5 2 6 1 7 78 8 79 9 97 10 80 11 96 12
REMARK SMILES IDX 81 13 82 14 83 16 84 17 85 18 86 19 87 20 95 21 88 22 94 23
REMARK SMILES IDX 89 24 93 25 90 26 92 27 91 28 8 29 9 30 10 31 11 32 12 33
REMARK SMILES IDX 13 34 14 35 15 36 16 37 77 38 17 39 76 40 18 41 19 42 20 43
REMARK SMILES IDX 70 44 21 45 75 46 69 47 71 48 22 49 74 50 68 51 67 52 23 54
REMARK SMILES IDX 55 55 35 56 54 57 36 58 39 59 53 60 72 61 37 62 38 63 52 65
REMARK SMILES IDX 73 66 40 67 24 68 25 69 33 70 26 71 27 72 31 73 34 74 28 75
REMARK SMILES IDX 29 76 32 77 30 78 56 79 57 80 65 81 58 82 59 83 63 84 66 85
REMARK SMILES IDX 60 86 61 87 64 88 62 89 41 90 42 91 50 92 43 93 44 94 48 95
REMARK SMILES IDX 51 96 45 97 46 98 49 99 47 100
REMARK H PARENT 82 15 71 53 39 64
REMARK Flexibility Score: inf
ROOT
ATOM      1  C   UNL A   1      43.350  19.151  24.950  1.00  0.00     0.188 C 
ENDROOT
BRANCH   1   2
ATOM      2  O   UNL A   1      42.128  19.317  25.679  1.00  0.00    -0.376 OA
BRANCH   2   3
ATOM      3  C   UNL A   1      41.900  20.641  26.157  1.00  0.00     0.202 C 
BRANCH   3   4
ATOM      4  C   UNL A   1      40.515  20.934  26.750  1.00  0.00     0.261 C 
BRANCH   4   5
ATOM      5  O   UNL A   1      39.422  21.180  25.844  1.00  0.00    -0.460 OA
BRANCH   5   6
ATOM      6  C   UNL A   1      38.476  22.145  25.829  1.00  0.00     0.338 C 
ATOM      7  O   UNL A   1      38.635  23.145  26.527  1.00  0.00    -0.246 OA
BRANCH   6   8
ATOM      8  C   UNL A   1      37.188  22.008  25.099  1.00  0.00     0.060 A 
ATOM      9  C   UNL A   1      36.187  21.095  25.403  1.00  0.00     0.018 A 
ATOM     10  C   UNL A   1      36.983  22.862  24.005  1.00  0.00     0.018 A 
ATOM     11  C   UNL A   1      34.941  21.182  24.777  1.00  0.00     0.027 A 
ATOM     12  C   UNL A   1      35.735  22.936  23.383  1.00  0.00     0.027 A 
ATOM     13  C   UNL A   1      34.667  22.175  23.851  1.00  0.00     0.049 A 
BRANCH  13  14
ATOM     14  N   UNL A   1      33.352  22.586  23.492  1.00  0.00    -0.280 N 
ATOM     15  H   UNL A   1      32.813  21.952  22.967  1.00  0.00     0.180 HD
BRANCH  14  16
ATOM     16  S   UNL A   1      32.636  24.058  23.881  1.00  0.00     0.258 S 
ATOM     17  O   UNL A   1      33.119  24.947  22.851  1.00  0.00    -0.202 OA
ATOM     18  O   UNL A   1      31.209  23.777  23.971  1.00  0.00    -0.202 OA
BRANCH  16  19
ATOM     19  C   UNL A   1      33.250  24.596  25.479  1.00  0.00     0.066 C 
ATOM     20  C   UNL A   1      34.057  25.686  25.446  1.00  0.00     0.026 C 
ATOM     21  C   UNL A   1      32.204  24.712  26.578  1.00  0.00     0.055 C 
ATOM     22  C   UNL A   1      33.311  26.981  25.342  1.00  0.00    -0.021 A 
ATOM     23  C   UNL A   1      31.226  25.848  26.262  1.00  0.00     0.041 C 
ATOM     24  C   UNL A   1      33.970  28.139  24.926  1.00  0.00     0.008 A 
ATOM     25  C   UNL A   1      31.934  27.040  25.659  1.00  0.00    -0.040 A 
ATOM     26  C   UNL A   1      33.248  29.319  24.732  1.00  0.00     0.001 A 
ATOM     27  C   UNL A   1      31.210  28.208  25.402  1.00  0.00     0.004 A 
ATOM     28  C   UNL A   1      31.866  29.342  24.931  1.00  0.00     0.000 A 
ENDBRANCH  16  19
ENDBRANCH  14  16
ENDBRANCH  13  14
ENDBRANCH   6   8
ENDBRANCH   5   6
ENDBRANCH   4   5
ENDBRANCH   3   4
ENDBRANCH   2   3
ENDBRANCH   1   2
BRANCH   1  29
ATOM     29  C   UNL A   1      44.626  19.487  25.729  1.00  0.00     0.188 C 
BRANCH  29  30
ATOM     30  O   UNL A   1      45.489  20.270  24.923  1.00  0.00    -0.376 OA
BRANCH  30  31
ATOM     31  C   UNL A   1      44.888  21.063  23.912  1.00  0.00     0.202 C 
BRANCH  31  32
ATOM     32  C   UNL A   1      44.775  22.596  24.062  1.00  0.00     0.261 C 
BRANCH  32  33
ATOM     33  O   UNL A   1      44.015  23.130  25.157  1.00  0.00    -0.460 OA
BRANCH  33  34
ATOM     34  C   UNL A   1      44.709  23.474  26.261  1.00  0.00     0.338 C 
ATOM     35  O   UNL A   1      45.726  22.944  26.691  1.00  0.00    -0.246 OA
BRANCH  34  36
ATOM     36  C   UNL A   1      44.036  24.600  26.931  1.00  0.00     0.060 A 
ATOM     37  C   UNL A   1      44.473  25.916  26.736  1.00  0.00     0.016 A 
ATOM     38  C   UNL A   1      43.044  24.316  27.871  1.00  0.00     0.016 A 
ATOM     39  C   UNL A   1      43.945  26.949  27.524  1.00  0.00     0.010 A 
ATOM     40  C   UNL A   1      42.507  25.350  28.639  1.00  0.00     0.010 A 
ATOM     41  C   UNL A   1      42.984  26.667  28.506  1.00  0.00    -0.014 A 
BRANCH  41  42
ATOM     42  C   UNL A   1      42.544  27.677  29.507  1.00  0.00     0.031 A 
ATOM     43  C   UNL A   1      43.224  27.724  30.840  1.00  0.00     0.074 A 
ATOM     44  C   UNL A   1      41.495  28.485  29.284  1.00  0.00     0.049 A 
ATOM     45  N   UNL A   1      42.875  28.359  31.929  1.00  0.00    -0.248 NA
ATOM     46  C   UNL A   1      44.469  26.952  30.959  1.00  0.00     0.031 C 
ATOM     47  C   UNL A   1      40.807  28.597  28.012  1.00  0.00     0.029 A 
ATOM     48  N   UNL A   1      40.791  29.317  30.118  1.00  0.00    -0.354 N 
ATOM     49  C   UNL A   1      43.851  28.057  32.866  1.00  0.00     0.074 A 
ATOM     50  C   UNL A   1      44.790  27.158  32.227  1.00  0.00     0.031 C 
ATOM     51  C   UNL A   1      39.718  29.368  28.157  1.00  0.00     0.029 A 
ATOM     52  C   UNL A   1      39.631  29.791  29.552  1.00  0.00     0.049 A 
ATOM     53  H   UNL A   1      41.086  29.549  31.029  1.00  0.00     0.167 HD
ATOM     54  C   UNL A   1      43.954  28.501  34.140  1.00  0.00     0.037 A 
ATOM     55  C   UNL A   1      38.594  30.449  30.106  1.00  0.00     0.037 A 
ATOM     56  C   UNL A   1      43.010  29.386  34.770  1.00  0.00     0.049 A 
ATOM     57  C   UNL A   1      38.664  30.839  31.557  1.00  0.00     0.074 A 
ATOM     58  C   UNL A   1      43.049  29.924  36.043  1.00  0.00     0.029 A 
ATOM     59  N   UNL A   1      41.843  29.847  34.177  1.00  0.00    -0.354 N 
ATOM     60  N   UNL A   1      39.608  30.589  32.431  1.00  0.00    -0.248 NA
ATOM     61  C   UNL A   1      37.542  31.622  32.093  1.00  0.00     0.031 C 
ATOM     62  C   UNL A   1      41.877  30.662  36.242  1.00  0.00     0.029 A 
ATOM     63  C   UNL A   1      41.137  30.637  35.070  1.00  0.00     0.049 A 
ATOM     64  H   UNL A   1      41.558  29.643  33.256  1.00  0.00     0.167 HD
ATOM     65  C   UNL A   1      39.221  31.220  33.605  1.00  0.00     0.074 A 
ATOM     66  C   UNL A   1      37.948  31.857  33.334  1.00  0.00     0.031 C 
ATOM     67  C   UNL A   1      39.875  31.279  34.790  1.00  0.00     0.037 A 
BRANCH  54  68
ATOM     68  C   UNL A   1      45.116  27.996  34.945  1.00  0.00     0.064 A 
ATOM     69  C   UNL A   1      46.343  28.674  34.978  1.00  0.00     0.173 A 
ATOM     70  C   UNL A   1      44.999  26.812  35.688  1.00  0.00     0.173 A 
ATOM     71  F   UNL A   1      46.511  29.803  34.271  1.00  0.00    -0.203 F 
ATOM     72  C   UNL A   1      47.423  28.165  35.692  1.00  0.00     0.198 A 
ATOM     73  C   UNL A   1      46.071  26.323  36.429  1.00  0.00     0.198 A 
ATOM     74  F   UNL A   1      43.846  26.127  35.694  1.00  0.00    -0.203 F 
ATOM     75  F   UNL A   1      48.605  28.796  35.658  1.00  0.00    -0.200 F 
ATOM     76  C   UNL A   1      47.285  26.993  36.421  1.00  0.00     0.200 A 
ATOM     77  F   UNL A   1      45.932  25.197  37.141  1.00  0.00    -0.200 F 
ATOM     78  F   UNL A   1      48.327  26.502  37.106  1.00  0.00    -0.200 F 
ENDBRANCH  54  68
BRANCH  55  79
ATOM     79  C   UNL A   1      37.402  30.770  29.279  1.00  0.00     0.064 A 
ATOM     80  C   UNL A   1      36.434  29.799  29.000  1.00  0.00     0.173 A 
ATOM     81  C   UNL A   1      37.197  32.064  28.774  1.00  0.00     0.173 A 
ATOM     82  F   UNL A   1      36.596  28.544  29.447  1.00  0.00    -0.203 F 
ATOM     83  C   UNL A   1      35.306  30.105  28.239  1.00  0.00     0.198 A 
ATOM     84  C   UNL A   1      36.060  32.374  28.031  1.00  0.00     0.198 A 
ATOM     85  F   UNL A   1      38.092  33.030  29.022  1.00  0.00    -0.203 F 
ATOM     86  F   UNL A   1      34.406  29.152  27.967  1.00  0.00    -0.200 F 
ATOM     87  C   UNL A   1      35.117  31.394  27.761  1.00  0.00     0.200 A 
ATOM     88  F   UNL A   1      35.874  33.622  27.580  1.00  0.00    -0.200 F 
ATOM     89  F   UNL A   1      34.027  31.689  27.041  1.00  0.00    -0.200 F 
ENDBRANCH  55  79
BRANCH  67  90
ATOM     90  C   UNL A   1      39.264  32.110  35.880  1.00  0.00     0.064 A 
ATOM     91  C   UNL A   1      38.352  31.575  36.800  1.00  0.00     0.173 A 
ATOM     92  C   UNL A   1      39.651  33.450  36.043  1.00  0.00     0.173 A 
ATOM     93  F   UNL A   1      37.937  30.304  36.679  1.00  0.00    -0.203 F 
ATOM     94  C   UNL A   1      37.840  32.354  37.836  1.00  0.00     0.198 A 
ATOM     95  C   UNL A   1      39.160  34.217  37.095  1.00  0.00     0.198 A 
ATOM     96  F   UNL A   1      40.524  34.010  35.191  1.00  0.00    -0.203 F 
ATOM     97  F   UNL A   1      36.943  31.831  38.684  1.00  0.00    -0.200 F 
ATOM     98  C   UNL A   1      38.252  33.669  37.989  1.00  0.00     0.200 A 
ATOM     99  F   UNL A   1      39.571  35.483  37.249  1.00  0.00    -0.200 F 
ATOM    100  F   UNL A   1      37.771  34.412  38.996  1.00  0.00    -0.200 F 
ENDBRANCH  67  90
ENDBRANCH  41  42
ENDBRANCH  34  36
ENDBRANCH  33  34
ENDBRANCH  32  33
ENDBRANCH  31  32
ENDBRANCH  30  31
ENDBRANCH  29  30
ENDBRANCH   1  29
TORSDOF 20
ENDMDL
