MODEL 1
REMARK VINA RESULT:      -9.9      0.000      0.000
REMARK SMILES C[C@@](NC(=O)CCOC1CC[NH2+]CC1)(C(=O)OCCOCCOCCOC(=O)c1ccc(-c2c3nc(c(-c4c(F)c(F)c(F)c(F)c4F)c4ccc([nH]4)c(-c4c(F)c(F)c(F)c(F)c4F)c4nc(c(-c5c(F)c(F)c(F)c(F)c5F)c5ccc2[nH]5)C=C4)C=C3)cc1)C(F)(F)F
REMARK SMILES IDX 20 1 19 2 18 3 17 4 15 5 16 6 2 7 1 8 3 9 4 10 5 12 6 13
REMARK SMILES IDX 7 14 8 15 9 16 10 17 14 18 11 19 13 20 12 21 92 24 93 25
REMARK SMILES IDX 94 26 95 27 21 28 22 29 23 30 24 31 25 32 26 33 27 34 28 35
REMARK SMILES IDX 29 36 30 37 91 38 31 39 90 40 32 41 33 42 34 43 84 44 35 45
REMARK SMILES IDX 89 46 83 47 85 48 36 49 88 50 82 51 81 52 37 54 69 55 49 56
REMARK SMILES IDX 68 57 50 58 53 59 67 60 86 61 51 62 52 63 66 65 87 66 54 67
REMARK SMILES IDX 38 68 39 69 47 70 40 71 41 72 45 73 48 74 42 75 43 76 46 77
REMARK SMILES IDX 44 78 70 79 71 80 79 81 72 82 73 83 77 84 80 85 74 86 75 87
REMARK SMILES IDX 78 88 76 89 55 90 56 91 64 92 57 93 58 94 62 95 65 96 59 97
REMARK SMILES IDX 60 98 63 99 61 100
REMARK H PARENT 3 11 12 22 12 23 85 53 53 64
REMARK Flexibility Score: inf
ROOT
ATOM      1  O   UNL A   1      33.667  25.677  23.021  1.00  0.00    -0.376 OA
ENDROOT
BRANCH   1   2
ATOM      2  C   UNL A   1      33.276  26.623  22.035  1.00  0.00     0.202 C 
BRANCH   2   3
ATOM      3  C   UNL A   1      33.528  28.106  22.351  1.00  0.00     0.261 C 
BRANCH   3   4
ATOM      4  O   UNL A   1      32.679  28.595  23.420  1.00  0.00    -0.461 OA
BRANCH   4   5
ATOM      5  C   UNL A   1      32.979  28.695  24.747  1.00  0.00     0.341 C 
ATOM      6  O   UNL A   1      33.687  29.597  25.177  1.00  0.00    -0.249 OA
BRANCH   5   7
ATOM      7  C   UNL A   1      32.321  27.460  25.643  1.00  0.00     0.231 C 
ATOM      8  C   UNL A   1      30.941  27.002  25.080  1.00  0.00     0.058 C 
BRANCH   7   9
ATOM      9  N   UNL A   1      33.200  25.964  26.167  1.00  0.00    -0.333 N 
ATOM     10  C   UNL A   1      33.191  24.120  26.462  1.00  0.00     0.223 C 
ATOM     11  H   UNL A   1      34.106  26.265  26.408  1.00  0.00     0.164 HD
ATOM     12  O   UNL A   1      34.213  23.395  26.640  1.00  0.00    -0.275 OA
BRANCH  10  13
ATOM     13  C   UNL A   1      31.895  23.040  26.455  1.00  0.00     0.128 C 
BRANCH  13  14
ATOM     14  C   UNL A   1      31.587  22.413  25.140  1.00  0.00     0.170 C 
BRANCH  14  15
ATOM     15  O   UNL A   1      31.317  21.081  25.458  1.00  0.00    -0.377 OA
BRANCH  15  16
ATOM     16  C   UNL A   1      32.345  20.293  24.865  1.00  0.00     0.129 C 
ATOM     17  C   UNL A   1      32.110  19.949  22.881  1.00  0.00     0.093 C 
ATOM     18  C   UNL A   1      32.838  18.784  25.986  1.00  0.00     0.093 C 
ATOM     19  C   UNL A   1      32.460  18.129  22.250  1.00  0.00     0.263 C 
ATOM     20  C   UNL A   1      33.220  17.107  25.189  1.00  0.00     0.263 C 
ATOM     21  N   UNL A   1      33.196  16.833  23.359  1.00  0.00    -0.346 N 
ATOM     22  H   UNL A   1      34.165  16.707  23.064  1.00  0.00     0.346 HD
ATOM     23  H   UNL A   1      32.570  16.036  23.243  1.00  0.00     0.346 HD
ENDBRANCH  15  16
ENDBRANCH  14  15
ENDBRANCH  13  14
ENDBRANCH  10  13
ENDBRANCH   7   9
BRANCH   7  24
ATOM     24  C   UNL A   1      31.896  28.277  26.918  1.00  0.00     0.422 C 
ATOM     25  F   UNL A   1      30.944  27.633  27.641  1.00  0.00    -0.168 F 
ATOM     26  F   UNL A   1      32.949  28.438  27.756  1.00  0.00    -0.168 F 
ATOM     27  F   UNL A   1      31.424  29.505  26.624  1.00  0.00    -0.168 F 
ENDBRANCH   7  24
ENDBRANCH   5   7
ENDBRANCH   4   5
ENDBRANCH   3   4
ENDBRANCH   2   3
ENDBRANCH   1   2
BRANCH   1  28
ATOM     28  C   UNL A   1      33.643  24.319  22.626  1.00  0.00     0.188 C 
BRANCH  28  29
ATOM     29  C   UNL A   1      34.620  23.346  23.317  1.00  0.00     0.188 C 
BRANCH  29  30
ATOM     30  O   UNL A   1      35.823  23.008  22.680  1.00  0.00    -0.376 OA
BRANCH  30  31
ATOM     31  C   UNL A   1      37.019  23.039  23.440  1.00  0.00     0.202 C 
BRANCH  31  32
ATOM     32  C   UNL A   1      37.313  22.119  24.656  1.00  0.00     0.261 C 
BRANCH  32  33
ATOM     33  O   UNL A   1      37.692  22.724  25.908  1.00  0.00    -0.460 OA
BRANCH  33  34
ATOM     34  C   UNL A   1      39.006  22.677  26.257  1.00  0.00     0.338 C 
ATOM     35  O   UNL A   1      39.820  21.823  25.915  1.00  0.00    -0.246 OA
BRANCH  34  36
ATOM     36  C   UNL A   1      39.406  23.988  26.847  1.00  0.00     0.060 A 
ATOM     37  C   UNL A   1      40.123  24.901  26.048  1.00  0.00     0.016 A 
ATOM     38  C   UNL A   1      38.986  24.374  28.121  1.00  0.00     0.016 A 
ATOM     39  C   UNL A   1      40.443  26.177  26.526  1.00  0.00     0.010 A 
ATOM     40  C   UNL A   1      39.342  25.638  28.615  1.00  0.00     0.010 A 
ATOM     41  C   UNL A   1      40.107  26.532  27.838  1.00  0.00    -0.014 A 
BRANCH  41  42
ATOM     42  C   UNL A   1      40.809  27.670  28.495  1.00  0.00     0.031 A 
ATOM     43  C   UNL A   1      39.962  28.842  28.925  1.00  0.00     0.074 A 
ATOM     44  C   UNL A   1      42.133  27.686  28.740  1.00  0.00     0.049 A 
ATOM     45  N   UNL A   1      40.313  29.988  29.450  1.00  0.00    -0.248 NA
ATOM     46  C   UNL A   1      38.510  28.693  28.726  1.00  0.00     0.031 C 
ATOM     47  C   UNL A   1      43.068  26.606  28.447  1.00  0.00     0.029 A 
ATOM     48  N   UNL A   1      42.920  28.673  29.291  1.00  0.00    -0.354 N 
ATOM     49  C   UNL A   1      39.130  30.697  29.629  1.00  0.00     0.074 A 
ATOM     50  C   UNL A   1      38.057  29.870  29.123  1.00  0.00     0.031 C 
ATOM     51  C   UNL A   1      44.307  26.994  28.805  1.00  0.00     0.029 A 
ATOM     52  C   UNL A   1      44.258  28.363  29.322  1.00  0.00     0.049 A 
ATOM     53  H   UNL A   1      42.557  29.523  29.631  1.00  0.00     0.167 HD
ATOM     54  C   UNL A   1      38.947  31.923  30.172  1.00  0.00     0.037 A 
ATOM     55  C   UNL A   1      45.318  29.108  29.701  1.00  0.00     0.037 A 
ATOM     56  C   UNL A   1      40.010  32.754  30.670  1.00  0.00     0.049 A 
ATOM     57  C   UNL A   1      45.102  30.515  30.211  1.00  0.00     0.074 A 
ATOM     58  C   UNL A   1      39.923  34.010  31.246  1.00  0.00     0.029 A 
ATOM     59  N   UNL A   1      41.354  32.420  30.640  1.00  0.00    -0.354 N 
ATOM     60  N   UNL A   1      43.982  31.173  30.393  1.00  0.00    -0.248 NA
ATOM     61  C   UNL A   1      46.304  31.284  30.572  1.00  0.00     0.031 C 
ATOM     62  C   UNL A   1      41.220  34.465  31.498  1.00  0.00     0.029 A 
ATOM     63  C   UNL A   1      42.111  33.460  31.156  1.00  0.00     0.049 A 
ATOM     64  H   UNL A   1      41.718  31.570  30.302  1.00  0.00     0.167 HD
ATOM     65  C   UNL A   1      44.340  32.406  30.928  1.00  0.00     0.074 A 
ATOM     66  C   UNL A   1      45.781  32.404  31.050  1.00  0.00     0.031 C 
ATOM     67  C   UNL A   1      43.546  33.447  31.289  1.00  0.00     0.037 A 
BRANCH  54  68
ATOM     68  C   UNL A   1      37.543  32.454  30.217  1.00  0.00     0.064 A 
ATOM     69  C   UNL A   1      36.694  32.223  31.310  1.00  0.00     0.173 A 
ATOM     70  C   UNL A   1      37.043  33.217  29.150  1.00  0.00     0.173 A 
ATOM     71  F   UNL A   1      37.115  31.485  32.348  1.00  0.00    -0.203 F 
ATOM     72  C   UNL A   1      35.387  32.705  31.317  1.00  0.00     0.198 A 
ATOM     73  C   UNL A   1      35.750  33.730  29.178  1.00  0.00     0.198 A 
ATOM     74  F   UNL A   1      37.811  33.470  28.079  1.00  0.00    -0.203 F 
ATOM     75  F   UNL A   1      34.575  32.418  32.344  1.00  0.00    -0.200 F 
ATOM     76  C   UNL A   1      34.919  33.465  30.257  1.00  0.00     0.200 A 
ATOM     77  F   UNL A   1      35.304  34.476  28.158  1.00  0.00    -0.200 F 
ATOM     78  F   UNL A   1      33.664  33.933  30.268  1.00  0.00    -0.200 F 
ENDBRANCH  54  68
BRANCH  55  79
ATOM     79  C   UNL A   1      46.700  28.557  29.602  1.00  0.00     0.064 A 
ATOM     80  C   UNL A   1      47.298  27.898  30.689  1.00  0.00     0.173 A 
ATOM     81  C   UNL A   1      47.473  28.725  28.444  1.00  0.00     0.173 A 
ATOM     82  F   UNL A   1      46.619  27.745  31.835  1.00  0.00    -0.203 F 
ATOM     83  C   UNL A   1      48.618  27.453  30.626  1.00  0.00     0.198 A 
ATOM     84  C   UNL A   1      48.781  28.248  28.371  1.00  0.00     0.198 A 
ATOM     85  F   UNL A   1      46.960  29.361  27.380  1.00  0.00    -0.203 F 
ATOM     86  F   UNL A   1      49.184  26.887  31.701  1.00  0.00    -0.200 F 
ATOM     87  C   UNL A   1      49.357  27.622  29.465  1.00  0.00     0.200 A 
ATOM     88  F   UNL A   1      49.488  28.408  27.243  1.00  0.00    -0.200 F 
ATOM     89  F   UNL A   1      50.626  27.196  29.406  1.00  0.00    -0.200 F 
ENDBRANCH  55  79
BRANCH  67  90
ATOM     90  C   UNL A   1      44.203  34.650  31.909  1.00  0.00     0.064 A 
ATOM     91  C   UNL A   1      44.429  34.750  33.291  1.00  0.00     0.173 A 
ATOM     92  C   UNL A   1      44.653  35.706  31.099  1.00  0.00     0.173 A 
ATOM     93  F   UNL A   1      44.014  33.775  34.115  1.00  0.00    -0.203 F 
ATOM     94  C   UNL A   1      45.044  35.873  33.839  1.00  0.00     0.198 A 
ATOM     95  C   UNL A   1      45.303  36.809  31.646  1.00  0.00     0.198 A 
ATOM     96  F   UNL A   1      44.477  35.661  29.769  1.00  0.00    -0.203 F 
ATOM     97  F   UNL A   1      45.194  35.972  35.167  1.00  0.00    -0.200 F 
ATOM     98  C   UNL A   1      45.487  36.898  33.016  1.00  0.00     0.200 A 
ATOM     99  F   UNL A   1      45.750  37.786  30.845  1.00  0.00    -0.200 F 
ATOM    100  F   UNL A   1      46.086  37.974  33.545  1.00  0.00    -0.200 F 
ENDBRANCH  67  90
ENDBRANCH  41  42
ENDBRANCH  34  36
ENDBRANCH  33  34
ENDBRANCH  32  33
ENDBRANCH  31  32
ENDBRANCH  30  31
ENDBRANCH  29  30
ENDBRANCH  28  29
ENDBRANCH   1  28
TORSDOF 23
ENDMDL
MODEL 2
REMARK VINA RESULT:      -9.8      1.404      7.253
REMARK SMILES C[C@@](NC(=O)CCOC1CC[NH2+]CC1)(C(=O)OCCOCCOCCOC(=O)c1ccc(-c2c3nc(c(-c4c(F)c(F)c(F)c(F)c4F)c4ccc([nH]4)c(-c4c(F)c(F)c(F)c(F)c4F)c4nc(c(-c5c(F)c(F)c(F)c(F)c5F)c5ccc2[nH]5)C=C4)C=C3)cc1)C(F)(F)F
REMARK SMILES IDX 20 1 19 2 18 3 17 4 15 5 16 6 2 7 1 8 3 9 4 10 5 12 6 13
REMARK SMILES IDX 7 14 8 15 9 16 10 17 14 18 11 19 13 20 12 21 92 24 93 25
REMARK SMILES IDX 94 26 95 27 21 28 22 29 23 30 24 31 25 32 26 33 27 34 28 35
REMARK SMILES IDX 29 36 30 37 91 38 31 39 90 40 32 41 33 42 34 43 84 44 35 45
REMARK SMILES IDX 89 46 83 47 85 48 36 49 88 50 82 51 81 52 37 54 69 55 49 56
REMARK SMILES IDX 68 57 50 58 53 59 67 60 86 61 51 62 52 63 66 65 87 66 54 67
REMARK SMILES IDX 38 68 39 69 47 70 40 71 41 72 45 73 48 74 42 75 43 76 46 77
REMARK SMILES IDX 44 78 70 79 71 80 79 81 72 82 73 83 77 84 80 85 74 86 75 87
REMARK SMILES IDX 78 88 76 89 55 90 56 91 64 92 57 93 58 94 62 95 65 96 59 97
REMARK SMILES IDX 60 98 63 99 61 100
REMARK H PARENT 3 11 12 22 12 23 85 53 53 64
REMARK Flexibility Score: inf
ROOT
ATOM      1  O   UNL A   1      33.996  26.869  24.041  1.00  0.00    -0.376 OA
ENDROOT
BRANCH   1   2
ATOM      2  C   UNL A   1      34.143  27.646  22.860  1.00  0.00     0.202 C 
BRANCH   2   3
ATOM      3  C   UNL A   1      33.639  29.098  22.912  1.00  0.00     0.261 C 
BRANCH   3   4
ATOM      4  O   UNL A   1      32.194  29.184  22.824  1.00  0.00    -0.461 OA
BRANCH   4   5
ATOM      5  C   UNL A   1      31.283  29.022  23.827  1.00  0.00     0.341 C 
ATOM      6  O   UNL A   1      31.198  29.822  24.749  1.00  0.00    -0.249 OA
BRANCH   5   7
ATOM      7  C   UNL A   1      30.386  27.634  23.653  1.00  0.00     0.231 C 
ATOM      8  C   UNL A   1      30.754  26.861  22.350  1.00  0.00     0.058 C 
BRANCH   7   9
ATOM      9  N   UNL A   1      30.117  26.393  24.945  1.00  0.00    -0.333 N 
ATOM     10  C   UNL A   1      30.380  24.656  25.580  1.00  0.00     0.223 C 
ATOM     11  H   UNL A   1      29.583  26.847  25.637  1.00  0.00     0.164 HD
ATOM     12  O   UNL A   1      30.173  24.263  26.765  1.00  0.00    -0.275 OA
BRANCH  10  13
ATOM     13  C   UNL A   1      31.020  23.311  24.787  1.00  0.00     0.128 C 
BRANCH  13  14
ATOM     14  C   UNL A   1      31.912  22.446  25.607  1.00  0.00     0.170 C 
BRANCH  14  15
ATOM     15  O   UNL A   1      31.369  21.169  25.461  1.00  0.00    -0.377 OA
BRANCH  15  16
ATOM     16  C   UNL A   1      32.369  20.359  24.849  1.00  0.00     0.129 C 
ATOM     17  C   UNL A   1      32.107  20.046  22.863  1.00  0.00     0.093 C 
ATOM     18  C   UNL A   1      32.825  18.821  25.946  1.00  0.00     0.093 C 
ATOM     19  C   UNL A   1      32.396  18.225  22.205  1.00  0.00     0.263 C 
ATOM     20  C   UNL A   1      33.151  17.144  25.124  1.00  0.00     0.263 C 
ATOM     21  N   UNL A   1      33.103  16.894  23.292  1.00  0.00    -0.346 N 
ATOM     22  H   UNL A   1      34.065  16.743  22.987  1.00  0.00     0.346 HD
ATOM     23  H   UNL A   1      32.452  16.117  23.171  1.00  0.00     0.346 HD
ENDBRANCH  15  16
ENDBRANCH  14  15
ENDBRANCH  13  14
ENDBRANCH  10  13
ENDBRANCH   7   9
BRANCH   7  24
ATOM     24  C   UNL A   1      29.005  28.279  23.267  1.00  0.00     0.422 C 
ATOM     25  F   UNL A   1      28.977  28.687  21.972  1.00  0.00    -0.168 F 
ATOM     26  F   UNL A   1      28.002  27.375  23.391  1.00  0.00    -0.168 F 
ATOM     27  F   UNL A   1      28.686  29.341  24.035  1.00  0.00    -0.168 F 
ENDBRANCH   7  24
ENDBRANCH   5   7
ENDBRANCH   4   5
ENDBRANCH   3   4
ENDBRANCH   2   3
ENDBRANCH   1   2
BRANCH   1  28
ATOM     28  C   UNL A   1      33.655  25.509  23.853  1.00  0.00     0.188 C 
BRANCH  28  29
ATOM     29  C   UNL A   1      34.743  24.446  24.110  1.00  0.00     0.188 C 
BRANCH  29  30
ATOM     30  O   UNL A   1      35.292  23.745  23.027  1.00  0.00    -0.376 OA
BRANCH  30  31
ATOM     31  C   UNL A   1      36.491  23.017  23.235  1.00  0.00     0.202 C 
BRANCH  31  32
ATOM     32  C   UNL A   1      37.019  22.570  24.625  1.00  0.00     0.261 C 
BRANCH  32  33
ATOM     33  O   UNL A   1      37.612  23.557  25.492  1.00  0.00    -0.460 OA
BRANCH  33  34
ATOM     34  C   UNL A   1      38.674  23.171  26.249  1.00  0.00     0.338 C 
ATOM     35  O   UNL A   1      39.206  22.065  26.247  1.00  0.00    -0.246 OA
BRANCH  34  36
ATOM     36  C   UNL A   1      39.316  24.378  26.847  1.00  0.00     0.060 A 
ATOM     37  C   UNL A   1      39.222  24.578  28.239  1.00  0.00     0.016 A 
ATOM     38  C   UNL A   1      40.104  25.242  26.082  1.00  0.00     0.016 A 
ATOM     39  C   UNL A   1      39.882  25.646  28.858  1.00  0.00     0.010 A 
ATOM     40  C   UNL A   1      40.732  26.335  26.696  1.00  0.00     0.010 A 
ATOM     41  C   UNL A   1      40.593  26.569  28.081  1.00  0.00    -0.014 A 
BRANCH  41  42
ATOM     42  C   UNL A   1      40.910  27.912  28.640  1.00  0.00     0.031 A 
ATOM     43  C   UNL A   1      42.349  28.182  29.003  1.00  0.00     0.074 A 
ATOM     44  C   UNL A   1      39.993  28.884  28.808  1.00  0.00     0.049 A 
ATOM     45  N   UNL A   1      42.894  29.227  29.571  1.00  0.00    -0.248 NA
ATOM     46  C   UNL A   1      43.305  27.108  28.680  1.00  0.00     0.031 C 
ATOM     47  C   UNL A   1      38.584  28.801  28.442  1.00  0.00     0.029 A 
ATOM     48  N   UNL A   1      40.127  30.144  29.348  1.00  0.00    -0.354 N 
ATOM     49  C   UNL A   1      44.248  28.930  29.684  1.00  0.00     0.074 A 
ATOM     50  C   UNL A   1      44.436  27.595  29.162  1.00  0.00     0.031 C 
ATOM     51  C   UNL A   1      37.976  29.953  28.783  1.00  0.00     0.029 A 
ATOM     52  C   UNL A   1      38.947  30.844  29.423  1.00  0.00     0.049 A 
ATOM     53  H   UNL A   1      40.988  30.510  29.652  1.00  0.00     0.167 HD
ATOM     54  C   UNL A   1      45.250  29.699  30.170  1.00  0.00     0.037 A 
ATOM     55  C   UNL A   1      38.680  32.050  29.965  1.00  0.00     0.037 A 
ATOM     56  C   UNL A   1      45.069  31.024  30.699  1.00  0.00     0.049 A 
ATOM     57  C   UNL A   1      39.796  32.852  30.596  1.00  0.00     0.074 A 
ATOM     58  C   UNL A   1      46.025  31.885  31.209  1.00  0.00     0.029 A 
ATOM     59  N   UNL A   1      43.850  31.676  30.798  1.00  0.00    -0.354 N 
ATOM     60  N   UNL A   1      41.075  32.574  30.685  1.00  0.00    -0.248 NA
ATOM     61  C   UNL A   1      39.429  34.143  31.201  1.00  0.00     0.031 C 
ATOM     62  C   UNL A   1      45.375  33.029  31.682  1.00  0.00     0.029 A 
ATOM     63  C   UNL A   1      44.024  32.916  31.392  1.00  0.00     0.049 A 
ATOM     64  H   UNL A   1      42.988  31.312  30.491  1.00  0.00     0.167 HD
ATOM     65  C   UNL A   1      41.666  33.667  31.311  1.00  0.00     0.074 A 
ATOM     66  C   UNL A   1      40.609  34.618  31.573  1.00  0.00     0.031 C 
ATOM     67  C   UNL A   1      42.969  33.866  31.637  1.00  0.00     0.037 A 
BRANCH  54  68
ATOM     68  C   UNL A   1      46.629  29.103  30.190  1.00  0.00     0.064 A 
ATOM     69  C   UNL A   1      47.113  28.385  31.294  1.00  0.00     0.173 A 
ATOM     70  C   UNL A   1      47.474  29.244  29.079  1.00  0.00     0.173 A 
ATOM     71  F   UNL A   1      46.352  28.236  32.390  1.00  0.00    -0.203 F 
ATOM     72  C   UNL A   1      48.404  27.863  31.300  1.00  0.00     0.198 A 
ATOM     73  C   UNL A   1      48.749  28.687  29.073  1.00  0.00     0.198 A 
ATOM     74  F   UNL A   1      47.063  29.919  27.995  1.00  0.00    -0.203 F 
ATOM     75  F   UNL A   1      48.867  27.236  32.391  1.00  0.00    -0.200 F 
ATOM     76  C   UNL A   1      49.217  28.006  30.186  1.00  0.00     0.200 A 
ATOM     77  F   UNL A   1      49.529  28.814  27.990  1.00  0.00    -0.200 F 
ATOM     78  F   UNL A   1      50.457  27.498  30.190  1.00  0.00    -0.200 F 
ENDBRANCH  54  68
BRANCH  55  79
ATOM     79  C   UNL A   1      37.289  32.588  29.961  1.00  0.00     0.064 A 
ATOM     80  C   UNL A   1      36.395  32.299  31.005  1.00  0.00     0.173 A 
ATOM     81  C   UNL A   1      36.805  33.352  28.889  1.00  0.00     0.173 A 
ATOM     82  F   UNL A   1      36.793  31.540  32.035  1.00  0.00    -0.203 F 
ATOM     83  C   UNL A   1      35.071  32.734  30.963  1.00  0.00     0.198 A 
ATOM     84  C   UNL A   1      35.490  33.816  28.866  1.00  0.00     0.198 A 
ATOM     85  F   UNL A   1      37.608  33.645  27.856  1.00  0.00    -0.203 F 
ATOM     86  F   UNL A   1      34.223  32.388  31.942  1.00  0.00    -0.200 F 
ATOM     87  C   UNL A   1      34.621  33.498  29.897  1.00  0.00     0.200 A 
ATOM     88  F   UNL A   1      35.063  34.560  27.836  1.00  0.00    -0.200 F 
ATOM     89  F   UNL A   1      33.348  33.913  29.857  1.00  0.00    -0.200 F 
ENDBRANCH  55  79
BRANCH  67  90
ATOM     90  C   UNL A   1      43.344  35.185  32.257  1.00  0.00     0.064 A 
ATOM     91  C   UNL A   1      43.626  36.322  31.484  1.00  0.00     0.173 A 
ATOM     92  C   UNL A   1      43.383  35.323  33.655  1.00  0.00     0.173 A 
ATOM     93  F   UNL A   1      43.612  36.247  30.144  1.00  0.00    -0.203 F 
ATOM     94  C   UNL A   1      43.966  37.532  32.084  1.00  0.00     0.198 A 
ATOM     95  C   UNL A   1      43.685  36.545  34.251  1.00  0.00     0.198 A 
ATOM     96  F   UNL A   1      43.110  34.274  34.446  1.00  0.00    -0.203 F 
ATOM     97  F   UNL A   1      44.289  38.587  31.323  1.00  0.00    -0.200 F 
ATOM     98  C   UNL A   1      43.988  37.645  33.466  1.00  0.00     0.200 A 
ATOM     99  F   UNL A   1      43.682  36.655  35.587  1.00  0.00    -0.200 F 
ATOM    100  F   UNL A   1      44.307  38.813  34.040  1.00  0.00    -0.200 F 
ENDBRANCH  67  90
ENDBRANCH  41  42
ENDBRANCH  34  36
ENDBRANCH  33  34
ENDBRANCH  32  33
ENDBRANCH  31  32
ENDBRANCH  30  31
ENDBRANCH  29  30
ENDBRANCH  28  29
ENDBRANCH   1  28
TORSDOF 23
ENDMDL
MODEL 3
REMARK VINA RESULT:      -9.7      4.104      7.523
REMARK SMILES C[C@@](NC(=O)CCOC1CC[NH2+]CC1)(C(=O)OCCOCCOCCOC(=O)c1ccc(-c2c3nc(c(-c4c(F)c(F)c(F)c(F)c4F)c4ccc([nH]4)c(-c4c(F)c(F)c(F)c(F)c4F)c4nc(c(-c5c(F)c(F)c(F)c(F)c5F)c5ccc2[nH]5)C=C4)C=C3)cc1)C(F)(F)F
REMARK SMILES IDX 20 1 19 2 18 3 17 4 15 5 16 6 2 7 1 8 3 9 4 10 5 12 6 13
REMARK SMILES IDX 7 14 8 15 9 16 10 17 14 18 11 19 13 20 12 21 92 24 93 25
REMARK SMILES IDX 94 26 95 27 21 28 22 29 23 30 24 31 25 32 26 33 27 34 28 35
REMARK SMILES IDX 29 36 30 37 91 38 31 39 90 40 32 41 33 42 34 43 84 44 35 45
REMARK SMILES IDX 89 46 83 47 85 48 36 49 88 50 82 51 81 52 37 54 69 55 49 56
REMARK SMILES IDX 68 57 50 58 53 59 67 60 86 61 51 62 52 63 66 65 87 66 54 67
REMARK SMILES IDX 38 68 39 69 47 70 40 71 41 72 45 73 48 74 42 75 43 76 46 77
REMARK SMILES IDX 44 78 70 79 71 80 79 81 72 82 73 83 77 84 80 85 74 86 75 87
REMARK SMILES IDX 78 88 76 89 55 90 56 91 64 92 57 93 58 94 62 95 65 96 59 97
REMARK SMILES IDX 60 98 63 99 61 100
REMARK H PARENT 3 11 12 22 12 23 85 53 53 64
REMARK Flexibility Score: inf
ROOT
ATOM      1  O   UNL A   1      32.336  25.805  26.785  1.00  0.00    -0.376 OA
ENDROOT
BRANCH   1   2
ATOM      2  C   UNL A   1      32.875  25.475  25.512  1.00  0.00     0.202 C 
BRANCH   2   3
ATOM      3  C   UNL A   1      34.406  25.477  25.379  1.00  0.00     0.261 C 
BRANCH   3   4
ATOM      4  O   UNL A   1      35.026  24.393  26.116  1.00  0.00    -0.461 OA
BRANCH   4   5
ATOM      5  C   UNL A   1      34.654  23.080  26.142  1.00  0.00     0.341 C 
ATOM      6  O   UNL A   1      34.207  22.562  27.157  1.00  0.00    -0.249 OA
BRANCH   5   7
ATOM      7  C   UNL A   1      34.923  22.314  24.692  1.00  0.00     0.231 C 
ATOM      8  C   UNL A   1      34.771  20.767  24.812  1.00  0.00     0.058 C 
BRANCH   7   9
ATOM      9  N   UNL A   1      34.194  22.795  23.105  1.00  0.00    -0.333 N 
ATOM     10  C   UNL A   1      33.465  24.122  22.012  1.00  0.00     0.223 C 
ATOM     11  H   UNL A   1      34.173  21.970  22.566  1.00  0.00     0.164 HD
ATOM     12  O   UNL A   1      33.276  24.031  20.764  1.00  0.00    -0.275 OA
BRANCH  10  13
ATOM     13  C   UNL A   1      33.015  25.701  22.399  1.00  0.00     0.128 C 
BRANCH  13  14
ATOM     14  C   UNL A   1      31.620  26.079  22.039  1.00  0.00     0.170 C 
BRANCH  14  15
ATOM     15  O   UNL A   1      31.310  27.107  22.931  1.00  0.00    -0.377 OA
BRANCH  15  16
ATOM     16  C   UNL A   1      30.185  27.798  22.396  1.00  0.00     0.129 C 
ATOM     17  C   UNL A   1      30.488  29.774  22.058  1.00  0.00     0.093 C 
ATOM     18  C   UNL A   1      28.532  27.282  23.277  1.00  0.00     0.093 C 
ATOM     19  C   UNL A   1      29.056  30.995  22.596  1.00  0.00     0.263 C 
ATOM     20  C   UNL A   1      27.217  28.595  23.651  1.00  0.00     0.263 C 
ATOM     21  N   UNL A   1      27.403  30.372  23.171  1.00  0.00    -0.346 N 
ATOM     22  H   UNL A   1      26.741  30.546  22.414  1.00  0.00     0.346 HD
ATOM     23  H   UNL A   1      27.249  30.875  24.045  1.00  0.00     0.346 HD
ENDBRANCH  15  16
ENDBRANCH  14  15
ENDBRANCH  13  14
ENDBRANCH  10  13
ENDBRANCH   7   9
BRANCH   7  24
ATOM     24  C   UNL A   1      36.485  22.481  24.610  1.00  0.00     0.422 C 
ATOM     25  F   UNL A   1      37.070  22.406  25.834  1.00  0.00    -0.168 F 
ATOM     26  F   UNL A   1      37.035  21.483  23.877  1.00  0.00    -0.168 F 
ATOM     27  F   UNL A   1      36.862  23.647  24.049  1.00  0.00    -0.168 F 
ENDBRANCH   7  24
ENDBRANCH   5   7
ENDBRANCH   4   5
ENDBRANCH   3   4
ENDBRANCH   2   3
ENDBRANCH   1   2
BRANCH   1  28
ATOM     28  C   UNL A   1      31.190  26.634  26.782  1.00  0.00     0.188 C 
BRANCH  28  29
ATOM     29  C   UNL A   1      31.397  28.157  26.916  1.00  0.00     0.188 C 
BRANCH  29  30
ATOM     30  O   UNL A   1      31.384  28.959  25.766  1.00  0.00    -0.376 OA
BRANCH  30  31
ATOM     31  C   UNL A   1      32.247  30.083  25.720  1.00  0.00     0.202 C 
BRANCH  31  32
ATOM     32  C   UNL A   1      32.027  31.396  26.518  1.00  0.00     0.261 C 
BRANCH  32  33
ATOM     33  O   UNL A   1      32.770  31.600  27.736  1.00  0.00    -0.460 OA
BRANCH  33  34
ATOM     34  C   UNL A   1      33.743  32.551  27.727  1.00  0.00     0.338 C 
ATOM     35  O   UNL A   1      33.574  33.764  27.647  1.00  0.00    -0.246 OA
BRANCH  34  36
ATOM     36  C   UNL A   1      35.033  31.939  28.161  1.00  0.00     0.060 A 
ATOM     37  C   UNL A   1      35.124  30.535  28.244  1.00  0.00     0.016 A 
ATOM     38  C   UNL A   1      36.176  32.714  28.367  1.00  0.00     0.016 A 
ATOM     39  C   UNL A   1      36.337  29.911  28.559  1.00  0.00     0.010 A 
ATOM     40  C   UNL A   1      37.382  32.091  28.723  1.00  0.00     0.010 A 
ATOM     41  C   UNL A   1      37.461  30.689  28.861  1.00  0.00    -0.014 A 
BRANCH  41  42
ATOM     42  C   UNL A   1      38.595  30.083  29.613  1.00  0.00     0.031 A 
ATOM     43  C   UNL A   1      38.798  30.543  31.036  1.00  0.00     0.074 A 
ATOM     44  C   UNL A   1      39.413  29.145  29.099  1.00  0.00     0.049 A 
ATOM     45  N   UNL A   1      39.740  30.241  31.893  1.00  0.00    -0.248 NA
ATOM     46  C   UNL A   1      37.791  31.483  31.557  1.00  0.00     0.031 C 
ATOM     47  C   UNL A   1      39.303  28.552  27.770  1.00  0.00     0.029 A 
ATOM     48  N   UNL A   1      40.517  28.533  29.651  1.00  0.00    -0.354 N 
ATOM     49  C   UNL A   1      39.445  30.963  33.044  1.00  0.00     0.074 A 
ATOM     50  C   UNL A   1      38.261  31.745  32.765  1.00  0.00     0.031 C 
ATOM     51  C   UNL A   1      40.309  27.674  27.601  1.00  0.00     0.029 A 
ATOM     52  C   UNL A   1      41.155  27.666  28.797  1.00  0.00     0.049 A 
ATOM     53  H   UNL A   1      40.821  28.701  30.571  1.00  0.00     0.167 HD
ATOM     54  C   UNL A   1      40.093  30.972  34.232  1.00  0.00     0.037 A 
ATOM     55  C   UNL A   1      42.299  26.968  28.955  1.00  0.00     0.037 A 
ATOM     56  C   UNL A   1      41.275  30.204  34.514  1.00  0.00     0.049 A 
ATOM     57  C   UNL A   1      43.065  27.070  30.256  1.00  0.00     0.074 A 
ATOM     58  C   UNL A   1      42.001  30.141  35.691  1.00  0.00     0.029 A 
ATOM     59  N   UNL A   1      41.914  29.374  33.607  1.00  0.00    -0.354 N 
ATOM     60  N   UNL A   1      42.773  27.740  31.345  1.00  0.00    -0.248 NA
ATOM     61  C   UNL A   1      44.324  26.312  30.348  1.00  0.00     0.031 C 
ATOM     62  C   UNL A   1      43.118  29.329  35.473  1.00  0.00     0.029 A 
ATOM     63  C   UNL A   1      43.045  28.821  34.186  1.00  0.00     0.049 A 
ATOM     64  H   UNL A   1      41.610  29.203  32.686  1.00  0.00     0.167 HD
ATOM     65  C   UNL A   1      43.780  27.450  32.260  1.00  0.00     0.074 A 
ATOM     66  C   UNL A   1      44.689  26.536  31.602  1.00  0.00     0.031 C 
ATOM     67  C   UNL A   1      43.938  27.899  33.531  1.00  0.00     0.037 A 
BRANCH  54  68
ATOM     68  C   UNL A   1      39.556  31.878  35.303  1.00  0.00     0.064 A 
ATOM     69  C   UNL A   1      38.640  31.428  36.267  1.00  0.00     0.173 A 
ATOM     70  C   UNL A   1      39.974  33.216  35.372  1.00  0.00     0.173 A 
ATOM     71  F   UNL A   1      38.193  30.163  36.236  1.00  0.00    -0.203 F 
ATOM     72  C   UNL A   1      38.136  32.292  37.235  1.00  0.00     0.198 A 
ATOM     73  C   UNL A   1      39.498  34.066  36.365  1.00  0.00     0.198 A 
ATOM     74  F   UNL A   1      40.849  33.699  34.477  1.00  0.00    -0.203 F 
ATOM     75  F   UNL A   1      37.214  31.857  38.106  1.00  0.00    -0.200 F 
ATOM     76  C   UNL A   1      38.572  33.607  37.290  1.00  0.00     0.200 A 
ATOM     77  F   UNL A   1      39.932  35.333  36.425  1.00  0.00    -0.200 F 
ATOM     78  F   UNL A   1      38.091  34.436  38.226  1.00  0.00    -0.200 F 
ENDBRANCH  54  68
BRANCH  55  79
ATOM     79  C   UNL A   1      42.820  26.112  27.851  1.00  0.00     0.064 A 
ATOM     80  C   UNL A   1      43.670  26.637  26.864  1.00  0.00     0.173 A 
ATOM     81  C   UNL A   1      42.435  24.770  27.725  1.00  0.00     0.173 A 
ATOM     82  F   UNL A   1      44.037  27.926  26.914  1.00  0.00    -0.203 F 
ATOM     83  C   UNL A   1      44.093  25.860  25.787  1.00  0.00     0.198 A 
ATOM     84  C   UNL A   1      42.888  23.983  26.666  1.00  0.00     0.198 A 
ATOM     85  F   UNL A   1      41.612  24.218  28.629  1.00  0.00    -0.203 F 
ATOM     86  F   UNL A   1      44.850  26.407  24.825  1.00  0.00    -0.200 F 
ATOM     87  C   UNL A   1      43.708  24.531  25.692  1.00  0.00     0.200 A 
ATOM     88  F   UNL A   1      42.518  22.698  26.582  1.00  0.00    -0.200 F 
ATOM     89  F   UNL A   1      44.112  23.786  24.655  1.00  0.00    -0.200 F 
ENDBRANCH  55  79
BRANCH  67  90
ATOM     90  C   UNL A   1      45.099  27.365  34.326  1.00  0.00     0.064 A 
ATOM     91  C   UNL A   1      46.337  28.025  34.377  1.00  0.00     0.173 A 
ATOM     92  C   UNL A   1      44.957  26.190  35.083  1.00  0.00     0.173 A 
ATOM     93  F   UNL A   1      46.533  29.147  33.668  1.00  0.00    -0.203 F 
ATOM     94  C   UNL A   1      47.395  27.511  35.124  1.00  0.00     0.198 A 
ATOM     95  C   UNL A   1      46.004  25.701  35.860  1.00  0.00     0.198 A 
ATOM     96  F   UNL A   1      43.793  25.523  35.084  1.00  0.00    -0.203 F 
ATOM     97  F   UNL A   1      48.584  28.128  35.109  1.00  0.00    -0.200 F 
ATOM     98  C   UNL A   1      47.225  26.355  35.870  1.00  0.00     0.200 A 
ATOM     99  F   UNL A   1      45.829  24.596  36.598  1.00  0.00    -0.200 F 
ATOM    100  F   UNL A   1      48.243  25.868  36.595  1.00  0.00    -0.200 F 
ENDBRANCH  67  90
ENDBRANCH  41  42
ENDBRANCH  34  36
ENDBRANCH  33  34
ENDBRANCH  32  33
ENDBRANCH  31  32
ENDBRANCH  30  31
ENDBRANCH  29  30
ENDBRANCH  28  29
ENDBRANCH   1  28
TORSDOF 23
ENDMDL
