MODEL 1
REMARK VINA RESULT:      -9.1      0.000      0.000
REMARK SMILES CC[N@@H+](CCC(C)(C)O)C[C@@H](C)C(=O)OCCOCCOCCOC(=O)c1ccc(-c2c3nc(c(-c4c(F)c(F)c(F)c(F)c4F)c4ccc([nH]4)c(-c4c(F)c(F)c(F)c(F)c4F)c4nc(c(-c5c(F)c(F)c(F)c(F)c5F)c5ccc2[nH]5)C=C4)C=C3)cc1
REMARK SMILES IDX 17 1 16 2 15 3 13 4 14 5 11 6 12 7 10 8 3 9 2 11 1 12 4 13
REMARK SMILES IDX 5 14 6 15 7 16 8 17 9 18 18 20 19 21 20 22 21 23 22 24 23 25
REMARK SMILES IDX 24 26 25 27 26 28 27 29 28 30 89 31 29 32 88 33 30 34 31 35
REMARK SMILES IDX 32 36 82 37 33 38 87 39 81 40 83 41 34 42 86 43 80 44 79 45
REMARK SMILES IDX 35 47 67 48 47 49 66 50 48 51 51 52 65 53 84 54 49 55 50 56
REMARK SMILES IDX 64 58 85 59 52 60 36 61 37 62 45 63 38 64 39 65 43 66 46 67
REMARK SMILES IDX 40 68 41 69 44 70 42 71 68 72 69 73 77 74 70 75 71 76 75 77
REMARK SMILES IDX 78 78 72 79 73 80 76 81 74 82 53 83 54 84 62 85 55 86 56 87
REMARK SMILES IDX 60 88 63 89 57 90 58 91 61 92 59 93
REMARK H PARENT 3 10 9 19 83 46 51 57
REMARK Flexibility Score: inf
ROOT
ATOM      1  C   UNL A   1      33.262  26.365  21.758  1.00  0.00     0.202 C 
ENDROOT
BRANCH   1   2
ATOM      2  C   UNL A   1      32.723  24.939  21.980  1.00  0.00     0.261 C 
BRANCH   2   3
ATOM      3  O   UNL A   1      32.522  24.521  23.356  1.00  0.00    -0.463 OA
BRANCH   3   4
ATOM      4  C   UNL A   1      31.564  23.564  23.524  1.00  0.00     0.314 C 
ATOM      5  O   UNL A   1      30.406  23.691  23.128  1.00  0.00    -0.252 OA
BRANCH   4   6
ATOM      6  C   UNL A   1      31.981  22.308  24.288  1.00  0.00     0.151 C 
ATOM      7  C   UNL A   1      31.873  22.644  25.773  1.00  0.00     0.026 C 
BRANCH   6   8
ATOM      8  C   UNL A   1      33.303  21.624  23.871  1.00  0.00     0.277 C 
BRANCH   8   9
ATOM      9  N   UNL A   1      33.866  20.531  24.699  1.00  0.00    -0.334 N 
ATOM     10  H   UNL A   1      33.185  20.647  25.449  1.00  0.00     0.348 HD
BRANCH   9  11
ATOM     11  C   UNL A   1      33.680  19.150  24.251  1.00  0.00     0.258 C 
ATOM     12  C   UNL A   1      32.861  18.269  25.190  1.00  0.00     0.071 C 
ENDBRANCH   9  11
BRANCH   9  13
ATOM     13  C   UNL A   1      35.166  20.740  25.366  1.00  0.00     0.265 C 
BRANCH  13  14
ATOM     14  C   UNL A   1      35.383  21.991  26.252  1.00  0.00     0.096 C 
BRANCH  14  15
ATOM     15  C   UNL A   1      36.202  23.144  25.618  1.00  0.00     0.064 C 
ATOM     16  C   UNL A   1      36.911  22.712  24.336  1.00  0.00     0.042 C 
ATOM     17  C   UNL A   1      35.335  24.375  25.342  1.00  0.00     0.042 C 
BRANCH  15  18
ATOM     18  O   UNL A   1      37.226  23.573  26.502  1.00  0.00    -0.390 OA
ATOM     19  H   UNL A   1      37.618  22.801  26.940  1.00  0.00     0.211 HD
ENDBRANCH  15  18
ENDBRANCH  14  15
ENDBRANCH  13  14
ENDBRANCH   9  13
ENDBRANCH   8   9
ENDBRANCH   6   8
ENDBRANCH   4   6
ENDBRANCH   3   4
ENDBRANCH   2   3
ENDBRANCH   1   2
BRANCH   1  20
ATOM     20  O   UNL A   1      32.837  27.426  22.605  1.00  0.00    -0.376 OA
BRANCH  20  21
ATOM     21  C   UNL A   1      31.452  27.706  22.607  1.00  0.00     0.188 C 
BRANCH  21  22
ATOM     22  C   UNL A   1      30.732  27.544  23.943  1.00  0.00     0.188 C 
BRANCH  22  23
ATOM     23  O   UNL A   1      31.470  27.383  25.131  1.00  0.00    -0.376 OA
BRANCH  23  24
ATOM     24  C   UNL A   1      31.401  28.347  26.176  1.00  0.00     0.202 C 
BRANCH  24  25
ATOM     25  C   UNL A   1      32.095  29.735  26.210  1.00  0.00     0.261 C 
BRANCH  25  26
ATOM     26  O   UNL A   1      32.662  30.218  27.432  1.00  0.00    -0.460 OA
BRANCH  26  27
ATOM     27  C   UNL A   1      33.446  31.317  27.328  1.00  0.00     0.338 C 
ATOM     28  O   UNL A   1      33.083  32.444  27.020  1.00  0.00    -0.246 OA
BRANCH  27  29
ATOM     29  C   UNL A   1      34.787  31.007  27.894  1.00  0.00     0.060 A 
ATOM     30  C   UNL A   1      35.036  29.687  28.294  1.00  0.00     0.016 A 
ATOM     31  C   UNL A   1      35.801  31.965  27.996  1.00  0.00     0.016 A 
ATOM     32  C   UNL A   1      36.273  29.333  28.841  1.00  0.00     0.010 A 
ATOM     33  C   UNL A   1      37.037  31.612  28.560  1.00  0.00     0.010 A 
ATOM     34  C   UNL A   1      37.272  30.301  29.012  1.00  0.00    -0.014 A 
BRANCH  34  35
ATOM     35  C   UNL A   1      38.439  30.006  29.886  1.00  0.00     0.031 A 
ATOM     36  C   UNL A   1      39.481  29.055  29.362  1.00  0.00     0.074 A 
ATOM     37  C   UNL A   1      38.609  30.567  31.098  1.00  0.00     0.049 A 
ATOM     38  N   UNL A   1      40.532  28.552  29.955  1.00  0.00    -0.248 NA
ATOM     39  C   UNL A   1      39.306  28.615  27.968  1.00  0.00     0.031 C 
ATOM     40  C   UNL A   1      37.732  31.565  31.702  1.00  0.00     0.029 A 
ATOM     41  N   UNL A   1      39.586  30.361  32.045  1.00  0.00    -0.354 N 
ATOM     42  C   UNL A   1      41.134  27.726  29.015  1.00  0.00     0.074 A 
ATOM     43  C   UNL A   1      40.325  27.786  27.817  1.00  0.00     0.031 C 
ATOM     44  C   UNL A   1      38.203  31.876  32.923  1.00  0.00     0.029 A 
ATOM     45  C   UNL A   1      39.382  31.057  33.211  1.00  0.00     0.049 A 
ATOM     46  H   UNL A   1      40.360  29.769  31.899  1.00  0.00     0.167 HD
ATOM     47  C   UNL A   1      42.254  26.976  29.137  1.00  0.00     0.037 A 
ATOM     48  C   UNL A   1      40.045  31.008  34.386  1.00  0.00     0.037 A 
ATOM     49  C   UNL A   1      43.050  26.894  30.332  1.00  0.00     0.049 A 
ATOM     50  C   UNL A   1      41.225  30.075  34.540  1.00  0.00     0.074 A 
ATOM     51  C   UNL A   1      44.192  26.146  30.558  1.00  0.00     0.029 A 
ATOM     52  N   UNL A   1      42.778  27.573  31.510  1.00  0.00    -0.354 N 
ATOM     53  N   UNL A   1      41.783  29.285  33.654  1.00  0.00    -0.248 NA
ATOM     54  C   UNL A   1      41.863  30.021  35.866  1.00  0.00     0.031 C 
ATOM     55  C   UNL A   1      44.574  26.322  31.891  1.00  0.00     0.029 A 
ATOM     56  C   UNL A   1      43.713  27.239  32.475  1.00  0.00     0.049 A 
ATOM     57  H   UNL A   1      42.029  28.200  31.641  1.00  0.00     0.167 HD
ATOM     58  C   UNL A   1      42.852  28.673  34.302  1.00  0.00     0.074 A 
ATOM     59  C   UNL A   1      42.871  29.187  35.654  1.00  0.00     0.031 C 
ATOM     60  C   UNL A   1      43.740  27.771  33.815  1.00  0.00     0.037 A 
BRANCH  47  61
ATOM     61  C   UNL A   1      42.643  26.133  27.958  1.00  0.00     0.064 A 
ATOM     62  C   UNL A   1      43.577  26.571  27.007  1.00  0.00     0.173 A 
ATOM     63  C   UNL A   1      42.066  24.867  27.777  1.00  0.00     0.173 A 
ATOM     64  F   UNL A   1      44.142  27.783  27.123  1.00  0.00    -0.203 F 
ATOM     65  C   UNL A   1      43.888  25.789  25.898  1.00  0.00     0.198 A 
ATOM     66  C   UNL A   1      42.407  24.073  26.686  1.00  0.00     0.198 A 
ATOM     67  F   UNL A   1      41.169  24.400  28.657  1.00  0.00    -0.203 F 
ATOM     68  F   UNL A   1      44.733  26.255  24.967  1.00  0.00    -0.200 F 
ATOM     69  C   UNL A   1      43.309  24.538  25.742  1.00  0.00     0.200 A 
ATOM     70  F   UNL A   1      41.854  22.861  26.545  1.00  0.00    -0.200 F 
ATOM     71  F   UNL A   1      43.609  23.788  24.674  1.00  0.00    -0.200 F 
ENDBRANCH  47  61
BRANCH  48  72
ATOM     72  C   UNL A   1      39.590  31.830  35.541  1.00  0.00     0.064 A 
ATOM     73  C   UNL A   1      38.604  31.364  36.423  1.00  0.00     0.173 A 
ATOM     74  C   UNL A   1      40.094  33.122  35.759  1.00  0.00     0.173 A 
ATOM     75  F   UNL A   1      38.060  30.152  36.238  1.00  0.00    -0.203 F 
ATOM     76  C   UNL A   1      38.129  32.161  37.464  1.00  0.00     0.198 A 
ATOM     77  C   UNL A   1      39.643  33.906  36.819  1.00  0.00     0.198 A 
ATOM     78  F   UNL A   1      41.027  33.626  34.937  1.00  0.00    -0.203 F 
ATOM     79  F   UNL A   1      37.144  31.712  38.255  1.00  0.00    -0.200 F 
ATOM     80  C   UNL A   1      38.653  33.429  37.665  1.00  0.00     0.200 A 
ATOM     81  F   UNL A   1      40.156  35.128  37.011  1.00  0.00    -0.200 F 
ATOM     82  F   UNL A   1      38.196  34.196  38.664  1.00  0.00    -0.200 F 
ENDBRANCH  48  72
BRANCH  60  83
ATOM     83  C   UNL A   1      44.854  27.318  34.719  1.00  0.00     0.064 A 
ATOM     84  C   UNL A   1      46.063  28.020  34.823  1.00  0.00     0.173 A 
ATOM     85  C   UNL A   1      44.677  26.195  35.546  1.00  0.00     0.173 A 
ATOM     86  F   UNL A   1      46.290  29.093  34.050  1.00  0.00    -0.203 F 
ATOM     87  C   UNL A   1      47.061  27.603  35.703  1.00  0.00     0.198 A 
ATOM     88  C   UNL A   1      45.663  25.803  36.448  1.00  0.00     0.198 A 
ATOM     89  F   UNL A   1      43.536  25.491  35.496  1.00  0.00    -0.203 F 
ATOM     90  F   UNL A   1      48.226  28.265  35.753  1.00  0.00    -0.200 F 
ATOM     91  C   UNL A   1      46.857  26.502  36.521  1.00  0.00     0.200 A 
ATOM     92  F   UNL A   1      45.453  24.750  37.251  1.00  0.00    -0.200 F 
ATOM     93  F   UNL A   1      47.812  26.114  37.377  1.00  0.00    -0.200 F 
ENDBRANCH  60  83
ENDBRANCH  34  35
ENDBRANCH  27  29
ENDBRANCH  26  27
ENDBRANCH  25  26
ENDBRANCH  24  25
ENDBRANCH  23  24
ENDBRANCH  22  23
ENDBRANCH  21  22
ENDBRANCH  20  21
ENDBRANCH   1  20
TORSDOF 24
ENDMDL
MODEL 2
REMARK VINA RESULT:      -9.0      4.478      8.766
REMARK SMILES CC[N@@H+](CCC(C)(C)O)C[C@@H](C)C(=O)OCCOCCOCCOC(=O)c1ccc(-c2c3nc(c(-c4c(F)c(F)c(F)c(F)c4F)c4ccc([nH]4)c(-c4c(F)c(F)c(F)c(F)c4F)c4nc(c(-c5c(F)c(F)c(F)c(F)c5F)c5ccc2[nH]5)C=C4)C=C3)cc1
REMARK SMILES IDX 17 1 16 2 15 3 13 4 14 5 11 6 12 7 10 8 3 9 2 11 1 12 4 13
REMARK SMILES IDX 5 14 6 15 7 16 8 17 9 18 18 20 19 21 20 22 21 23 22 24 23 25
REMARK SMILES IDX 24 26 25 27 26 28 27 29 28 30 89 31 29 32 88 33 30 34 31 35
REMARK SMILES IDX 32 36 82 37 33 38 87 39 81 40 83 41 34 42 86 43 80 44 79 45
REMARK SMILES IDX 35 47 67 48 47 49 66 50 48 51 51 52 65 53 84 54 49 55 50 56
REMARK SMILES IDX 64 58 85 59 52 60 36 61 37 62 45 63 38 64 39 65 43 66 46 67
REMARK SMILES IDX 40 68 41 69 44 70 42 71 68 72 69 73 77 74 70 75 71 76 75 77
REMARK SMILES IDX 78 78 72 79 73 80 76 81 74 82 53 83 54 84 62 85 55 86 56 87
REMARK SMILES IDX 60 88 63 89 57 90 58 91 61 92 59 93
REMARK H PARENT 3 10 9 19 83 46 51 57
REMARK Flexibility Score: inf
ROOT
ATOM      1  C   UNL A   1      32.236  28.619  27.229  1.00  0.00     0.202 C 
ENDROOT
BRANCH   1   2
ATOM      2  C   UNL A   1      31.489  27.591  26.356  1.00  0.00     0.261 C 
BRANCH   2   3
ATOM      3  O   UNL A   1      31.360  26.248  26.891  1.00  0.00    -0.463 OA
BRANCH   3   4
ATOM      4  C   UNL A   1      32.012  25.288  26.174  1.00  0.00     0.314 C 
ATOM      5  O   UNL A   1      33.211  25.345  25.901  1.00  0.00    -0.252 OA
BRANCH   4   6
ATOM      6  C   UNL A   1      31.164  24.124  25.661  1.00  0.00     0.151 C 
ATOM      7  C   UNL A   1      29.972  24.002  26.607  1.00  0.00     0.026 C 
BRANCH   6   8
ATOM      8  C   UNL A   1      31.889  22.794  25.354  1.00  0.00     0.277 C 
BRANCH   8   9
ATOM      9  N   UNL A   1      32.764  22.685  24.162  1.00  0.00    -0.334 N 
ATOM     10  H   UNL A   1      33.513  23.247  24.567  1.00  0.00     0.348 HD
BRANCH   9  11
ATOM     11  C   UNL A   1      33.394  21.395  23.875  1.00  0.00     0.258 C 
ATOM     12  C   UNL A   1      32.534  20.172  24.181  1.00  0.00     0.071 C 
ENDBRANCH   9  11
BRANCH   9  13
ATOM     13  C   UNL A   1      32.394  23.420  22.937  1.00  0.00     0.265 C 
BRANCH  13  14
ATOM     14  C   UNL A   1      33.429  24.349  22.255  1.00  0.00     0.096 C 
BRANCH  14  15
ATOM     15  C   UNL A   1      32.872  25.656  21.637  1.00  0.00     0.064 C 
ATOM     16  C   UNL A   1      32.529  25.495  20.157  1.00  0.00     0.042 C 
ATOM     17  C   UNL A   1      31.651  26.173  22.400  1.00  0.00     0.042 C 
BRANCH  15  18
ATOM     18  O   UNL A   1      33.843  26.689  21.700  1.00  0.00    -0.390 OA
ATOM     19  H   UNL A   1      34.711  26.305  21.900  1.00  0.00     0.211 HD
ENDBRANCH  15  18
ENDBRANCH  14  15
ENDBRANCH  13  14
ENDBRANCH   9  13
ENDBRANCH   8   9
ENDBRANCH   6   8
ENDBRANCH   4   6
ENDBRANCH   3   4
ENDBRANCH   2   3
ENDBRANCH   1   2
BRANCH   1  20
ATOM     20  O   UNL A   1      31.980  30.008  27.069  1.00  0.00    -0.376 OA
BRANCH  20  21
ATOM     21  C   UNL A   1      33.110  30.832  26.859  1.00  0.00     0.188 C 
BRANCH  21  22
ATOM     22  C   UNL A   1      33.675  31.528  28.094  1.00  0.00     0.188 C 
BRANCH  22  23
ATOM     23  O   UNL A   1      34.367  32.748  27.965  1.00  0.00    -0.376 OA
BRANCH  23  24
ATOM     24  C   UNL A   1      34.240  33.773  28.945  1.00  0.00     0.202 C 
BRANCH  24  25
ATOM     25  C   UNL A   1      34.450  33.629  30.476  1.00  0.00     0.261 C 
BRANCH  25  26
ATOM     26  O   UNL A   1      34.566  32.328  31.060  1.00  0.00    -0.460 OA
BRANCH  26  27
ATOM     27  C   UNL A   1      35.566  32.168  31.958  1.00  0.00     0.338 C 
ATOM     28  O   UNL A   1      35.527  32.443  33.149  1.00  0.00    -0.246 OA
BRANCH  27  29
ATOM     29  C   UNL A   1      36.650  31.365  31.332  1.00  0.00     0.060 A 
ATOM     30  C   UNL A   1      37.669  30.882  32.166  1.00  0.00     0.016 A 
ATOM     31  C   UNL A   1      36.661  31.045  29.970  1.00  0.00     0.016 A 
ATOM     32  C   UNL A   1      38.720  30.127  31.636  1.00  0.00     0.010 A 
ATOM     33  C   UNL A   1      37.725  30.301  29.437  1.00  0.00     0.010 A 
ATOM     34  C   UNL A   1      38.776  29.861  30.262  1.00  0.00    -0.014 A 
BRANCH  34  35
ATOM     35  C   UNL A   1      40.042  29.360  29.661  1.00  0.00     0.031 A 
ATOM     36  C   UNL A   1      41.189  30.326  29.544  1.00  0.00     0.074 A 
ATOM     37  C   UNL A   1      40.205  28.089  29.247  1.00  0.00     0.049 A 
ATOM     38  N   UNL A   1      42.355  30.179  28.971  1.00  0.00    -0.248 NA
ATOM     39  C   UNL A   1      40.986  31.644  30.168  1.00  0.00     0.031 C 
ATOM     40  C   UNL A   1      39.217  27.022  29.371  1.00  0.00     0.029 A 
ATOM     41  N   UNL A   1      41.274  27.488  28.623  1.00  0.00    -0.354 N 
ATOM     42  C   UNL A   1      43.016  31.387  29.150  1.00  0.00     0.074 A 
ATOM     43  C   UNL A   1      42.119  32.259  29.875  1.00  0.00     0.031 C 
ATOM     44  C   UNL A   1      39.721  25.898  28.829  1.00  0.00     0.029 A 
ATOM     45  C   UNL A   1      41.043  26.181  28.268  1.00  0.00     0.049 A 
ATOM     46  H   UNL A   1      42.125  27.951  28.448  1.00  0.00     0.167 HD
ATOM     47  C   UNL A   1      44.257  31.744  28.741  1.00  0.00     0.037 A 
ATOM     48  C   UNL A   1      41.794  25.327  27.540  1.00  0.00     0.037 A 
ATOM     49  C   UNL A   1      45.145  30.890  28.001  1.00  0.00     0.049 A 
ATOM     50  C   UNL A   1      43.128  25.784  26.992  1.00  0.00     0.074 A 
ATOM     51  C   UNL A   1      46.415  31.170  27.526  1.00  0.00     0.029 A 
ATOM     52  N   UNL A   1      44.851  29.591  27.613  1.00  0.00    -0.354 N 
ATOM     53  N   UNL A   1      43.743  26.931  27.151  1.00  0.00    -0.248 NA
ATOM     54  C   UNL A   1      43.867  24.827  26.153  1.00  0.00     0.031 C 
ATOM     55  C   UNL A   1      46.862  30.065  26.796  1.00  0.00     0.029 A 
ATOM     56  C   UNL A   1      45.904  29.068  26.880  1.00  0.00     0.049 A 
ATOM     57  H   UNL A   1      44.018  29.112  27.827  1.00  0.00     0.167 HD
ATOM     58  C   UNL A   1      44.950  26.819  26.467  1.00  0.00     0.074 A 
ATOM     59  C   UNL A   1      44.985  25.490  25.896  1.00  0.00     0.031 C 
ATOM     60  C   UNL A   1      45.941  27.735  26.331  1.00  0.00     0.037 A 
BRANCH  47  61
ATOM     61  C   UNL A   1      44.694  33.149  29.035  1.00  0.00     0.064 A 
ATOM     62  C   UNL A   1      44.484  34.198  28.126  1.00  0.00     0.173 A 
ATOM     63  C   UNL A   1      45.338  33.448  30.245  1.00  0.00     0.173 A 
ATOM     64  F   UNL A   1      43.892  33.961  26.945  1.00  0.00    -0.203 F 
ATOM     65  C   UNL A   1      44.939  35.485  28.402  1.00  0.00     0.198 A 
ATOM     66  C   UNL A   1      45.759  34.743  30.532  1.00  0.00     0.198 A 
ATOM     67  F   UNL A   1      45.562  32.483  31.149  1.00  0.00    -0.203 F 
ATOM     68  F   UNL A   1      44.787  36.457  27.491  1.00  0.00    -0.200 F 
ATOM     69  C   UNL A   1      45.569  35.758  29.607  1.00  0.00     0.200 A 
ATOM     70  F   UNL A   1      46.356  35.006  31.702  1.00  0.00    -0.200 F 
ATOM     71  F   UNL A   1      46.007  36.996  29.871  1.00  0.00    -0.200 F 
ENDBRANCH  47  61
BRANCH  48  72
ATOM     72  C   UNL A   1      41.294  23.957  27.236  1.00  0.00     0.064 A 
ATOM     73  C   UNL A   1      40.165  23.758  26.429  1.00  0.00     0.173 A 
ATOM     74  C   UNL A   1      41.905  22.820  27.788  1.00  0.00     0.173 A 
ATOM     75  F   UNL A   1      39.520  24.812  25.908  1.00  0.00    -0.203 F 
ATOM     76  C   UNL A   1      39.656  22.480  26.200  1.00  0.00     0.198 A 
ATOM     77  C   UNL A   1      41.416  21.541  27.532  1.00  0.00     0.198 A 
ATOM     78  F   UNL A   1      42.979  22.953  28.580  1.00  0.00    -0.203 F 
ATOM     79  F   UNL A   1      38.540  22.324  25.474  1.00  0.00    -0.200 F 
ATOM     80  C   UNL A   1      40.285  21.372  26.747  1.00  0.00     0.200 A 
ATOM     81  F   UNL A   1      42.031  20.473  28.059  1.00  0.00    -0.200 F 
ATOM     82  F   UNL A   1      39.796  20.144  26.528  1.00  0.00    -0.200 F 
ENDBRANCH  48  72
BRANCH  60  83
ATOM     83  C   UNL A   1      47.184  27.325  25.589  1.00  0.00     0.064 A 
ATOM     84  C   UNL A   1      47.370  27.610  24.228  1.00  0.00     0.173 A 
ATOM     85  C   UNL A   1      48.236  26.693  26.273  1.00  0.00     0.173 A 
ATOM     86  F   UNL A   1      46.394  28.202  23.523  1.00  0.00    -0.203 F 
ATOM     87  C   UNL A   1      48.551  27.258  23.576  1.00  0.00     0.198 A 
ATOM     88  C   UNL A   1      49.428  26.375  25.627  1.00  0.00     0.198 A 
ATOM     89  F   UNL A   1      48.118  26.405  27.578  1.00  0.00    -0.203 F 
ATOM     90  F   UNL A   1      48.688  27.501  22.265  1.00  0.00    -0.200 F 
ATOM     91  C   UNL A   1      49.582  26.651  24.278  1.00  0.00     0.200 A 
ATOM     92  F   UNL A   1      50.429  25.806  26.313  1.00  0.00    -0.200 F 
ATOM     93  F   UNL A   1      50.722  26.328  23.652  1.00  0.00    -0.200 F 
ENDBRANCH  60  83
ENDBRANCH  34  35
ENDBRANCH  27  29
ENDBRANCH  26  27
ENDBRANCH  25  26
ENDBRANCH  24  25
ENDBRANCH  23  24
ENDBRANCH  22  23
ENDBRANCH  21  22
ENDBRANCH  20  21
ENDBRANCH   1  20
TORSDOF 24
ENDMDL
MODEL 3
REMARK VINA RESULT:      -8.3      0.896      2.194
REMARK SMILES CC[N@@H+](CCC(C)(C)O)C[C@@H](C)C(=O)OCCOCCOCCOC(=O)c1ccc(-c2c3nc(c(-c4c(F)c(F)c(F)c(F)c4F)c4ccc([nH]4)c(-c4c(F)c(F)c(F)c(F)c4F)c4nc(c(-c5c(F)c(F)c(F)c(F)c5F)c5ccc2[nH]5)C=C4)C=C3)cc1
REMARK SMILES IDX 17 1 16 2 15 3 13 4 14 5 11 6 12 7 10 8 3 9 2 11 1 12 4 13
REMARK SMILES IDX 5 14 6 15 7 16 8 17 9 18 18 20 19 21 20 22 21 23 22 24 23 25
REMARK SMILES IDX 24 26 25 27 26 28 27 29 28 30 89 31 29 32 88 33 30 34 31 35
REMARK SMILES IDX 32 36 82 37 33 38 87 39 81 40 83 41 34 42 86 43 80 44 79 45
REMARK SMILES IDX 35 47 67 48 47 49 66 50 48 51 51 52 65 53 84 54 49 55 50 56
REMARK SMILES IDX 64 58 85 59 52 60 36 61 37 62 45 63 38 64 39 65 43 66 46 67
REMARK SMILES IDX 40 68 41 69 44 70 42 71 68 72 69 73 77 74 70 75 71 76 75 77
REMARK SMILES IDX 78 78 72 79 73 80 76 81 74 82 53 83 54 84 62 85 55 86 56 87
REMARK SMILES IDX 60 88 63 89 57 90 58 91 61 92 59 93
REMARK H PARENT 3 10 9 19 83 46 51 57
REMARK Flexibility Score: inf
ROOT
ATOM      1  C   UNL A   1      33.510  26.729  21.972  1.00  0.00     0.202 C 
ENDROOT
BRANCH   1   2
ATOM      2  C   UNL A   1      32.678  25.536  22.482  1.00  0.00     0.261 C 
BRANCH   2   3
ATOM      3  O   UNL A   1      32.476  25.444  23.917  1.00  0.00    -0.463 OA
BRANCH   3   4
ATOM      4  C   UNL A   1      31.373  24.733  24.289  1.00  0.00     0.314 C 
ATOM      5  O   UNL A   1      30.221  25.112  24.078  1.00  0.00    -0.252 OA
BRANCH   4   6
ATOM      6  C   UNL A   1      31.624  23.430  25.048  1.00  0.00     0.151 C 
ATOM      7  C   UNL A   1      31.118  23.647  26.471  1.00  0.00     0.026 C 
BRANCH   6   8
ATOM      8  C   UNL A   1      33.035  22.807  24.948  1.00  0.00     0.277 C 
BRANCH   8   9
ATOM      9  N   UNL A   1      33.195  21.333  24.913  1.00  0.00    -0.334 N 
ATOM     10  H   UNL A   1      32.667  21.180  25.772  1.00  0.00     0.348 HD
BRANCH   9  11
ATOM     11  C   UNL A   1      32.462  20.576  23.896  1.00  0.00     0.258 C 
ATOM     12  C   UNL A   1      32.504  19.060  24.063  1.00  0.00     0.071 C 
ENDBRANCH   9  11
BRANCH   9  13
ATOM     13  C   UNL A   1      34.520  20.754  25.205  1.00  0.00     0.265 C 
BRANCH  13  14
ATOM     14  C   UNL A   1      35.534  21.547  26.066  1.00  0.00     0.096 C 
BRANCH  14  15
ATOM     15  C   UNL A   1      36.662  22.278  25.296  1.00  0.00     0.064 C 
ATOM     16  C   UNL A   1      37.095  23.568  25.991  1.00  0.00     0.042 C 
ATOM     17  C   UNL A   1      37.877  21.376  25.072  1.00  0.00     0.042 C 
BRANCH  15  18
ATOM     18  O   UNL A   1      36.214  22.665  24.006  1.00  0.00    -0.390 OA
ATOM     19  H   UNL A   1      35.368  23.132  24.085  1.00  0.00     0.211 HD
ENDBRANCH  15  18
ENDBRANCH  14  15
ENDBRANCH  13  14
ENDBRANCH   9  13
ENDBRANCH   8   9
ENDBRANCH   6   8
ENDBRANCH   4   6
ENDBRANCH   3   4
ENDBRANCH   2   3
ENDBRANCH   1   2
BRANCH   1  20
ATOM     20  O   UNL A   1      33.438  27.983  22.639  1.00  0.00    -0.376 OA
BRANCH  20  21
ATOM     21  C   UNL A   1      32.270  28.746  22.410  1.00  0.00     0.188 C 
BRANCH  21  22
ATOM     22  C   UNL A   1      31.408  29.044  23.633  1.00  0.00     0.188 C 
BRANCH  22  23
ATOM     23  O   UNL A   1      31.960  28.968  24.926  1.00  0.00    -0.376 OA
BRANCH  23  24
ATOM     24  C   UNL A   1      31.609  29.911  25.933  1.00  0.00     0.202 C 
BRANCH  24  25
ATOM     25  C   UNL A   1      32.335  31.244  26.255  1.00  0.00     0.261 C 
BRANCH  25  26
ATOM     26  O   UNL A   1      32.699  31.548  27.605  1.00  0.00    -0.460 OA
BRANCH  26  27
ATOM     27  C   UNL A   1      33.545  32.592  27.770  1.00  0.00     0.338 C 
ATOM     28  O   UNL A   1      33.256  33.779  27.714  1.00  0.00    -0.246 OA
BRANCH  27  29
ATOM     29  C   UNL A   1      34.844  32.083  28.285  1.00  0.00     0.060 A 
ATOM     30  C   UNL A   1      34.843  30.847  28.949  1.00  0.00     0.016 A 
ATOM     31  C   UNL A   1      36.051  32.764  28.094  1.00  0.00     0.016 A 
ATOM     32  C   UNL A   1      36.030  30.318  29.463  1.00  0.00     0.010 A 
ATOM     33  C   UNL A   1      37.239  32.239  28.624  1.00  0.00     0.010 A 
ATOM     34  C   UNL A   1      37.232  31.026  29.337  1.00  0.00    -0.014 A 
BRANCH  34  35
ATOM     35  C   UNL A   1      38.407  30.634  30.162  1.00  0.00     0.031 A 
ATOM     36  C   UNL A   1      39.389  29.664  29.561  1.00  0.00     0.074 A 
ATOM     37  C   UNL A   1      38.634  31.124  31.394  1.00  0.00     0.049 A 
ATOM     38  N   UNL A   1      40.430  29.084  30.098  1.00  0.00    -0.248 NA
ATOM     39  C   UNL A   1      39.157  29.304  28.153  1.00  0.00     0.031 C 
ATOM     40  C   UNL A   1      37.821  32.128  32.072  1.00  0.00     0.029 A 
ATOM     41  N   UNL A   1      39.625  30.825  32.302  1.00  0.00    -0.354 N 
ATOM     42  C   UNL A   1      40.967  28.280  29.101  1.00  0.00     0.074 A 
ATOM     43  C   UNL A   1      40.131  28.438  27.931  1.00  0.00     0.031 C 
ATOM     44  C   UNL A   1      38.339  32.355  33.294  1.00  0.00     0.029 A 
ATOM     45  C   UNL A   1      39.485  31.469  33.507  1.00  0.00     0.049 A 
ATOM     46  H   UNL A   1      40.366  30.206  32.105  1.00  0.00     0.167 HD
ATOM     47  C   UNL A   1      42.054  27.474  29.154  1.00  0.00     0.037 A 
ATOM     48  C   UNL A   1      40.175  31.329  34.658  1.00  0.00     0.037 A 
ATOM     49  C   UNL A   1      42.876  27.295  30.320  1.00  0.00     0.049 A 
ATOM     50  C   UNL A   1      41.314  30.336  34.732  1.00  0.00     0.074 A 
ATOM     51  C   UNL A   1      43.987  26.485  30.476  1.00  0.00     0.029 A 
ATOM     52  N   UNL A   1      42.667  27.925  31.538  1.00  0.00    -0.354 N 
ATOM     53  N   UNL A   1      41.810  29.568  33.793  1.00  0.00    -0.248 NA
ATOM     54  C   UNL A   1      41.983  30.186  36.035  1.00  0.00     0.031 C 
ATOM     55  C   UNL A   1      44.411  26.575  31.805  1.00  0.00     0.029 A 
ATOM     56  C   UNL A   1      43.611  27.499  32.458  1.00  0.00     0.049 A 
ATOM     57  H   UNL A   1      41.952  28.578  31.722  1.00  0.00     0.167 HD
ATOM     58  C   UNL A   1      42.866  28.876  34.378  1.00  0.00     0.074 A 
ATOM     59  C   UNL A   1      42.945  29.318  35.753  1.00  0.00     0.031 C 
ATOM     60  C   UNL A   1      43.697  27.960  33.822  1.00  0.00     0.037 A 
BRANCH  47  61
ATOM     61  C   UNL A   1      42.372  26.675  27.924  1.00  0.00     0.064 A 
ATOM     62  C   UNL A   1      41.725  25.464  27.638  1.00  0.00     0.173 A 
ATOM     63  C   UNL A   1      43.345  27.129  27.022  1.00  0.00     0.173 A 
ATOM     64  F   UNL A   1      40.801  24.974  28.480  1.00  0.00    -0.203 F 
ATOM     65  C   UNL A   1      42.069  24.718  26.514  1.00  0.00     0.198 A 
ATOM     66  C   UNL A   1      43.661  26.399  25.880  1.00  0.00     0.198 A 
ATOM     67  F   UNL A   1      43.993  28.282  27.248  1.00  0.00    -0.203 F 
ATOM     68  F   UNL A   1      41.485  23.531  26.294  1.00  0.00    -0.200 F 
ATOM     69  C   UNL A   1      43.031  25.189  25.632  1.00  0.00     0.200 A 
ATOM     70  F   UNL A   1      44.582  26.863  25.025  1.00  0.00    -0.200 F 
ATOM     71  F   UNL A   1      43.361  24.470  24.551  1.00  0.00    -0.200 F 
ENDBRANCH  47  61
BRANCH  48  72
ATOM     72  C   UNL A   1      39.789  32.112  35.866  1.00  0.00     0.064 A 
ATOM     73  C   UNL A   1      40.508  33.252  36.254  1.00  0.00     0.173 A 
ATOM     74  C   UNL A   1      38.725  31.707  36.687  1.00  0.00     0.173 A 
ATOM     75  F   UNL A   1      41.558  33.661  35.527  1.00  0.00    -0.203 F 
ATOM     76  C   UNL A   1      40.190  33.944  37.421  1.00  0.00     0.198 A 
ATOM     77  C   UNL A   1      38.386  32.418  37.836  1.00  0.00     0.198 A 
ATOM     78  F   UNL A   1      38.014  30.614  36.372  1.00  0.00    -0.203 F 
ATOM     79  F   UNL A   1      40.931  34.996  37.799  1.00  0.00    -0.200 F 
ATOM     80  C   UNL A   1      39.125  33.531  38.208  1.00  0.00     0.200 A 
ATOM     81  F   UNL A   1      37.354  32.017  38.589  1.00  0.00    -0.200 F 
ATOM     82  F   UNL A   1      38.820  34.196  39.331  1.00  0.00    -0.200 F 
ENDBRANCH  48  72
BRANCH  60  83
ATOM     83  C   UNL A   1      44.812  27.411  34.670  1.00  0.00     0.064 A 
ATOM     84  C   UNL A   1      44.640  26.289  35.495  1.00  0.00     0.173 A 
ATOM     85  C   UNL A   1      46.094  27.982  34.603  1.00  0.00     0.173 A 
ATOM     86  F   UNL A   1      43.434  25.711  35.606  1.00  0.00    -0.203 F 
ATOM     87  C   UNL A   1      45.702  25.775  36.236  1.00  0.00     0.198 A 
ATOM     88  C   UNL A   1      47.161  27.444  35.318  1.00  0.00     0.198 A 
ATOM     89  F   UNL A   1      46.318  29.050  33.823  1.00  0.00    -0.203 F 
ATOM     90  F   UNL A   1      45.504  24.729  37.051  1.00  0.00    -0.200 F 
ATOM     91  C   UNL A   1      46.963  26.345  36.140  1.00  0.00     0.200 A 
ATOM     92  F   UNL A   1      48.381  27.986  35.207  1.00  0.00    -0.200 F 
ATOM     93  F   UNL A   1      47.985  25.839  36.842  1.00  0.00    -0.200 F 
ENDBRANCH  60  83
ENDBRANCH  34  35
ENDBRANCH  27  29
ENDBRANCH  26  27
ENDBRANCH  25  26
ENDBRANCH  24  25
ENDBRANCH  23  24
ENDBRANCH  22  23
ENDBRANCH  21  22
ENDBRANCH  20  21
ENDBRANCH   1  20
TORSDOF 24
ENDMDL
