MODEL 1
REMARK VINA RESULT:     -11.9      0.000      0.000
REMARK SMILES CS(=O)(=O)c1ccc(-c2cc(Cl)cnc2-c2ccc(C(=O)OCCOCCOCCOC(=O)c3ccc(-c4c5nc(c(-c6c(F)c(F)c(F)c(F)c6F)c6ccc([nH]6)c(-c6c(F)c(F)c(F)c(F)c6F)c6nc(c(-c7c(F)c(F)c(F)c(F)c7F)c7ccc4[nH]7)C=C6)C=C5)cc3)nc2)cc1
REMARK SMILES IDX 26 1 25 2 24 3 23 4 22 5 20 6 21 7 19 8 16 9 17 10 98 11
REMARK SMILES IDX 18 12 97 13 15 14 9 15 10 16 11 17 14 18 12 19 13 20 8 21
REMARK SMILES IDX 5 22 6 23 100 24 7 25 99 26 2 27 1 28 3 29 4 30 27 31 28 32
REMARK SMILES IDX 29 33 30 34 31 35 32 36 33 37 34 38 35 39 96 40 36 41 95 42
REMARK SMILES IDX 37 43 38 44 39 45 89 46 40 47 94 48 88 49 90 50 41 51 93 52
REMARK SMILES IDX 87 53 86 54 42 56 74 57 54 58 73 59 55 60 58 61 72 62 91 63
REMARK SMILES IDX 56 64 57 65 71 67 92 68 59 69 43 70 44 71 52 72 45 73 46 74
REMARK SMILES IDX 50 75 53 76 47 77 48 78 51 79 49 80 75 81 76 82 84 83 77 84
REMARK SMILES IDX 78 85 82 86 85 87 79 88 80 89 83 90 81 91 60 92 61 93 69 94
REMARK SMILES IDX 62 95 63 96 67 97 70 98 64 99 65 100 68 101 66 102
REMARK H PARENT 90 55 58 66
REMARK Flexibility Score: inf
ROOT
ATOM      1  C   UNL A   1      33.446  35.649  29.078  1.00  0.00     0.188 C 
ENDROOT
BRANCH   1   2
ATOM      2  O   UNL A   1      33.014  34.385  28.581  1.00  0.00    -0.376 OA
BRANCH   2   3
ATOM      3  C   UNL A   1      33.807  33.224  28.812  1.00  0.00     0.202 C 
BRANCH   3   4
ATOM      4  C   UNL A   1      34.169  32.314  27.629  1.00  0.00     0.261 C 
BRANCH   4   5
ATOM      5  O   UNL A   1      33.715  30.960  27.786  1.00  0.00    -0.459 OA
BRANCH   5   6
ATOM      6  C   UNL A   1      32.608  30.628  27.072  1.00  0.00     0.356 C 
ATOM      7  O   UNL A   1      31.775  31.397  26.619  1.00  0.00    -0.244 OA
BRANCH   6   8
ATOM      8  C   UNL A   1      32.613  29.163  26.804  1.00  0.00     0.148 A 
ATOM      9  C   UNL A   1      32.625  26.526  26.033  1.00  0.00     0.019 A 
ATOM     10  C   UNL A   1      31.599  27.006  26.861  1.00  0.00     0.014 A 
ATOM     11  C   UNL A   1      33.667  27.401  25.742  1.00  0.00     0.122 A 
ATOM     12  C   UNL A   1      31.582  28.346  27.248  1.00  0.00     0.037 A 
ATOM     13  N   UNL A   1      33.680  28.705  26.096  1.00  0.00    -0.249 NA
BRANCH   9  14
ATOM     14  C   UNL A   1      32.508  25.257  25.306  1.00  0.00     0.080 A 
ATOM     15  C   UNL A   1      31.639  25.132  24.194  1.00  0.00     0.010 A 
ATOM     16  C   UNL A   1      31.610  23.898  23.531  1.00  0.00     0.033 A 
ATOM     17  C   UNL A   1      32.431  22.863  23.965  1.00  0.00     0.060 A 
ATOM     18  N   UNL A   1      33.326  24.260  25.729  1.00  0.00    -0.254 NA
ATOM     19  Cl  UNL A   1      32.416  21.347  23.161  1.00  0.00    -0.083 Cl
ATOM     20  C   UNL A   1      33.262  23.086  25.052  1.00  0.00     0.132 A 
BRANCH  15  21
ATOM     21  C   UNL A   1      30.797  26.251  23.729  1.00  0.00    -0.016 A 
ATOM     22  C   UNL A   1      29.254  28.494  23.040  1.00  0.00     0.067 A 
ATOM     23  C   UNL A   1      30.580  28.415  22.616  1.00  0.00     0.021 A 
ATOM     24  C   UNL A   1      28.681  27.456  23.779  1.00  0.00     0.021 A 
ATOM     25  C   UNL A   1      31.341  27.294  22.956  1.00  0.00     0.010 A 
ATOM     26  C   UNL A   1      29.451  26.340  24.117  1.00  0.00     0.010 A 
BRANCH  22  27
ATOM     27  S   UNL A   1      28.273  29.913  22.609  1.00  0.00     0.175 S 
ATOM     28  C   UNL A   1      28.838  31.214  23.674  1.00  0.00     0.163 C 
ATOM     29  O   UNL A   1      26.903  29.619  22.986  1.00  0.00    -0.224 OA
ATOM     30  O   UNL A   1      28.618  30.254  21.243  1.00  0.00    -0.224 OA
ENDBRANCH  22  27
ENDBRANCH  15  21
ENDBRANCH   9  14
ENDBRANCH   6   8
ENDBRANCH   5   6
ENDBRANCH   4   5
ENDBRANCH   3   4
ENDBRANCH   2   3
ENDBRANCH   1   2
BRANCH   1  31
ATOM     31  C   UNL A   1      32.898  36.164  30.426  1.00  0.00     0.188 C 
BRANCH  31  32
ATOM     32  O   UNL A   1      32.686  35.150  31.380  1.00  0.00    -0.376 OA
BRANCH  32  33
ATOM     33  C   UNL A   1      33.435  35.173  32.583  1.00  0.00     0.202 C 
BRANCH  33  34
ATOM     34  C   UNL A   1      34.951  34.891  32.643  1.00  0.00     0.261 C 
BRANCH  34  35
ATOM     35  O   UNL A   1      35.520  34.041  31.640  1.00  0.00    -0.460 OA
BRANCH  35  36
ATOM     36  C   UNL A   1      35.765  32.755  31.988  1.00  0.00     0.338 C 
ATOM     37  O   UNL A   1      35.003  31.979  32.531  1.00  0.00    -0.246 OA
BRANCH  36  38
ATOM     38  C   UNL A   1      37.084  32.382  31.437  1.00  0.00     0.060 A 
ATOM     39  C   UNL A   1      37.324  32.559  30.069  1.00  0.00     0.016 A 
ATOM     40  C   UNL A   1      38.073  31.849  32.267  1.00  0.00     0.016 A 
ATOM     41  C   UNL A   1      38.552  32.183  29.522  1.00  0.00     0.010 A 
ATOM     42  C   UNL A   1      39.295  31.456  31.715  1.00  0.00     0.010 A 
ATOM     43  C   UNL A   1      39.531  31.595  30.335  1.00  0.00    -0.014 A 
BRANCH  43  44
ATOM     44  C   UNL A   1      40.732  30.976  29.723  1.00  0.00     0.031 A 
ATOM     45  C   UNL A   1      41.947  31.831  29.498  1.00  0.00     0.074 A 
ATOM     46  C   UNL A   1      40.749  29.678  29.376  1.00  0.00     0.049 A 
ATOM     47  N   UNL A   1      43.088  31.529  28.930  1.00  0.00    -0.248 NA
ATOM     48  C   UNL A   1      41.862  33.218  29.979  1.00  0.00     0.031 C 
ATOM     49  C   UNL A   1      39.653  28.734  29.580  1.00  0.00     0.029 A 
ATOM     50  N   UNL A   1      41.729  28.932  28.766  1.00  0.00    -0.354 N 
ATOM     51  C   UNL A   1      43.852  32.687  28.982  1.00  0.00     0.074 A 
ATOM     52  C   UNL A   1      43.035  33.707  29.606  1.00  0.00     0.031 C 
ATOM     53  C   UNL A   1      40.017  27.534  29.092  1.00  0.00     0.029 A 
ATOM     54  C   UNL A   1      41.356  27.636  28.513  1.00  0.00     0.049 A 
ATOM     55  H   UNL A   1      42.615  29.294  28.534  1.00  0.00     0.167 HD
ATOM     56  C   UNL A   1      45.123  32.881  28.558  1.00  0.00     0.037 A 
ATOM     57  C   UNL A   1      42.014  26.653  27.867  1.00  0.00     0.037 A 
ATOM     58  C   UNL A   1      45.931  31.871  27.927  1.00  0.00     0.049 A 
ATOM     59  C   UNL A   1      43.394  26.920  27.320  1.00  0.00     0.074 A 
ATOM     60  C   UNL A   1      47.233  31.964  27.472  1.00  0.00     0.029 A 
ATOM     61  N   UNL A   1      45.503  30.579  27.649  1.00  0.00    -0.354 N 
ATOM     62  N   UNL A   1      44.123  28.007  27.396  1.00  0.00    -0.248 NA
ATOM     63  C   UNL A   1      44.044  25.817  26.596  1.00  0.00     0.031 C 
ATOM     64  C   UNL A   1      47.576  30.749  26.870  1.00  0.00     0.029 A 
ATOM     65  C   UNL A   1      46.507  29.878  27.003  1.00  0.00     0.049 A 
ATOM     66  H   UNL A   1      44.617  30.217  27.879  1.00  0.00     0.167 HD
ATOM     67  C   UNL A   1      45.323  27.712  26.760  1.00  0.00     0.074 A 
ATOM     68  C   UNL A   1      45.230  26.338  26.314  1.00  0.00     0.031 C 
ATOM     69  C   UNL A   1      46.405  28.506  26.568  1.00  0.00     0.037 A 
BRANCH  56  70
ATOM     70  C   UNL A   1      45.705  34.254  28.735  1.00  0.00     0.064 A 
ATOM     71  C   UNL A   1      46.370  34.629  29.912  1.00  0.00     0.173 A 
ATOM     72  C   UNL A   1      45.607  35.205  27.707  1.00  0.00     0.173 A 
ATOM     73  F   UNL A   1      46.479  33.761  30.930  1.00  0.00    -0.203 F 
ATOM     74  C   UNL A   1      46.884  35.913  30.069  1.00  0.00     0.198 A 
ATOM     75  C   UNL A   1      46.149  36.478  27.854  1.00  0.00     0.198 A 
ATOM     76  F   UNL A   1      44.984  34.899  26.560  1.00  0.00    -0.203 F 
ATOM     77  F   UNL A   1      47.465  36.265  31.224  1.00  0.00    -0.200 F 
ATOM     78  C   UNL A   1      46.778  36.835  29.037  1.00  0.00     0.200 A 
ATOM     79  F   UNL A   1      46.057  37.364  26.853  1.00  0.00    -0.200 F 
ATOM     80  F   UNL A   1      47.275  38.070  29.188  1.00  0.00    -0.200 F 
ENDBRANCH  56  70
BRANCH  57  81
ATOM     81  C   UNL A   1      41.376  25.322  27.692  1.00  0.00     0.064 A 
ATOM     82  C   UNL A   1      41.842  24.201  28.393  1.00  0.00     0.173 A 
ATOM     83  C   UNL A   1      40.303  25.138  26.808  1.00  0.00     0.173 A 
ATOM     84  F   UNL A   1      42.885  24.320  29.228  1.00  0.00    -0.203 F 
ATOM     85  C   UNL A   1      41.268  22.945  28.206  1.00  0.00     0.198 A 
ATOM     86  C   UNL A   1      39.712  23.887  26.642  1.00  0.00     0.198 A 
ATOM     87  F   UNL A   1      39.826  26.177  26.106  1.00  0.00    -0.203 F 
ATOM     88  F   UNL A   1      41.765  21.882  28.854  1.00  0.00    -0.200 F 
ATOM     89  C   UNL A   1      40.199  22.790  27.336  1.00  0.00     0.200 A 
ATOM     90  F   UNL A   1      38.675  23.743  25.806  1.00  0.00    -0.200 F 
ATOM     91  F   UNL A   1      39.648  21.583  27.158  1.00  0.00    -0.200 F 
ENDBRANCH  57  81
BRANCH  69  92
ATOM     92  C   UNL A   1      47.595  27.902  25.877  1.00  0.00     0.064 A 
ATOM     93  C   UNL A   1      47.673  27.813  24.480  1.00  0.00     0.173 A 
ATOM     94  C   UNL A   1      48.692  27.446  26.625  1.00  0.00     0.173 A 
ATOM     95  F   UNL A   1      46.647  28.223  23.719  1.00  0.00    -0.203 F 
ATOM     96  C   UNL A   1      48.793  27.267  23.858  1.00  0.00     0.198 A 
ATOM     97  C   UNL A   1      49.823  26.929  25.999  1.00  0.00     0.198 A 
ATOM     98  F   UNL A   1      48.674  27.514  27.965  1.00  0.00    -0.203 F 
ATOM     99  F   UNL A   1      48.825  27.148  22.523  1.00  0.00    -0.200 F 
ATOM    100  C   UNL A   1      49.870  26.832  24.617  1.00  0.00     0.200 A 
ATOM    101  F   UNL A   1      50.869  26.526  26.734  1.00  0.00    -0.200 F 
ATOM    102  F   UNL A   1      50.950  26.316  24.016  1.00  0.00    -0.200 F 
ENDBRANCH  69  92
ENDBRANCH  43  44
ENDBRANCH  36  38
ENDBRANCH  35  36
ENDBRANCH  34  35
ENDBRANCH  33  34
ENDBRANCH  32  33
ENDBRANCH  31  32
ENDBRANCH   1  31
TORSDOF 20
ENDMDL
MODEL 2
REMARK VINA RESULT:     -11.3      7.102      9.319
REMARK SMILES CS(=O)(=O)c1ccc(-c2cc(Cl)cnc2-c2ccc(C(=O)OCCOCCOCCOC(=O)c3ccc(-c4c5nc(c(-c6c(F)c(F)c(F)c(F)c6F)c6ccc([nH]6)c(-c6c(F)c(F)c(F)c(F)c6F)c6nc(c(-c7c(F)c(F)c(F)c(F)c7F)c7ccc4[nH]7)C=C6)C=C5)cc3)nc2)cc1
REMARK SMILES IDX 26 1 25 2 24 3 23 4 22 5 20 6 21 7 19 8 16 9 17 10 98 11
REMARK SMILES IDX 18 12 97 13 15 14 9 15 10 16 11 17 14 18 12 19 13 20 8 21
REMARK SMILES IDX 5 22 6 23 100 24 7 25 99 26 2 27 1 28 3 29 4 30 27 31 28 32
REMARK SMILES IDX 29 33 30 34 31 35 32 36 33 37 34 38 35 39 96 40 36 41 95 42
REMARK SMILES IDX 37 43 38 44 39 45 89 46 40 47 94 48 88 49 90 50 41 51 93 52
REMARK SMILES IDX 87 53 86 54 42 56 74 57 54 58 73 59 55 60 58 61 72 62 91 63
REMARK SMILES IDX 56 64 57 65 71 67 92 68 59 69 43 70 44 71 52 72 45 73 46 74
REMARK SMILES IDX 50 75 53 76 47 77 48 78 51 79 49 80 75 81 76 82 84 83 77 84
REMARK SMILES IDX 78 85 82 86 85 87 79 88 80 89 83 90 81 91 60 92 61 93 69 94
REMARK SMILES IDX 62 95 63 96 67 97 70 98 64 99 65 100 68 101 66 102
REMARK H PARENT 90 55 58 66
REMARK Flexibility Score: inf
ROOT
ATOM      1  C   UNL A   1      33.080  35.760  29.056  1.00  0.00     0.188 C 
ENDROOT
BRANCH   1   2
ATOM      2  O   UNL A   1      32.779  34.474  28.521  1.00  0.00    -0.376 OA
BRANCH   2   3
ATOM      3  C   UNL A   1      33.833  33.643  28.040  1.00  0.00     0.202 C 
BRANCH   3   4
ATOM      4  C   UNL A   1      33.838  32.151  28.403  1.00  0.00     0.261 C 
BRANCH   4   5
ATOM      5  O   UNL A   1      33.791  31.282  27.261  1.00  0.00    -0.459 OA
BRANCH   5   6
ATOM      6  C   UNL A   1      32.557  30.822  26.926  1.00  0.00     0.356 C 
ATOM      7  O   UNL A   1      31.560  31.495  26.719  1.00  0.00    -0.244 OA
BRANCH   6   8
ATOM      8  C   UNL A   1      32.618  29.348  26.720  1.00  0.00     0.148 A 
ATOM      9  C   UNL A   1      32.726  26.683  26.059  1.00  0.00     0.019 A 
ATOM     10  C   UNL A   1      31.692  27.157  26.881  1.00  0.00     0.014 A 
ATOM     11  C   UNL A   1      33.729  27.585  25.718  1.00  0.00     0.122 A 
ATOM     12  C   UNL A   1      31.625  28.511  27.211  1.00  0.00     0.037 A 
ATOM     13  N   UNL A   1      33.694  28.903  26.017  1.00  0.00    -0.249 NA
BRANCH   9  14
ATOM     14  C   UNL A   1      32.651  25.381  25.388  1.00  0.00     0.080 A 
ATOM     15  C   UNL A   1      31.771  25.173  24.299  1.00  0.00     0.010 A 
ATOM     16  C   UNL A   1      31.784  23.912  23.688  1.00  0.00     0.033 A 
ATOM     17  C   UNL A   1      32.655  22.932  24.150  1.00  0.00     0.060 A 
ATOM     18  N   UNL A   1      33.518  24.438  25.838  1.00  0.00    -0.254 NA
ATOM     19  Cl  UNL A   1      32.691  21.384  23.410  1.00  0.00    -0.083 Cl
ATOM     20  C   UNL A   1      33.493  23.235  25.211  1.00  0.00     0.132 A 
BRANCH  15  21
ATOM     21  C   UNL A   1      30.874  26.235  23.803  1.00  0.00    -0.016 A 
ATOM     22  C   UNL A   1      29.215  28.374  23.056  1.00  0.00     0.067 A 
ATOM     23  C   UNL A   1      30.555  28.377  22.672  1.00  0.00     0.021 A 
ATOM     24  C   UNL A   1      28.686  27.305  23.784  1.00  0.00     0.021 A 
ATOM     25  C   UNL A   1      31.374  27.307  23.040  1.00  0.00     0.010 A 
ATOM     26  C   UNL A   1      29.514  26.241  24.151  1.00  0.00     0.010 A 
BRANCH  22  27
ATOM     27  S   UNL A   1      28.160  29.727  22.589  1.00  0.00     0.175 S 
ATOM     28  C   UNL A   1      28.764  31.126  23.495  1.00  0.00     0.163 C 
ATOM     29  O   UNL A   1      26.832  29.433  23.097  1.00  0.00    -0.224 OA
ATOM     30  O   UNL A   1      28.388  29.959  21.177  1.00  0.00    -0.224 OA
ENDBRANCH  22  27
ENDBRANCH  15  21
ENDBRANCH   9  14
ENDBRANCH   6   8
ENDBRANCH   5   6
ENDBRANCH   4   5
ENDBRANCH   3   4
ENDBRANCH   2   3
ENDBRANCH   1   2
BRANCH   1  31
ATOM     31  C   UNL A   1      32.553  36.144  30.456  1.00  0.00     0.188 C 
BRANCH  31  32
ATOM     32  O   UNL A   1      32.888  37.453  30.852  1.00  0.00    -0.376 OA
BRANCH  32  33
ATOM     33  C   UNL A   1      33.621  37.640  32.050  1.00  0.00     0.202 C 
BRANCH  33  34
ATOM     34  C   UNL A   1      33.827  36.527  33.101  1.00  0.00     0.261 C 
BRANCH  34  35
ATOM     35  O   UNL A   1      35.153  36.021  33.296  1.00  0.00    -0.460 OA
BRANCH  35  36
ATOM     36  C   UNL A   1      35.467  34.858  32.678  1.00  0.00     0.338 C 
ATOM     37  O   UNL A   1      35.015  34.432  31.633  1.00  0.00    -0.246 OA
BRANCH  36  38
ATOM     38  C   UNL A   1      36.598  34.250  33.407  1.00  0.00     0.060 A 
ATOM     39  C   UNL A   1      36.341  33.532  34.583  1.00  0.00     0.016 A 
ATOM     40  C   UNL A   1      37.906  34.398  32.939  1.00  0.00     0.016 A 
ATOM     41  C   UNL A   1      37.399  32.977  35.306  1.00  0.00     0.010 A 
ATOM     42  C   UNL A   1      38.965  33.858  33.674  1.00  0.00     0.010 A 
ATOM     43  C   UNL A   1      38.719  33.168  34.875  1.00  0.00    -0.014 A 
BRANCH  43  44
ATOM     44  C   UNL A   1      39.850  32.794  35.758  1.00  0.00     0.031 A 
ATOM     45  C   UNL A   1      40.338  33.797  36.765  1.00  0.00     0.074 A 
ATOM     46  C   UNL A   1      40.433  31.586  35.675  1.00  0.00     0.049 A 
ATOM     47  N   UNL A   1      41.342  33.720  37.603  1.00  0.00    -0.248 NA
ATOM     48  C   UNL A   1      39.590  35.062  36.836  1.00  0.00     0.031 C 
ATOM     49  C   UNL A   1      40.028  30.513  34.772  1.00  0.00     0.029 A 
ATOM     50  N   UNL A   1      41.504  31.066  36.360  1.00  0.00    -0.354 N 
ATOM     51  C   UNL A   1      41.348  34.925  38.293  1.00  0.00     0.074 A 
ATOM     52  C   UNL A   1      40.270  35.728  37.757  1.00  0.00     0.031 C 
ATOM     53  C   UNL A   1      40.848  29.462  34.950  1.00  0.00     0.029 A 
ATOM     54  C   UNL A   1      41.855  29.802  35.954  1.00  0.00     0.049 A 
ATOM     55  H   UNL A   1      41.975  31.553  37.075  1.00  0.00     0.167 HD
ATOM     56  C   UNL A   1      42.171  35.322  39.293  1.00  0.00     0.037 A 
ATOM     57  C   UNL A   1      42.887  29.023  36.336  1.00  0.00     0.037 A 
ATOM     58  C   UNL A   1      43.251  34.528  39.819  1.00  0.00     0.049 A 
ATOM     59  C   UNL A   1      43.847  29.524  37.386  1.00  0.00     0.074 A 
ATOM     60  C   UNL A   1      44.133  34.835  40.838  1.00  0.00     0.029 A 
ATOM     61  N   UNL A   1      43.602  33.268  39.353  1.00  0.00    -0.354 N 
ATOM     62  N   UNL A   1      43.832  30.651  38.055  1.00  0.00    -0.248 NA
ATOM     63  C   UNL A   1      44.969  28.640  37.732  1.00  0.00     0.031 C 
ATOM     64  C   UNL A   1      45.053  33.787  40.953  1.00  0.00     0.029 A 
ATOM     65  C   UNL A   1      44.706  32.799  40.045  1.00  0.00     0.049 A 
ATOM     66  H   UNL A   1      43.134  32.781  38.636  1.00  0.00     0.167 HD
ATOM     67  C   UNL A   1      44.918  30.599  38.921  1.00  0.00     0.074 A 
ATOM     68  C   UNL A   1      45.565  29.322  38.699  1.00  0.00     0.031 C 
ATOM     69  C   UNL A   1      45.339  31.523  39.819  1.00  0.00     0.037 A 
BRANCH  56  70
ATOM     70  C   UNL A   1      41.953  36.695  39.859  1.00  0.00     0.064 A 
ATOM     71  C   UNL A   1      42.584  37.826  39.319  1.00  0.00     0.173 A 
ATOM     72  C   UNL A   1      41.090  36.885  40.950  1.00  0.00     0.173 A 
ATOM     73  F   UNL A   1      43.429  37.697  38.285  1.00  0.00    -0.203 F 
ATOM     74  C   UNL A   1      42.388  39.089  39.870  1.00  0.00     0.198 A 
ATOM     75  C   UNL A   1      40.872  38.154  41.479  1.00  0.00     0.198 A 
ATOM     76  F   UNL A   1      40.459  35.839  41.503  1.00  0.00    -0.203 F 
ATOM     77  F   UNL A   1      43.046  40.146  39.373  1.00  0.00    -0.200 F 
ATOM     78  C   UNL A   1      41.528  39.253  40.946  1.00  0.00     0.200 A 
ATOM     79  F   UNL A   1      40.031  38.312  42.510  1.00  0.00    -0.200 F 
ATOM     80  F   UNL A   1      41.338  40.469  41.474  1.00  0.00    -0.200 F 
ENDBRANCH  56  70
BRANCH  57  81
ATOM     81  C   UNL A   1      43.073  27.684  35.717  1.00  0.00     0.064 A 
ATOM     82  C   UNL A   1      43.929  27.509  34.621  1.00  0.00     0.173 A 
ATOM     83  C   UNL A   1      42.386  26.558  36.194  1.00  0.00     0.173 A 
ATOM     84  F   UNL A   1      44.585  28.562  34.110  1.00  0.00    -0.203 F 
ATOM     85  C   UNL A   1      44.081  26.262  34.017  1.00  0.00     0.198 A 
ATOM     86  C   UNL A   1      42.560  25.307  35.607  1.00  0.00     0.198 A 
ATOM     87  F   UNL A   1      41.548  26.674  37.235  1.00  0.00    -0.203 F 
ATOM     88  F   UNL A   1      44.869  26.134  32.941  1.00  0.00    -0.200 F 
ATOM     89  C   UNL A   1      43.401  25.161  34.515  1.00  0.00     0.200 A 
ATOM     90  F   UNL A   1      41.906  24.244  36.095  1.00  0.00    -0.200 F 
ATOM     91  F   UNL A   1      43.547  23.963  33.934  1.00  0.00    -0.200 F 
ENDBRANCH  57  81
BRANCH  69  92
ATOM     92  C   UNL A   1      46.534  31.177  40.662  1.00  0.00     0.064 A 
ATOM     93  C   UNL A   1      46.419  30.407  41.828  1.00  0.00     0.173 A 
ATOM     94  C   UNL A   1      47.819  31.588  40.272  1.00  0.00     0.173 A 
ATOM     95  F   UNL A   1      45.213  30.000  42.253  1.00  0.00    -0.203 F 
ATOM     96  C   UNL A   1      47.542  30.082  42.586  1.00  0.00     0.198 A 
ATOM     97  C   UNL A   1      48.942  31.235  41.015  1.00  0.00     0.198 A 
ATOM     98  F   UNL A   1      47.987  32.320  39.161  1.00  0.00    -0.203 F 
ATOM     99  F   UNL A   1      47.402  29.385  43.723  1.00  0.00    -0.200 F 
ATOM    100  C   UNL A   1      48.803  30.489  42.175  1.00  0.00     0.200 A 
ATOM    101  F   UNL A   1      50.161  31.615  40.606  1.00  0.00    -0.200 F 
ATOM    102  F   UNL A   1      49.882  30.167  42.900  1.00  0.00    -0.200 F 
ENDBRANCH  69  92
ENDBRANCH  43  44
ENDBRANCH  36  38
ENDBRANCH  35  36
ENDBRANCH  34  35
ENDBRANCH  33  34
ENDBRANCH  32  33
ENDBRANCH  31  32
ENDBRANCH   1  31
TORSDOF 20
ENDMDL
MODEL 3
REMARK VINA RESULT:     -11.1      2.845      7.596
REMARK SMILES CS(=O)(=O)c1ccc(-c2cc(Cl)cnc2-c2ccc(C(=O)OCCOCCOCCOC(=O)c3ccc(-c4c5nc(c(-c6c(F)c(F)c(F)c(F)c6F)c6ccc([nH]6)c(-c6c(F)c(F)c(F)c(F)c6F)c6nc(c(-c7c(F)c(F)c(F)c(F)c7F)c7ccc4[nH]7)C=C6)C=C5)cc3)nc2)cc1
REMARK SMILES IDX 26 1 25 2 24 3 23 4 22 5 20 6 21 7 19 8 16 9 17 10 98 11
REMARK SMILES IDX 18 12 97 13 15 14 9 15 10 16 11 17 14 18 12 19 13 20 8 21
REMARK SMILES IDX 5 22 6 23 100 24 7 25 99 26 2 27 1 28 3 29 4 30 27 31 28 32
REMARK SMILES IDX 29 33 30 34 31 35 32 36 33 37 34 38 35 39 96 40 36 41 95 42
REMARK SMILES IDX 37 43 38 44 39 45 89 46 40 47 94 48 88 49 90 50 41 51 93 52
REMARK SMILES IDX 87 53 86 54 42 56 74 57 54 58 73 59 55 60 58 61 72 62 91 63
REMARK SMILES IDX 56 64 57 65 71 67 92 68 59 69 43 70 44 71 52 72 45 73 46 74
REMARK SMILES IDX 50 75 53 76 47 77 48 78 51 79 49 80 75 81 76 82 84 83 77 84
REMARK SMILES IDX 78 85 82 86 85 87 79 88 80 89 83 90 81 91 60 92 61 93 69 94
REMARK SMILES IDX 62 95 63 96 67 97 70 98 64 99 65 100 68 101 66 102
REMARK H PARENT 90 55 58 66
REMARK Flexibility Score: inf
ROOT
ATOM      1  C   UNL A   1      34.176  34.318  30.205  1.00  0.00     0.188 C 
ENDROOT
BRANCH   1   2
ATOM      2  O   UNL A   1      33.970  33.017  29.661  1.00  0.00    -0.376 OA
BRANCH   2   3
ATOM      3  C   UNL A   1      34.950  32.447  28.798  1.00  0.00     0.202 C 
BRANCH   3   4
ATOM      4  C   UNL A   1      34.495  31.651  27.565  1.00  0.00     0.261 C 
BRANCH   4   5
ATOM      5  O   UNL A   1      33.649  30.536  27.883  1.00  0.00    -0.459 OA
BRANCH   5   6
ATOM      6  C   UNL A   1      32.642  30.296  27.002  1.00  0.00     0.356 C 
ATOM      7  O   UNL A   1      31.936  31.128  26.458  1.00  0.00    -0.244 OA
BRANCH   6   8
ATOM      8  C   UNL A   1      32.597  28.840  26.688  1.00  0.00     0.148 A 
ATOM      9  C   UNL A   1      32.525  26.230  25.832  1.00  0.00     0.019 A 
ATOM     10  C   UNL A   1      31.499  26.724  26.652  1.00  0.00     0.014 A 
ATOM     11  C   UNL A   1      33.607  27.072  25.594  1.00  0.00     0.122 A 
ATOM     12  C   UNL A   1      31.524  28.051  27.081  1.00  0.00     0.037 A 
ATOM     13  N   UNL A   1      33.662  28.363  25.990  1.00  0.00    -0.249 NA
BRANCH   9  14
ATOM     14  C   UNL A   1      32.376  24.991  25.063  1.00  0.00     0.080 A 
ATOM     15  C   UNL A   1      31.484  24.917  23.965  1.00  0.00     0.010 A 
ATOM     16  C   UNL A   1      31.426  23.709  23.259  1.00  0.00     0.033 A 
ATOM     17  C   UNL A   1      32.241  22.648  23.638  1.00  0.00     0.060 A 
ATOM     18  N   UNL A   1      33.189  23.968  25.433  1.00  0.00    -0.254 NA
ATOM     19  Cl  UNL A   1      32.189  21.163  22.780  1.00  0.00    -0.083 Cl
ATOM     20  C   UNL A   1      33.096  22.821  24.715  1.00  0.00     0.132 A 
BRANCH  15  21
ATOM     21  C   UNL A   1      30.648  26.063  23.558  1.00  0.00    -0.016 A 
ATOM     22  C   UNL A   1      29.118  28.347  22.984  1.00  0.00     0.067 A 
ATOM     23  C   UNL A   1      30.442  28.279  22.551  1.00  0.00     0.021 A 
ATOM     24  C   UNL A   1      28.541  27.279  23.676  1.00  0.00     0.021 A 
ATOM     25  C   UNL A   1      31.196  27.138  22.833  1.00  0.00     0.010 A 
ATOM     26  C   UNL A   1      29.304  26.142  23.957  1.00  0.00     0.010 A 
BRANCH  22  27
ATOM     27  S   UNL A   1      28.145  29.792  22.627  1.00  0.00     0.175 S 
ATOM     28  C   UNL A   1      28.944  31.119  23.490  1.00  0.00     0.163 C 
ATOM     29  O   UNL A   1      26.848  29.601  23.247  1.00  0.00    -0.224 OA
ATOM     30  O   UNL A   1      28.268  30.029  21.203  1.00  0.00    -0.224 OA
ENDBRANCH  22  27
ENDBRANCH  15  21
ENDBRANCH   9  14
ENDBRANCH   6   8
ENDBRANCH   5   6
ENDBRANCH   4   5
ENDBRANCH   3   4
ENDBRANCH   2   3
ENDBRANCH   1   2
BRANCH   1  31
ATOM     31  C   UNL A   1      34.104  34.524  31.733  1.00  0.00     0.188 C 
BRANCH  31  32
ATOM     32  O   UNL A   1      34.001  33.326  32.466  1.00  0.00    -0.376 OA
BRANCH  32  33
ATOM     33  C   UNL A   1      34.984  33.033  33.443  1.00  0.00     0.202 C 
BRANCH  33  34
ATOM     34  C   UNL A   1      36.294  32.280  33.129  1.00  0.00     0.261 C 
BRANCH  34  35
ATOM     35  O   UNL A   1      36.261  31.255  32.130  1.00  0.00    -0.460 OA
BRANCH  35  36
ATOM     36  C   UNL A   1      37.074  30.188  32.314  1.00  0.00     0.338 C 
ATOM     37  O   UNL A   1      36.780  29.109  32.790  1.00  0.00    -0.246 OA
BRANCH  36  38
ATOM     38  C   UNL A   1      38.371  30.492  31.673  1.00  0.00     0.060 A 
ATOM     39  C   UNL A   1      39.511  30.624  32.477  1.00  0.00     0.016 A 
ATOM     40  C   UNL A   1      38.456  30.656  30.289  1.00  0.00     0.016 A 
ATOM     41  C   UNL A   1      40.739  30.944  31.896  1.00  0.00     0.010 A 
ATOM     42  C   UNL A   1      39.683  30.995  29.711  1.00  0.00     0.010 A 
ATOM     43  C   UNL A   1      40.825  31.166  30.514  1.00  0.00    -0.014 A 
BRANCH  43  44
ATOM     44  C   UNL A   1      42.062  31.739  29.930  1.00  0.00     0.031 A 
ATOM     45  C   UNL A   1      43.138  30.800  29.460  1.00  0.00     0.074 A 
ATOM     46  C   UNL A   1      42.230  33.067  29.811  1.00  0.00     0.049 A 
ATOM     47  N   UNL A   1      44.323  31.064  28.970  1.00  0.00    -0.248 NA
ATOM     48  C   UNL A   1      42.833  29.364  29.559  1.00  0.00     0.031 C 
ATOM     49  C   UNL A   1      41.248  34.080  30.189  1.00  0.00     0.029 A 
ATOM     50  N   UNL A   1      43.301  33.790  29.345  1.00  0.00    -0.354 N 
ATOM     51  C   UNL A   1      44.904  29.831  28.708  1.00  0.00     0.074 A 
ATOM     52  C   UNL A   1      43.958  28.818  29.123  1.00  0.00     0.031 C 
ATOM     53  C   UNL A   1      41.766  35.298  29.950  1.00  0.00     0.029 A 
ATOM     54  C   UNL A   1      43.127  35.149  29.435  1.00  0.00     0.049 A 
ATOM     55  H   UNL A   1      44.115  33.374  28.981  1.00  0.00     0.167 HD
ATOM     56  C   UNL A   1      46.115  29.567  28.161  1.00  0.00     0.037 A 
ATOM     57  C   UNL A   1      43.980  36.154  29.155  1.00  0.00     0.037 A 
ATOM     58  C   UNL A   1      47.061  30.575  27.759  1.00  0.00     0.049 A 
ATOM     59  C   UNL A   1      45.359  35.833  28.633  1.00  0.00     0.074 A 
ATOM     60  C   UNL A   1      48.308  30.410  27.184  1.00  0.00     0.029 A 
ATOM     61  N   UNL A   1      46.866  31.942  27.905  1.00  0.00    -0.354 N 
ATOM     62  N   UNL A   1      45.894  34.668  28.361  1.00  0.00    -0.248 NA
ATOM     63  C   UNL A   1      46.252  36.973  28.379  1.00  0.00     0.031 C 
ATOM     64  C   UNL A   1      48.891  31.673  27.033  1.00  0.00     0.029 A 
ATOM     65  C   UNL A   1      47.983  32.629  27.458  1.00  0.00     0.049 A 
ATOM     66  H   UNL A   1      46.054  32.360  28.272  1.00  0.00     0.167 HD
ATOM     67  C   UNL A   1      47.169  34.934  27.877  1.00  0.00     0.074 A 
ATOM     68  C   UNL A   1      47.324  36.373  27.881  1.00  0.00     0.031 C 
ATOM     69  C   UNL A   1      48.123  34.064  27.462  1.00  0.00     0.037 A 
BRANCH  56  70
ATOM     70  C   UNL A   1      46.495  28.124  27.997  1.00  0.00     0.064 A 
ATOM     71  C   UNL A   1      46.214  27.415  26.819  1.00  0.00     0.173 A 
ATOM     72  C   UNL A   1      47.161  27.443  29.028  1.00  0.00     0.173 A 
ATOM     73  F   UNL A   1      45.567  28.015  25.809  1.00  0.00    -0.203 F 
ATOM     74  C   UNL A   1      46.553  26.071  26.693  1.00  0.00     0.198 A 
ATOM     75  C   UNL A   1      47.526  26.108  28.887  1.00  0.00     0.198 A 
ATOM     76  F   UNL A   1      47.456  28.074  30.175  1.00  0.00    -0.203 F 
ATOM     77  F   UNL A   1      46.225  25.399  25.580  1.00  0.00    -0.200 F 
ATOM     78  C   UNL A   1      47.215  25.420  27.724  1.00  0.00     0.200 A 
ATOM     79  F   UNL A   1      48.176  25.484  29.879  1.00  0.00    -0.200 F 
ATOM     80  F   UNL A   1      47.543  24.127  27.600  1.00  0.00    -0.200 F 
ENDBRANCH  56  70
BRANCH  57  81
ATOM     81  C   UNL A   1      43.561  37.565  29.367  1.00  0.00     0.064 A 
ATOM     82  C   UNL A   1      42.832  38.255  28.389  1.00  0.00     0.173 A 
ATOM     83  C   UNL A   1      43.898  38.257  30.539  1.00  0.00     0.173 A 
ATOM     84  F   UNL A   1      42.512  37.646  27.238  1.00  0.00    -0.203 F 
ATOM     85  C   UNL A   1      42.467  39.588  28.570  1.00  0.00     0.198 A 
ATOM     86  C   UNL A   1      43.509  39.581  30.731  1.00  0.00     0.198 A 
ATOM     87  F   UNL A   1      44.603  37.644  31.502  1.00  0.00    -0.203 F 
ATOM     88  F   UNL A   1      41.811  40.237  27.598  1.00  0.00    -0.200 F 
ATOM     89  C   UNL A   1      42.800  40.248  29.743  1.00  0.00     0.200 A 
ATOM     90  F   UNL A   1      43.827  40.212  31.869  1.00  0.00    -0.200 F 
ATOM     91  F   UNL A   1      42.449  41.529  29.917  1.00  0.00    -0.200 F 
ENDBRANCH  57  81
BRANCH  69  92
ATOM     92  C   UNL A   1      49.409  34.641  26.941  1.00  0.00     0.064 A 
ATOM     93  C   UNL A   1      49.541  35.080  25.617  1.00  0.00     0.173 A 
ATOM     94  C   UNL A   1      50.513  34.796  27.796  1.00  0.00     0.173 A 
ATOM     95  F   UNL A   1      48.521  34.944  24.755  1.00  0.00    -0.203 F 
ATOM     96  C   UNL A   1      50.736  35.630  25.159  1.00  0.00     0.198 A 
ATOM     97  C   UNL A   1      51.696  35.374  27.343  1.00  0.00     0.198 A 
ATOM     98  F   UNL A   1      50.441  34.400  29.075  1.00  0.00    -0.203 F 
ATOM     99  F   UNL A   1      50.853  35.999  23.875  1.00  0.00    -0.200 F 
ATOM    100  C   UNL A   1      51.810  35.783  26.024  1.00  0.00     0.200 A 
ATOM    101  F   UNL A   1      52.726  35.537  28.185  1.00  0.00    -0.200 F 
ATOM    102  F   UNL A   1      52.955  36.320  25.583  1.00  0.00    -0.200 F 
ENDBRANCH  69  92
ENDBRANCH  43  44
ENDBRANCH  36  38
ENDBRANCH  35  36
ENDBRANCH  34  35
ENDBRANCH  33  34
ENDBRANCH  32  33
ENDBRANCH  31  32
ENDBRANCH   1  31
TORSDOF 20
ENDMDL
