MODEL 1
REMARK VINA RESULT:     -10.5      0.000      0.000
REMARK SMILES O=C(OCCOCCOCCOC(=O)[C@H](CO)Nc1ccc(C(F)(F)F)cc1[N+](=O)[O-])c1ccc(-c2c3nc(c(-c4c(F)c(F)c(F)c(F)c4F)c4ccc([nH]4)c(-c4c(F)c(F)c(F)c(F)c4F)c4nc(c(-c5c(F)c(F)c(F)c(F)c5F)c5ccc2[nH]5)C=C4)C=C3)cc1
REMARK SMILES IDX 8 1 7 2 6 3 5 4 4 5 3 6 2 7 1 8 32 9 33 10 94 11 34 12 93 13
REMARK SMILES IDX 35 14 36 15 37 16 87 17 38 18 92 19 86 20 88 21 39 22 91 23
REMARK SMILES IDX 85 24 84 25 40 27 72 28 52 29 71 30 53 31 56 32 70 33 89 34
REMARK SMILES IDX 54 35 55 36 69 38 90 39 57 40 41 41 42 42 50 43 43 44 44 45
REMARK SMILES IDX 48 46 51 47 45 48 46 49 49 50 47 51 73 52 74 53 82 54 75 55
REMARK SMILES IDX 76 56 80 57 83 58 77 59 78 60 81 61 79 62 58 63 59 64 67 65
REMARK SMILES IDX 60 66 61 67 65 68 68 69 62 70 63 71 66 72 64 73 9 74 10 75
REMARK SMILES IDX 11 76 12 77 13 78 14 79 15 80 18 81 19 83 20 84 28 85 21 86
REMARK SMILES IDX 27 87 22 88 29 89 30 90 31 91 23 92 24 93 25 94 26 95 16 96
REMARK SMILES IDX 17 97
REMARK H PARENT 88 26 56 37 18 82 17 98
REMARK Flexibility Score: inf
ROOT
ATOM      1  C   UNL A   1      34.148  27.258  24.860  1.00  0.00     0.188 C 
ENDROOT
BRANCH   1   2
ATOM      2  C   UNL A   1      33.094  27.697  25.879  1.00  0.00     0.188 C 
BRANCH   2   3
ATOM      3  O   UNL A   1      32.771  29.092  25.803  1.00  0.00    -0.376 OA
BRANCH   3   4
ATOM      4  C   UNL A   1      31.776  29.482  26.762  1.00  0.00     0.202 C 
BRANCH   4   5
ATOM      5  C   UNL A   1      31.573  31.000  26.883  1.00  0.00     0.261 C 
BRANCH   5   6
ATOM      6  O   UNL A   1      32.792  31.737  26.687  1.00  0.00    -0.460 OA
BRANCH   6   7
ATOM      7  C   UNL A   1      33.646  32.231  27.617  1.00  0.00     0.338 C 
ATOM      8  O   UNL A   1      33.289  33.206  28.277  1.00  0.00    -0.246 OA
BRANCH   7   9
ATOM      9  C   UNL A   1      34.987  31.639  27.932  1.00  0.00     0.060 A 
ATOM     10  C   UNL A   1      35.260  30.282  28.094  1.00  0.00     0.016 A 
ATOM     11  C   UNL A   1      36.065  32.539  28.052  1.00  0.00     0.016 A 
ATOM     12  C   UNL A   1      36.509  29.843  28.527  1.00  0.00     0.010 A 
ATOM     13  C   UNL A   1      37.339  32.102  28.437  1.00  0.00     0.010 A 
ATOM     14  C   UNL A   1      37.541  30.755  28.750  1.00  0.00    -0.014 A 
BRANCH  14  15
ATOM     15  C   UNL A   1      38.717  30.284  29.513  1.00  0.00     0.031 A 
ATOM     16  C   UNL A   1      38.810  30.659  30.969  1.00  0.00     0.074 A 
ATOM     17  C   UNL A   1      39.581  29.412  28.965  1.00  0.00     0.049 A 
ATOM     18  N   UNL A   1      39.690  30.298  31.868  1.00  0.00    -0.248 NA
ATOM     19  C   UNL A   1      37.768  31.562  31.484  1.00  0.00     0.031 C 
ATOM     20  C   UNL A   1      39.559  28.953  27.577  1.00  0.00     0.029 A 
ATOM     21  N   UNL A   1      40.618  28.716  29.530  1.00  0.00    -0.354 N 
ATOM     22  C   UNL A   1      39.334  30.966  33.033  1.00  0.00     0.074 A 
ATOM     23  C   UNL A   1      38.155  31.747  32.737  1.00  0.00     0.031 C 
ATOM     24  C   UNL A   1      40.500  28.006  27.411  1.00  0.00     0.029 A 
ATOM     25  C   UNL A   1      41.206  27.817  28.672  1.00  0.00     0.049 A 
ATOM     26  H   UNL A   1      40.914  28.847  30.459  1.00  0.00     0.167 HD
ATOM     27  C   UNL A   1      39.945  30.939  34.240  1.00  0.00     0.037 A 
ATOM     28  C   UNL A   1      42.203  26.944  28.900  1.00  0.00     0.037 A 
ATOM     29  C   UNL A   1      41.104  30.140  34.531  1.00  0.00     0.049 A 
ATOM     30  C   UNL A   1      42.847  26.925  30.262  1.00  0.00     0.074 A 
ATOM     31  C   UNL A   1      41.835  30.060  35.702  1.00  0.00     0.029 A 
ATOM     32  N   UNL A   1      41.697  29.271  33.627  1.00  0.00    -0.354 N 
ATOM     33  N   UNL A   1      42.534  27.596  31.341  1.00  0.00    -0.248 NA
ATOM     34  C   UNL A   1      44.008  26.036  30.420  1.00  0.00     0.031 C 
ATOM     35  C   UNL A   1      42.893  29.169  35.494  1.00  0.00     0.029 A 
ATOM     36  C   UNL A   1      42.791  28.659  34.210  1.00  0.00     0.049 A 
ATOM     37  H   UNL A   1      41.384  29.112  32.706  1.00  0.00     0.167 HD
ATOM     38  C   UNL A   1      43.465  27.224  32.300  1.00  0.00     0.074 A 
ATOM     39  C   UNL A   1      44.319  26.227  31.692  1.00  0.00     0.031 C 
ATOM     40  C   UNL A   1      43.624  27.681  33.565  1.00  0.00     0.037 A 
BRANCH  27  41
ATOM     41  C   UNL A   1      39.414  31.859  35.300  1.00  0.00     0.064 A 
ATOM     42  C   UNL A   1      39.788  33.208  35.377  1.00  0.00     0.173 A 
ATOM     43  C   UNL A   1      38.528  31.366  36.270  1.00  0.00     0.173 A 
ATOM     44  F   UNL A   1      40.653  33.721  34.490  1.00  0.00    -0.203 F 
ATOM     45  C   UNL A   1      39.318  34.021  36.406  1.00  0.00     0.198 A 
ATOM     46  C   UNL A   1      38.039  32.188  37.280  1.00  0.00     0.198 A 
ATOM     47  F   UNL A   1      38.143  30.080  36.244  1.00  0.00    -0.203 F 
ATOM     48  F   UNL A   1      39.735  35.292  36.497  1.00  0.00    -0.200 F 
ATOM     49  C   UNL A   1      38.442  33.512  37.354  1.00  0.00     0.200 A 
ATOM     50  F   UNL A   1      37.190  31.694  38.191  1.00  0.00    -0.200 F 
ATOM     51  F   UNL A   1      37.996  34.294  38.346  1.00  0.00    -0.200 F 
ENDBRANCH  27  41
BRANCH  28  52
ATOM     52  C   UNL A   1      42.733  26.052  27.839  1.00  0.00     0.064 A 
ATOM     53  C   UNL A   1      43.739  26.492  26.967  1.00  0.00     0.173 A 
ATOM     54  C   UNL A   1      42.113  24.827  27.561  1.00  0.00     0.173 A 
ATOM     55  F   UNL A   1      44.348  27.668  27.187  1.00  0.00    -0.203 F 
ATOM     56  C   UNL A   1      44.052  25.776  25.814  1.00  0.00     0.198 A 
ATOM     57  C   UNL A   1      42.444  24.099  26.422  1.00  0.00     0.198 A 
ATOM     58  F   UNL A   1      41.149  24.365  28.369  1.00  0.00    -0.203 F 
ATOM     59  F   UNL A   1      44.964  26.254  24.956  1.00  0.00    -0.200 F 
ATOM     60  C   UNL A   1      43.397  24.585  25.538  1.00  0.00     0.200 A 
ATOM     61  F   UNL A   1      41.821  22.941  26.167  1.00  0.00    -0.200 F 
ATOM     62  F   UNL A   1      43.683  23.905  24.419  1.00  0.00    -0.200 F 
ENDBRANCH  28  52
BRANCH  40  63
ATOM     63  C   UNL A   1      44.758  27.096  34.347  1.00  0.00     0.064 A 
ATOM     64  C   UNL A   1      44.591  25.936  35.118  1.00  0.00     0.173 A 
ATOM     65  C   UNL A   1      46.019  27.707  34.334  1.00  0.00     0.173 A 
ATOM     66  F   UNL A   1      43.393  25.333  35.180  1.00  0.00    -0.203 F 
ATOM     67  C   UNL A   1      45.638  25.428  35.878  1.00  0.00     0.198 A 
ATOM     68  C   UNL A   1      47.074  27.180  35.071  1.00  0.00     0.198 A 
ATOM     69  F   UNL A   1      46.224  28.819  33.612  1.00  0.00    -0.203 F 
ATOM     70  F   UNL A   1      45.442  24.356  36.656  1.00  0.00    -0.200 F 
ATOM     71  C   UNL A   1      46.879  26.047  35.850  1.00  0.00     0.200 A 
ATOM     72  F   UNL A   1      48.273  27.775  35.040  1.00  0.00    -0.200 F 
ATOM     73  F   UNL A   1      47.888  25.561  36.586  1.00  0.00    -0.200 F 
ENDBRANCH  40  63
ENDBRANCH  14  15
ENDBRANCH   7   9
ENDBRANCH   6   7
ENDBRANCH   5   6
ENDBRANCH   4   5
ENDBRANCH   3   4
ENDBRANCH   2   3
ENDBRANCH   1   2
BRANCH   1  74
ATOM     74  O   UNL A   1      33.681  26.477  23.768  1.00  0.00    -0.376 OA
BRANCH  74  75
ATOM     75  C   UNL A   1      33.280  27.166  22.582  1.00  0.00     0.202 C 
BRANCH  75  76
ATOM     76  C   UNL A   1      32.237  26.474  21.696  1.00  0.00     0.261 C 
BRANCH  76  77
ATOM     77  O   UNL A   1      30.927  27.053  21.837  1.00  0.00    -0.462 OA
BRANCH  77  78
ATOM     78  C   UNL A   1      30.431  27.131  23.107  1.00  0.00     0.331 C 
ATOM     79  O   UNL A   1      30.326  28.152  23.763  1.00  0.00    -0.250 OA
BRANCH  78  80
ATOM     80  C   UNL A   1      29.976  25.752  23.589  1.00  0.00     0.216 C 
BRANCH  80  81
ATOM     81  N   UNL A   1      31.061  25.079  24.322  1.00  0.00    -0.365 N 
ATOM     82  H   UNL A   1      31.635  25.688  24.839  1.00  0.00     0.161 HD
BRANCH  81  83
ATOM     83  C   UNL A   1      31.420  23.755  24.417  1.00  0.00     0.114 A 
ATOM     84  C   UNL A   1      31.772  23.153  23.188  1.00  0.00     0.033 A 
ATOM     85  C   UNL A   1      31.526  22.922  25.541  1.00  0.00     0.292 A 
ATOM     86  C   UNL A   1      32.187  21.822  23.078  1.00  0.00     0.016 A 
ATOM     87  C   UNL A   1      31.951  21.578  25.452  1.00  0.00     0.101 A 
ATOM     88  C   UNL A   1      32.286  21.020  24.213  1.00  0.00     0.062 A 
BRANCH  85  89
ATOM     89  N   UNL A   1      31.179  23.358  26.877  1.00  0.00     0.064 N 
ATOM     90  O   UNL A   1      30.005  23.706  27.065  1.00  0.00    -0.258 OA
ATOM     91  O   UNL A   1      32.050  23.285  27.753  1.00  0.00    -0.258 OA
ENDBRANCH  85  89
BRANCH  88  92
ATOM     92  C   UNL A   1      32.721  19.586  24.084  1.00  0.00     0.416 C 
ATOM     93  F   UNL A   1      32.420  19.044  22.878  1.00  0.00    -0.166 F 
ATOM     94  F   UNL A   1      34.063  19.440  24.250  1.00  0.00    -0.166 F 
ATOM     95  F   UNL A   1      32.148  18.785  25.023  1.00  0.00    -0.166 F 
ENDBRANCH  88  92
ENDBRANCH  81  83
ENDBRANCH  80  81
BRANCH  80  96
ATOM     96  C   UNL A   1      28.787  25.953  24.557  1.00  0.00     0.193 C 
BRANCH  96  97
ATOM     97  O   UNL A   1      27.632  26.456  23.879  1.00  0.00    -0.394 OA
ATOM     98  H   UNL A   1      26.980  26.758  24.531  1.00  0.00     0.210 HD
ENDBRANCH  96  97
ENDBRANCH  80  96
ENDBRANCH  78  80
ENDBRANCH  77  78
ENDBRANCH  76  77
ENDBRANCH  75  76
ENDBRANCH  74  75
ENDBRANCH   1  74
TORSDOF 23
ENDMDL
MODEL 2
REMARK VINA RESULT:     -10.5      3.693      8.656
REMARK SMILES O=C(OCCOCCOCCOC(=O)[C@H](CO)Nc1ccc(C(F)(F)F)cc1[N+](=O)[O-])c1ccc(-c2c3nc(c(-c4c(F)c(F)c(F)c(F)c4F)c4ccc([nH]4)c(-c4c(F)c(F)c(F)c(F)c4F)c4nc(c(-c5c(F)c(F)c(F)c(F)c5F)c5ccc2[nH]5)C=C4)C=C3)cc1
REMARK SMILES IDX 8 1 7 2 6 3 5 4 4 5 3 6 2 7 1 8 32 9 33 10 94 11 34 12 93 13
REMARK SMILES IDX 35 14 36 15 37 16 87 17 38 18 92 19 86 20 88 21 39 22 91 23
REMARK SMILES IDX 85 24 84 25 40 27 72 28 52 29 71 30 53 31 56 32 70 33 89 34
REMARK SMILES IDX 54 35 55 36 69 38 90 39 57 40 41 41 42 42 50 43 43 44 44 45
REMARK SMILES IDX 48 46 51 47 45 48 46 49 49 50 47 51 73 52 74 53 82 54 75 55
REMARK SMILES IDX 76 56 80 57 83 58 77 59 78 60 81 61 79 62 58 63 59 64 67 65
REMARK SMILES IDX 60 66 61 67 65 68 68 69 62 70 63 71 66 72 64 73 9 74 10 75
REMARK SMILES IDX 11 76 12 77 13 78 14 79 15 80 18 81 19 83 20 84 28 85 21 86
REMARK SMILES IDX 27 87 22 88 29 89 30 90 31 91 23 92 24 93 25 94 26 95 16 96
REMARK SMILES IDX 17 97
REMARK H PARENT 88 26 56 37 18 82 17 98
REMARK Flexibility Score: inf
ROOT
ATOM      1  C   UNL A   1      39.557  22.256  26.543  1.00  0.00     0.188 C 
ENDROOT
BRANCH   1   2
ATOM      2  C   UNL A   1      40.587  21.217  26.094  1.00  0.00     0.188 C 
BRANCH   2   3
ATOM      3  O   UNL A   1      41.709  21.785  25.405  1.00  0.00    -0.376 OA
BRANCH   3   4
ATOM      4  C   UNL A   1      42.951  21.161  25.763  1.00  0.00     0.202 C 
BRANCH   4   5
ATOM      5  C   UNL A   1      44.200  21.882  25.233  1.00  0.00     0.261 C 
BRANCH   5   6
ATOM      6  O   UNL A   1      43.889  23.147  24.622  1.00  0.00    -0.460 OA
BRANCH   6   7
ATOM      7  C   UNL A   1      44.295  24.388  24.985  1.00  0.00     0.338 C 
ATOM      8  O   UNL A   1      45.374  24.797  24.556  1.00  0.00    -0.246 OA
BRANCH   7   9
ATOM      9  C   UNL A   1      43.495  25.324  25.841  1.00  0.00     0.060 A 
ATOM     10  C   UNL A   1      43.811  26.654  26.108  1.00  0.00     0.016 A 
ATOM     11  C   UNL A   1      42.309  24.811  26.404  1.00  0.00     0.016 A 
ATOM     12  C   UNL A   1      43.081  27.399  27.031  1.00  0.00     0.010 A 
ATOM     13  C   UNL A   1      41.539  25.569  27.295  1.00  0.00     0.010 A 
ATOM     14  C   UNL A   1      41.971  26.844  27.667  1.00  0.00    -0.014 A 
BRANCH  14  15
ATOM     15  C   UNL A   1      41.444  27.545  28.859  1.00  0.00     0.031 A 
ATOM     16  C   UNL A   1      42.259  27.496  30.124  1.00  0.00     0.074 A 
ATOM     17  C   UNL A   1      40.362  28.337  28.762  1.00  0.00     0.049 A 
ATOM     18  N   UNL A   1      42.059  28.098  31.268  1.00  0.00    -0.248 NA
ATOM     19  C   UNL A   1      43.468  26.656  30.097  1.00  0.00     0.031 C 
ATOM     20  C   UNL A   1      39.523  28.487  27.573  1.00  0.00     0.029 A 
ATOM     21  N   UNL A   1      39.812  29.205  29.669  1.00  0.00    -0.354 N 
ATOM     22  C   UNL A   1      43.085  27.672  32.104  1.00  0.00     0.074 A 
ATOM     23  C   UNL A   1      43.913  26.769  31.339  1.00  0.00     0.031 C 
ATOM     24  C   UNL A   1      38.599  29.437  27.803  1.00  0.00     0.029 A 
ATOM     25  C   UNL A   1      38.766  29.937  29.161  1.00  0.00     0.049 A 
ATOM     26  H   UNL A   1      40.134  29.294  30.594  1.00  0.00     0.167 HD
ATOM     27  C   UNL A   1      43.307  27.996  33.398  1.00  0.00     0.037 A 
ATOM     28  C   UNL A   1      38.036  30.904  29.746  1.00  0.00     0.037 A 
ATOM     29  C   UNL A   1      42.490  28.915  34.143  1.00  0.00     0.049 A 
ATOM     30  C   UNL A   1      38.325  31.256  31.182  1.00  0.00     0.074 A 
ATOM     31  C   UNL A   1      42.592  29.292  35.470  1.00  0.00     0.029 A 
ATOM     32  N   UNL A   1      41.414  29.609  33.609  1.00  0.00    -0.354 N 
ATOM     33  N   UNL A   1      39.265  30.810  31.977  1.00  0.00    -0.248 NA
ATOM     34  C   UNL A   1      37.421  32.234  31.807  1.00  0.00     0.031 C 
ATOM     35  C   UNL A   1      41.553  30.187  35.748  1.00  0.00     0.029 A 
ATOM     36  C   UNL A   1      40.836  30.403  34.582  1.00  0.00     0.049 A 
ATOM     37  H   UNL A   1      41.109  29.546  32.675  1.00  0.00     0.167 HD
ATOM     38  C   UNL A   1      39.058  31.440  33.195  1.00  0.00     0.074 A 
ATOM     39  C   UNL A   1      37.938  32.340  33.019  1.00  0.00     0.031 C 
ATOM     40  C   UNL A   1      39.714  31.275  34.369  1.00  0.00     0.037 A 
BRANCH  27  41
ATOM     41  C   UNL A   1      44.429  27.290  34.100  1.00  0.00     0.064 A 
ATOM     42  C   UNL A   1      44.258  26.045  34.722  1.00  0.00     0.173 A 
ATOM     43  C   UNL A   1      45.696  27.890  34.168  1.00  0.00     0.173 A 
ATOM     44  F   UNL A   1      43.060  25.443  34.710  1.00  0.00    -0.203 F 
ATOM     45  C   UNL A   1      45.308  25.441  35.412  1.00  0.00     0.198 A 
ATOM     46  C   UNL A   1      46.749  27.272  34.835  1.00  0.00     0.198 A 
ATOM     47  F   UNL A   1      45.911  29.084  33.594  1.00  0.00    -0.203 F 
ATOM     48  F   UNL A   1      45.107  24.280  36.051  1.00  0.00    -0.200 F 
ATOM     49  C   UNL A   1      46.552  26.053  35.465  1.00  0.00     0.200 A 
ATOM     50  F   UNL A   1      47.951  27.863  34.880  1.00  0.00    -0.200 F 
ATOM     51  F   UNL A   1      47.558  25.474  36.134  1.00  0.00    -0.200 F 
ENDBRANCH  27  41
BRANCH  28  52
ATOM     52  C   UNL A   1      36.916  31.583  29.048  1.00  0.00     0.064 A 
ATOM     53  C   UNL A   1      36.949  32.965  28.811  1.00  0.00     0.173 A 
ATOM     54  C   UNL A   1      35.722  30.900  28.785  1.00  0.00     0.173 A 
ATOM     55  F   UNL A   1      38.068  33.660  29.067  1.00  0.00    -0.203 F 
ATOM     56  C   UNL A   1      35.806  33.650  28.408  1.00  0.00     0.198 A 
ATOM     57  C   UNL A   1      34.587  31.582  28.356  1.00  0.00     0.198 A 
ATOM     58  F   UNL A   1      35.645  29.578  28.992  1.00  0.00    -0.203 F 
ATOM     59  F   UNL A   1      35.841  34.982  28.260  1.00  0.00    -0.200 F 
ATOM     60  C   UNL A   1      34.623  32.960  28.190  1.00  0.00     0.200 A 
ATOM     61  F   UNL A   1      33.451  30.910  28.131  1.00  0.00    -0.200 F 
ATOM     62  F   UNL A   1      33.517  33.621  27.820  1.00  0.00    -0.200 F 
ENDBRANCH  28  52
BRANCH  40  63
ATOM     63  C   UNL A   1      39.223  32.088  35.526  1.00  0.00     0.064 A 
ATOM     64  C   UNL A   1      38.375  31.537  36.498  1.00  0.00     0.173 A 
ATOM     65  C   UNL A   1      39.594  33.433  35.656  1.00  0.00     0.173 A 
ATOM     66  F   UNL A   1      37.973  30.260  36.398  1.00  0.00    -0.203 F 
ATOM     67  C   UNL A   1      37.887  32.315  37.542  1.00  0.00     0.198 A 
ATOM     68  C   UNL A   1      39.129  34.201  36.718  1.00  0.00     0.198 A 
ATOM     69  F   UNL A   1      40.402  34.002  34.748  1.00  0.00    -0.203 F 
ATOM     70  F   UNL A   1      37.029  31.787  38.425  1.00  0.00    -0.200 F 
ATOM     71  C   UNL A   1      38.269  33.644  37.654  1.00  0.00     0.200 A 
ATOM     72  F   UNL A   1      39.501  35.483  36.828  1.00  0.00    -0.200 F 
ATOM     73  F   UNL A   1      37.794  34.395  38.657  1.00  0.00    -0.200 F 
ENDBRANCH  40  63
ENDBRANCH  14  15
ENDBRANCH   7   9
ENDBRANCH   6   7
ENDBRANCH   5   6
ENDBRANCH   4   5
ENDBRANCH   3   4
ENDBRANCH   2   3
ENDBRANCH   1   2
BRANCH   1  74
ATOM     74  O   UNL A   1      38.326  22.271  25.833  1.00  0.00    -0.376 OA
BRANCH  74  75
ATOM     75  C   UNL A   1      37.401  23.319  26.131  1.00  0.00     0.202 C 
BRANCH  75  76
ATOM     76  C   UNL A   1      36.447  23.742  25.007  1.00  0.00     0.261 C 
BRANCH  76  77
ATOM     77  O   UNL A   1      35.065  23.546  25.358  1.00  0.00    -0.462 OA
BRANCH  77  78
ATOM     78  C   UNL A   1      34.299  22.866  24.453  1.00  0.00     0.331 C 
ATOM     79  O   UNL A   1      34.679  22.462  23.369  1.00  0.00    -0.250 OA
BRANCH  78  80
ATOM     80  C   UNL A   1      32.891  22.640  25.008  1.00  0.00     0.216 C 
BRANCH  80  81
ATOM     81  N   UNL A   1      31.965  23.663  24.495  1.00  0.00    -0.365 N 
ATOM     82  H   UNL A   1      31.191  23.299  24.010  1.00  0.00     0.161 HD
BRANCH  81  83
ATOM     83  C   UNL A   1      31.984  25.036  24.571  1.00  0.00     0.114 A 
ATOM     84  C   UNL A   1      31.455  25.565  25.771  1.00  0.00     0.033 A 
ATOM     85  C   UNL A   1      32.477  25.988  23.666  1.00  0.00     0.292 A 
ATOM     86  C   UNL A   1      31.406  26.934  26.048  1.00  0.00     0.016 A 
ATOM     87  C   UNL A   1      32.444  27.375  23.931  1.00  0.00     0.101 A 
ATOM     88  C   UNL A   1      31.906  27.856  25.131  1.00  0.00     0.062 A 
BRANCH  85  89
ATOM     89  N   UNL A   1      33.027  25.633  22.375  1.00  0.00     0.064 N 
ATOM     90  O   UNL A   1      33.989  26.303  21.973  1.00  0.00    -0.258 OA
ATOM     91  O   UNL A   1      32.553  24.648  21.796  1.00  0.00    -0.258 OA
ENDBRANCH  85  89
BRANCH  88  92
ATOM     92  C   UNL A   1      31.838  29.328  25.431  1.00  0.00     0.416 C 
ATOM     93  F   UNL A   1      31.394  29.597  26.684  1.00  0.00    -0.166 F 
ATOM     94  F   UNL A   1      33.052  29.933  25.313  1.00  0.00    -0.166 F 
ATOM     95  F   UNL A   1      31.014  29.994  24.578  1.00  0.00    -0.166 F 
ENDBRANCH  88  92
ENDBRANCH  81  83
ENDBRANCH  80  81
BRANCH  80  96
ATOM     96  C   UNL A   1      32.404  21.256  24.521  1.00  0.00     0.193 C 
BRANCH  96  97
ATOM     97  O   UNL A   1      31.919  20.454  25.603  1.00  0.00    -0.394 OA
ATOM     98  H   UNL A   1      31.080  20.819  25.925  1.00  0.00     0.210 HD
ENDBRANCH  96  97
ENDBRANCH  80  96
ENDBRANCH  78  80
ENDBRANCH  77  78
ENDBRANCH  76  77
ENDBRANCH  75  76
ENDBRANCH  74  75
ENDBRANCH   1  74
TORSDOF 23
ENDMDL
MODEL 3
REMARK VINA RESULT:     -10.4      4.486      9.221
REMARK SMILES O=C(OCCOCCOCCOC(=O)[C@H](CO)Nc1ccc(C(F)(F)F)cc1[N+](=O)[O-])c1ccc(-c2c3nc(c(-c4c(F)c(F)c(F)c(F)c4F)c4ccc([nH]4)c(-c4c(F)c(F)c(F)c(F)c4F)c4nc(c(-c5c(F)c(F)c(F)c(F)c5F)c5ccc2[nH]5)C=C4)C=C3)cc1
REMARK SMILES IDX 8 1 7 2 6 3 5 4 4 5 3 6 2 7 1 8 32 9 33 10 94 11 34 12 93 13
REMARK SMILES IDX 35 14 36 15 37 16 87 17 38 18 92 19 86 20 88 21 39 22 91 23
REMARK SMILES IDX 85 24 84 25 40 27 72 28 52 29 71 30 53 31 56 32 70 33 89 34
REMARK SMILES IDX 54 35 55 36 69 38 90 39 57 40 41 41 42 42 50 43 43 44 44 45
REMARK SMILES IDX 48 46 51 47 45 48 46 49 49 50 47 51 73 52 74 53 82 54 75 55
REMARK SMILES IDX 76 56 80 57 83 58 77 59 78 60 81 61 79 62 58 63 59 64 67 65
REMARK SMILES IDX 60 66 61 67 65 68 68 69 62 70 63 71 66 72 64 73 9 74 10 75
REMARK SMILES IDX 11 76 12 77 13 78 14 79 15 80 18 81 19 83 20 84 28 85 21 86
REMARK SMILES IDX 27 87 22 88 29 89 30 90 31 91 23 92 24 93 25 94 26 95 16 96
REMARK SMILES IDX 17 97
REMARK H PARENT 88 26 56 37 18 82 17 98
REMARK Flexibility Score: inf
ROOT
ATOM      1  C   UNL A   1      35.691  23.362  25.384  1.00  0.00     0.188 C 
ENDROOT
BRANCH   1   2
ATOM      2  C   UNL A   1      35.826  22.268  24.323  1.00  0.00     0.188 C 
BRANCH   2   3
ATOM      3  O   UNL A   1      37.179  21.846  24.105  1.00  0.00    -0.376 OA
BRANCH   3   4
ATOM      4  C   UNL A   1      37.557  20.747  24.948  1.00  0.00     0.202 C 
BRANCH   4   5
ATOM      5  C   UNL A   1      38.820  20.996  25.788  1.00  0.00     0.261 C 
BRANCH   5   6
ATOM      6  O   UNL A   1      39.718  19.873  25.780  1.00  0.00    -0.460 OA
BRANCH   6   7
ATOM      7  C   UNL A   1      41.046  19.845  26.048  1.00  0.00     0.338 C 
ATOM      8  O   UNL A   1      41.663  18.803  25.827  1.00  0.00    -0.246 OA
BRANCH   7   9
ATOM      9  C   UNL A   1      41.832  21.017  26.554  1.00  0.00     0.060 A 
ATOM     10  C   UNL A   1      42.156  21.266  27.887  1.00  0.00     0.016 A 
ATOM     11  C   UNL A   1      42.298  21.933  25.590  1.00  0.00     0.016 A 
ATOM     12  C   UNL A   1      42.767  22.457  28.272  1.00  0.00     0.010 A 
ATOM     13  C   UNL A   1      42.959  23.111  25.963  1.00  0.00     0.010 A 
ATOM     14  C   UNL A   1      43.126  23.408  27.317  1.00  0.00    -0.014 A 
BRANCH  14  15
ATOM     15  C   UNL A   1      43.456  24.768  27.797  1.00  0.00     0.031 A 
ATOM     16  C   UNL A   1      44.885  25.230  27.681  1.00  0.00     0.074 A 
ATOM     17  C   UNL A   1      42.481  25.618  28.164  1.00  0.00     0.049 A 
ATOM     18  N   UNL A   1      45.407  26.399  27.947  1.00  0.00    -0.248 NA
ATOM     19  C   UNL A   1      45.860  24.238  27.198  1.00  0.00     0.031 C 
ATOM     20  C   UNL A   1      41.061  25.285  28.273  1.00  0.00     0.029 A 
ATOM     21  N   UNL A   1      42.533  26.954  28.464  1.00  0.00    -0.354 N 
ATOM     22  C   UNL A   1      46.769  26.267  27.709  1.00  0.00     0.074 A 
ATOM     23  C   UNL A   1      46.998  24.910  27.269  1.00  0.00     0.031 C 
ATOM     24  C   UNL A   1      40.367  26.401  28.558  1.00  0.00     0.029 A 
ATOM     25  C   UNL A   1      41.298  27.516  28.680  1.00  0.00     0.049 A 
ATOM     26  H   UNL A   1      43.374  27.461  28.522  1.00  0.00     0.167 HD
ATOM     27  C   UNL A   1      47.745  27.193  27.857  1.00  0.00     0.037 A 
ATOM     28  C   UNL A   1      40.975  28.794  28.944  1.00  0.00     0.037 A 
ATOM     29  C   UNL A   1      47.503  28.548  28.273  1.00  0.00     0.049 A 
ATOM     30  C   UNL A   1      42.084  29.805  29.081  1.00  0.00     0.074 A 
ATOM     31  C   UNL A   1      48.412  29.565  28.498  1.00  0.00     0.029 A 
ATOM     32  N   UNL A   1      46.243  29.073  28.521  1.00  0.00    -0.354 N 
ATOM     33  N   UNL A   1      43.372  29.657  28.902  1.00  0.00    -0.248 NA
ATOM     34  C   UNL A   1      41.682  31.161  29.486  1.00  0.00     0.031 C 
ATOM     35  C   UNL A   1      47.704  30.697  28.919  1.00  0.00     0.029 A 
ATOM     36  C   UNL A   1      46.352  30.396  28.908  1.00  0.00     0.049 A 
ATOM     37  H   UNL A   1      45.397  28.577  28.434  1.00  0.00     0.167 HD
ATOM     38  C   UNL A   1      43.936  30.892  29.186  1.00  0.00     0.074 A 
ATOM     39  C   UNL A   1      42.845  31.792  29.494  1.00  0.00     0.031 C 
ATOM     40  C   UNL A   1      45.241  31.253  29.219  1.00  0.00     0.037 A 
BRANCH  27  41
ATOM     41  C   UNL A   1      49.159  26.742  27.643  1.00  0.00     0.064 A 
ATOM     42  C   UNL A   1      49.711  26.586  26.364  1.00  0.00     0.173 A 
ATOM     43  C   UNL A   1      49.969  26.440  28.749  1.00  0.00     0.173 A 
ATOM     44  F   UNL A   1      48.970  26.836  25.274  1.00  0.00    -0.203 F 
ATOM     45  C   UNL A   1      51.011  26.114  26.199  1.00  0.00     0.198 A 
ATOM     46  C   UNL A   1      51.276  25.994  28.581  1.00  0.00     0.198 A 
ATOM     47  F   UNL A   1      49.487  26.567  29.995  1.00  0.00    -0.203 F 
ATOM     48  F   UNL A   1      51.498  25.914  24.966  1.00  0.00    -0.200 F 
ATOM     49  C   UNL A   1      51.793  25.822  27.307  1.00  0.00     0.200 A 
ATOM     50  F   UNL A   1      52.031  25.717  29.653  1.00  0.00    -0.200 F 
ATOM     51  F   UNL A   1      53.041  25.361  27.146  1.00  0.00    -0.200 F 
ENDBRANCH  27  41
BRANCH  28  52
ATOM     52  C   UNL A   1      39.573  29.227  29.172  1.00  0.00     0.064 A 
ATOM     53  C   UNL A   1      39.000  29.158  30.450  1.00  0.00     0.173 A 
ATOM     54  C   UNL A   1      38.735  29.528  28.091  1.00  0.00     0.173 A 
ATOM     55  F   UNL A   1      39.764  28.856  31.511  1.00  0.00    -0.203 F 
ATOM     56  C   UNL A   1      37.626  29.302  30.627  1.00  0.00     0.198 A 
ATOM     57  C   UNL A   1      37.365  29.697  28.273  1.00  0.00     0.198 A 
ATOM     58  F   UNL A   1      39.240  29.608  26.853  1.00  0.00    -0.203 F 
ATOM     59  F   UNL A   1      37.089  29.158  31.847  1.00  0.00    -0.200 F 
ATOM     60  C   UNL A   1      36.809  29.561  29.537  1.00  0.00     0.200 A 
ATOM     61  F   UNL A   1      36.582  29.963  27.220  1.00  0.00    -0.200 F 
ATOM     62  F   UNL A   1      35.484  29.680  29.703  1.00  0.00    -0.200 F 
ENDBRANCH  28  52
BRANCH  40  63
ATOM     63  C   UNL A   1      45.530  32.672  29.598  1.00  0.00     0.064 A 
ATOM     64  C   UNL A   1      45.688  33.051  30.939  1.00  0.00     0.173 A 
ATOM     65  C   UNL A   1      45.638  33.663  28.613  1.00  0.00     0.173 A 
ATOM     66  F   UNL A   1      45.567  32.140  31.918  1.00  0.00    -0.203 F 
ATOM     67  C   UNL A   1      45.909  34.380  31.283  1.00  0.00     0.198 A 
ATOM     68  C   UNL A   1      45.889  34.986  28.957  1.00  0.00     0.198 A 
ATOM     69  F   UNL A   1      45.492  33.345  27.317  1.00  0.00    -0.203 F 
ATOM     70  F   UNL A   1      45.995  34.732  32.573  1.00  0.00    -0.200 F 
ATOM     71  C   UNL A   1      46.014  35.345  30.292  1.00  0.00     0.200 A 
ATOM     72  F   UNL A   1      45.995  35.916  27.999  1.00  0.00    -0.200 F 
ATOM     73  F   UNL A   1      46.222  36.627  30.623  1.00  0.00    -0.200 F 
ENDBRANCH  40  63
ENDBRANCH  14  15
ENDBRANCH   7   9
ENDBRANCH   6   7
ENDBRANCH   5   6
ENDBRANCH   4   5
ENDBRANCH   3   4
ENDBRANCH   2   3
ENDBRANCH   1   2
BRANCH   1  74
ATOM     74  O   UNL A   1      35.181  24.612  24.939  1.00  0.00    -0.376 OA
BRANCH  74  75
ATOM     75  C   UNL A   1      34.165  25.233  25.729  1.00  0.00     0.202 C 
BRANCH  75  76
ATOM     76  C   UNL A   1      33.837  26.697  25.411  1.00  0.00     0.261 C 
BRANCH  76  77
ATOM     77  O   UNL A   1      32.609  26.836  24.673  1.00  0.00    -0.462 OA
BRANCH  77  78
ATOM     78  C   UNL A   1      32.646  26.472  23.357  1.00  0.00     0.331 C 
ATOM     79  O   UNL A   1      33.635  26.495  22.646  1.00  0.00    -0.250 OA
BRANCH  78  80
ATOM     80  C   UNL A   1      31.271  25.982  22.897  1.00  0.00     0.216 C 
BRANCH  80  81
ATOM     81  N   UNL A   1      30.735  24.991  23.844  1.00  0.00    -0.365 N 
ATOM     82  H   UNL A   1      29.915  25.278  24.306  1.00  0.00     0.161 HD
BRANCH  81  83
ATOM     83  C   UNL A   1      31.170  23.736  24.202  1.00  0.00     0.114 A 
ATOM     84  C   UNL A   1      31.687  22.968  23.135  1.00  0.00     0.033 A 
ATOM     85  C   UNL A   1      31.215  23.116  25.460  1.00  0.00     0.292 A 
ATOM     86  C   UNL A   1      32.198  21.677  23.298  1.00  0.00     0.016 A 
ATOM     87  C   UNL A   1      31.736  21.816  25.647  1.00  0.00     0.101 A 
ATOM     88  C   UNL A   1      32.234  21.088  24.560  1.00  0.00     0.062 A 
BRANCH  85  89
ATOM     89  N   UNL A   1      30.703  23.740  26.662  1.00  0.00     0.064 N 
ATOM     90  O   UNL A   1      30.166  22.995  27.494  1.00  0.00    -0.258 OA
ATOM     91  O   UNL A   1      30.899  24.952  26.812  1.00  0.00    -0.258 OA
ENDBRANCH  85  89
BRANCH  88  92
ATOM     92  C   UNL A   1      32.774  19.695  24.725  1.00  0.00     0.416 C 
ATOM     93  F   UNL A   1      32.115  18.775  23.977  1.00  0.00    -0.166 F 
ATOM     94  F   UNL A   1      34.086  19.608  24.376  1.00  0.00    -0.166 F 
ATOM     95  F   UNL A   1      32.711  19.263  26.014  1.00  0.00    -0.166 F 
ENDBRANCH  88  92
ENDBRANCH  81  83
ENDBRANCH  80  81
BRANCH  80  96
ATOM     96  C   UNL A   1      30.316  27.197  22.872  1.00  0.00     0.193 C 
BRANCH  96  97
ATOM     97  O   UNL A   1      30.585  28.059  21.761  1.00  0.00    -0.394 OA
ATOM     98  H   UNL A   1      30.152  28.915  21.904  1.00  0.00     0.210 HD
ENDBRANCH  96  97
ENDBRANCH  80  96
ENDBRANCH  78  80
ENDBRANCH  77  78
ENDBRANCH  76  77
ENDBRANCH  75  76
ENDBRANCH  74  75
ENDBRANCH   1  74
TORSDOF 23
ENDMDL
