MODEL 1
REMARK VINA RESULT:     -10.8      0.000      0.000
REMARK SMILES CC(=O)NS(=O)(=O)c1cc(-c2ccn(C(F)F)c(=O)c2)ccc1C(=O)OCCOCCOCCOC(=O)c1ccc(-c2c3nc(c(-c4c(F)c(F)c(F)c(F)c4F)c4ccc([nH]4)c(-c4c(F)c(F)c(F)c(F)c4F)c4nc(c(-c5c(F)c(F)c(F)c(F)c5F)c5ccc2[nH]5)C=C4)C=C3)cc1
REMARK SMILES IDX 30 1 29 2 28 3 27 4 26 5 24 6 25 7 23 8 8 9 9 10 10 11 22 12
REMARK SMILES IDX 21 13 5 14 6 15 7 16 4 17 1 18 2 19 3 20 11 22 12 23 20 24
REMARK SMILES IDX 13 25 18 26 14 27 19 28 15 29 16 30 17 31 31 32 32 33 33 34
REMARK SMILES IDX 34 35 35 36 36 37 37 38 38 39 39 40 100 41 40 42 99 43 41 44
REMARK SMILES IDX 42 45 43 46 93 47 44 48 98 49 92 50 94 51 45 52 97 53 91 54
REMARK SMILES IDX 90 55 46 57 78 58 58 59 77 60 59 61 62 62 76 63 95 64 60 65
REMARK SMILES IDX 61 66 75 68 96 69 63 70 47 71 48 72 56 73 49 74 50 75 54 76
REMARK SMILES IDX 57 77 51 78 52 79 55 80 53 81 79 82 80 83 88 84 81 85 82 86
REMARK SMILES IDX 86 87 89 88 83 89 84 90 87 91 85 92 64 93 65 94 73 95 66 96
REMARK SMILES IDX 67 97 71 98 74 99 68 100 69 101 72 102 70 103
REMARK H PARENT 4 21 94 56 62 67
REMARK Flexibility Score: inf
ROOT
ATOM      1  C   UNL A   1      40.100  22.466  27.588  1.00  0.00     0.188 C 
ENDROOT
BRANCH   1   2
ATOM      2  O   UNL A   1      39.919  23.390  26.523  1.00  0.00    -0.376 OA
BRANCH   2   3
ATOM      3  C   UNL A   1      38.714  24.147  26.554  1.00  0.00     0.202 C 
BRANCH   3   4
ATOM      4  C   UNL A   1      37.538  23.417  25.906  1.00  0.00     0.261 C 
BRANCH   4   5
ATOM      5  O   UNL A   1      36.407  24.276  25.686  1.00  0.00    -0.460 OA
BRANCH   5   6
ATOM      6  C   UNL A   1      35.182  23.755  25.829  1.00  0.00     0.339 C 
ATOM      7  O   UNL A   1      34.889  22.780  26.501  1.00  0.00    -0.246 OA
BRANCH   6   8
ATOM      8  C   UNL A   1      34.164  24.644  25.212  1.00  0.00     0.080 A 
ATOM      9  C   UNL A   1      33.269  24.295  24.192  1.00  0.00     0.103 A 
ATOM     10  C   UNL A   1      32.216  25.165  23.873  1.00  0.00     0.032 A 
ATOM     11  C   UNL A   1      32.144  26.452  24.418  1.00  0.00    -0.017 A 
ATOM     12  C   UNL A   1      34.071  25.930  25.782  1.00  0.00     0.018 A 
ATOM     13  C   UNL A   1      33.098  26.842  25.356  1.00  0.00     0.010 A 
BRANCH   9  14
ATOM     14  S   UNL A   1      33.493  22.858  23.177  1.00  0.00     0.264 S 
ATOM     15  O   UNL A   1      34.818  22.954  22.609  1.00  0.00    -0.201 OA
ATOM     16  O   UNL A   1      32.315  22.642  22.381  1.00  0.00    -0.201 OA
BRANCH  14  17
ATOM     17  N   UNL A   1      33.539  21.558  24.255  1.00  0.00    -0.249 N 
ATOM     18  C   UNL A   1      31.549  21.758  25.743  1.00  0.00     0.115 C 
ATOM     19  C   UNL A   1      32.355  20.960  24.750  1.00  0.00     0.230 C 
ATOM     20  O   UNL A   1      32.152  19.770  24.551  1.00  0.00    -0.274 OA
ATOM     21  H   UNL A   1      34.412  21.208  24.545  1.00  0.00     0.183 HD
ENDBRANCH  14  17
ENDBRANCH   9  14
BRANCH  11  22
ATOM     22  C   UNL A   1      31.122  27.384  23.909  1.00  0.00    -0.011 A 
ATOM     23  C   UNL A   1      31.465  28.621  23.232  1.00  0.00     0.027 A 
ATOM     24  C   UNL A   1      29.830  27.026  23.999  1.00  0.00     0.080 A 
ATOM     25  C   UNL A   1      30.510  29.382  22.684  1.00  0.00     0.095 A 
ATOM     26  C   UNL A   1      28.756  27.867  23.402  1.00  0.00     0.255 A 
ATOM     27  N   UNL A   1      29.178  29.018  22.758  1.00  0.00    -0.258 N 
ATOM     28  O   UNL A   1      27.595  27.485  23.501  1.00  0.00    -0.269 OA
BRANCH  27  29
ATOM     29  C   UNL A   1      28.158  29.837  22.152  1.00  0.00     0.451 C 
ATOM     30  F   UNL A   1      27.973  30.980  22.857  1.00  0.00    -0.185 F 
ATOM     31  F   UNL A   1      28.495  30.173  20.884  1.00  0.00    -0.185 F 
ENDBRANCH  27  29
ENDBRANCH  11  22
ENDBRANCH   6   8
ENDBRANCH   5   6
ENDBRANCH   4   5
ENDBRANCH   3   4
ENDBRANCH   2   3
ENDBRANCH   1   2
BRANCH   1  32
ATOM     32  C   UNL A   1      41.567  22.205  27.982  1.00  0.00     0.188 C 
BRANCH  32  33
ATOM     33  O   UNL A   1      42.380  21.234  27.340  1.00  0.00    -0.376 OA
BRANCH  33  34
ATOM     34  C   UNL A   1      41.884  19.933  27.089  1.00  0.00     0.202 C 
BRANCH  34  35
ATOM     35  C   UNL A   1      42.308  19.308  25.759  1.00  0.00     0.261 C 
BRANCH  35  36
ATOM     36  O   UNL A   1      43.721  19.080  25.661  1.00  0.00    -0.460 OA
BRANCH  36  37
ATOM     37  C   UNL A   1      44.305  19.596  24.553  1.00  0.00     0.338 C 
ATOM     38  O   UNL A   1      44.383  19.094  23.445  1.00  0.00    -0.246 OA
BRANCH  37  39
ATOM     39  C   UNL A   1      44.737  20.981  24.822  1.00  0.00     0.060 A 
ATOM     40  C   UNL A   1      45.326  21.250  26.065  1.00  0.00     0.016 A 
ATOM     41  C   UNL A   1      44.523  22.010  23.901  1.00  0.00     0.016 A 
ATOM     42  C   UNL A   1      45.675  22.554  26.405  1.00  0.00     0.010 A 
ATOM     43  C   UNL A   1      44.849  23.322  24.253  1.00  0.00     0.010 A 
ATOM     44  C   UNL A   1      45.398  23.601  25.517  1.00  0.00    -0.014 A 
BRANCH  44  45
ATOM     45  C   UNL A   1      45.517  24.998  25.992  1.00  0.00     0.031 A 
ATOM     46  C   UNL A   1      46.861  25.666  25.922  1.00  0.00     0.074 A 
ATOM     47  C   UNL A   1      44.444  25.669  26.444  1.00  0.00     0.049 A 
ATOM     48  N   UNL A   1      47.206  26.877  26.277  1.00  0.00    -0.248 NA
ATOM     49  C   UNL A   1      47.962  24.862  25.370  1.00  0.00     0.031 C 
ATOM     50  C   UNL A   1      43.087  25.137  26.522  1.00  0.00     0.029 A 
ATOM     51  N   UNL A   1      44.338  26.947  26.930  1.00  0.00    -0.354 N 
ATOM     52  C   UNL A   1      48.560  26.980  25.988  1.00  0.00     0.074 A 
ATOM     53  C   UNL A   1      48.981  25.705  25.451  1.00  0.00     0.031 C 
ATOM     54  C   UNL A   1      42.281  26.080  27.044  1.00  0.00     0.029 A 
ATOM     55  C   UNL A   1      43.074  27.268  27.356  1.00  0.00     0.049 A 
ATOM     56  H   UNL A   1      45.096  27.574  26.970  1.00  0.00     0.167 HD
ATOM     57  C   UNL A   1      49.378  28.046  26.152  1.00  0.00     0.037 A 
ATOM     58  C   UNL A   1      42.620  28.389  27.950  1.00  0.00     0.037 A 
ATOM     59  C   UNL A   1      48.965  29.307  26.706  1.00  0.00     0.049 A 
ATOM     60  C   UNL A   1      43.571  29.532  28.198  1.00  0.00     0.074 A 
ATOM     61  C   UNL A   1      49.716  30.451  26.905  1.00  0.00     0.029 A 
ATOM     62  N   UNL A   1      47.685  29.581  27.165  1.00  0.00    -0.354 N 
ATOM     63  N   UNL A   1      44.840  29.635  27.890  1.00  0.00    -0.248 NA
ATOM     64  C   UNL A   1      43.021  30.715  28.877  1.00  0.00     0.031 C 
ATOM     65  C   UNL A   1      48.901  31.405  27.524  1.00  0.00     0.029 A 
ATOM     66  C   UNL A   1      47.632  30.870  27.670  1.00  0.00     0.049 A 
ATOM     67  H   UNL A   1      46.927  28.954  27.135  1.00  0.00     0.167 HD
ATOM     68  C   UNL A   1      45.236  30.897  28.315  1.00  0.00     0.074 A 
ATOM     69  C   UNL A   1      44.067  31.529  28.891  1.00  0.00     0.031 C 
ATOM     70  C   UNL A   1      46.457  31.481  28.235  1.00  0.00     0.037 A 
BRANCH  57  71
ATOM     71  C   UNL A   1      50.811  27.878  25.749  1.00  0.00     0.064 A 
ATOM     72  C   UNL A   1      51.794  27.507  26.678  1.00  0.00     0.173 A 
ATOM     73  C   UNL A   1      51.202  28.075  24.417  1.00  0.00     0.173 A 
ATOM     74  F   UNL A   1      51.472  27.327  27.968  1.00  0.00    -0.203 F 
ATOM     75  C   UNL A   1      53.123  27.357  26.290  1.00  0.00     0.198 A 
ATOM     76  C   UNL A   1      52.528  27.902  24.028  1.00  0.00     0.198 A 
ATOM     77  F   UNL A   1      50.299  28.434  23.493  1.00  0.00    -0.203 F 
ATOM     78  F   UNL A   1      54.054  27.041  27.201  1.00  0.00    -0.200 F 
ATOM     79  C   UNL A   1      53.488  27.550  24.965  1.00  0.00     0.200 A 
ATOM     80  F   UNL A   1      52.877  28.083  22.747  1.00  0.00    -0.200 F 
ATOM     81  F   UNL A   1      54.767  27.404  24.593  1.00  0.00    -0.200 F 
ENDBRANCH  57  71
BRANCH  58  82
ATOM     82  C   UNL A   1      41.198  28.485  28.368  1.00  0.00     0.064 A 
ATOM     83  C   UNL A   1      40.791  28.079  29.646  1.00  0.00     0.173 A 
ATOM     84  C   UNL A   1      40.215  28.963  27.489  1.00  0.00     0.173 A 
ATOM     85  F   UNL A   1      41.692  27.592  30.511  1.00  0.00    -0.203 F 
ATOM     86  C   UNL A   1      39.451  28.131  30.023  1.00  0.00     0.198 A 
ATOM     87  C   UNL A   1      38.879  29.037  27.876  1.00  0.00     0.198 A 
ATOM     88  F   UNL A   1      40.554  29.361  26.255  1.00  0.00    -0.203 F 
ATOM     89  F   UNL A   1      39.082  27.696  31.235  1.00  0.00    -0.200 F 
ATOM     90  C   UNL A   1      38.496  28.614  29.140  1.00  0.00     0.200 A 
ATOM     91  F   UNL A   1      37.961  29.513  27.023  1.00  0.00    -0.200 F 
ATOM     92  F   UNL A   1      37.208  28.664  29.504  1.00  0.00    -0.200 F 
ENDBRANCH  58  82
BRANCH  70  93
ATOM     93  C   UNL A   1      46.586  32.882  28.759  1.00  0.00     0.064 A 
ATOM     94  C   UNL A   1      46.963  33.138  30.085  1.00  0.00     0.173 A 
ATOM     95  C   UNL A   1      46.375  33.979  27.911  1.00  0.00     0.173 A 
ATOM     96  F   UNL A   1      47.161  32.121  30.938  1.00  0.00    -0.203 F 
ATOM     97  C   UNL A   1      47.103  34.442  30.549  1.00  0.00     0.198 A 
ATOM     98  C   UNL A   1      46.542  35.282  28.371  1.00  0.00     0.198 A 
ATOM     99  F   UNL A   1      46.019  33.787  26.632  1.00  0.00    -0.203 F 
ATOM    100  F   UNL A   1      47.424  34.665  31.831  1.00  0.00    -0.200 F 
ATOM    101  C   UNL A   1      46.900  35.514  29.690  1.00  0.00     0.200 A 
ATOM    102  F   UNL A   1      46.356  36.314  27.536  1.00  0.00    -0.200 F 
ATOM    103  F   UNL A   1      47.042  36.768  30.137  1.00  0.00    -0.200 F 
ENDBRANCH  70  93
ENDBRANCH  44  45
ENDBRANCH  37  39
ENDBRANCH  36  37
ENDBRANCH  35  36
ENDBRANCH  34  35
ENDBRANCH  33  34
ENDBRANCH  32  33
ENDBRANCH   1  32
TORSDOF 21
ENDMDL
MODEL 2
REMARK VINA RESULT:     -10.7      5.169      9.755
REMARK SMILES CC(=O)NS(=O)(=O)c1cc(-c2ccn(C(F)F)c(=O)c2)ccc1C(=O)OCCOCCOCCOC(=O)c1ccc(-c2c3nc(c(-c4c(F)c(F)c(F)c(F)c4F)c4ccc([nH]4)c(-c4c(F)c(F)c(F)c(F)c4F)c4nc(c(-c5c(F)c(F)c(F)c(F)c5F)c5ccc2[nH]5)C=C4)C=C3)cc1
REMARK SMILES IDX 30 1 29 2 28 3 27 4 26 5 24 6 25 7 23 8 8 9 9 10 10 11 22 12
REMARK SMILES IDX 21 13 5 14 6 15 7 16 4 17 1 18 2 19 3 20 11 22 12 23 20 24
REMARK SMILES IDX 13 25 18 26 14 27 19 28 15 29 16 30 17 31 31 32 32 33 33 34
REMARK SMILES IDX 34 35 35 36 36 37 37 38 38 39 39 40 100 41 40 42 99 43 41 44
REMARK SMILES IDX 42 45 43 46 93 47 44 48 98 49 92 50 94 51 45 52 97 53 91 54
REMARK SMILES IDX 90 55 46 57 78 58 58 59 77 60 59 61 62 62 76 63 95 64 60 65
REMARK SMILES IDX 61 66 75 68 96 69 63 70 47 71 48 72 56 73 49 74 50 75 54 76
REMARK SMILES IDX 57 77 51 78 52 79 55 80 53 81 79 82 80 83 88 84 81 85 82 86
REMARK SMILES IDX 86 87 89 88 83 89 84 90 87 91 85 92 64 93 65 94 73 95 66 96
REMARK SMILES IDX 67 97 71 98 74 99 68 100 69 101 72 102 70 103
REMARK H PARENT 4 21 94 56 62 67
REMARK Flexibility Score: inf
ROOT
ATOM      1  C   UNL A   1      44.588  21.556  25.327  1.00  0.00     0.188 C 
ENDROOT
BRANCH   1   2
ATOM      2  O   UNL A   1      43.977  22.748  25.799  1.00  0.00    -0.376 OA
BRANCH   2   3
ATOM      3  C   UNL A   1      44.360  23.170  27.104  1.00  0.00     0.202 C 
BRANCH   3   4
ATOM      4  C   UNL A   1      45.371  24.315  27.085  1.00  0.00     0.261 C 
BRANCH   4   5
ATOM      5  O   UNL A   1      44.744  25.606  27.014  1.00  0.00    -0.460 OA
BRANCH   5   6
ATOM      6  C   UNL A   1      45.005  26.376  25.950  1.00  0.00     0.339 C 
ATOM      7  O   UNL A   1      45.096  25.997  24.794  1.00  0.00    -0.246 OA
BRANCH   6   8
ATOM      8  C   UNL A   1      44.976  27.812  26.328  1.00  0.00     0.080 A 
ATOM      9  C   UNL A   1      46.061  28.698  26.297  1.00  0.00     0.103 A 
ATOM     10  C   UNL A   1      45.832  30.073  26.460  1.00  0.00     0.032 A 
ATOM     11  C   UNL A   1      44.576  30.562  26.837  1.00  0.00    -0.017 A 
ATOM     12  C   UNL A   1      43.706  28.312  26.677  1.00  0.00     0.018 A 
ATOM     13  C   UNL A   1      43.516  29.667  26.973  1.00  0.00     0.010 A 
BRANCH   9  14
ATOM     14  S   UNL A   1      47.743  28.144  26.205  1.00  0.00     0.264 S 
ATOM     15  O   UNL A   1      47.841  26.974  27.049  1.00  0.00    -0.201 OA
ATOM     16  O   UNL A   1      48.629  29.270  26.325  1.00  0.00    -0.201 OA
BRANCH  14  17
ATOM     17  N   UNL A   1      47.942  27.594  24.621  1.00  0.00    -0.249 N 
ATOM     18  C   UNL A   1      50.117  26.380  24.525  1.00  0.00     0.115 C 
ATOM     19  C   UNL A   1      48.622  26.386  24.332  1.00  0.00     0.230 C 
ATOM     20  O   UNL A   1      48.038  25.493  23.734  1.00  0.00    -0.274 OA
ATOM     21  H   UNL A   1      47.575  28.127  23.879  1.00  0.00     0.183 HD
ENDBRANCH  14  17
ENDBRANCH   9  14
BRANCH  11  22
ATOM     22  C   UNL A   1      44.440  31.991  27.171  1.00  0.00    -0.011 A 
ATOM     23  C   UNL A   1      44.867  32.537  28.446  1.00  0.00     0.027 A 
ATOM     24  C   UNL A   1      43.985  32.827  26.222  1.00  0.00     0.080 A 
ATOM     25  C   UNL A   1      44.833  33.856  28.664  1.00  0.00     0.095 A 
ATOM     26  C   UNL A   1      43.932  34.297  26.455  1.00  0.00     0.255 A 
ATOM     27  N   UNL A   1      44.380  34.729  27.693  1.00  0.00    -0.258 N 
ATOM     28  O   UNL A   1      43.523  35.015  25.549  1.00  0.00    -0.269 OA
BRANCH  27  29
ATOM     29  C   UNL A   1      44.360  36.150  27.933  1.00  0.00     0.451 C 
ATOM     30  F   UNL A   1      43.122  36.660  27.718  1.00  0.00    -0.185 F 
ATOM     31  F   UNL A   1      44.715  36.432  29.209  1.00  0.00    -0.185 F 
ENDBRANCH  27  29
ENDBRANCH  11  22
ENDBRANCH   6   8
ENDBRANCH   5   6
ENDBRANCH   4   5
ENDBRANCH   3   4
ENDBRANCH   2   3
ENDBRANCH   1   2
BRANCH   1  32
ATOM     32  C   UNL A   1      43.710  20.293  25.417  1.00  0.00     0.188 C 
BRANCH  32  33
ATOM     33  O   UNL A   1      42.302  20.340  25.599  1.00  0.00    -0.376 OA
BRANCH  33  34
ATOM     34  C   UNL A   1      41.738  20.177  26.886  1.00  0.00     0.202 C 
BRANCH  34  35
ATOM     35  C   UNL A   1      40.926  21.363  27.407  1.00  0.00     0.261 C 
BRANCH  35  36
ATOM     36  O   UNL A   1      40.759  22.410  26.440  1.00  0.00    -0.460 OA
BRANCH  36  37
ATOM     37  C   UNL A   1      39.525  22.966  26.412  1.00  0.00     0.338 C 
ATOM     38  O   UNL A   1      38.485  22.462  26.023  1.00  0.00    -0.246 OA
BRANCH  37  39
ATOM     39  C   UNL A   1      39.560  24.282  27.078  1.00  0.00     0.060 A 
ATOM     40  C   UNL A   1      40.180  25.339  26.399  1.00  0.00     0.016 A 
ATOM     41  C   UNL A   1      39.046  24.469  28.364  1.00  0.00     0.016 A 
ATOM     42  C   UNL A   1      40.317  26.580  27.015  1.00  0.00     0.010 A 
ATOM     43  C   UNL A   1      39.207  25.707  28.992  1.00  0.00     0.010 A 
ATOM     44  C   UNL A   1      39.869  26.756  28.329  1.00  0.00    -0.014 A 
BRANCH  44  45
ATOM     45  C   UNL A   1      40.261  27.978  29.066  1.00  0.00     0.031 A 
ATOM     46  C   UNL A   1      41.650  28.058  29.633  1.00  0.00     0.074 A 
ATOM     47  C   UNL A   1      39.410  29.009  29.200  1.00  0.00     0.049 A 
ATOM     48  N   UNL A   1      42.217  29.022  30.313  1.00  0.00    -0.248 NA
ATOM     49  C   UNL A   1      42.520  26.895  29.396  1.00  0.00     0.031 C 
ATOM     50  C   UNL A   1      38.054  29.061  28.661  1.00  0.00     0.029 A 
ATOM     51  N   UNL A   1      39.567  30.212  29.841  1.00  0.00    -0.354 N 
ATOM     52  C   UNL A   1      43.507  28.585  30.578  1.00  0.00     0.074 A 
ATOM     53  C   UNL A   1      43.636  27.261  30.010  1.00  0.00     0.031 C 
ATOM     54  C   UNL A   1      37.493  30.233  29.008  1.00  0.00     0.029 A 
ATOM     55  C   UNL A   1      38.445  31.000  29.812  1.00  0.00     0.049 A 
ATOM     56  H   UNL A   1      40.406  30.484  30.279  1.00  0.00     0.167 HD
ATOM     57  C   UNL A   1      44.498  29.232  31.234  1.00  0.00     0.037 A 
ATOM     58  C   UNL A   1      38.210  32.193  30.390  1.00  0.00     0.037 A 
ATOM     59  C   UNL A   1      44.364  30.540  31.818  1.00  0.00     0.049 A 
ATOM     60  C   UNL A   1      39.304  32.857  31.187  1.00  0.00     0.074 A 
ATOM     61  C   UNL A   1      45.313  31.285  32.495  1.00  0.00     0.029 A 
ATOM     62  N   UNL A   1      43.198  31.290  31.805  1.00  0.00    -0.354 N 
ATOM     63  N   UNL A   1      40.532  32.454  31.404  1.00  0.00    -0.248 NA
ATOM     64  C   UNL A   1      38.976  34.144  31.818  1.00  0.00     0.031 C 
ATOM     65  C   UNL A   1      44.707  32.469  32.930  1.00  0.00     0.029 A 
ATOM     66  C   UNL A   1      43.395  32.480  32.485  1.00  0.00     0.049 A 
ATOM     67  H   UNL A   1      42.355  31.017  31.375  1.00  0.00     0.167 HD
ATOM     68  C   UNL A   1      41.129  33.443  32.174  1.00  0.00     0.074 A 
ATOM     69  C   UNL A   1      40.132  34.474  32.377  1.00  0.00     0.031 C 
ATOM     70  C   UNL A   1      42.390  33.495  32.671  1.00  0.00     0.037 A 
BRANCH  57  71
ATOM     71  C   UNL A   1      45.808  28.518  31.376  1.00  0.00     0.064 A 
ATOM     72  C   UNL A   1      46.856  28.724  30.468  1.00  0.00     0.173 A 
ATOM     73  C   UNL A   1      46.022  27.631  32.441  1.00  0.00     0.173 A 
ATOM     74  F   UNL A   1      46.691  29.549  29.422  1.00  0.00    -0.203 F 
ATOM     75  C   UNL A   1      48.067  28.052  30.610  1.00  0.00     0.198 A 
ATOM     76  C   UNL A   1      47.242  26.978  32.594  1.00  0.00     0.198 A 
ATOM     77  F   UNL A   1      45.048  27.399  33.334  1.00  0.00    -0.203 F 
ATOM     78  F   UNL A   1      49.042  28.233  29.708  1.00  0.00    -0.200 F 
ATOM     79  C   UNL A   1      48.261  27.184  31.675  1.00  0.00     0.200 A 
ATOM     80  F   UNL A   1      47.429  26.145  33.625  1.00  0.00    -0.200 F 
ATOM     81  F   UNL A   1      49.428  26.539  31.811  1.00  0.00    -0.200 F 
ENDBRANCH  57  71
BRANCH  58  82
ATOM     82  C   UNL A   1      36.878  32.837  30.254  1.00  0.00     0.064 A 
ATOM     83  C   UNL A   1      35.914  32.725  31.264  1.00  0.00     0.173 A 
ATOM     84  C   UNL A   1      36.537  33.558  29.099  1.00  0.00     0.173 A 
ATOM     85  F   UNL A   1      36.187  32.025  32.374  1.00  0.00    -0.203 F 
ATOM     86  C   UNL A   1      34.651  33.295  31.117  1.00  0.00     0.198 A 
ATOM     87  C   UNL A   1      35.282  34.147  28.965  1.00  0.00     0.198 A 
ATOM     88  F   UNL A   1      37.425  33.691  28.104  1.00  0.00    -0.203 F 
ATOM     89  F   UNL A   1      33.732  33.136  32.079  1.00  0.00    -0.200 F 
ATOM     90  C   UNL A   1      34.337  34.009  29.970  1.00  0.00     0.200 A 
ATOM     91  F   UNL A   1      34.987  34.844  27.859  1.00  0.00    -0.200 F 
ATOM     92  F   UNL A   1      33.122  34.557  29.830  1.00  0.00    -0.200 F 
ENDBRANCH  58  82
BRANCH  70  93
ATOM     93  C   UNL A   1      42.772  34.715  33.457  1.00  0.00     0.064 A 
ATOM     94  C   UNL A   1      43.181  35.897  32.822  1.00  0.00     0.173 A 
ATOM     95  C   UNL A   1      42.683  34.715  34.856  1.00  0.00     0.173 A 
ATOM     96  F   UNL A   1      43.296  35.941  31.487  1.00  0.00    -0.203 F 
ATOM     97  C   UNL A   1      43.507  37.029  33.564  1.00  0.00     0.198 A 
ATOM     98  C   UNL A   1      42.985  35.857  35.593  1.00  0.00     0.198 A 
ATOM     99  F   UNL A   1      42.290  33.611  35.509  1.00  0.00    -0.203 F 
ATOM    100  F   UNL A   1      43.935  38.136  32.940  1.00  0.00    -0.200 F 
ATOM    101  C   UNL A   1      43.402  37.011  34.947  1.00  0.00     0.200 A 
ATOM    102  F   UNL A   1      42.871  35.840  36.928  1.00  0.00    -0.200 F 
ATOM    103  F   UNL A   1      43.710  38.103  35.658  1.00  0.00    -0.200 F 
ENDBRANCH  70  93
ENDBRANCH  44  45
ENDBRANCH  37  39
ENDBRANCH  36  37
ENDBRANCH  35  36
ENDBRANCH  34  35
ENDBRANCH  33  34
ENDBRANCH  32  33
ENDBRANCH   1  32
TORSDOF 21
ENDMDL
MODEL 3
REMARK VINA RESULT:     -10.3      5.159     11.544
REMARK SMILES CC(=O)NS(=O)(=O)c1cc(-c2ccn(C(F)F)c(=O)c2)ccc1C(=O)OCCOCCOCCOC(=O)c1ccc(-c2c3nc(c(-c4c(F)c(F)c(F)c(F)c4F)c4ccc([nH]4)c(-c4c(F)c(F)c(F)c(F)c4F)c4nc(c(-c5c(F)c(F)c(F)c(F)c5F)c5ccc2[nH]5)C=C4)C=C3)cc1
REMARK SMILES IDX 30 1 29 2 28 3 27 4 26 5 24 6 25 7 23 8 8 9 9 10 10 11 22 12
REMARK SMILES IDX 21 13 5 14 6 15 7 16 4 17 1 18 2 19 3 20 11 22 12 23 20 24
REMARK SMILES IDX 13 25 18 26 14 27 19 28 15 29 16 30 17 31 31 32 32 33 33 34
REMARK SMILES IDX 34 35 35 36 36 37 37 38 38 39 39 40 100 41 40 42 99 43 41 44
REMARK SMILES IDX 42 45 43 46 93 47 44 48 98 49 92 50 94 51 45 52 97 53 91 54
REMARK SMILES IDX 90 55 46 57 78 58 58 59 77 60 59 61 62 62 76 63 95 64 60 65
REMARK SMILES IDX 61 66 75 68 96 69 63 70 47 71 48 72 56 73 49 74 50 75 54 76
REMARK SMILES IDX 57 77 51 78 52 79 55 80 53 81 79 82 80 83 88 84 81 85 82 86
REMARK SMILES IDX 86 87 89 88 83 89 84 90 87 91 85 92 64 93 65 94 73 95 66 96
REMARK SMILES IDX 67 97 71 98 74 99 68 100 69 101 72 102 70 103
REMARK H PARENT 4 21 94 56 62 67
REMARK Flexibility Score: inf
ROOT
ATOM      1  C   UNL A   1      44.261  22.570  25.292  1.00  0.00     0.188 C 
ENDROOT
BRANCH   1   2
ATOM      2  O   UNL A   1      43.300  23.605  25.443  1.00  0.00    -0.376 OA
BRANCH   2   3
ATOM      3  C   UNL A   1      43.479  24.463  26.565  1.00  0.00     0.202 C 
BRANCH   3   4
ATOM      4  C   UNL A   1      44.857  24.317  27.210  1.00  0.00     0.261 C 
BRANCH   4   5
ATOM      5  O   UNL A   1      45.575  25.561  27.267  1.00  0.00    -0.460 OA
BRANCH   5   6
ATOM      6  C   UNL A   1      45.654  26.295  26.151  1.00  0.00     0.339 C 
ATOM      7  O   UNL A   1      45.743  25.865  25.013  1.00  0.00    -0.246 OA
BRANCH   6   8
ATOM      8  C   UNL A   1      45.419  27.730  26.454  1.00  0.00     0.080 A 
ATOM      9  C   UNL A   1      46.377  28.751  26.422  1.00  0.00     0.103 A 
ATOM     10  C   UNL A   1      45.961  30.088  26.506  1.00  0.00     0.032 A 
ATOM     11  C   UNL A   1      44.635  30.420  26.807  1.00  0.00    -0.017 A 
ATOM     12  C   UNL A   1      44.078  28.069  26.727  1.00  0.00     0.018 A 
ATOM     13  C   UNL A   1      43.698  29.398  26.946  1.00  0.00     0.010 A 
BRANCH   9  14
ATOM     14  S   UNL A   1      48.120  28.424  26.425  1.00  0.00     0.264 S 
ATOM     15  O   UNL A   1      48.341  27.362  27.379  1.00  0.00    -0.201 OA
ATOM     16  O   UNL A   1      48.843  29.667  26.457  1.00  0.00    -0.201 OA
BRANCH  14  17
ATOM     17  N   UNL A   1      48.449  27.763  24.906  1.00  0.00    -0.249 N 
ATOM     18  C   UNL A   1      50.654  26.611  25.061  1.00  0.00     0.115 C 
ATOM     19  C   UNL A   1      49.178  26.558  24.761  1.00  0.00     0.230 C 
ATOM     20  O   UNL A   1      48.661  25.605  24.193  1.00  0.00    -0.274 OA
ATOM     21  H   UNL A   1      48.125  28.228  24.101  1.00  0.00     0.183 HD
ENDBRANCH  14  17
ENDBRANCH   9  14
BRANCH  11  22
ATOM     22  C   UNL A   1      44.295  31.832  27.063  1.00  0.00    -0.011 A 
ATOM     23  C   UNL A   1      44.295  32.403  28.397  1.00  0.00     0.027 A 
ATOM     24  C   UNL A   1      44.067  32.634  26.010  1.00  0.00     0.080 A 
ATOM     25  C   UNL A   1      44.094  33.714  28.574  1.00  0.00     0.095 A 
ATOM     26  C   UNL A   1      43.833  34.093  26.192  1.00  0.00     0.255 A 
ATOM     27  N   UNL A   1      43.871  34.553  27.498  1.00  0.00    -0.258 N 
ATOM     28  O   UNL A   1      43.644  34.781  25.194  1.00  0.00    -0.269 OA
BRANCH  27  29
ATOM     29  C   UNL A   1      43.670  35.966  27.697  1.00  0.00     0.451 C 
ATOM     30  F   UNL A   1      42.385  36.229  28.039  1.00  0.00    -0.185 F 
ATOM     31  F   UNL A   1      44.472  36.437  28.682  1.00  0.00    -0.185 F 
ENDBRANCH  27  29
ENDBRANCH  11  22
ENDBRANCH   6   8
ENDBRANCH   5   6
ENDBRANCH   4   5
ENDBRANCH   3   4
ENDBRANCH   2   3
ENDBRANCH   1   2
BRANCH   1  32
ATOM     32  C   UNL A   1      43.762  21.158  25.656  1.00  0.00     0.188 C 
BRANCH  32  33
ATOM     33  O   UNL A   1      42.425  20.731  25.443  1.00  0.00    -0.376 OA
BRANCH  33  34
ATOM     34  C   UNL A   1      41.641  20.256  26.521  1.00  0.00     0.202 C 
BRANCH  34  35
ATOM     35  C   UNL A   1      40.469  21.148  26.930  1.00  0.00     0.261 C 
BRANCH  35  36
ATOM     36  O   UNL A   1      40.505  22.450  26.328  1.00  0.00    -0.460 OA
BRANCH  36  37
ATOM     37  C   UNL A   1      39.327  23.117  26.346  1.00  0.00     0.338 C 
ATOM     38  O   UNL A   1      38.237  22.724  25.965  1.00  0.00    -0.246 OA
BRANCH  37  39
ATOM     39  C   UNL A   1      39.497  24.401  27.054  1.00  0.00     0.060 A 
ATOM     40  C   UNL A   1      40.228  25.408  26.409  1.00  0.00     0.016 A 
ATOM     41  C   UNL A   1      38.999  24.601  28.344  1.00  0.00     0.016 A 
ATOM     42  C   UNL A   1      40.492  26.607  27.064  1.00  0.00     0.010 A 
ATOM     43  C   UNL A   1      39.286  25.795  29.011  1.00  0.00     0.010 A 
ATOM     44  C   UNL A   1      40.058  26.789  28.383  1.00  0.00    -0.014 A 
BRANCH  44  45
ATOM     45  C   UNL A   1      40.573  27.940  29.158  1.00  0.00     0.031 A 
ATOM     46  C   UNL A   1      39.656  29.104  29.405  1.00  0.00     0.074 A 
ATOM     47  C   UNL A   1      41.819  27.935  29.660  1.00  0.00     0.049 A 
ATOM     48  N   UNL A   1      39.882  30.217  30.054  1.00  0.00    -0.248 NA
ATOM     49  C   UNL A   1      38.297  28.994  28.851  1.00  0.00     0.031 C 
ATOM     50  C   UNL A   1      42.783  26.847  29.518  1.00  0.00     0.029 A 
ATOM     51  N   UNL A   1      42.486  28.887  30.389  1.00  0.00    -0.354 N 
ATOM     52  C   UNL A   1      38.697  30.936  29.990  1.00  0.00     0.074 A 
ATOM     53  C   UNL A   1      37.759  30.147  29.221  1.00  0.00     0.031 C 
ATOM     54  C   UNL A   1      43.929  27.200  30.127  1.00  0.00     0.029 A 
ATOM     55  C   UNL A   1      43.782  28.546  30.681  1.00  0.00     0.049 A 
ATOM     56  H   UNL A   1      42.073  29.733  30.676  1.00  0.00     0.167 HD
ATOM     57  C   UNL A   1      38.414  32.144  30.530  1.00  0.00     0.037 A 
ATOM     58  C   UNL A   1      44.744  29.254  31.304  1.00  0.00     0.037 A 
ATOM     59  C   UNL A   1      39.352  32.938  31.276  1.00  0.00     0.049 A 
ATOM     60  C   UNL A   1      44.427  30.634  31.823  1.00  0.00     0.074 A 
ATOM     61  C   UNL A   1      39.158  34.172  31.872  1.00  0.00     0.029 A 
ATOM     62  N   UNL A   1      40.669  32.578  31.516  1.00  0.00    -0.354 N 
ATOM     63  N   UNL A   1      43.294  31.291  31.790  1.00  0.00    -0.248 NA
ATOM     64  C   UNL A   1      45.526  31.367  32.468  1.00  0.00     0.031 C 
ATOM     65  C   UNL A   1      40.372  34.579  32.435  1.00  0.00     0.029 A 
ATOM     66  C   UNL A   1      41.309  33.579  32.229  1.00  0.00     0.049 A 
ATOM     67  H   UNL A   1      41.088  31.737  31.223  1.00  0.00     0.167 HD
ATOM     68  C   UNL A   1      43.536  32.502  32.426  1.00  0.00     0.074 A 
ATOM     69  C   UNL A   1      44.921  32.484  32.847  1.00  0.00     0.031 C 
ATOM     70  C   UNL A   1      42.688  33.538  32.642  1.00  0.00     0.037 A 
BRANCH  57  71
ATOM     71  C   UNL A   1      37.036  32.690  30.305  1.00  0.00     0.064 A 
ATOM     72  C   UNL A   1      36.699  33.362  29.122  1.00  0.00     0.173 A 
ATOM     73  C   UNL A   1      36.039  32.523  31.276  1.00  0.00     0.173 A 
ATOM     74  F   UNL A   1      37.625  33.564  28.172  1.00  0.00    -0.203 F 
ATOM     75  C   UNL A   1      35.416  33.866  28.927  1.00  0.00     0.198 A 
ATOM     76  C   UNL A   1      34.750  33.007  31.069  1.00  0.00     0.198 A 
ATOM     77  F   UNL A   1      36.313  31.888  32.425  1.00  0.00    -0.203 F 
ATOM     78  F   UNL A   1      35.125  34.542  27.806  1.00  0.00    -0.200 F 
ATOM     79  C   UNL A   1      34.441  33.684  29.898  1.00  0.00     0.200 A 
ATOM     80  F   UNL A   1      33.809  32.826  32.005  1.00  0.00    -0.200 F 
ATOM     81  F   UNL A   1      33.206  34.168  29.708  1.00  0.00    -0.200 F 
ENDBRANCH  57  71
BRANCH  58  82
ATOM     82  C   UNL A   1      46.105  28.682  31.462  1.00  0.00     0.064 A 
ATOM     83  C   UNL A   1      46.408  27.818  32.523  1.00  0.00     0.173 A 
ATOM     84  C   UNL A   1      47.136  29.009  30.568  1.00  0.00     0.173 A 
ATOM     85  F   UNL A   1      45.461  27.498  33.415  1.00  0.00    -0.203 F 
ATOM     86  C   UNL A   1      47.696  27.315  32.693  1.00  0.00     0.198 A 
ATOM     87  C   UNL A   1      48.417  28.485  30.726  1.00  0.00     0.198 A 
ATOM     88  F   UNL A   1      46.897  29.834  29.539  1.00  0.00    -0.203 F 
ATOM     89  F   UNL A   1      47.970  26.525  33.740  1.00  0.00    -0.200 F 
ATOM     90  C   UNL A   1      48.698  27.644  31.793  1.00  0.00     0.200 A 
ATOM     91  F   UNL A   1      49.380  28.800  29.849  1.00  0.00    -0.200 F 
ATOM     92  F   UNL A   1      49.937  27.160  31.958  1.00  0.00    -0.200 F 
ENDBRANCH  58  82
BRANCH  70  93
ATOM     93  C   UNL A   1      43.224  34.724  33.390  1.00  0.00     0.064 A 
ATOM     94  C   UNL A   1      43.272  34.747  34.791  1.00  0.00     0.173 A 
ATOM     95  C   UNL A   1      43.738  35.828  32.695  1.00  0.00     0.173 A 
ATOM     96  F   UNL A   1      42.779  33.720  35.500  1.00  0.00    -0.203 F 
ATOM     97  C   UNL A   1      43.797  35.843  35.470  1.00  0.00     0.198 A 
ATOM     98  C   UNL A   1      44.286  36.911  33.376  1.00  0.00     0.198 A 
ATOM     99  F   UNL A   1      43.721  35.851  31.354  1.00  0.00    -0.203 F 
ATOM    100  F   UNL A   1      43.795  35.863  36.810  1.00  0.00    -0.200 F 
ATOM    101  C   UNL A   1      44.310  36.921  34.762  1.00  0.00     0.200 A 
ATOM    102  F   UNL A   1      44.790  37.946  32.690  1.00  0.00    -0.200 F 
ATOM    103  F   UNL A   1      44.820  37.972  35.417  1.00  0.00    -0.200 F 
ENDBRANCH  70  93
ENDBRANCH  44  45
ENDBRANCH  37  39
ENDBRANCH  36  37
ENDBRANCH  35  36
ENDBRANCH  34  35
ENDBRANCH  33  34
ENDBRANCH  32  33
ENDBRANCH   1  32
TORSDOF 21
ENDMDL
