MODEL 1
REMARK VINA RESULT:     -11.0      0.000      0.000
REMARK SMILES CO[C@H]1CCC[C@H]1NC(=O)N[C@](C)(C(=O)OCCOCCOCCOC(=O)c1ccc(-c2c3nc(c(-c4c(F)c(F)c(F)c(F)c4F)c4ccc([nH]4)c(-c4c(F)c(F)c(F)c(F)c4F)c4nc(c(-c5c(F)c(F)c(F)c(F)c5F)c5ccc2[nH]5)C=C4)C=C3)cc1)C(F)(F)F
REMARK SMILES IDX 20 1 19 2 18 3 17 4 16 5 14 6 15 7 12 8 13 9 11 10 8 11 9 12
REMARK SMILES IDX 10 14 7 16 3 17 4 18 5 19 6 20 2 21 1 22 91 23 92 24 93 25
REMARK SMILES IDX 94 26 21 27 22 28 23 29 24 30 25 31 26 32 27 33 28 34 29 35
REMARK SMILES IDX 90 36 30 37 89 38 31 39 32 40 33 41 83 42 34 43 88 44 82 45
REMARK SMILES IDX 84 46 35 47 87 48 81 49 80 50 36 52 68 53 48 54 67 55 49 56
REMARK SMILES IDX 52 57 66 58 85 59 50 60 51 61 65 63 86 64 53 65 37 66 38 67
REMARK SMILES IDX 46 68 39 69 40 70 44 71 47 72 41 73 42 74 45 75 43 76 69 77
REMARK SMILES IDX 70 78 78 79 71 80 72 81 76 82 79 83 73 84 74 85 77 86 75 87
REMARK SMILES IDX 54 88 55 89 63 90 56 91 57 92 61 93 64 94 58 95 59 96 62 97
REMARK SMILES IDX 60 98
REMARK H PARENT 8 13 11 15 84 51 52 62
REMARK Flexibility Score: inf
ROOT
ATOM      1  C   UNL A   1      34.393  31.915  28.015  1.00  0.00     0.188 C 
ENDROOT
BRANCH   1   2
ATOM      2  O   UNL A   1      33.069  32.035  27.509  1.00  0.00    -0.376 OA
BRANCH   2   3
ATOM      3  C   UNL A   1      32.484  30.840  26.978  1.00  0.00     0.202 C 
BRANCH   3   4
ATOM      4  C   UNL A   1      33.234  29.523  27.269  1.00  0.00     0.261 C 
BRANCH   4   5
ATOM      5  O   UNL A   1      32.779  28.452  26.416  1.00  0.00    -0.461 OA
BRANCH   5   6
ATOM      6  C   UNL A   1      31.843  27.573  26.884  1.00  0.00     0.341 C 
ATOM      7  O   UNL A   1      31.047  27.826  27.780  1.00  0.00    -0.249 OA
BRANCH   6   8
ATOM      8  C   UNL A   1      31.860  26.246  26.087  1.00  0.00     0.232 C 
ATOM      9  C   UNL A   1      33.326  25.753  26.009  1.00  0.00     0.058 C 
BRANCH   8  10
ATOM     10  N   UNL A   1      31.074  25.212  26.824  1.00  0.00    -0.315 N 
ATOM     11  N   UNL A   1      31.624  23.114  25.835  1.00  0.00    -0.333 N 
ATOM     12  C   UNL A   1      30.958  23.879  26.714  1.00  0.00     0.316 C 
ATOM     13  H   UNL A   1      31.482  22.156  26.016  1.00  0.00     0.165 HD
ATOM     14  O   UNL A   1      30.196  23.318  27.504  1.00  0.00    -0.249 OA
ATOM     15  H   UNL A   1      30.521  25.591  27.546  1.00  0.00     0.166 HD
BRANCH  11  16
ATOM     16  C   UNL A   1      32.497  23.313  24.687  1.00  0.00     0.112 C 
ATOM     17  C   UNL A   1      33.694  22.348  24.571  1.00  0.00     0.140 C 
ATOM     18  C   UNL A   1      34.206  22.676  23.165  1.00  0.00     0.034 C 
ATOM     19  C   UNL A   1      32.961  23.044  22.345  1.00  0.00     0.005 C 
ATOM     20  C   UNL A   1      31.800  23.133  23.340  1.00  0.00     0.028 C 
BRANCH  17  21
ATOM     21  O   UNL A   1      33.266  20.987  24.647  1.00  0.00    -0.379 OA
ATOM     22  C   UNL A   1      34.367  20.083  24.631  1.00  0.00     0.195 C 
ENDBRANCH  17  21
ENDBRANCH  11  16
ENDBRANCH   8  10
BRANCH   8  23
ATOM     23  C   UNL A   1      31.172  26.618  24.743  1.00  0.00     0.422 C 
ATOM     24  F   UNL A   1      30.739  27.905  24.734  1.00  0.00    -0.168 F 
ATOM     25  F   UNL A   1      32.003  26.505  23.676  1.00  0.00    -0.168 F 
ATOM     26  F   UNL A   1      30.102  25.847  24.442  1.00  0.00    -0.168 F 
ENDBRANCH   8  23
ENDBRANCH   6   8
ENDBRANCH   5   6
ENDBRANCH   4   5
ENDBRANCH   3   4
ENDBRANCH   2   3
ENDBRANCH   1   2
BRANCH   1  27
ATOM     27  C   UNL A   1      34.878  33.064  28.899  1.00  0.00     0.188 C 
BRANCH  27  28
ATOM     28  O   UNL A   1      33.950  33.505  29.876  1.00  0.00    -0.376 OA
BRANCH  28  29
ATOM     29  C   UNL A   1      34.465  34.327  30.931  1.00  0.00     0.202 C 
BRANCH  29  30
ATOM     30  C   UNL A   1      34.403  33.764  32.370  1.00  0.00     0.261 C 
BRANCH  30  31
ATOM     31  O   UNL A   1      34.935  32.433  32.568  1.00  0.00    -0.460 OA
BRANCH  31  32
ATOM     32  C   UNL A   1      36.123  32.322  33.211  1.00  0.00     0.338 C 
ATOM     33  O   UNL A   1      36.334  32.574  34.377  1.00  0.00    -0.246 OA
BRANCH  32  34
ATOM     34  C   UNL A   1      37.085  31.579  32.339  1.00  0.00     0.060 A 
ATOM     35  C   UNL A   1      38.274  31.133  32.934  1.00  0.00     0.016 A 
ATOM     36  C   UNL A   1      36.833  31.271  31.000  1.00  0.00     0.016 A 
ATOM     37  C   UNL A   1      39.237  30.452  32.186  1.00  0.00     0.010 A 
ATOM     38  C   UNL A   1      37.804  30.590  30.243  1.00  0.00     0.010 A 
ATOM     39  C   UNL A   1      39.034  30.219  30.820  1.00  0.00    -0.014 A 
BRANCH  39  40
ATOM     40  C   UNL A   1      40.187  29.782  29.982  1.00  0.00     0.031 A 
ATOM     41  C   UNL A   1      41.300  30.767  29.721  1.00  0.00     0.074 A 
ATOM     42  C   UNL A   1      40.305  28.521  29.526  1.00  0.00     0.049 A 
ATOM     43  N   UNL A   1      42.427  30.606  29.072  1.00  0.00    -0.248 NA
ATOM     44  C   UNL A   1      41.115  32.118  30.273  1.00  0.00     0.031 C 
ATOM     45  C   UNL A   1      39.335  27.450  29.733  1.00  0.00     0.029 A 
ATOM     46  N   UNL A   1      41.309  27.928  28.794  1.00  0.00    -0.354 N 
ATOM     47  C   UNL A   1      43.081  31.830  29.140  1.00  0.00     0.074 A 
ATOM     48  C   UNL A   1      42.208  32.736  29.854  1.00  0.00     0.031 C 
ATOM     49  C   UNL A   1      39.790  26.330  29.142  1.00  0.00     0.029 A 
ATOM     50  C   UNL A   1      41.072  26.608  28.495  1.00  0.00     0.049 A 
ATOM     51  H   UNL A   1      42.122  28.406  28.511  1.00  0.00     0.167 HD
ATOM     52  C   UNL A   1      44.306  32.170  28.668  1.00  0.00     0.037 A 
ATOM     53  C   UNL A   1      41.800  25.729  27.777  1.00  0.00     0.037 A 
ATOM     54  C   UNL A   1      45.181  31.280  27.952  1.00  0.00     0.049 A 
ATOM     55  C   UNL A   1      43.129  26.153  27.196  1.00  0.00     0.074 A 
ATOM     56  C   UNL A   1      46.443  31.535  27.444  1.00  0.00     0.029 A 
ATOM     57  N   UNL A   1      44.883  29.963  27.632  1.00  0.00    -0.354 N 
ATOM     58  N   UNL A   1      43.752  27.302  27.293  1.00  0.00    -0.248 NA
ATOM     59  C   UNL A   1      43.863  25.145  26.415  1.00  0.00     0.031 C 
ATOM     60  C   UNL A   1      46.883  30.394  26.763  1.00  0.00     0.029 A 
ATOM     61  C   UNL A   1      45.926  29.404  26.911  1.00  0.00     0.049 A 
ATOM     62  H   UNL A   1      44.053  29.495  27.881  1.00  0.00     0.167 HD
ATOM     63  C   UNL A   1      44.961  27.143  26.625  1.00  0.00     0.074 A 
ATOM     64  C   UNL A   1      44.992  25.780  26.138  1.00  0.00     0.031 C 
ATOM     65  C   UNL A   1      45.959  28.043  26.436  1.00  0.00     0.037 A 
BRANCH  52  66
ATOM     66  C   UNL A   1      44.761  33.585  28.888  1.00  0.00     0.064 A 
ATOM     67  C   UNL A   1      45.510  33.955  30.016  1.00  0.00     0.173 A 
ATOM     68  C   UNL A   1      44.471  34.579  27.941  1.00  0.00     0.173 A 
ATOM     69  F   UNL A   1      45.801  33.048  30.961  1.00  0.00    -0.203 F 
ATOM     70  C   UNL A   1      45.923  35.272  30.202  1.00  0.00     0.198 A 
ATOM     71  C   UNL A   1      44.916  35.886  28.113  1.00  0.00     0.198 A 
ATOM     72  F   UNL A   1      43.763  34.279  26.841  1.00  0.00    -0.203 F 
ATOM     73  F   UNL A   1      46.588  35.613  31.315  1.00  0.00    -0.200 F 
ATOM     74  C   UNL A   1      45.633  36.235  29.247  1.00  0.00     0.200 A 
ATOM     75  F   UNL A   1      44.647  36.812  27.181  1.00  0.00    -0.200 F 
ATOM     76  F   UNL A   1      46.037  37.500  29.425  1.00  0.00    -0.200 F 
ENDBRANCH  52  66
BRANCH  53  77
ATOM     77  C   UNL A   1      41.297  24.345  27.554  1.00  0.00     0.064 A 
ATOM     78  C   UNL A   1      41.935  23.235  28.126  1.00  0.00     0.173 A 
ATOM     79  C   UNL A   1      40.194  24.101  26.720  1.00  0.00     0.173 A 
ATOM     80  F   UNL A   1      43.015  23.411  28.903  1.00  0.00    -0.203 F 
ATOM     81  C   UNL A   1      41.506  21.936  27.856  1.00  0.00     0.198 A 
ATOM     82  C   UNL A   1      39.746  22.804  26.477  1.00  0.00     0.198 A 
ATOM     83  F   UNL A   1      39.554  25.125  26.138  1.00  0.00    -0.203 F 
ATOM     84  F   UNL A   1      42.174  20.892  28.366  1.00  0.00    -0.200 F 
ATOM     85  C   UNL A   1      40.408  21.722  27.037  1.00  0.00     0.200 A 
ATOM     86  F   UNL A   1      38.680  22.603  25.692  1.00  0.00    -0.200 F 
ATOM     87  F   UNL A   1      39.998  20.474  26.775  1.00  0.00    -0.200 F 
ENDBRANCH  53  77
BRANCH  65  88
ATOM     88  C   UNL A   1      47.198  27.571  25.722  1.00  0.00     0.064 A 
ATOM     89  C   UNL A   1      47.346  27.683  24.331  1.00  0.00     0.173 A 
ATOM     90  C   UNL A   1      48.263  27.012  26.448  1.00  0.00     0.173 A 
ATOM     91  F   UNL A   1      46.359  28.204  23.586  1.00  0.00    -0.203 F 
ATOM     92  C   UNL A   1      48.491  27.210  23.690  1.00  0.00     0.198 A 
ATOM     93  C   UNL A   1      49.421  26.576  25.807  1.00  0.00     0.198 A 
ATOM     94  F   UNL A   1      48.184  26.892  27.781  1.00  0.00    -0.203 F 
ATOM     95  F   UNL A   1      48.578  27.266  22.354  1.00  0.00    -0.200 F 
ATOM     96  C   UNL A   1      49.528  26.663  24.429  1.00  0.00     0.200 A 
ATOM     97  F   UNL A   1      50.429  26.066  26.527  1.00  0.00    -0.200 F 
ATOM     98  F   UNL A   1      50.627  26.209  23.810  1.00  0.00    -0.200 F 
ENDBRANCH  65  88
ENDBRANCH  39  40
ENDBRANCH  32  34
ENDBRANCH  31  32
ENDBRANCH  30  31
ENDBRANCH  29  30
ENDBRANCH  28  29
ENDBRANCH  27  28
ENDBRANCH   1  27
TORSDOF 21
ENDMDL
MODEL 2
REMARK VINA RESULT:     -10.8      1.860      3.390
REMARK SMILES CO[C@H]1CCC[C@H]1NC(=O)N[C@](C)(C(=O)OCCOCCOCCOC(=O)c1ccc(-c2c3nc(c(-c4c(F)c(F)c(F)c(F)c4F)c4ccc([nH]4)c(-c4c(F)c(F)c(F)c(F)c4F)c4nc(c(-c5c(F)c(F)c(F)c(F)c5F)c5ccc2[nH]5)C=C4)C=C3)cc1)C(F)(F)F
REMARK SMILES IDX 20 1 19 2 18 3 17 4 16 5 14 6 15 7 12 8 13 9 11 10 8 11 9 12
REMARK SMILES IDX 10 14 7 16 3 17 4 18 5 19 6 20 2 21 1 22 91 23 92 24 93 25
REMARK SMILES IDX 94 26 21 27 22 28 23 29 24 30 25 31 26 32 27 33 28 34 29 35
REMARK SMILES IDX 90 36 30 37 89 38 31 39 32 40 33 41 83 42 34 43 88 44 82 45
REMARK SMILES IDX 84 46 35 47 87 48 81 49 80 50 36 52 68 53 48 54 67 55 49 56
REMARK SMILES IDX 52 57 66 58 85 59 50 60 51 61 65 63 86 64 53 65 37 66 38 67
REMARK SMILES IDX 46 68 39 69 40 70 44 71 47 72 41 73 42 74 45 75 43 76 69 77
REMARK SMILES IDX 70 78 78 79 71 80 72 81 76 82 79 83 73 84 74 85 77 86 75 87
REMARK SMILES IDX 54 88 55 89 63 90 56 91 57 92 61 93 64 94 58 95 59 96 62 97
REMARK SMILES IDX 60 98
REMARK H PARENT 8 13 11 15 84 51 52 62
REMARK Flexibility Score: inf
ROOT
ATOM      1  C   UNL A   1      34.462  32.639  27.973  1.00  0.00     0.188 C 
ENDROOT
BRANCH   1   2
ATOM      2  O   UNL A   1      33.862  31.393  28.307  1.00  0.00    -0.376 OA
BRANCH   2   3
ATOM      3  C   UNL A   1      33.589  30.509  27.212  1.00  0.00     0.202 C 
BRANCH   3   4
ATOM      4  C   UNL A   1      32.240  30.709  26.491  1.00  0.00     0.261 C 
BRANCH   4   5
ATOM      5  O   UNL A   1      31.690  29.455  26.035  1.00  0.00    -0.461 OA
BRANCH   5   6
ATOM      6  C   UNL A   1      32.191  28.875  24.904  1.00  0.00     0.341 C 
ATOM      7  O   UNL A   1      32.782  29.484  24.021  1.00  0.00    -0.249 OA
BRANCH   6   8
ATOM      8  C   UNL A   1      31.989  27.340  24.913  1.00  0.00     0.232 C 
ATOM      9  C   UNL A   1      30.521  27.052  25.313  1.00  0.00     0.058 C 
BRANCH   8  10
ATOM     10  N   UNL A   1      32.199  26.801  23.538  1.00  0.00    -0.315 N 
ATOM     11  N   UNL A   1      30.544  27.818  22.155  1.00  0.00    -0.333 N 
ATOM     12  C   UNL A   1      31.580  26.990  22.361  1.00  0.00     0.316 C 
ATOM     13  H   UNL A   1      30.333  27.893  21.196  1.00  0.00     0.165 HD
ATOM     14  O   UNL A   1      32.020  26.367  21.393  1.00  0.00    -0.249 OA
ATOM     15  H   UNL A   1      32.954  26.171  23.481  1.00  0.00     0.166 HD
BRANCH  11  16
ATOM     16  C   UNL A   1      29.647  28.634  22.961  1.00  0.00     0.112 C 
ATOM     17  C   UNL A   1      29.464  30.095  22.504  1.00  0.00     0.140 C 
ATOM     18  C   UNL A   1      28.300  30.541  23.394  1.00  0.00     0.034 C 
ATOM     19  C   UNL A   1      27.425  29.296  23.590  1.00  0.00     0.005 C 
ATOM     20  C   UNL A   1      28.209  28.120  23.000  1.00  0.00     0.028 C 
BRANCH  17  21
ATOM     21  O   UNL A   1      29.098  30.158  21.124  1.00  0.00    -0.379 OA
ATOM     22  C   UNL A   1      28.524  31.418  20.786  1.00  0.00     0.195 C 
ENDBRANCH  17  21
ENDBRANCH  11  16
ENDBRANCH   8  10
BRANCH   8  23
ATOM     23  C   UNL A   1      33.093  26.833  25.886  1.00  0.00     0.422 C 
ATOM     24  F   UNL A   1      33.479  25.564  25.598  1.00  0.00    -0.168 F 
ATOM     25  F   UNL A   1      34.225  27.579  25.833  1.00  0.00    -0.168 F 
ATOM     26  F   UNL A   1      32.724  26.841  27.186  1.00  0.00    -0.168 F 
ENDBRANCH   8  23
ENDBRANCH   6   8
ENDBRANCH   5   6
ENDBRANCH   4   5
ENDBRANCH   3   4
ENDBRANCH   2   3
ENDBRANCH   1   2
BRANCH   1  27
ATOM     27  C   UNL A   1      33.598  33.879  28.199  1.00  0.00     0.188 C 
BRANCH  27  28
ATOM     28  O   UNL A   1      33.297  34.164  29.556  1.00  0.00    -0.376 OA
BRANCH  28  29
ATOM     29  C   UNL A   1      34.407  34.435  30.420  1.00  0.00     0.202 C 
BRANCH  29  30
ATOM     30  C   UNL A   1      34.294  33.971  31.892  1.00  0.00     0.261 C 
BRANCH  30  31
ATOM     31  O   UNL A   1      34.635  32.591  32.164  1.00  0.00    -0.460 OA
BRANCH  31  32
ATOM     32  C   UNL A   1      35.733  32.354  32.923  1.00  0.00     0.338 C 
ATOM     33  O   UNL A   1      35.827  32.517  34.120  1.00  0.00    -0.246 OA
BRANCH  32  34
ATOM     34  C   UNL A   1      36.737  31.599  32.111  1.00  0.00     0.060 A 
ATOM     35  C   UNL A   1      37.868  31.115  32.782  1.00  0.00     0.016 A 
ATOM     36  C   UNL A   1      36.576  31.316  30.752  1.00  0.00     0.016 A 
ATOM     37  C   UNL A   1      38.866  30.420  32.095  1.00  0.00     0.010 A 
ATOM     38  C   UNL A   1      37.582  30.622  30.057  1.00  0.00     0.010 A 
ATOM     39  C   UNL A   1      38.757  30.211  30.715  1.00  0.00    -0.014 A 
BRANCH  39  40
ATOM     40  C   UNL A   1      39.957  29.757  29.955  1.00  0.00     0.031 A 
ATOM     41  C   UNL A   1      41.100  30.724  29.771  1.00  0.00     0.074 A 
ATOM     42  C   UNL A   1      40.086  28.494  29.505  1.00  0.00     0.049 A 
ATOM     43  N   UNL A   1      42.265  30.546  29.199  1.00  0.00    -0.248 NA
ATOM     44  C   UNL A   1      40.900  32.078  30.312  1.00  0.00     0.031 C 
ATOM     45  C   UNL A   1      39.087  27.439  29.645  1.00  0.00     0.029 A 
ATOM     46  N   UNL A   1      41.127  27.886  28.842  1.00  0.00    -0.354 N 
ATOM     47  C   UNL A   1      42.933  31.759  29.313  1.00  0.00     0.074 A 
ATOM     48  C   UNL A   1      42.028  32.678  29.969  1.00  0.00     0.031 C 
ATOM     49  C   UNL A   1      39.562  26.312  29.084  1.00  0.00     0.029 A 
ATOM     50  C   UNL A   1      40.889  26.571  28.525  1.00  0.00     0.049 A 
ATOM     51  H   UNL A   1      41.964  28.351  28.615  1.00  0.00     0.167 HD
ATOM     52  C   UNL A   1      44.192  32.080  28.925  1.00  0.00     0.037 A 
ATOM     53  C   UNL A   1      41.650  25.680  27.855  1.00  0.00     0.037 A 
ATOM     54  C   UNL A   1      45.099  31.177  28.268  1.00  0.00     0.049 A 
ATOM     55  C   UNL A   1      43.021  26.084  27.366  1.00  0.00     0.074 A 
ATOM     56  C   UNL A   1      46.396  31.413  27.846  1.00  0.00     0.029 A 
ATOM     57  N   UNL A   1      44.802  29.865  27.926  1.00  0.00    -0.354 N 
ATOM     58  N   UNL A   1      43.655  27.223  27.507  1.00  0.00    -0.248 NA
ATOM     59  C   UNL A   1      43.790  25.065  26.634  1.00  0.00     0.031 C 
ATOM     60  C   UNL A   1      46.862  30.265  27.194  1.00  0.00     0.029 A 
ATOM     61  C   UNL A   1      45.883  29.290  27.275  1.00  0.00     0.049 A 
ATOM     62  H   UNL A   1      43.950  29.411  28.118  1.00  0.00     0.167 HD
ATOM     63  C   UNL A   1      44.904  27.045  26.922  1.00  0.00     0.074 A 
ATOM     64  C   UNL A   1      44.945  25.682  26.435  1.00  0.00     0.031 C 
ATOM     65  C   UNL A   1      45.925  27.929  26.802  1.00  0.00     0.037 A 
BRANCH  52  66
ATOM     66  C   UNL A   1      44.654  33.487  29.178  1.00  0.00     0.064 A 
ATOM     67  C   UNL A   1      44.448  34.514  28.243  1.00  0.00     0.173 A 
ATOM     68  C   UNL A   1      45.285  33.821  30.387  1.00  0.00     0.173 A 
ATOM     69  F   UNL A   1      43.865  34.247  27.064  1.00  0.00    -0.203 F 
ATOM     70  C   UNL A   1      44.884  35.812  28.495  1.00  0.00     0.198 A 
ATOM     71  C   UNL A   1      45.687  35.127  30.650  1.00  0.00     0.198 A 
ATOM     72  F   UNL A   1      45.502  32.880  31.318  1.00  0.00    -0.203 F 
ATOM     73  F   UNL A   1      44.727  36.763  27.564  1.00  0.00    -0.200 F 
ATOM     74  C   UNL A   1      45.496  36.119  29.701  1.00  0.00     0.200 A 
ATOM     75  F   UNL A   1      46.265  35.424  31.823  1.00  0.00    -0.200 F 
ATOM     76  F   UNL A   1      45.908  37.371  29.946  1.00  0.00    -0.200 F 
ENDBRANCH  52  66
BRANCH  53  77
ATOM     77  C   UNL A   1      41.141  24.305  27.596  1.00  0.00     0.064 A 
ATOM     78  C   UNL A   1      41.746  23.181  28.178  1.00  0.00     0.173 A 
ATOM     79  C   UNL A   1      40.067  24.083  26.720  1.00  0.00     0.173 A 
ATOM     80  F   UNL A   1      42.799  23.336  28.995  1.00  0.00    -0.203 F 
ATOM     81  C   UNL A   1      41.314  21.890  27.875  1.00  0.00     0.198 A 
ATOM     82  C   UNL A   1      39.615  22.794  26.444  1.00  0.00     0.198 A 
ATOM     83  F   UNL A   1      39.459  25.121  26.128  1.00  0.00    -0.203 F 
ATOM     84  F   UNL A   1      41.953  20.833  28.396  1.00  0.00    -0.200 F 
ATOM     85  C   UNL A   1      40.245  21.699  27.014  1.00  0.00     0.200 A 
ATOM     86  F   UNL A   1      38.576  22.614  25.618  1.00  0.00    -0.200 F 
ATOM     87  F   UNL A   1      39.831  20.459  26.721  1.00  0.00    -0.200 F 
ENDBRANCH  53  77
BRANCH  65  88
ATOM     88  C   UNL A   1      47.202  27.438  26.171  1.00  0.00     0.064 A 
ATOM     89  C   UNL A   1      48.251  26.898  26.931  1.00  0.00     0.173 A 
ATOM     90  C   UNL A   1      47.370  27.496  24.778  1.00  0.00     0.173 A 
ATOM     91  F   UNL A   1      48.148  26.824  28.267  1.00  0.00    -0.203 F 
ATOM     92  C   UNL A   1      49.434  26.478  26.326  1.00  0.00     0.198 A 
ATOM     93  C   UNL A   1      48.540  27.039  24.173  1.00  0.00     0.198 A 
ATOM     94  F   UNL A   1      46.397  27.989  23.998  1.00  0.00    -0.203 F 
ATOM     95  F   UNL A   1      50.448  26.030  27.081  1.00  0.00    -0.200 F 
ATOM     96  C   UNL A   1      49.576  26.544  24.949  1.00  0.00     0.200 A 
ATOM     97  F   UNL A   1      48.664  27.087  22.840  1.00  0.00    -0.200 F 
ATOM     98  F   UNL A   1      50.715  26.141  24.369  1.00  0.00    -0.200 F 
ENDBRANCH  65  88
ENDBRANCH  39  40
ENDBRANCH  32  34
ENDBRANCH  31  32
ENDBRANCH  30  31
ENDBRANCH  29  30
ENDBRANCH  28  29
ENDBRANCH  27  28
ENDBRANCH   1  27
TORSDOF 21
ENDMDL
MODEL 3
REMARK VINA RESULT:     -10.4      4.968      7.430
REMARK SMILES CO[C@H]1CCC[C@H]1NC(=O)N[C@](C)(C(=O)OCCOCCOCCOC(=O)c1ccc(-c2c3nc(c(-c4c(F)c(F)c(F)c(F)c4F)c4ccc([nH]4)c(-c4c(F)c(F)c(F)c(F)c4F)c4nc(c(-c5c(F)c(F)c(F)c(F)c5F)c5ccc2[nH]5)C=C4)C=C3)cc1)C(F)(F)F
REMARK SMILES IDX 20 1 19 2 18 3 17 4 16 5 14 6 15 7 12 8 13 9 11 10 8 11 9 12
REMARK SMILES IDX 10 14 7 16 3 17 4 18 5 19 6 20 2 21 1 22 91 23 92 24 93 25
REMARK SMILES IDX 94 26 21 27 22 28 23 29 24 30 25 31 26 32 27 33 28 34 29 35
REMARK SMILES IDX 90 36 30 37 89 38 31 39 32 40 33 41 83 42 34 43 88 44 82 45
REMARK SMILES IDX 84 46 35 47 87 48 81 49 80 50 36 52 68 53 48 54 67 55 49 56
REMARK SMILES IDX 52 57 66 58 85 59 50 60 51 61 65 63 86 64 53 65 37 66 38 67
REMARK SMILES IDX 46 68 39 69 40 70 44 71 47 72 41 73 42 74 45 75 43 76 69 77
REMARK SMILES IDX 70 78 78 79 71 80 72 81 76 82 79 83 73 84 74 85 77 86 75 87
REMARK SMILES IDX 54 88 55 89 63 90 56 91 57 92 61 93 64 94 58 95 59 96 62 97
REMARK SMILES IDX 60 98
REMARK H PARENT 8 13 11 15 84 51 52 62
REMARK Flexibility Score: inf
ROOT
ATOM      1  C   UNL A   1      34.949  31.565  28.316  1.00  0.00     0.188 C 
ENDROOT
BRANCH   1   2
ATOM      2  O   UNL A   1      34.143  30.827  27.406  1.00  0.00    -0.376 OA
BRANCH   2   3
ATOM      3  C   UNL A   1      34.581  29.494  27.112  1.00  0.00     0.202 C 
BRANCH   3   4
ATOM      4  C   UNL A   1      33.503  28.391  27.170  1.00  0.00     0.261 C 
BRANCH   4   5
ATOM      5  O   UNL A   1      33.674  27.424  26.114  1.00  0.00    -0.461 OA
BRANCH   5   6
ATOM      6  C   UNL A   1      32.614  26.649  25.735  1.00  0.00     0.341 C 
ATOM      7  O   UNL A   1      31.935  25.985  26.508  1.00  0.00    -0.249 OA
BRANCH   6   8
ATOM      8  C   UNL A   1      32.327  26.778  24.219  1.00  0.00     0.232 C 
ATOM      9  C   UNL A   1      33.674  26.657  23.464  1.00  0.00     0.058 C 
BRANCH   8  10
ATOM     10  N   UNL A   1      31.458  25.648  23.778  1.00  0.00    -0.315 N 
ATOM     11  N   UNL A   1      32.685  23.648  24.202  1.00  0.00    -0.333 N 
ATOM     12  C   UNL A   1      31.608  24.314  23.756  1.00  0.00     0.316 C 
ATOM     13  H   UNL A   1      32.527  22.676  24.206  1.00  0.00     0.165 HD
ATOM     14  O   UNL A   1      30.667  23.653  23.311  1.00  0.00    -0.249 OA
ATOM     15  H   UNL A   1      30.587  25.945  23.429  1.00  0.00     0.166 HD
BRANCH  11  16
ATOM     16  C   UNL A   1      34.022  23.970  24.682  1.00  0.00     0.112 C 
ATOM     17  C   UNL A   1      34.429  23.340  26.028  1.00  0.00     0.140 C 
ATOM     18  C   UNL A   1      35.924  23.673  26.072  1.00  0.00     0.034 C 
ATOM     19  C   UNL A   1      36.400  23.639  24.613  1.00  0.00     0.005 C 
ATOM     20  C   UNL A   1      35.141  23.508  23.751  1.00  0.00     0.028 C 
BRANCH  17  21
ATOM     21  O   UNL A   1      34.228  21.925  26.015  1.00  0.00    -0.379 OA
ATOM     22  C   UNL A   1      33.640  21.462  27.228  1.00  0.00     0.195 C 
ENDBRANCH  17  21
ENDBRANCH  11  16
ENDBRANCH   8  10
BRANCH   8  23
ATOM     23  C   UNL A   1      31.578  28.137  24.104  1.00  0.00     0.422 C 
ATOM     24  F   UNL A   1      30.697  28.144  23.069  1.00  0.00    -0.168 F 
ATOM     25  F   UNL A   1      30.846  28.431  25.208  1.00  0.00    -0.168 F 
ATOM     26  F   UNL A   1      32.394  29.200  23.925  1.00  0.00    -0.168 F 
ENDBRANCH   8  23
ENDBRANCH   6   8
ENDBRANCH   5   6
ENDBRANCH   4   5
ENDBRANCH   3   4
ENDBRANCH   2   3
ENDBRANCH   1   2
BRANCH   1  27
ATOM     27  C   UNL A   1      35.139  33.046  27.990  1.00  0.00     0.188 C 
BRANCH  27  28
ATOM     28  O   UNL A   1      33.962  33.835  28.060  1.00  0.00    -0.376 OA
BRANCH  28  29
ATOM     29  C   UNL A   1      34.131  35.217  28.398  1.00  0.00     0.202 C 
BRANCH  29  30
ATOM     30  C   UNL A   1      32.992  35.902  29.190  1.00  0.00     0.261 C 
BRANCH  30  31
ATOM     31  O   UNL A   1      32.470  35.179  30.329  1.00  0.00    -0.460 OA
BRANCH  31  32
ATOM     32  C   UNL A   1      32.730  35.679  31.562  1.00  0.00     0.338 C 
ATOM     33  O   UNL A   1      32.021  36.431  32.195  1.00  0.00    -0.246 OA
BRANCH  32  34
ATOM     34  C   UNL A   1      33.896  34.952  32.150  1.00  0.00     0.060 A 
ATOM     35  C   UNL A   1      35.140  35.597  32.106  1.00  0.00     0.016 A 
ATOM     36  C   UNL A   1      33.795  33.706  32.776  1.00  0.00     0.016 A 
ATOM     37  C   UNL A   1      36.286  34.979  32.612  1.00  0.00     0.010 A 
ATOM     38  C   UNL A   1      34.949  33.079  33.280  1.00  0.00     0.010 A 
ATOM     39  C   UNL A   1      36.210  33.691  33.158  1.00  0.00    -0.014 A 
BRANCH  39  40
ATOM     40  C   UNL A   1      37.471  32.933  33.397  1.00  0.00     0.031 A 
ATOM     41  C   UNL A   1      38.225  33.177  34.681  1.00  0.00     0.074 A 
ATOM     42  C   UNL A   1      37.909  31.984  32.548  1.00  0.00     0.049 A 
ATOM     43  N   UNL A   1      39.310  32.603  35.138  1.00  0.00    -0.248 NA
ATOM     44  C   UNL A   1      37.673  34.209  35.573  1.00  0.00     0.031 C 
ATOM     45  C   UNL A   1      37.267  31.609  31.292  1.00  0.00     0.029 A 
ATOM     46  N   UNL A   1      39.005  31.155  32.626  1.00  0.00    -0.354 N 
ATOM     47  C   UNL A   1      39.567  33.201  36.365  1.00  0.00     0.074 A 
ATOM     48  C   UNL A   1      38.552  34.212  36.563  1.00  0.00     0.031 C 
ATOM     49  C   UNL A   1      37.979  30.623  30.716  1.00  0.00     0.029 A 
ATOM     50  C   UNL A   1      39.141  30.313  31.549  1.00  0.00     0.049 A 
ATOM     51  H   UNL A   1      39.634  31.165  33.384  1.00  0.00     0.167 HD
ATOM     52  C   UNL A   1      40.548  32.925  37.260  1.00  0.00     0.037 A 
ATOM     53  C   UNL A   1      40.095  29.403  31.264  1.00  0.00     0.037 A 
ATOM     54  C   UNL A   1      41.566  31.926  37.073  1.00  0.00     0.049 A 
ATOM     55  C   UNL A   1      41.222  29.166  32.243  1.00  0.00     0.074 A 
ATOM     56  C   UNL A   1      42.595  31.573  37.930  1.00  0.00     0.029 A 
ATOM     57  N   UNL A   1      41.694  31.125  35.948  1.00  0.00    -0.354 N 
ATOM     58  N   UNL A   1      41.437  29.715  33.414  1.00  0.00    -0.248 NA
ATOM     59  C   UNL A   1      42.232  28.167  31.862  1.00  0.00     0.031 C 
ATOM     60  C   UNL A   1      43.381  30.602  37.297  1.00  0.00     0.029 A 
ATOM     61  C   UNL A   1      42.799  30.298  36.078  1.00  0.00     0.049 A 
ATOM     62  H   UNL A   1      41.088  31.141  35.172  1.00  0.00     0.167 HD
ATOM     63  C   UNL A   1      42.577  29.102  33.923  1.00  0.00     0.074 A 
ATOM     64  C   UNL A   1      43.001  28.128  32.939  1.00  0.00     0.031 C 
ATOM     65  C   UNL A   1      43.213  29.322  35.102  1.00  0.00     0.037 A 
BRANCH  52  66
ATOM     66  C   UNL A   1      40.583  33.745  38.519  1.00  0.00     0.064 A 
ATOM     67  C   UNL A   1      39.807  33.413  39.641  1.00  0.00     0.173 A 
ATOM     68  C   UNL A   1      41.429  34.861  38.616  1.00  0.00     0.173 A 
ATOM     69  F   UNL A   1      38.969  32.366  39.596  1.00  0.00    -0.203 F 
ATOM     70  C   UNL A   1      39.853  34.185  40.799  1.00  0.00     0.198 A 
ATOM     71  C   UNL A   1      41.498  35.609  39.788  1.00  0.00     0.198 A 
ATOM     72  F   UNL A   1      42.196  35.220  37.576  1.00  0.00    -0.203 F 
ATOM     73  F   UNL A   1      39.061  33.881  41.836  1.00  0.00    -0.200 F 
ATOM     74  C   UNL A   1      40.704  35.277  40.875  1.00  0.00     0.200 A 
ATOM     75  F   UNL A   1      42.333  36.656  39.863  1.00  0.00    -0.200 F 
ATOM     76  F   UNL A   1      40.752  36.014  41.992  1.00  0.00    -0.200 F 
ENDBRANCH  52  66
BRANCH  53  77
ATOM     77  C   UNL A   1      40.042  28.635  29.989  1.00  0.00     0.064 A 
ATOM     78  C   UNL A   1      39.417  27.382  29.917  1.00  0.00     0.173 A 
ATOM     79  C   UNL A   1      40.661  29.119  28.826  1.00  0.00     0.173 A 
ATOM     80  F   UNL A   1      38.841  26.858  31.010  1.00  0.00    -0.203 F 
ATOM     81  C   UNL A   1      39.433  26.633  28.741  1.00  0.00     0.198 A 
ATOM     82  C   UNL A   1      40.648  28.384  27.642  1.00  0.00     0.198 A 
ATOM     83  F   UNL A   1      41.283  30.307  28.842  1.00  0.00    -0.203 F 
ATOM     84  F   UNL A   1      38.883  25.411  28.720  1.00  0.00    -0.200 F 
ATOM     85  C   UNL A   1      40.043  27.138  27.603  1.00  0.00     0.200 A 
ATOM     86  F   UNL A   1      41.231  28.880  26.543  1.00  0.00    -0.200 F 
ATOM     87  F   UNL A   1      40.061  26.417  26.474  1.00  0.00    -0.200 F 
ENDBRANCH  53  77
BRANCH  65  88
ATOM     88  C   UNL A   1      44.402  28.456  35.425  1.00  0.00     0.064 A 
ATOM     89  C   UNL A   1      45.715  28.849  35.125  1.00  0.00     0.173 A 
ATOM     90  C   UNL A   1      44.222  27.218  36.062  1.00  0.00     0.173 A 
ATOM     91  F   UNL A   1      45.947  30.019  34.511  1.00  0.00    -0.203 F 
ATOM     92  C   UNL A   1      46.796  28.015  35.407  1.00  0.00     0.198 A 
ATOM     93  C   UNL A   1      45.309  26.404  36.378  1.00  0.00     0.198 A 
ATOM     94  F   UNL A   1      42.991  26.795  36.386  1.00  0.00    -0.203 F 
ATOM     95  F   UNL A   1      48.035  28.384  35.048  1.00  0.00    -0.200 F 
ATOM     96  C   UNL A   1      46.593  26.797  36.038  1.00  0.00     0.200 A 
ATOM     97  F   UNL A   1      45.110  25.237  37.005  1.00  0.00    -0.200 F 
ATOM     98  F   UNL A   1      47.634  25.998  36.308  1.00  0.00    -0.200 F 
ENDBRANCH  65  88
ENDBRANCH  39  40
ENDBRANCH  32  34
ENDBRANCH  31  32
ENDBRANCH  30  31
ENDBRANCH  29  30
ENDBRANCH  28  29
ENDBRANCH  27  28
ENDBRANCH   1  27
TORSDOF 21
ENDMDL
