MODEL 1
REMARK VINA RESULT:     -10.5      0.000      0.000
REMARK SMILES CSc1nc(O)nc(C)c1C(=O)N1C[C@@H](O)C[C@@H]1C(=O)OCCOCCOCCOC(=O)c1ccc(-c2c3nc(c(-c4c(F)c(F)c(F)c(F)c4F)c4ccc([nH]4)c(-c4c(F)c(F)c(F)c(F)c4F)c4nc(c(-c5c(F)c(F)c(F)c(F)c5F)c5ccc2[nH]5)C=C4)C=C3)cc1
REMARK SMILES IDX 25 1 24 2 23 3 22 4 21 5 19 6 20 7 18 8 13 9 14 10 15 11
REMARK SMILES IDX 17 12 11 13 12 14 10 15 3 16 4 17 5 18 8 19 7 20 9 21 2 22
REMARK SMILES IDX 1 23 6 24 16 26 26 28 27 29 28 30 29 31 30 32 31 33 32 34
REMARK SMILES IDX 33 35 34 36 95 37 35 38 94 39 36 40 37 41 38 42 88 43 39 44
REMARK SMILES IDX 93 45 87 46 89 47 40 48 92 49 86 50 85 51 41 53 73 54 53 55
REMARK SMILES IDX 72 56 54 57 57 58 71 59 90 60 55 61 56 62 70 64 91 65 58 66
REMARK SMILES IDX 42 67 43 68 51 69 44 70 45 71 49 72 52 73 46 74 47 75 50 76
REMARK SMILES IDX 48 77 74 78 75 79 83 80 76 81 77 82 81 83 84 84 78 85 79 86
REMARK SMILES IDX 82 87 80 88 59 89 60 90 68 91 61 92 62 93 66 94 69 95 63 96
REMARK SMILES IDX 64 97 67 98 65 99
REMARK H PARENT 6 25 16 27 89 52 57 63
REMARK Flexibility Score: inf
ROOT
ATOM      1  C   UNL A   1      30.770  27.723  23.231  1.00  0.00     0.188 C 
ENDROOT
BRANCH   1   2
ATOM      2  O   UNL A   1      30.657  26.418  22.671  1.00  0.00    -0.376 OA
BRANCH   2   3
ATOM      3  C   UNL A   1      30.229  25.362  23.523  1.00  0.00     0.202 C 
BRANCH   3   4
ATOM      4  C   UNL A   1      30.927  24.018  23.312  1.00  0.00     0.261 C 
BRANCH   4   5
ATOM      5  O   UNL A   1      31.971  24.073  22.314  1.00  0.00    -0.462 OA
BRANCH   5   6
ATOM      6  C   UNL A   1      32.813  23.023  22.330  1.00  0.00     0.329 C 
ATOM      7  O   UNL A   1      33.851  22.995  21.667  1.00  0.00    -0.250 OA
BRANCH   6   8
ATOM      8  C   UNL A   1      32.471  21.891  23.335  1.00  0.00     0.198 C 
ATOM      9  N   UNL A   1      33.317  21.174  24.367  1.00  0.00    -0.322 N 
ATOM     10  C   UNL A   1      32.864  19.800  24.331  1.00  0.00     0.152 C 
ATOM     11  C   UNL A   1      32.609  19.488  22.883  1.00  0.00     0.136 C 
ATOM     12  C   UNL A   1      31.930  20.752  22.413  1.00  0.00     0.071 C 
BRANCH   9  13
ATOM     13  C   UNL A   1      33.558  21.709  25.660  1.00  0.00     0.259 C 
ATOM     14  O   UNL A   1      33.557  20.960  26.636  1.00  0.00    -0.269 OA
BRANCH  13  15
ATOM     15  C   UNL A   1      33.626  23.216  25.898  1.00  0.00     0.093 A 
ATOM     16  C   UNL A   1      34.685  24.104  25.680  1.00  0.00     0.116 A 
ATOM     17  N   UNL A   1      34.559  25.458  25.710  1.00  0.00    -0.188 NA
ATOM     18  C   UNL A   1      33.387  25.936  26.088  1.00  0.00     0.315 A 
ATOM     19  C   UNL A   1      32.487  23.862  26.412  1.00  0.00     0.058 A 
ATOM     20  N   UNL A   1      32.341  25.218  26.460  1.00  0.00    -0.200 NA
ATOM     21  C   UNL A   1      31.349  23.138  27.079  1.00  0.00     0.068 C 
BRANCH  16  22
ATOM     22  S   UNL A   1      36.425  23.691  25.673  1.00  0.00    -0.109 SA
ATOM     23  C   UNL A   1      36.567  23.125  23.948  1.00  0.00     0.092 C 
ENDBRANCH  16  22
BRANCH  18  24
ATOM     24  O   UNL A   1      33.218  27.284  26.055  1.00  0.00    -0.479 OA
ATOM     25  H   UNL A   1      32.362  27.646  25.937  1.00  0.00     0.297 HD
ENDBRANCH  18  24
ENDBRANCH  13  15
ENDBRANCH   9  13
BRANCH  11  26
ATOM     26  O   UNL A   1      31.816  18.334  22.693  1.00  0.00    -0.391 OA
ATOM     27  H   UNL A   1      31.378  18.382  21.828  1.00  0.00     0.211 HD
ENDBRANCH  11  26
ENDBRANCH   6   8
ENDBRANCH   5   6
ENDBRANCH   4   5
ENDBRANCH   3   4
ENDBRANCH   2   3
ENDBRANCH   1   2
BRANCH   1  28
ATOM     28  C   UNL A   1      32.088  28.506  23.038  1.00  0.00     0.188 C 
BRANCH  28  29
ATOM     29  O   UNL A   1      32.383  29.369  24.118  1.00  0.00    -0.376 OA
BRANCH  29  30
ATOM     30  C   UNL A   1      31.278  29.777  24.906  1.00  0.00     0.202 C 
BRANCH  30  31
ATOM     31  C   UNL A   1      31.645  30.498  26.205  1.00  0.00     0.261 C 
BRANCH  31  32
ATOM     32  O   UNL A   1      33.068  30.550  26.452  1.00  0.00    -0.460 OA
BRANCH  32  33
ATOM     33  C   UNL A   1      33.555  31.522  27.237  1.00  0.00     0.338 C 
ATOM     34  O   UNL A   1      33.013  32.600  27.503  1.00  0.00    -0.246 OA
BRANCH  33  35
ATOM     35  C   UNL A   1      34.882  31.124  27.765  1.00  0.00     0.060 A 
ATOM     36  C   UNL A   1      35.148  29.800  28.134  1.00  0.00     0.016 A 
ATOM     37  C   UNL A   1      35.855  32.099  27.992  1.00  0.00     0.016 A 
ATOM     38  C   UNL A   1      36.357  29.449  28.729  1.00  0.00     0.010 A 
ATOM     39  C   UNL A   1      37.076  31.745  28.585  1.00  0.00     0.010 A 
ATOM     40  C   UNL A   1      37.327  30.420  28.984  1.00  0.00    -0.014 A 
BRANCH  40  41
ATOM     41  C   UNL A   1      38.522  30.071  29.793  1.00  0.00     0.031 A 
ATOM     42  C   UNL A   1      39.584  29.195  29.185  1.00  0.00     0.074 A 
ATOM     43  C   UNL A   1      38.736  30.597  31.013  1.00  0.00     0.049 A 
ATOM     44  N   UNL A   1      40.600  28.605  29.761  1.00  0.00    -0.248 NA
ATOM     45  C   UNL A   1      39.505  28.979  27.731  1.00  0.00     0.031 C 
ATOM     46  C   UNL A   1      37.892  31.598  31.665  1.00  0.00     0.029 A 
ATOM     47  N   UNL A   1      39.743  30.370  31.917  1.00  0.00    -0.354 N 
ATOM     48  C   UNL A   1      41.254  27.913  28.752  1.00  0.00     0.074 A 
ATOM     49  C   UNL A   1      40.535  28.171  27.523  1.00  0.00     0.031 C 
ATOM     50  C   UNL A   1      38.428  31.915  32.855  1.00  0.00     0.029 A 
ATOM     51  C   UNL A   1      39.594  31.067  33.095  1.00  0.00     0.049 A 
ATOM     52  H   UNL A   1      40.501  29.768  31.739  1.00  0.00     0.167 HD
ATOM     53  C   UNL A   1      42.352  27.127  28.848  1.00  0.00     0.037 A 
ATOM     54  C   UNL A   1      40.279  30.983  34.254  1.00  0.00     0.037 A 
ATOM     55  C   UNL A   1      43.086  26.898  30.062  1.00  0.00     0.049 A 
ATOM     56  C   UNL A   1      41.389  29.977  34.386  1.00  0.00     0.074 A 
ATOM     57  C   UNL A   1      44.177  26.072  30.268  1.00  0.00     0.029 A 
ATOM     58  N   UNL A   1      42.814  27.509  31.275  1.00  0.00    -0.354 N 
ATOM     59  N   UNL A   1      41.918  29.200  33.472  1.00  0.00    -0.248 NA
ATOM     60  C   UNL A   1      41.973  29.804  35.727  1.00  0.00     0.031 C 
ATOM     61  C   UNL A   1      44.543  26.157  31.615  1.00  0.00     0.029 A 
ATOM     62  C   UNL A   1      43.707  27.068  32.238  1.00  0.00     0.049 A 
ATOM     63  H   UNL A   1      42.093  28.163  31.430  1.00  0.00     0.167 HD
ATOM     64  C   UNL A   1      42.896  28.456  34.120  1.00  0.00     0.074 A 
ATOM     65  C   UNL A   1      42.903  28.885  35.503  1.00  0.00     0.031 C 
ATOM     66  C   UNL A   1      43.707  27.496  33.612  1.00  0.00     0.037 A 
BRANCH  53  67
ATOM     67  C   UNL A   1      42.800  26.407  27.615  1.00  0.00     0.064 A 
ATOM     68  C   UNL A   1      43.781  26.933  26.765  1.00  0.00     0.173 A 
ATOM     69  C   UNL A   1      42.286  25.133  27.324  1.00  0.00     0.173 A 
ATOM     70  F   UNL A   1      44.289  28.153  26.996  1.00  0.00    -0.203 F 
ATOM     71  C   UNL A   1      44.231  26.212  25.663  1.00  0.00     0.198 A 
ATOM     72  C   UNL A   1      42.754  24.405  26.236  1.00  0.00     0.198 A 
ATOM     73  F   UNL A   1      41.347  24.588  28.112  1.00  0.00    -0.203 F 
ATOM     74  F   UNL A   1      45.156  26.738  24.849  1.00  0.00    -0.200 F 
ATOM     75  C   UNL A   1      43.725  24.944  25.405  1.00  0.00     0.200 A 
ATOM     76  F   UNL A   1      42.273  23.177  25.996  1.00  0.00    -0.200 F 
ATOM     77  F   UNL A   1      44.175  24.242  24.356  1.00  0.00    -0.200 F 
ENDBRANCH  53  67
BRANCH  54  78
ATOM     78  C   UNL A   1      39.880  31.823  35.412  1.00  0.00     0.064 A 
ATOM     79  C   UNL A   1      38.815  31.452  36.241  1.00  0.00     0.173 A 
ATOM     80  C   UNL A   1      40.549  33.027  35.705  1.00  0.00     0.173 A 
ATOM     81  F   UNL A   1      38.122  30.335  35.982  1.00  0.00    -0.203 F 
ATOM     82  C   UNL A   1      38.430  32.251  37.321  1.00  0.00     0.198 A 
ATOM     83  C   UNL A   1      40.185  33.803  36.798  1.00  0.00     0.198 A 
ATOM     84  F   UNL A   1      41.563  33.433  34.933  1.00  0.00    -0.203 F 
ATOM     85  F   UNL A   1      37.384  31.892  38.075  1.00  0.00    -0.200 F 
ATOM     86  C   UNL A   1      39.121  33.417  37.605  1.00  0.00     0.200 A 
ATOM     87  F   UNL A   1      40.860  34.927  37.075  1.00  0.00    -0.200 F 
ATOM     88  F   UNL A   1      38.760  34.177  38.646  1.00  0.00    -0.200 F 
ENDBRANCH  54  78
BRANCH  66  89
ATOM     89  C   UNL A   1      44.685  26.844  34.543  1.00  0.00     0.064 A 
ATOM     90  C   UNL A   1      44.374  25.650  35.209  1.00  0.00     0.173 A 
ATOM     91  C   UNL A   1      45.971  27.378  34.715  1.00  0.00     0.173 A 
ATOM     92  F   UNL A   1      43.153  25.108  35.088  1.00  0.00    -0.203 F 
ATOM     93  C   UNL A   1      45.313  25.019  36.021  1.00  0.00     0.198 A 
ATOM     94  C   UNL A   1      46.915  26.731  35.508  1.00  0.00     0.198 A 
ATOM     95  F   UNL A   1      46.320  28.515  34.094  1.00  0.00    -0.203 F 
ATOM     96  F   UNL A   1      44.985  23.893  36.671  1.00  0.00    -0.200 F 
ATOM     97  C   UNL A   1      46.585  25.555  36.162  1.00  0.00     0.200 A 
ATOM     98  F   UNL A   1      48.148  27.242  35.633  1.00  0.00    -0.200 F 
ATOM     99  F   UNL A   1      47.491  24.937  36.933  1.00  0.00    -0.200 F 
ENDBRANCH  66  89
ENDBRANCH  40  41
ENDBRANCH  33  35
ENDBRANCH  32  33
ENDBRANCH  31  32
ENDBRANCH  30  31
ENDBRANCH  29  30
ENDBRANCH  28  29
ENDBRANCH   1  28
TORSDOF 22
ENDMDL
MODEL 2
REMARK VINA RESULT:     -10.5      2.824      8.505
REMARK SMILES CSc1nc(O)nc(C)c1C(=O)N1C[C@@H](O)C[C@@H]1C(=O)OCCOCCOCCOC(=O)c1ccc(-c2c3nc(c(-c4c(F)c(F)c(F)c(F)c4F)c4ccc([nH]4)c(-c4c(F)c(F)c(F)c(F)c4F)c4nc(c(-c5c(F)c(F)c(F)c(F)c5F)c5ccc2[nH]5)C=C4)C=C3)cc1
REMARK SMILES IDX 25 1 24 2 23 3 22 4 21 5 19 6 20 7 18 8 13 9 14 10 15 11
REMARK SMILES IDX 17 12 11 13 12 14 10 15 3 16 4 17 5 18 8 19 7 20 9 21 2 22
REMARK SMILES IDX 1 23 6 24 16 26 26 28 27 29 28 30 29 31 30 32 31 33 32 34
REMARK SMILES IDX 33 35 34 36 95 37 35 38 94 39 36 40 37 41 38 42 88 43 39 44
REMARK SMILES IDX 93 45 87 46 89 47 40 48 92 49 86 50 85 51 41 53 73 54 53 55
REMARK SMILES IDX 72 56 54 57 57 58 71 59 90 60 55 61 56 62 70 64 91 65 58 66
REMARK SMILES IDX 42 67 43 68 51 69 44 70 45 71 49 72 52 73 46 74 47 75 50 76
REMARK SMILES IDX 48 77 74 78 75 79 83 80 76 81 77 82 81 83 84 84 78 85 79 86
REMARK SMILES IDX 82 87 80 88 59 89 60 90 68 91 61 92 62 93 66 94 69 95 63 96
REMARK SMILES IDX 64 97 67 98 65 99
REMARK H PARENT 6 25 16 27 89 52 57 63
REMARK Flexibility Score: inf
ROOT
ATOM      1  C   UNL A   1      34.768  31.592  28.574  1.00  0.00     0.188 C 
ENDROOT
BRANCH   1   2
ATOM      2  O   UNL A   1      34.133  31.398  27.313  1.00  0.00    -0.376 OA
BRANCH   2   3
ATOM      3  C   UNL A   1      33.159  30.366  27.210  1.00  0.00     0.202 C 
BRANCH   3   4
ATOM      4  C   UNL A   1      33.594  29.123  26.433  1.00  0.00     0.261 C 
BRANCH   4   5
ATOM      5  O   UNL A   1      33.510  29.292  25.001  1.00  0.00    -0.462 OA
BRANCH   5   6
ATOM      6  C   UNL A   1      32.375  28.822  24.450  1.00  0.00     0.329 C 
ATOM      7  O   UNL A   1      31.381  29.528  24.276  1.00  0.00    -0.250 OA
BRANCH   6   8
ATOM      8  C   UNL A   1      32.428  27.365  23.920  1.00  0.00     0.198 C 
ATOM      9  N   UNL A   1      33.429  26.250  24.141  1.00  0.00    -0.322 N 
ATOM     10  C   UNL A   1      33.516  25.568  22.868  1.00  0.00     0.152 C 
ATOM     11  C   UNL A   1      33.460  26.644  21.820  1.00  0.00     0.136 C 
ATOM     12  C   UNL A   1      32.387  27.552  22.370  1.00  0.00     0.071 C 
BRANCH   9  13
ATOM     13  C   UNL A   1      33.397  25.413  25.287  1.00  0.00     0.259 C 
ATOM     14  O   UNL A   1      34.383  25.349  26.019  1.00  0.00    -0.269 OA
BRANCH  13  15
ATOM     15  C   UNL A   1      32.245  24.441  25.531  1.00  0.00     0.093 A 
ATOM     16  C   UNL A   1      32.120  23.097  25.160  1.00  0.00     0.116 A 
ATOM     17  N   UNL A   1      31.152  22.267  25.630  1.00  0.00    -0.188 NA
ATOM     18  C   UNL A   1      30.214  22.815  26.382  1.00  0.00     0.315 A 
ATOM     19  C   UNL A   1      31.113  24.908  26.224  1.00  0.00     0.058 A 
ATOM     20  N   UNL A   1      30.124  24.095  26.697  1.00  0.00    -0.200 NA
ATOM     21  C   UNL A   1      30.799  26.367  26.419  1.00  0.00     0.068 C 
BRANCH  16  22
ATOM     22  S   UNL A   1      32.940  22.301  23.784  1.00  0.00    -0.109 SA
ATOM     23  C   UNL A   1      32.488  20.576  24.153  1.00  0.00     0.092 C 
ENDBRANCH  16  22
BRANCH  18  24
ATOM     24  O   UNL A   1      29.278  21.990  26.920  1.00  0.00    -0.479 OA
ATOM     25  H   UNL A   1      29.109  21.155  26.530  1.00  0.00     0.297 HD
ENDBRANCH  18  24
ENDBRANCH  13  15
ENDBRANCH   9  13
BRANCH  11  26
ATOM     26  O   UNL A   1      33.157  26.151  20.531  1.00  0.00    -0.391 OA
ATOM     27  H   UNL A   1      33.925  25.677  20.176  1.00  0.00     0.211 HD
ENDBRANCH  11  26
ENDBRANCH   6   8
ENDBRANCH   5   6
ENDBRANCH   4   5
ENDBRANCH   3   4
ENDBRANCH   2   3
ENDBRANCH   1   2
BRANCH   1  28
ATOM     28  C   UNL A   1      34.638  32.965  29.271  1.00  0.00     0.188 C 
BRANCH  28  29
ATOM     29  O   UNL A   1      33.671  33.803  28.669  1.00  0.00    -0.376 OA
BRANCH  29  30
ATOM     30  C   UNL A   1      33.954  35.191  28.690  1.00  0.00     0.202 C 
BRANCH  30  31
ATOM     31  C   UNL A   1      32.939  36.044  29.454  1.00  0.00     0.261 C 
BRANCH  31  32
ATOM     32  O   UNL A   1      32.330  35.354  30.568  1.00  0.00    -0.460 OA
BRANCH  32  33
ATOM     33  C   UNL A   1      32.521  35.829  31.808  1.00  0.00     0.338 C 
ATOM     34  O   UNL A   1      31.866  36.710  32.372  1.00  0.00    -0.246 OA
BRANCH  33  35
ATOM     35  C   UNL A   1      33.669  35.135  32.440  1.00  0.00     0.060 A 
ATOM     36  C   UNL A   1      34.933  35.733  32.502  1.00  0.00     0.016 A 
ATOM     37  C   UNL A   1      33.517  33.824  32.894  1.00  0.00     0.016 A 
ATOM     38  C   UNL A   1      36.033  35.039  32.998  1.00  0.00     0.010 A 
ATOM     39  C   UNL A   1      34.624  33.126  33.401  1.00  0.00     0.010 A 
ATOM     40  C   UNL A   1      35.898  33.719  33.432  1.00  0.00    -0.014 A 
BRANCH  40  41
ATOM     41  C   UNL A   1      37.109  32.929  33.772  1.00  0.00     0.031 A 
ATOM     42  C   UNL A   1      37.737  33.104  35.127  1.00  0.00     0.074 A 
ATOM     43  C   UNL A   1      37.599  31.986  32.945  1.00  0.00     0.049 A 
ATOM     44  N   UNL A   1      38.895  32.677  35.564  1.00  0.00    -0.248 NA
ATOM     45  C   UNL A   1      36.944  33.832  36.131  1.00  0.00     0.031 C 
ATOM     46  C   UNL A   1      36.999  31.573  31.678  1.00  0.00     0.029 A 
ATOM     47  N   UNL A   1      38.713  31.193  33.062  1.00  0.00    -0.354 N 
ATOM     48  C   UNL A   1      38.988  33.122  36.875  1.00  0.00     0.074 A 
ATOM     49  C   UNL A   1      37.764  33.833  37.172  1.00  0.00     0.031 C 
ATOM     50  C   UNL A   1      37.740  30.589  31.142  1.00  0.00     0.029 A 
ATOM     51  C   UNL A   1      38.919  30.371  31.977  1.00  0.00     0.049 A 
ATOM     52  H   UNL A   1      39.306  31.208  33.847  1.00  0.00     0.167 HD
ATOM     53  C   UNL A   1      40.010  32.956  37.747  1.00  0.00     0.037 A 
ATOM     54  C   UNL A   1      39.969  29.585  31.662  1.00  0.00     0.037 A 
ATOM     55  C   UNL A   1      41.212  32.219  37.463  1.00  0.00     0.049 A 
ATOM     56  C   UNL A   1      41.167  29.550  32.572  1.00  0.00     0.074 A 
ATOM     57  C   UNL A   1      42.327  32.045  38.265  1.00  0.00     0.029 A 
ATOM     58  N   UNL A   1      41.450  31.520  36.291  1.00  0.00    -0.354 N 
ATOM     59  N   UNL A   1      41.328  30.097  33.752  1.00  0.00    -0.248 NA
ATOM     60  C   UNL A   1      42.351  28.822  32.084  1.00  0.00     0.031 C 
ATOM     61  C   UNL A   1      43.254  31.270  37.562  1.00  0.00     0.029 A 
ATOM     62  C   UNL A   1      42.700  30.926  36.341  1.00  0.00     0.049 A 
ATOM     63  H   UNL A   1      40.822  31.454  35.535  1.00  0.00     0.167 HD
ATOM     64  C   UNL A   1      42.619  29.776  34.151  1.00  0.00     0.074 A 
ATOM     65  C   UNL A   1      43.196  28.969  33.096  1.00  0.00     0.031 C 
ATOM     66  C   UNL A   1      43.268  30.127  35.287  1.00  0.00     0.037 A 
BRANCH  53  67
ATOM     67  C   UNL A   1      39.902  33.629  39.080  1.00  0.00     0.064 A 
ATOM     68  C   UNL A   1      40.522  34.857  39.340  1.00  0.00     0.173 A 
ATOM     69  C   UNL A   1      39.101  33.064  40.085  1.00  0.00     0.173 A 
ATOM     70  F   UNL A   1      41.309  35.426  38.414  1.00  0.00    -0.203 F 
ATOM     71  C   UNL A   1      40.349  35.497  40.564  1.00  0.00     0.198 A 
ATOM     72  C   UNL A   1      38.911  33.717  41.297  1.00  0.00     0.198 A 
ATOM     73  F   UNL A   1      38.485  31.891  39.877  1.00  0.00    -0.203 F 
ATOM     74  F   UNL A   1      40.965  36.663  40.805  1.00  0.00    -0.200 F 
ATOM     75  C   UNL A   1      39.535  34.932  41.538  1.00  0.00     0.200 A 
ATOM     76  F   UNL A   1      38.115  33.176  42.230  1.00  0.00    -0.200 F 
ATOM     77  F   UNL A   1      39.352  35.560  42.708  1.00  0.00    -0.200 F 
ENDBRANCH  53  67
BRANCH  54  78
ATOM     78  C   UNL A   1      39.970  28.825  30.386  1.00  0.00     0.064 A 
ATOM     79  C   UNL A   1      39.418  27.541  30.310  1.00  0.00     0.173 A 
ATOM     80  C   UNL A   1      40.539  29.364  29.216  1.00  0.00     0.173 A 
ATOM     81  F   UNL A   1      38.899  26.969  31.404  1.00  0.00    -0.203 F 
ATOM     82  C   UNL A   1      39.433  26.820  29.112  1.00  0.00     0.198 A 
ATOM     83  C   UNL A   1      40.524  28.657  28.019  1.00  0.00     0.198 A 
ATOM     84  F   UNL A   1      41.094  30.580  29.242  1.00  0.00    -0.203 F 
ATOM     85  F   UNL A   1      38.932  25.579  29.076  1.00  0.00    -0.200 F 
ATOM     86  C   UNL A   1      39.975  27.382  27.969  1.00  0.00     0.200 A 
ATOM     87  F   UNL A   1      41.042  29.207  26.913  1.00  0.00    -0.200 F 
ATOM     88  F   UNL A   1      39.980  26.696  26.819  1.00  0.00    -0.200 F 
ENDBRANCH  54  78
BRANCH  66  89
ATOM     89  C   UNL A   1      44.675  29.638  35.468  1.00  0.00     0.064 A 
ATOM     90  C   UNL A   1      45.774  30.414  35.074  1.00  0.00     0.173 A 
ATOM     91  C   UNL A   1      44.928  28.415  36.108  1.00  0.00     0.173 A 
ATOM     92  F   UNL A   1      45.584  31.584  34.446  1.00  0.00    -0.203 F 
ATOM     93  C   UNL A   1      47.076  29.979  35.305  1.00  0.00     0.198 A 
ATOM     94  C   UNL A   1      46.231  27.994  36.359  1.00  0.00     0.198 A 
ATOM     95  F   UNL A   1      43.910  27.639  36.510  1.00  0.00    -0.203 F 
ATOM     96  F   UNL A   1      48.113  30.723  34.894  1.00  0.00    -0.200 F 
ATOM     97  C   UNL A   1      47.303  28.774  35.955  1.00  0.00     0.200 A 
ATOM     98  F   UNL A   1      46.449  26.837  37.000  1.00  0.00    -0.200 F 
ATOM     99  F   UNL A   1      48.558  28.364  36.189  1.00  0.00    -0.200 F 
ENDBRANCH  66  89
ENDBRANCH  40  41
ENDBRANCH  33  35
ENDBRANCH  32  33
ENDBRANCH  31  32
ENDBRANCH  30  31
ENDBRANCH  29  30
ENDBRANCH  28  29
ENDBRANCH   1  28
TORSDOF 22
ENDMDL
MODEL 3
REMARK VINA RESULT:     -10.1      2.812      8.488
REMARK SMILES CSc1nc(O)nc(C)c1C(=O)N1C[C@@H](O)C[C@@H]1C(=O)OCCOCCOCCOC(=O)c1ccc(-c2c3nc(c(-c4c(F)c(F)c(F)c(F)c4F)c4ccc([nH]4)c(-c4c(F)c(F)c(F)c(F)c4F)c4nc(c(-c5c(F)c(F)c(F)c(F)c5F)c5ccc2[nH]5)C=C4)C=C3)cc1
REMARK SMILES IDX 25 1 24 2 23 3 22 4 21 5 19 6 20 7 18 8 13 9 14 10 15 11
REMARK SMILES IDX 17 12 11 13 12 14 10 15 3 16 4 17 5 18 8 19 7 20 9 21 2 22
REMARK SMILES IDX 1 23 6 24 16 26 26 28 27 29 28 30 29 31 30 32 31 33 32 34
REMARK SMILES IDX 33 35 34 36 95 37 35 38 94 39 36 40 37 41 38 42 88 43 39 44
REMARK SMILES IDX 93 45 87 46 89 47 40 48 92 49 86 50 85 51 41 53 73 54 53 55
REMARK SMILES IDX 72 56 54 57 57 58 71 59 90 60 55 61 56 62 70 64 91 65 58 66
REMARK SMILES IDX 42 67 43 68 51 69 44 70 45 71 49 72 52 73 46 74 47 75 50 76
REMARK SMILES IDX 48 77 74 78 75 79 83 80 76 81 77 82 81 83 84 84 78 85 79 86
REMARK SMILES IDX 82 87 80 88 59 89 60 90 68 91 61 92 62 93 66 94 69 95 63 96
REMARK SMILES IDX 64 97 67 98 65 99
REMARK H PARENT 6 25 16 27 89 52 57 63
REMARK Flexibility Score: inf
ROOT
ATOM      1  C   UNL A   1      33.851  31.525  27.866  1.00  0.00     0.188 C 
ENDROOT
BRANCH   1   2
ATOM      2  O   UNL A   1      32.762  31.465  26.950  1.00  0.00    -0.376 OA
BRANCH   2   3
ATOM      3  C   UNL A   1      32.275  30.182  26.577  1.00  0.00     0.202 C 
BRANCH   3   4
ATOM      4  C   UNL A   1      33.317  29.063  26.549  1.00  0.00     0.261 C 
BRANCH   4   5
ATOM      5  O   UNL A   1      32.818  27.839  25.964  1.00  0.00    -0.462 OA
BRANCH   5   6
ATOM      6  C   UNL A   1      33.382  27.515  24.785  1.00  0.00     0.329 C 
ATOM      7  O   UNL A   1      34.131  28.278  24.176  1.00  0.00    -0.250 OA
BRANCH   6   8
ATOM      8  C   UNL A   1      33.139  26.064  24.291  1.00  0.00     0.198 C 
ATOM      9  N   UNL A   1      34.027  24.838  24.297  1.00  0.00    -0.322 N 
ATOM     10  C   UNL A   1      33.733  24.156  23.055  1.00  0.00     0.152 C 
ATOM     11  C   UNL A   1      33.559  25.237  22.025  1.00  0.00     0.136 C 
ATOM     12  C   UNL A   1      32.757  26.263  22.789  1.00  0.00     0.071 C 
BRANCH   9  13
ATOM     13  C   UNL A   1      34.167  24.004  25.438  1.00  0.00     0.259 C 
ATOM     14  O   UNL A   1      33.743  24.389  26.526  1.00  0.00    -0.269 OA
BRANCH  13  15
ATOM     15  C   UNL A   1      35.003  22.726  25.392  1.00  0.00     0.093 A 
ATOM     16  C   UNL A   1      34.590  21.397  25.249  1.00  0.00     0.116 A 
ATOM     17  N   UNL A   1      35.434  20.364  24.990  1.00  0.00    -0.188 NA
ATOM     18  C   UNL A   1      36.727  20.637  25.001  1.00  0.00     0.315 A 
ATOM     19  C   UNL A   1      36.400  22.839  25.508  1.00  0.00     0.058 A 
ATOM     20  N   UNL A   1      37.267  21.815  25.262  1.00  0.00    -0.200 NA
ATOM     21  C   UNL A   1      37.096  24.066  26.033  1.00  0.00     0.068 C 
BRANCH  16  22
ATOM     22  S   UNL A   1      32.994  20.733  25.705  1.00  0.00    -0.109 SA
ATOM     23  C   UNL A   1      32.957  19.302  24.580  1.00  0.00     0.092 C 
ENDBRANCH  16  22
BRANCH  18  24
ATOM     24  O   UNL A   1      37.584  19.635  24.674  1.00  0.00    -0.479 OA
ATOM     25  H   UNL A   1      37.265  18.761  24.568  1.00  0.00     0.297 HD
ENDBRANCH  18  24
ENDBRANCH  13  15
ENDBRANCH   9  13
BRANCH  11  26
ATOM     26  O   UNL A   1      32.907  24.791  20.853  1.00  0.00    -0.391 OA
ATOM     27  H   UNL A   1      32.233  25.438  20.591  1.00  0.00     0.211 HD
ENDBRANCH  11  26
ENDBRANCH   6   8
ENDBRANCH   5   6
ENDBRANCH   4   5
ENDBRANCH   3   4
ENDBRANCH   2   3
ENDBRANCH   1   2
BRANCH   1  28
ATOM     28  C   UNL A   1      34.604  32.863  28.044  1.00  0.00     0.188 C 
BRANCH  28  29
ATOM     29  O   UNL A   1      33.984  33.728  28.976  1.00  0.00    -0.376 OA
BRANCH  29  30
ATOM     30  C   UNL A   1      34.024  35.109  28.662  1.00  0.00     0.202 C 
BRANCH  30  31
ATOM     31  C   UNL A   1      32.917  35.948  29.304  1.00  0.00     0.261 C 
BRANCH  31  32
ATOM     32  O   UNL A   1      32.307  35.314  30.451  1.00  0.00    -0.460 OA
BRANCH  32  33
ATOM     33  C   UNL A   1      32.530  35.828  31.670  1.00  0.00     0.338 C 
ATOM     34  O   UNL A   1      31.907  36.747  32.211  1.00  0.00    -0.246 OA
BRANCH  33  35
ATOM     35  C   UNL A   1      33.666  35.125  32.311  1.00  0.00     0.060 A 
ATOM     36  C   UNL A   1      34.942  35.700  32.356  1.00  0.00     0.016 A 
ATOM     37  C   UNL A   1      33.492  33.826  32.793  1.00  0.00     0.016 A 
ATOM     38  C   UNL A   1      36.031  34.995  32.862  1.00  0.00     0.010 A 
ATOM     39  C   UNL A   1      34.587  33.118  33.309  1.00  0.00     0.010 A 
ATOM     40  C   UNL A   1      35.873  33.687  33.322  1.00  0.00    -0.014 A 
BRANCH  40  41
ATOM     41  C   UNL A   1      37.070  32.880  33.673  1.00  0.00     0.031 A 
ATOM     42  C   UNL A   1      37.705  33.066  35.024  1.00  0.00     0.074 A 
ATOM     43  C   UNL A   1      37.541  31.915  32.861  1.00  0.00     0.049 A 
ATOM     44  N   UNL A   1      38.855  32.626  35.465  1.00  0.00    -0.248 NA
ATOM     45  C   UNL A   1      36.927  33.826  36.017  1.00  0.00     0.031 C 
ATOM     46  C   UNL A   1      36.931  31.492  31.602  1.00  0.00     0.029 A 
ATOM     47  N   UNL A   1      38.640  31.103  32.989  1.00  0.00    -0.354 N 
ATOM     48  C   UNL A   1      38.960  33.091  36.768  1.00  0.00     0.074 A 
ATOM     49  C   UNL A   1      37.749  33.830  37.056  1.00  0.00     0.031 C 
ATOM     50  C   UNL A   1      37.651  30.485  31.082  1.00  0.00     0.029 A 
ATOM     51  C   UNL A   1      38.829  30.260  31.917  1.00  0.00     0.049 A 
ATOM     52  H   UNL A   1      39.235  31.121  33.773  1.00  0.00     0.167 HD
ATOM     53  C   UNL A   1      39.981  32.921  37.641  1.00  0.00     0.037 A 
ATOM     54  C   UNL A   1      39.864  29.449  31.614  1.00  0.00     0.037 A 
ATOM     55  C   UNL A   1      41.168  32.158  37.367  1.00  0.00     0.049 A 
ATOM     56  C   UNL A   1      41.062  29.408  32.521  1.00  0.00     0.074 A 
ATOM     57  C   UNL A   1      42.281  31.977  38.169  1.00  0.00     0.029 A 
ATOM     58  N   UNL A   1      41.391  31.435  36.207  1.00  0.00    -0.354 N 
ATOM     59  N   UNL A   1      41.237  29.972  33.692  1.00  0.00    -0.248 NA
ATOM     60  C   UNL A   1      42.232  28.650  32.044  1.00  0.00     0.031 C 
ATOM     61  C   UNL A   1      43.193  31.173  37.478  1.00  0.00     0.029 A 
ATOM     62  C   UNL A   1      42.629  30.819  36.264  1.00  0.00     0.049 A 
ATOM     63  H   UNL A   1      40.759  31.368  35.453  1.00  0.00     0.167 HD
ATOM     64  C   UNL A   1      42.523  29.634  34.093  1.00  0.00     0.074 A 
ATOM     65  C   UNL A   1      43.083  28.799  33.051  1.00  0.00     0.031 C 
ATOM     66  C   UNL A   1      43.181  29.993  35.222  1.00  0.00     0.037 A 
BRANCH  53  67
ATOM     67  C   UNL A   1      39.888  33.619  38.962  1.00  0.00     0.064 A 
ATOM     68  C   UNL A   1      39.170  33.078  40.036  1.00  0.00     0.173 A 
ATOM     69  C   UNL A   1      40.594  34.814  39.172  1.00  0.00     0.173 A 
ATOM     70  F   UNL A   1      38.469  31.945  39.876  1.00  0.00    -0.203 F 
ATOM     71  C   UNL A   1      39.158  33.711  41.276  1.00  0.00     0.198 A 
ATOM     72  C   UNL A   1      40.599  35.431  40.417  1.00  0.00     0.198 A 
ATOM     73  F   UNL A   1      41.299  35.366  38.173  1.00  0.00    -0.203 F 
ATOM     74  F   UNL A   1      38.450  33.190  42.287  1.00  0.00    -0.200 F 
ATOM     75  C   UNL A   1      39.880  34.881  41.468  1.00  0.00     0.200 A 
ATOM     76  F   UNL A   1      41.307  36.554  40.604  1.00  0.00    -0.200 F 
ATOM     77  F   UNL A   1      39.884  35.478  42.668  1.00  0.00    -0.200 F 
ENDBRANCH  53  67
BRANCH  54  78
ATOM     78  C   UNL A   1      39.847  28.668  30.351  1.00  0.00     0.064 A 
ATOM     79  C   UNL A   1      39.280  27.390  30.300  1.00  0.00     0.173 A 
ATOM     80  C   UNL A   1      40.416  29.180  29.168  1.00  0.00     0.173 A 
ATOM     81  F   UNL A   1      38.761  26.842  31.406  1.00  0.00    -0.203 F 
ATOM     82  C   UNL A   1      39.279  26.649  29.114  1.00  0.00     0.198 A 
ATOM     83  C   UNL A   1      40.385  28.454  27.984  1.00  0.00     0.198 A 
ATOM     84  F   UNL A   1      40.985  30.390  29.171  1.00  0.00    -0.203 F 
ATOM     85  F   UNL A   1      38.763  25.414  29.102  1.00  0.00    -0.200 F 
ATOM     86  C   UNL A   1      39.821  27.184  27.958  1.00  0.00     0.200 A 
ATOM     87  F   UNL A   1      40.903  28.979  26.865  1.00  0.00    -0.200 F 
ATOM     88  F   UNL A   1      39.810  26.480  26.820  1.00  0.00    -0.200 F 
ENDBRANCH  54  78
BRANCH  66  89
ATOM     89  C   UNL A   1      44.579  29.480  35.409  1.00  0.00     0.064 A 
ATOM     90  C   UNL A   1      45.690  30.220  34.978  1.00  0.00     0.173 A 
ATOM     91  C   UNL A   1      44.813  28.276  36.088  1.00  0.00     0.173 A 
ATOM     92  F   UNL A   1      45.518  31.371  34.311  1.00  0.00    -0.203 F 
ATOM     93  C   UNL A   1      46.985  29.766  35.213  1.00  0.00     0.198 A 
ATOM     94  C   UNL A   1      46.109  27.837  36.343  1.00  0.00     0.198 A 
ATOM     95  F   UNL A   1      43.783  27.536  36.526  1.00  0.00    -0.203 F 
ATOM     96  F   UNL A   1      48.033  30.473  34.767  1.00  0.00    -0.200 F 
ATOM     97  C   UNL A   1      47.193  28.580  35.903  1.00  0.00     0.200 A 
ATOM     98  F   UNL A   1      46.309  26.699  37.023  1.00  0.00    -0.200 F 
ATOM     99  F   UNL A   1      48.441  28.153  36.141  1.00  0.00    -0.200 F 
ENDBRANCH  66  89
ENDBRANCH  40  41
ENDBRANCH  33  35
ENDBRANCH  32  33
ENDBRANCH  31  32
ENDBRANCH  30  31
ENDBRANCH  29  30
ENDBRANCH  28  29
ENDBRANCH   1  28
TORSDOF 22
ENDMDL
