MODEL 1
REMARK VINA RESULT:     -11.7      0.000      0.000
REMARK SMILES COc1cccc(NC(=O)[C@@H]2[C@@H](C(=O)OCCOCCOCCOC(=O)c3ccc(-c4c5nc(c(-c6c(F)c(F)c(F)c(F)c6F)c6ccc([nH]6)c(-c6c(F)c(F)c(F)c(F)c6F)c6nc(c(-c7c(F)c(F)c(F)c(F)c7F)c7ccc4[nH]7)C=C6)C=C5)cc3)[C@H]3C=C[C@@H]2C3)c1
REMARK SMILES IDX 19 1 18 2 17 3 16 4 15 5 13 6 14 7 12 8 11 9 93 10 90 11
REMARK SMILES IDX 92 12 94 13 91 14 9 15 8 16 10 18 7 19 3 20 4 21 95 22 5 23
REMARK SMILES IDX 6 24 2 25 1 26 20 27 21 28 22 29 23 30 24 31 25 32 26 33
REMARK SMILES IDX 27 34 28 35 89 36 29 37 88 38 30 39 31 40 32 41 82 42 33 43
REMARK SMILES IDX 87 44 81 45 83 46 34 47 86 48 80 49 79 50 35 52 67 53 47 54
REMARK SMILES IDX 66 55 48 56 51 57 65 58 84 59 49 60 50 61 64 63 85 64 52 65
REMARK SMILES IDX 36 66 37 67 45 68 38 69 39 70 43 71 46 72 40 73 41 74 44 75
REMARK SMILES IDX 42 76 68 77 69 78 77 79 70 80 71 81 75 82 78 83 72 84 73 85
REMARK SMILES IDX 76 86 74 87 53 88 54 89 62 90 55 91 56 92 60 93 63 94 57 95
REMARK SMILES IDX 58 96 61 97 59 98
REMARK H PARENT 8 17 83 51 51 62
REMARK Flexibility Score: inf
ROOT
ATOM      1  C   UNL A   1      38.594  21.220  25.753  1.00  0.00     0.188 C 
ENDROOT
BRANCH   1   2
ATOM      2  O   UNL A   1      38.128  22.555  25.622  1.00  0.00    -0.376 OA
BRANCH   2   3
ATOM      3  C   UNL A   1      36.773  22.775  25.252  1.00  0.00     0.202 C 
BRANCH   3   4
ATOM      4  C   UNL A   1      36.126  24.095  25.720  1.00  0.00     0.261 C 
BRANCH   4   5
ATOM      5  O   UNL A   1      34.965  24.576  24.979  1.00  0.00    -0.463 OA
BRANCH   5   6
ATOM      6  C   UNL A   1      33.976  25.155  25.710  1.00  0.00     0.310 C 
ATOM      7  O   UNL A   1      33.935  26.361  25.944  1.00  0.00    -0.252 OA
BRANCH   6   8
ATOM      8  C   UNL A   1      32.841  24.243  26.190  1.00  0.00     0.119 C 
ATOM      9  C   UNL A   1      32.630  22.835  25.530  1.00  0.00     0.100 C 
ATOM     10  C   UNL A   1      31.119  22.828  25.319  1.00  0.00     0.025 C 
ATOM     11  C   UNL A   1      31.407  24.860  26.200  1.00  0.00     0.027 C 
ATOM     12  C   UNL A   1      30.703  23.807  24.266  1.00  0.00    -0.027 C 
ATOM     13  C   UNL A   1      30.616  23.611  26.558  1.00  0.00     0.017 C 
ATOM     14  C   UNL A   1      30.776  25.007  24.842  1.00  0.00    -0.027 C 
BRANCH   9  15
ATOM     15  C   UNL A   1      33.183  21.683  26.411  1.00  0.00     0.228 C 
ATOM     16  N   UNL A   1      33.294  20.349  26.107  1.00  0.00    -0.326 N 
ATOM     17  H   UNL A   1      33.453  19.802  26.910  1.00  0.00     0.169 HD
ATOM     18  O   UNL A   1      33.407  21.962  27.602  1.00  0.00    -0.274 OA
BRANCH  16  19
ATOM     19  C   UNL A   1      33.237  19.563  24.937  1.00  0.00     0.044 A 
ATOM     20  C   UNL A   1      33.680  17.406  23.912  1.00  0.00     0.120 A 
ATOM     21  C   UNL A   1      32.751  17.684  22.913  1.00  0.00     0.046 A 
ATOM     22  C   UNL A   1      33.918  18.338  24.932  1.00  0.00     0.072 A 
ATOM     23  C   UNL A   1      32.210  18.960  22.822  1.00  0.00     0.006 A 
ATOM     24  C   UNL A   1      32.527  19.918  23.791  1.00  0.00     0.026 A 
BRANCH  20  25
ATOM     25  O   UNL A   1      34.239  16.161  23.863  1.00  0.00    -0.497 OA
ATOM     26  C   UNL A   1      35.021  15.817  25.005  1.00  0.00     0.278 C 
ENDBRANCH  20  25
ENDBRANCH  16  19
ENDBRANCH   9  15
ENDBRANCH   6   8
ENDBRANCH   5   6
ENDBRANCH   4   5
ENDBRANCH   3   4
ENDBRANCH   2   3
ENDBRANCH   1   2
BRANCH   1  27
ATOM     27  C   UNL A   1      40.093  20.996  25.883  1.00  0.00     0.188 C 
BRANCH  27  28
ATOM     28  O   UNL A   1      40.502  20.565  27.170  1.00  0.00    -0.376 OA
BRANCH  28  29
ATOM     29  C   UNL A   1      41.902  20.298  27.271  1.00  0.00     0.202 C 
BRANCH  29  30
ATOM     30  C   UNL A   1      42.570  20.895  26.036  1.00  0.00     0.261 C 
BRANCH  30  31
ATOM     31  O   UNL A   1      43.323  22.092  26.336  1.00  0.00    -0.460 OA
BRANCH  31  32
ATOM     32  C   UNL A   1      43.069  23.173  25.566  1.00  0.00     0.338 C 
ATOM     33  O   UNL A   1      43.065  23.211  24.342  1.00  0.00    -0.246 OA
BRANCH  32  34
ATOM     34  C   UNL A   1      42.570  24.272  26.427  1.00  0.00     0.060 A 
ATOM     35  C   UNL A   1      43.217  25.516  26.373  1.00  0.00     0.016 A 
ATOM     36  C   UNL A   1      41.467  24.099  27.265  1.00  0.00     0.016 A 
ATOM     37  C   UNL A   1      42.780  26.579  27.170  1.00  0.00     0.010 A 
ATOM     38  C   UNL A   1      41.044  25.156  28.078  1.00  0.00     0.010 A 
ATOM     39  C   UNL A   1      41.712  26.395  28.056  1.00  0.00    -0.014 A 
BRANCH  39  40
ATOM     40  C   UNL A   1      41.390  27.414  29.090  1.00  0.00     0.031 A 
ATOM     41  C   UNL A   1      42.190  27.413  30.364  1.00  0.00     0.074 A 
ATOM     42  C   UNL A   1      40.400  28.309  28.925  1.00  0.00     0.049 A 
ATOM     43  N   UNL A   1      41.991  28.070  31.477  1.00  0.00    -0.248 NA
ATOM     44  C   UNL A   1      43.377  26.543  30.381  1.00  0.00     0.031 C 
ATOM     45  C   UNL A   1      39.597  28.473  27.717  1.00  0.00     0.029 A 
ATOM     46  N   UNL A   1      39.887  29.238  29.800  1.00  0.00    -0.354 N 
ATOM     47  C   UNL A   1      43.009  27.674  32.335  1.00  0.00     0.074 A 
ATOM     48  C   UNL A   1      43.814  26.707  31.619  1.00  0.00     0.031 C 
ATOM     49  C   UNL A   1      38.674  29.427  27.934  1.00  0.00     0.029 A 
ATOM     50  C   UNL A   1      38.787  29.901  29.314  1.00  0.00     0.049 A 
ATOM     51  H   UNL A   1      40.273  29.412  30.689  1.00  0.00     0.167 HD
ATOM     52  C   UNL A   1      43.249  28.078  33.605  1.00  0.00     0.037 A 
ATOM     53  C   UNL A   1      37.943  30.756  29.926  1.00  0.00     0.037 A 
ATOM     54  C   UNL A   1      42.449  29.042  34.313  1.00  0.00     0.049 A 
ATOM     55  C   UNL A   1      38.168  31.116  31.377  1.00  0.00     0.074 A 
ATOM     56  C   UNL A   1      42.616  29.523  35.599  1.00  0.00     0.029 A 
ATOM     57  N   UNL A   1      41.323  29.667  33.795  1.00  0.00    -0.354 N 
ATOM     58  N   UNL A   1      39.126  30.735  32.187  1.00  0.00    -0.248 NA
ATOM     59  C   UNL A   1      37.187  32.019  31.999  1.00  0.00     0.031 C 
ATOM     60  C   UNL A   1      41.555  30.389  35.883  1.00  0.00     0.029 A 
ATOM     61  C   UNL A   1      40.769  30.506  34.748  1.00  0.00     0.049 A 
ATOM     62  H   UNL A   1      40.971  29.534  32.886  1.00  0.00     0.167 HD
ATOM     63  C   UNL A   1      38.887  31.381  33.395  1.00  0.00     0.074 A 
ATOM     64  C   UNL A   1      37.696  32.181  33.213  1.00  0.00     0.031 C 
ATOM     65  C   UNL A   1      39.596  31.319  34.550  1.00  0.00     0.037 A 
BRANCH  52  66
ATOM     66  C   UNL A   1      44.401  27.445  34.331  1.00  0.00     0.064 A 
ATOM     67  C   UNL A   1      45.667  28.045  34.381  1.00  0.00     0.173 A 
ATOM     68  C   UNL A   1      44.223  26.231  35.013  1.00  0.00     0.173 A 
ATOM     69  F   UNL A   1      45.895  29.199  33.735  1.00  0.00    -0.203 F 
ATOM     70  C   UNL A   1      46.721  27.439  35.062  1.00  0.00     0.198 A 
ATOM     71  C   UNL A   1      45.268  25.645  35.721  1.00  0.00     0.198 A 
ATOM     72  F   UNL A   1      43.031  25.615  35.000  1.00  0.00    -0.203 F 
ATOM     73  F   UNL A   1      47.937  28.003  35.052  1.00  0.00    -0.200 F 
ATOM     74  C   UNL A   1      46.518  26.245  35.738  1.00  0.00     0.200 A 
ATOM     75  F   UNL A   1      45.066  24.499  36.387  1.00  0.00    -0.200 F 
ATOM     76  F   UNL A   1      47.531  25.667  36.399  1.00  0.00    -0.200 F 
ENDBRANCH  52  66
BRANCH  53  77
ATOM     77  C   UNL A   1      36.774  31.310  29.189  1.00  0.00     0.064 A 
ATOM     78  C   UNL A   1      36.735  32.656  28.799  1.00  0.00     0.173 A 
ATOM     79  C   UNL A   1      35.655  30.517  28.892  1.00  0.00     0.173 A 
ATOM     80  F   UNL A   1      37.765  33.466  29.089  1.00  0.00    -0.203 F 
ATOM     81  C   UNL A   1      35.618  33.192  28.160  1.00  0.00     0.198 A 
ATOM     82  C   UNL A   1      34.552  31.043  28.223  1.00  0.00     0.198 A 
ATOM     83  F   UNL A   1      35.633  29.224  29.251  1.00  0.00    -0.203 F 
ATOM     84  F   UNL A   1      35.585  34.495  27.852  1.00  0.00    -0.200 F 
ATOM     85  C   UNL A   1      34.531  32.384  27.867  1.00  0.00     0.200 A 
ATOM     86  F   UNL A   1      33.507  30.256  27.934  1.00  0.00    -0.200 F 
ATOM     87  F   UNL A   1      33.456  32.898  27.253  1.00  0.00    -0.200 F 
ENDBRANCH  53  77
BRANCH  65  88
ATOM     88  C   UNL A   1      39.152  32.184  35.697  1.00  0.00     0.064 A 
ATOM     89  C   UNL A   1      38.296  31.707  36.700  1.00  0.00     0.173 A 
ATOM     90  C   UNL A   1      39.655  33.488  35.830  1.00  0.00     0.173 A 
ATOM     91  F   UNL A   1      37.776  30.474  36.615  1.00  0.00    -0.203 F 
ATOM     92  C   UNL A   1      37.947  32.510  37.785  1.00  0.00     0.198 A 
ATOM     93  C   UNL A   1      39.332  34.275  36.933  1.00  0.00     0.198 A 
ATOM     94  F   UNL A   1      40.485  33.990  34.904  1.00  0.00    -0.203 F 
ATOM     95  F   UNL A   1      37.097  32.047  38.712  1.00  0.00    -0.200 F 
ATOM     96  C   UNL A   1      38.475  33.787  37.906  1.00  0.00     0.200 A 
ATOM     97  F   UNL A   1      39.859  35.501  37.057  1.00  0.00    -0.200 F 
ATOM     98  F   UNL A   1      38.154  34.549  38.961  1.00  0.00    -0.200 F 
ENDBRANCH  65  88
ENDBRANCH  39  40
ENDBRANCH  32  34
ENDBRANCH  31  32
ENDBRANCH  30  31
ENDBRANCH  29  30
ENDBRANCH  28  29
ENDBRANCH  27  28
ENDBRANCH   1  27
TORSDOF 20
ENDMDL
MODEL 2
REMARK VINA RESULT:     -11.4      3.445      8.948
REMARK SMILES COc1cccc(NC(=O)[C@@H]2[C@@H](C(=O)OCCOCCOCCOC(=O)c3ccc(-c4c5nc(c(-c6c(F)c(F)c(F)c(F)c6F)c6ccc([nH]6)c(-c6c(F)c(F)c(F)c(F)c6F)c6nc(c(-c7c(F)c(F)c(F)c(F)c7F)c7ccc4[nH]7)C=C6)C=C5)cc3)[C@H]3C=C[C@@H]2C3)c1
REMARK SMILES IDX 19 1 18 2 17 3 16 4 15 5 13 6 14 7 12 8 11 9 93 10 90 11
REMARK SMILES IDX 92 12 94 13 91 14 9 15 8 16 10 18 7 19 3 20 4 21 95 22 5 23
REMARK SMILES IDX 6 24 2 25 1 26 20 27 21 28 22 29 23 30 24 31 25 32 26 33
REMARK SMILES IDX 27 34 28 35 89 36 29 37 88 38 30 39 31 40 32 41 82 42 33 43
REMARK SMILES IDX 87 44 81 45 83 46 34 47 86 48 80 49 79 50 35 52 67 53 47 54
REMARK SMILES IDX 66 55 48 56 51 57 65 58 84 59 49 60 50 61 64 63 85 64 52 65
REMARK SMILES IDX 36 66 37 67 45 68 38 69 39 70 43 71 46 72 40 73 41 74 44 75
REMARK SMILES IDX 42 76 68 77 69 78 77 79 70 80 71 81 75 82 78 83 72 84 73 85
REMARK SMILES IDX 76 86 74 87 53 88 54 89 62 90 55 91 56 92 60 93 63 94 57 95
REMARK SMILES IDX 58 96 61 97 59 98
REMARK H PARENT 8 17 83 51 51 62
REMARK Flexibility Score: inf
ROOT
ATOM      1  C   UNL A   1      33.857  32.953  28.042  1.00  0.00     0.188 C 
ENDROOT
BRANCH   1   2
ATOM      2  O   UNL A   1      34.466  31.738  28.455  1.00  0.00    -0.376 OA
BRANCH   2   3
ATOM      3  C   UNL A   1      34.687  30.719  27.489  1.00  0.00     0.202 C 
BRANCH   3   4
ATOM      4  C   UNL A   1      33.846  29.433  27.622  1.00  0.00     0.261 C 
BRANCH   4   5
ATOM      5  O   UNL A   1      32.491  29.455  27.082  1.00  0.00    -0.463 OA
BRANCH   5   6
ATOM      6  C   UNL A   1      31.780  28.300  27.180  1.00  0.00     0.310 C 
ATOM      7  O   UNL A   1      31.421  27.824  28.255  1.00  0.00    -0.252 OA
BRANCH   6   8
ATOM      8  C   UNL A   1      31.368  27.624  25.867  1.00  0.00     0.119 C 
ATOM      9  C   UNL A   1      31.791  26.141  25.578  1.00  0.00     0.100 C 
ATOM     10  C   UNL A   1      32.279  26.246  24.136  1.00  0.00     0.025 C 
ATOM     11  C   UNL A   1      31.741  28.374  24.550  1.00  0.00     0.027 C 
ATOM     12  C   UNL A   1      33.551  27.029  24.040  1.00  0.00    -0.027 C 
ATOM     13  C   UNL A   1      31.320  27.311  23.546  1.00  0.00     0.017 C 
ATOM     14  C   UNL A   1      33.198  28.306  24.179  1.00  0.00    -0.027 C 
BRANCH   9  15
ATOM     15  C   UNL A   1      30.627  25.140  25.813  1.00  0.00     0.228 C 
ATOM     16  N   UNL A   1      30.484  23.864  25.330  1.00  0.00    -0.326 N 
ATOM     17  H   UNL A   1      29.561  23.535  25.431  1.00  0.00     0.169 HD
ATOM     18  O   UNL A   1      29.617  25.596  26.377  1.00  0.00    -0.274 OA
BRANCH  16  19
ATOM     19  C   UNL A   1      31.322  22.904  24.723  1.00  0.00     0.044 A 
ATOM     20  C   UNL A   1      32.470  20.776  24.947  1.00  0.00     0.120 A 
ATOM     21  C   UNL A   1      32.527  20.655  23.562  1.00  0.00     0.046 A 
ATOM     22  C   UNL A   1      31.858  21.893  25.533  1.00  0.00     0.072 A 
ATOM     23  C   UNL A   1      32.154  21.732  22.769  1.00  0.00     0.006 A 
ATOM     24  C   UNL A   1      31.633  22.884  23.365  1.00  0.00     0.026 A 
BRANCH  20  25
ATOM     25  O   UNL A   1      32.955  19.709  25.650  1.00  0.00    -0.497 OA
ATOM     26  C   UNL A   1      32.529  18.437  25.167  1.00  0.00     0.278 C 
ENDBRANCH  20  25
ENDBRANCH  16  19
ENDBRANCH   9  15
ENDBRANCH   6   8
ENDBRANCH   5   6
ENDBRANCH   4   5
ENDBRANCH   3   4
ENDBRANCH   2   3
ENDBRANCH   1   2
BRANCH   1  27
ATOM     27  C   UNL A   1      34.025  34.175  28.931  1.00  0.00     0.188 C 
BRANCH  27  28
ATOM     28  O   UNL A   1      34.256  35.379  28.219  1.00  0.00    -0.376 OA
BRANCH  28  29
ATOM     29  C   UNL A   1      33.557  36.506  28.749  1.00  0.00     0.202 C 
BRANCH  29  30
ATOM     30  C   UNL A   1      32.588  35.986  29.807  1.00  0.00     0.261 C 
BRANCH  30  31
ATOM     31  O   UNL A   1      32.524  36.841  30.970  1.00  0.00    -0.460 OA
BRANCH  31  32
ATOM     32  C   UNL A   1      32.414  36.223  32.167  1.00  0.00     0.338 C 
ATOM     33  O   UNL A   1      31.445  36.251  32.915  1.00  0.00    -0.246 OA
BRANCH  32  34
ATOM     34  C   UNL A   1      33.570  35.311  32.347  1.00  0.00     0.060 A 
ATOM     35  C   UNL A   1      33.328  33.992  32.760  1.00  0.00     0.016 A 
ATOM     36  C   UNL A   1      34.877  35.732  32.097  1.00  0.00     0.016 A 
ATOM     37  C   UNL A   1      34.389  33.099  32.944  1.00  0.00     0.010 A 
ATOM     38  C   UNL A   1      35.940  34.845  32.303  1.00  0.00     0.010 A 
ATOM     39  C   UNL A   1      35.707  33.531  32.752  1.00  0.00    -0.014 A 
BRANCH  39  40
ATOM     40  C   UNL A   1      36.857  32.694  33.182  1.00  0.00     0.031 A 
ATOM     41  C   UNL A   1      37.500  32.995  34.508  1.00  0.00     0.074 A 
ATOM     42  C   UNL A   1      37.344  31.704  32.414  1.00  0.00     0.049 A 
ATOM     43  N   UNL A   1      38.614  32.536  35.021  1.00  0.00    -0.248 NA
ATOM     44  C   UNL A   1      36.787  33.950  35.370  1.00  0.00     0.031 C 
ATOM     45  C   UNL A   1      36.777  31.255  31.146  1.00  0.00     0.029 A 
ATOM     46  N   UNL A   1      38.454  30.909  32.586  1.00  0.00    -0.354 N 
ATOM     47  C   UNL A   1      38.748  33.167  36.251  1.00  0.00     0.074 A 
ATOM     48  C   UNL A   1      37.612  34.052  36.401  1.00  0.00     0.031 C 
ATOM     49  C   UNL A   1      37.555  30.282  30.640  1.00  0.00     0.029 A 
ATOM     50  C   UNL A   1      38.705  30.078  31.522  1.00  0.00     0.049 A 
ATOM     51  H   UNL A   1      39.014  30.933  33.396  1.00  0.00     0.167 HD
ATOM     52  C   UNL A   1      39.730  33.023  37.172  1.00  0.00     0.037 A 
ATOM     53  C   UNL A   1      39.763  29.280  31.268  1.00  0.00     0.037 A 
ATOM     54  C   UNL A   1      40.856  32.139  37.023  1.00  0.00     0.049 A 
ATOM     55  C   UNL A   1      40.899  29.211  32.262  1.00  0.00     0.074 A 
ATOM     56  C   UNL A   1      41.900  31.916  37.903  1.00  0.00     0.029 A 
ATOM     57  N   UNL A   1      41.090  31.337  35.915  1.00  0.00    -0.354 N 
ATOM     58  N   UNL A   1      41.027  29.812  33.420  1.00  0.00    -0.248 NA
ATOM     59  C   UNL A   1      42.043  28.356  31.906  1.00  0.00     0.031 C 
ATOM     60  C   UNL A   1      42.798  31.030  37.301  1.00  0.00     0.029 A 
ATOM     61  C   UNL A   1      42.277  30.642  36.077  1.00  0.00     0.049 A 
ATOM     62  H   UNL A   1      40.499  31.272  35.130  1.00  0.00     0.167 HD
ATOM     63  C   UNL A   1      42.240  29.379  33.946  1.00  0.00     0.074 A 
ATOM     64  C   UNL A   1      42.809  28.461  32.984  1.00  0.00     0.031 C 
ATOM     65  C   UNL A   1      42.825  29.710  35.124  1.00  0.00     0.037 A 
BRANCH  52  66
ATOM     66  C   UNL A   1      39.656  33.872  38.408  1.00  0.00     0.064 A 
ATOM     67  C   UNL A   1      40.321  35.102  38.506  1.00  0.00     0.173 A 
ATOM     68  C   UNL A   1      38.879  33.459  39.502  1.00  0.00     0.173 A 
ATOM     69  F   UNL A   1      41.088  35.539  37.494  1.00  0.00    -0.203 F 
ATOM     70  C   UNL A   1      40.237  35.874  39.663  1.00  0.00     0.198 A 
ATOM     71  C   UNL A   1      38.769  34.248  40.643  1.00  0.00     0.198 A 
ATOM     72  F   UNL A   1      38.218  32.292  39.461  1.00  0.00    -0.203 F 
ATOM     73  F   UNL A   1      40.925  37.020  39.754  1.00  0.00    -0.200 F 
ATOM     74  C   UNL A   1      39.455  35.449  40.726  1.00  0.00     0.200 A 
ATOM     75  F   UNL A   1      37.999  33.843  41.664  1.00  0.00    -0.200 F 
ATOM     76  F   UNL A   1      39.368  36.196  41.835  1.00  0.00    -0.200 F 
ENDBRANCH  52  66
BRANCH  53  77
ATOM     77  C   UNL A   1      39.827  28.505  29.999  1.00  0.00     0.064 A 
ATOM     78  C   UNL A   1      39.277  27.218  29.908  1.00  0.00     0.173 A 
ATOM     79  C   UNL A   1      40.472  29.016  28.863  1.00  0.00     0.173 A 
ATOM     80  F   UNL A   1      38.678  26.669  30.976  1.00  0.00    -0.203 F 
ATOM     81  C   UNL A   1      39.386  26.467  28.739  1.00  0.00     0.198 A 
ATOM     82  C   UNL A   1      40.553  28.278  27.684  1.00  0.00     0.198 A 
ATOM     83  F   UNL A   1      41.027  30.237  28.897  1.00  0.00    -0.203 F 
ATOM     84  F   UNL A   1      38.903  25.218  28.700  1.00  0.00    -0.200 F 
ATOM     85  C   UNL A   1      40.018  27.000  27.626  1.00  0.00     0.200 A 
ATOM     86  F   UNL A   1      41.157  28.801  26.608  1.00  0.00    -0.200 F 
ATOM     87  F   UNL A   1      40.124  26.277  26.502  1.00  0.00    -0.200 F 
ENDBRANCH  53  77
BRANCH  65  88
ATOM     88  C   UNL A   1      44.119  29.034  35.483  1.00  0.00     0.064 A 
ATOM     89  C   UNL A   1      44.155  27.811  36.168  1.00  0.00     0.173 A 
ATOM     90  C   UNL A   1      45.340  29.589  35.067  1.00  0.00     0.173 A 
ATOM     91  F   UNL A   1      43.018  27.244  36.598  1.00  0.00    -0.203 F 
ATOM     92  C   UNL A   1      45.366  27.175  36.435  1.00  0.00     0.198 A 
ATOM     93  C   UNL A   1      46.546  28.934  35.307  1.00  0.00     0.198 A 
ATOM     94  F   UNL A   1      45.363  30.753  34.402  1.00  0.00    -0.203 F 
ATOM     95  F   UNL A   1      45.379  26.026  37.124  1.00  0.00    -0.200 F 
ATOM     96  C   UNL A   1      46.558  27.731  35.995  1.00  0.00     0.200 A 
ATOM     97  F   UNL A   1      47.694  29.465  34.864  1.00  0.00    -0.200 F 
ATOM     98  F   UNL A   1      47.720  27.109  36.237  1.00  0.00    -0.200 F 
ENDBRANCH  65  88
ENDBRANCH  39  40
ENDBRANCH  32  34
ENDBRANCH  31  32
ENDBRANCH  30  31
ENDBRANCH  29  30
ENDBRANCH  28  29
ENDBRANCH  27  28
ENDBRANCH   1  27
TORSDOF 20
ENDMDL
MODEL 3
REMARK VINA RESULT:     -11.3      4.932      9.733
REMARK SMILES COc1cccc(NC(=O)[C@@H]2[C@@H](C(=O)OCCOCCOCCOC(=O)c3ccc(-c4c5nc(c(-c6c(F)c(F)c(F)c(F)c6F)c6ccc([nH]6)c(-c6c(F)c(F)c(F)c(F)c6F)c6nc(c(-c7c(F)c(F)c(F)c(F)c7F)c7ccc4[nH]7)C=C6)C=C5)cc3)[C@H]3C=C[C@@H]2C3)c1
REMARK SMILES IDX 19 1 18 2 17 3 16 4 15 5 13 6 14 7 12 8 11 9 93 10 90 11
REMARK SMILES IDX 92 12 94 13 91 14 9 15 8 16 10 18 7 19 3 20 4 21 95 22 5 23
REMARK SMILES IDX 6 24 2 25 1 26 20 27 21 28 22 29 23 30 24 31 25 32 26 33
REMARK SMILES IDX 27 34 28 35 89 36 29 37 88 38 30 39 31 40 32 41 82 42 33 43
REMARK SMILES IDX 87 44 81 45 83 46 34 47 86 48 80 49 79 50 35 52 67 53 47 54
REMARK SMILES IDX 66 55 48 56 51 57 65 58 84 59 49 60 50 61 64 63 85 64 52 65
REMARK SMILES IDX 36 66 37 67 45 68 38 69 39 70 43 71 46 72 40 73 41 74 44 75
REMARK SMILES IDX 42 76 68 77 69 78 77 79 70 80 71 81 75 82 78 83 72 84 73 85
REMARK SMILES IDX 76 86 74 87 53 88 54 89 62 90 55 91 56 92 60 93 63 94 57 95
REMARK SMILES IDX 58 96 61 97 59 98
REMARK H PARENT 8 17 83 51 51 62
REMARK Flexibility Score: inf
ROOT
ATOM      1  C   UNL A   1      35.960  23.670  25.660  1.00  0.00     0.188 C 
ENDROOT
BRANCH   1   2
ATOM      2  O   UNL A   1      35.078  22.659  26.124  1.00  0.00    -0.376 OA
BRANCH   2   3
ATOM      3  C   UNL A   1      33.931  23.040  26.873  1.00  0.00     0.202 C 
BRANCH   3   4
ATOM      4  C   UNL A   1      32.651  23.362  26.077  1.00  0.00     0.261 C 
BRANCH   4   5
ATOM      5  O   UNL A   1      32.622  24.610  25.322  1.00  0.00    -0.463 OA
BRANCH   5   6
ATOM      6  C   UNL A   1      31.692  25.527  25.701  1.00  0.00     0.310 C 
ATOM      7  O   UNL A   1      30.812  25.287  26.525  1.00  0.00    -0.252 OA
BRANCH   6   8
ATOM      8  C   UNL A   1      31.821  26.934  25.105  1.00  0.00     0.119 C 
ATOM      9  C   UNL A   1      33.062  27.303  24.218  1.00  0.00     0.100 C 
ATOM     10  C   UNL A   1      33.445  28.663  24.792  1.00  0.00     0.025 C 
ATOM     11  C   UNL A   1      31.721  28.128  26.107  1.00  0.00     0.027 C 
ATOM     12  C   UNL A   1      33.994  28.542  26.180  1.00  0.00    -0.027 C 
ATOM     13  C   UNL A   1      32.063  29.263  25.154  1.00  0.00     0.017 C 
ATOM     14  C   UNL A   1      32.939  28.332  26.966  1.00  0.00    -0.027 C 
BRANCH   9  15
ATOM     15  C   UNL A   1      32.725  27.294  22.702  1.00  0.00     0.228 C 
ATOM     16  N   UNL A   1      31.556  27.659  22.082  1.00  0.00    -0.326 N 
ATOM     17  H   UNL A   1      31.520  27.341  21.151  1.00  0.00     0.169 HD
ATOM     18  O   UNL A   1      33.551  26.736  21.960  1.00  0.00    -0.274 OA
BRANCH  16  19
ATOM     19  C   UNL A   1      30.393  28.373  22.441  1.00  0.00     0.044 A 
ATOM     20  C   UNL A   1      29.105  30.417  22.193  1.00  0.00     0.120 A 
ATOM     21  C   UNL A   1      27.953  29.746  22.594  1.00  0.00     0.046 A 
ATOM     22  C   UNL A   1      30.324  29.732  22.103  1.00  0.00     0.072 A 
ATOM     23  C   UNL A   1      28.056  28.454  23.091  1.00  0.00     0.006 A 
ATOM     24  C   UNL A   1      29.297  27.808  23.089  1.00  0.00     0.026 A 
BRANCH  20  25
ATOM     25  O   UNL A   1      28.925  31.719  21.818  1.00  0.00    -0.497 OA
ATOM     26  C   UNL A   1      28.050  31.901  20.708  1.00  0.00     0.278 C 
ENDBRANCH  20  25
ENDBRANCH  16  19
ENDBRANCH   9  15
ENDBRANCH   6   8
ENDBRANCH   5   6
ENDBRANCH   4   5
ENDBRANCH   3   4
ENDBRANCH   2   3
ENDBRANCH   1   2
BRANCH   1  27
ATOM     27  C   UNL A   1      37.015  23.283  24.635  1.00  0.00     0.188 C 
BRANCH  27  28
ATOM     28  O   UNL A   1      37.446  21.935  24.731  1.00  0.00    -0.376 OA
BRANCH  28  29
ATOM     29  C   UNL A   1      38.501  21.733  25.671  1.00  0.00     0.202 C 
BRANCH  29  30
ATOM     30  C   UNL A   1      39.182  20.413  25.316  1.00  0.00     0.261 C 
BRANCH  30  31
ATOM     31  O   UNL A   1      39.981  19.891  26.402  1.00  0.00    -0.460 OA
BRANCH  31  32
ATOM     32  C   UNL A   1      41.303  19.751  26.163  1.00  0.00     0.338 C 
ATOM     33  O   UNL A   1      41.838  18.845  25.537  1.00  0.00    -0.246 OA
BRANCH  32  34
ATOM     34  C   UNL A   1      42.004  20.987  26.586  1.00  0.00     0.060 A 
ATOM     35  C   UNL A   1      42.175  21.229  27.958  1.00  0.00     0.016 A 
ATOM     36  C   UNL A   1      42.510  21.895  25.654  1.00  0.00     0.016 A 
ATOM     37  C   UNL A   1      42.828  22.384  28.401  1.00  0.00     0.010 A 
ATOM     38  C   UNL A   1      43.143  23.061  26.097  1.00  0.00     0.010 A 
ATOM     39  C   UNL A   1      43.285  23.327  27.473  1.00  0.00    -0.014 A 
BRANCH  39  40
ATOM     40  C   UNL A   1      43.748  24.669  27.910  1.00  0.00     0.031 A 
ATOM     41  C   UNL A   1      42.711  25.713  28.225  1.00  0.00     0.074 A 
ATOM     42  C   UNL A   1      45.054  24.976  28.008  1.00  0.00     0.049 A 
ATOM     43  N   UNL A   1      42.855  26.994  28.449  1.00  0.00    -0.248 NA
ATOM     44  C   UNL A   1      41.319  25.241  28.291  1.00  0.00     0.031 C 
ATOM     45  C   UNL A   1      46.161  24.047  27.807  1.00  0.00     0.029 A 
ATOM     46  N   UNL A   1      45.667  26.177  28.281  1.00  0.00    -0.354 N 
ATOM     47  C   UNL A   1      41.572  27.486  28.654  1.00  0.00     0.074 A 
ATOM     48  C   UNL A   1      40.662  26.369  28.512  1.00  0.00     0.031 C 
ATOM     49  C   UNL A   1      47.321  24.716  27.938  1.00  0.00     0.029 A 
ATOM     50  C   UNL A   1      47.035  26.132  28.177  1.00  0.00     0.049 A 
ATOM     51  H   UNL A   1      45.171  26.992  28.528  1.00  0.00     0.167 HD
ATOM     52  C   UNL A   1      41.188  28.753  28.934  1.00  0.00     0.037 A 
ATOM     53  C   UNL A   1      47.948  27.123  28.224  1.00  0.00     0.037 A 
ATOM     54  C   UNL A   1      42.095  29.861  29.079  1.00  0.00     0.049 A 
ATOM     55  C   UNL A   1      47.490  28.548  28.434  1.00  0.00     0.074 A 
ATOM     56  C   UNL A   1      41.804  31.182  29.370  1.00  0.00     0.029 A 
ATOM     57  N   UNL A   1      43.473  29.778  28.935  1.00  0.00    -0.354 N 
ATOM     58  N   UNL A   1      46.277  29.011  28.621  1.00  0.00    -0.248 NA
ATOM     59  C   UNL A   1      48.530  29.589  28.432  1.00  0.00     0.031 C 
ATOM     60  C   UNL A   1      42.997  31.910  29.338  1.00  0.00     0.029 A 
ATOM     61  C   UNL A   1      44.041  31.031  29.101  1.00  0.00     0.049 A 
ATOM     62  H   UNL A   1      43.972  28.952  28.743  1.00  0.00     0.167 HD
ATOM     63  C   UNL A   1      46.413  30.384  28.798  1.00  0.00     0.074 A 
ATOM     64  C   UNL A   1      47.825  30.680  28.700  1.00  0.00     0.031 C 
ATOM     65  C   UNL A   1      45.452  31.313  29.027  1.00  0.00     0.037 A 
BRANCH  52  66
ATOM     66  C   UNL A   1      39.716  29.023  29.059  1.00  0.00     0.064 A 
ATOM     67  C   UNL A   1      38.919  29.330  27.947  1.00  0.00     0.173 A 
ATOM     68  C   UNL A   1      39.088  28.942  30.313  1.00  0.00     0.173 A 
ATOM     69  F   UNL A   1      39.471  29.434  26.728  1.00  0.00    -0.203 F 
ATOM     70  C   UNL A   1      37.555  29.576  28.088  1.00  0.00     0.198 A 
ATOM     71  C   UNL A   1      37.719  29.154  30.445  1.00  0.00     0.198 A 
ATOM     72  F   UNL A   1      39.802  28.648  31.410  1.00  0.00    -0.203 F 
ATOM     73  F   UNL A   1      36.824  29.921  27.019  1.00  0.00    -0.200 F 
ATOM     74  C   UNL A   1      36.956  29.480  29.335  1.00  0.00     0.200 A 
ATOM     75  F   UNL A   1      37.139  29.044  31.649  1.00  0.00    -0.200 F 
ATOM     76  F   UNL A   1      35.642  29.708  29.468  1.00  0.00    -0.200 F 
ENDBRANCH  52  66
BRANCH  53  77
ATOM     77  C   UNL A   1      49.393  26.821  28.029  1.00  0.00     0.064 A 
ATOM     78  C   UNL A   1      49.953  26.761  26.745  1.00  0.00     0.173 A 
ATOM     79  C   UNL A   1      50.235  26.548  29.117  1.00  0.00     0.173 A 
ATOM     80  F   UNL A   1      49.184  26.981  25.668  1.00  0.00    -0.203 F 
ATOM     81  C   UNL A   1      51.292  26.422  26.556  1.00  0.00     0.198 A 
ATOM     82  C   UNL A   1      51.581  26.241  28.931  1.00  0.00     0.198 A 
ATOM     83  F   UNL A   1      49.749  26.579  30.367  1.00  0.00    -0.203 F 
ATOM     84  F   UNL A   1      51.786  26.315  25.316  1.00  0.00    -0.200 F 
ATOM     85  C   UNL A   1      52.106  26.168  27.649  1.00  0.00     0.200 A 
ATOM     86  F   UNL A   1      52.366  26.005  29.991  1.00  0.00    -0.200 F 
ATOM     87  F   UNL A   1      53.393  25.841  27.469  1.00  0.00    -0.200 F 
ENDBRANCH  53  77
BRANCH  65  88
ATOM     88  C   UNL A   1      45.886  32.735  29.254  1.00  0.00     0.064 A 
ATOM     89  C   UNL A   1      45.978  33.661  28.205  1.00  0.00     0.173 A 
ATOM     90  C   UNL A   1      46.140  33.193  30.557  1.00  0.00     0.173 A 
ATOM     91  F   UNL A   1      45.757  33.273  26.940  1.00  0.00    -0.203 F 
ATOM     92  C   UNL A   1      46.323  34.989  28.450  1.00  0.00     0.198 A 
ATOM     93  C   UNL A   1      46.452  34.528  30.802  1.00  0.00     0.198 A 
ATOM     94  F   UNL A   1      46.058  32.351  31.597  1.00  0.00    -0.203 F 
ATOM     95  F   UNL A   1      46.442  35.848  27.428  1.00  0.00    -0.200 F 
ATOM     96  C   UNL A   1      46.548  35.423  29.748  1.00  0.00     0.200 A 
ATOM     97  F   UNL A   1      46.650  34.948  32.059  1.00  0.00    -0.200 F 
ATOM     98  F   UNL A   1      46.861  36.704  29.984  1.00  0.00    -0.200 F 
ENDBRANCH  65  88
ENDBRANCH  39  40
ENDBRANCH  32  34
ENDBRANCH  31  32
ENDBRANCH  30  31
ENDBRANCH  29  30
ENDBRANCH  28  29
ENDBRANCH  27  28
ENDBRANCH   1  27
TORSDOF 20
ENDMDL
