MODEL 1
REMARK VINA RESULT:     -10.7      0.000      0.000
REMARK SMILES CCn1cnc(S(=O)(=O)N[C@]2(C(=O)OCCOCCOCCOC(=O)c3ccc(-c4c5nc(c(-c6c(F)c(F)c(F)c(F)c6F)c6ccc([nH]6)c(-c6c(F)c(F)c(F)c(F)c6F)c6nc(c(-c7c(F)c(F)c(F)c(F)c7F)c7ccc4[nH]7)C=C6)C=C5)cc3)CCSC2)c1
REMARK SMILES IDX 18 1 17 2 16 3 15 4 14 5 12 6 13 7 11 8 89 9 92 10 90 11
REMARK SMILES IDX 91 12 10 13 7 15 8 16 9 17 6 18 3 19 4 20 93 21 5 22 2 23
REMARK SMILES IDX 1 24 19 25 20 26 21 27 22 28 23 29 24 30 25 31 26 32 27 33
REMARK SMILES IDX 88 34 28 35 87 36 29 37 30 38 31 39 81 40 32 41 86 42 80 43
REMARK SMILES IDX 82 44 33 45 85 46 79 47 78 48 34 50 66 51 46 52 65 53 47 54
REMARK SMILES IDX 50 55 64 56 83 57 48 58 49 59 63 61 84 62 51 63 35 64 36 65
REMARK SMILES IDX 44 66 37 67 38 68 42 69 45 70 39 71 40 72 43 73 41 74 67 75
REMARK SMILES IDX 68 76 76 77 69 78 70 79 74 80 77 81 71 82 72 83 75 84 73 85
REMARK SMILES IDX 52 86 53 87 61 88 54 89 55 90 59 91 62 92 56 93 57 94 60 95
REMARK SMILES IDX 58 96
REMARK H PARENT 10 14 82 49 50 60
REMARK Flexibility Score: inf
ROOT
ATOM      1  C   UNL A   1      40.335  22.479  27.590  1.00  0.00     0.188 C 
ENDROOT
BRANCH   1   2
ATOM      2  O   UNL A   1      39.418  22.697  26.529  1.00  0.00    -0.376 OA
BRANCH   2   3
ATOM      3  C   UNL A   1      38.999  21.570  25.754  1.00  0.00     0.202 C 
BRANCH   3   4
ATOM      4  C   UNL A   1      37.632  21.618  25.044  1.00  0.00     0.261 C 
BRANCH   4   5
ATOM      5  O   UNL A   1      37.153  22.954  24.751  1.00  0.00    -0.462 OA
BRANCH   5   6
ATOM      6  C   UNL A   1      36.180  23.062  23.819  1.00  0.00     0.328 C 
ATOM      7  O   UNL A   1      36.381  22.965  22.607  1.00  0.00    -0.250 OA
BRANCH   6   8
ATOM      8  C   UNL A   1      34.741  23.335  24.363  1.00  0.00     0.140 C 
ATOM      9  C   UNL A   1      34.621  23.940  25.763  1.00  0.00     0.047 C 
ATOM     10  C   UNL A   1      34.159  24.373  23.389  1.00  0.00     0.105 C 
ATOM     11  C   UNL A   1      33.295  24.666  25.906  1.00  0.00     0.072 C 
ATOM     12  S   UNL A   1      33.028  25.458  24.311  1.00  0.00    -0.159 SA
BRANCH   8  13
ATOM     13  N   UNL A   1      34.129  21.982  24.138  1.00  0.00    -0.191 NA
ATOM     14  H   UNL A   1      34.473  21.709  23.217  1.00  0.00     0.142 HD
BRANCH  13  15
ATOM     15  S   UNL A   1      32.546  21.489  24.131  1.00  0.00     0.260 S 
ATOM     16  O   UNL A   1      31.849  22.162  23.054  1.00  0.00    -0.205 OA
ATOM     17  O   UNL A   1      32.108  21.574  25.502  1.00  0.00    -0.205 OA
BRANCH  15  18
ATOM     18  C   UNL A   1      32.529  19.789  23.770  1.00  0.00     0.188 A 
ATOM     19  N   UNL A   1      33.198  17.722  23.813  1.00  0.00    -0.336 N 
ATOM     20  C   UNL A   1      32.554  17.982  22.632  1.00  0.00     0.201 A 
ATOM     21  C   UNL A   1      33.061  18.824  24.604  1.00  0.00     0.129 A 
ATOM     22  N   UNL A   1      32.156  19.233  22.562  1.00  0.00    -0.224 NA
BRANCH  19  23
ATOM     23  C   UNL A   1      34.046  16.569  24.042  1.00  0.00     0.120 C 
ATOM     24  C   UNL A   1      33.863  15.864  25.378  1.00  0.00     0.027 C 
ENDBRANCH  19  23
ENDBRANCH  15  18
ENDBRANCH  13  15
ENDBRANCH   8  13
ENDBRANCH   6   8
ENDBRANCH   5   6
ENDBRANCH   4   5
ENDBRANCH   3   4
ENDBRANCH   2   3
ENDBRANCH   1   2
BRANCH   1  25
ATOM     25  C   UNL A   1      41.194  21.209  27.546  1.00  0.00     0.188 C 
BRANCH  25  26
ATOM     26  O   UNL A   1      42.572  21.456  27.309  1.00  0.00    -0.376 OA
BRANCH  26  27
ATOM     27  C   UNL A   1      43.164  20.931  26.125  1.00  0.00     0.202 C 
BRANCH  27  28
ATOM     28  C   UNL A   1      43.544  21.970  25.061  1.00  0.00     0.261 C 
BRANCH  28  29
ATOM     29  O   UNL A   1      42.740  23.145  25.104  1.00  0.00    -0.460 OA
BRANCH  29  30
ATOM     30  C   UNL A   1      43.398  24.295  25.362  1.00  0.00     0.338 C 
ATOM     31  O   UNL A   1      44.464  24.650  24.892  1.00  0.00    -0.246 OA
BRANCH  30  32
ATOM     32  C   UNL A   1      42.559  25.114  26.256  1.00  0.00     0.060 A 
ATOM     33  C   UNL A   1      41.542  25.869  25.670  1.00  0.00     0.016 A 
ATOM     34  C   UNL A   1      42.857  25.227  27.625  1.00  0.00     0.016 A 
ATOM     35  C   UNL A   1      40.998  26.910  26.391  1.00  0.00     0.010 A 
ATOM     36  C   UNL A   1      42.312  26.267  28.350  1.00  0.00     0.010 A 
ATOM     37  C   UNL A   1      41.486  27.166  27.679  1.00  0.00    -0.014 A 
BRANCH  37  38
ATOM     38  C   UNL A   1      41.362  28.536  28.144  1.00  0.00     0.031 A 
ATOM     39  C   UNL A   1      42.477  29.468  27.913  1.00  0.00     0.074 A 
ATOM     40  C   UNL A   1      40.273  28.913  28.841  1.00  0.00     0.049 A 
ATOM     41  N   UNL A   1      43.237  30.018  28.803  1.00  0.00    -0.248 NA
ATOM     42  C   UNL A   1      42.791  29.827  26.527  1.00  0.00     0.031 C 
ATOM     43  C   UNL A   1      38.987  28.218  28.965  1.00  0.00     0.029 A 
ATOM     44  N   UNL A   1      40.081  30.063  29.546  1.00  0.00    -0.354 N 
ATOM     45  C   UNL A   1      44.047  30.907  28.110  1.00  0.00     0.074 A 
ATOM     46  C   UNL A   1      43.782  30.702  26.705  1.00  0.00     0.031 C 
ATOM     47  C   UNL A   1      38.090  29.047  29.540  1.00  0.00     0.029 A 
ATOM     48  C   UNL A   1      38.772  30.265  29.941  1.00  0.00     0.049 A 
ATOM     49  H   UNL A   1      40.809  30.691  29.756  1.00  0.00     0.167 HD
ATOM     50  C   UNL A   1      44.767  31.871  28.740  1.00  0.00     0.037 A 
ATOM     51  C   UNL A   1      38.269  31.388  30.499  1.00  0.00     0.037 A 
ATOM     52  C   UNL A   1      44.927  31.626  30.145  1.00  0.00     0.049 A 
ATOM     53  C   UNL A   1      39.390  32.134  31.119  1.00  0.00     0.074 A 
ATOM     54  C   UNL A   1      45.522  30.630  30.893  1.00  0.00     0.029 A 
ATOM     55  N   UNL A   1      44.166  32.345  31.031  1.00  0.00    -0.354 N 
ATOM     56  N   UNL A   1      40.028  31.748  32.189  1.00  0.00    -0.248 NA
ATOM     57  C   UNL A   1      40.059  33.159  30.332  1.00  0.00     0.031 C 
ATOM     58  C   UNL A   1      44.742  30.527  32.081  1.00  0.00     0.029 A 
ATOM     59  C   UNL A   1      43.713  31.464  31.981  1.00  0.00     0.049 A 
ATOM     60  H   UNL A   1      43.979  33.311  30.992  1.00  0.00     0.167 HD
ATOM     61  C   UNL A   1      41.334  32.174  31.994  1.00  0.00     0.074 A 
ATOM     62  C   UNL A   1      41.262  33.140  30.907  1.00  0.00     0.031 C 
ATOM     63  C   UNL A   1      42.385  31.499  32.545  1.00  0.00     0.037 A 
BRANCH  50  64
ATOM     64  C   UNL A   1      45.109  33.180  28.102  1.00  0.00     0.064 A 
ATOM     65  C   UNL A   1      44.115  34.149  27.883  1.00  0.00     0.173 A 
ATOM     66  C   UNL A   1      46.352  33.406  27.477  1.00  0.00     0.173 A 
ATOM     67  F   UNL A   1      42.885  33.990  28.392  1.00  0.00    -0.203 F 
ATOM     68  C   UNL A   1      44.351  35.267  27.079  1.00  0.00     0.198 A 
ATOM     69  C   UNL A   1      46.601  34.545  26.715  1.00  0.00     0.198 A 
ATOM     70  F   UNL A   1      47.325  32.483  27.509  1.00  0.00    -0.203 F 
ATOM     71  F   UNL A   1      43.357  36.126  26.824  1.00  0.00    -0.200 F 
ATOM     72  C   UNL A   1      45.595  35.466  26.502  1.00  0.00     0.200 A 
ATOM     73  F   UNL A   1      47.800  34.709  26.142  1.00  0.00    -0.200 F 
ATOM     74  F   UNL A   1      45.811  36.520  25.703  1.00  0.00    -0.200 F 
ENDBRANCH  50  64
BRANCH  51  75
ATOM     75  C   UNL A   1      36.924  31.962  30.285  1.00  0.00     0.064 A 
ATOM     76  C   UNL A   1      36.012  32.093  31.342  1.00  0.00     0.173 A 
ATOM     77  C   UNL A   1      36.595  32.623  29.083  1.00  0.00     0.173 A 
ATOM     78  F   UNL A   1      36.276  31.538  32.534  1.00  0.00    -0.203 F 
ATOM     79  C   UNL A   1      34.847  32.853  31.208  1.00  0.00     0.198 A 
ATOM     80  C   UNL A   1      35.425  33.367  28.946  1.00  0.00     0.198 A 
ATOM     81  F   UNL A   1      37.445  32.637  28.046  1.00  0.00    -0.203 F 
ATOM     82  F   UNL A   1      34.027  33.006  32.257  1.00  0.00    -0.200 F 
ATOM     83  C   UNL A   1      34.557  33.492  30.013  1.00  0.00     0.200 A 
ATOM     84  F   UNL A   1      35.176  34.007  27.795  1.00  0.00    -0.200 F 
ATOM     85  F   UNL A   1      33.464  34.260  29.901  1.00  0.00    -0.200 F 
ENDBRANCH  51  75
BRANCH  63  86
ATOM     86  C   UNL A   1      42.070  30.494  33.614  1.00  0.00     0.064 A 
ATOM     87  C   UNL A   1      41.680  29.173  33.337  1.00  0.00     0.173 A 
ATOM     88  C   UNL A   1      42.285  30.840  34.955  1.00  0.00     0.173 A 
ATOM     89  F   UNL A   1      41.557  28.744  32.073  1.00  0.00    -0.203 F 
ATOM     90  C   UNL A   1      41.460  28.257  34.364  1.00  0.00     0.198 A 
ATOM     91  C   UNL A   1      42.096  29.913  35.977  1.00  0.00     0.198 A 
ATOM     92  F   UNL A   1      42.719  32.071  35.271  1.00  0.00    -0.203 F 
ATOM     93  F   UNL A   1      41.071  27.006  34.076  1.00  0.00    -0.200 F 
ATOM     94  C   UNL A   1      41.672  28.626  35.682  1.00  0.00     0.200 A 
ATOM     95  F   UNL A   1      42.347  30.259  37.247  1.00  0.00    -0.200 F 
ATOM     96  F   UNL A   1      41.491  27.735  36.668  1.00  0.00    -0.200 F 
ENDBRANCH  63  86
ENDBRANCH  37  38
ENDBRANCH  30  32
ENDBRANCH  29  30
ENDBRANCH  28  29
ENDBRANCH  27  28
ENDBRANCH  26  27
ENDBRANCH  25  26
ENDBRANCH   1  25
TORSDOF 21
ENDMDL
MODEL 2
REMARK VINA RESULT:     -10.6      1.743      2.930
REMARK SMILES CCn1cnc(S(=O)(=O)N[C@]2(C(=O)OCCOCCOCCOC(=O)c3ccc(-c4c5nc(c(-c6c(F)c(F)c(F)c(F)c6F)c6ccc([nH]6)c(-c6c(F)c(F)c(F)c(F)c6F)c6nc(c(-c7c(F)c(F)c(F)c(F)c7F)c7ccc4[nH]7)C=C6)C=C5)cc3)CCSC2)c1
REMARK SMILES IDX 18 1 17 2 16 3 15 4 14 5 12 6 13 7 11 8 89 9 92 10 90 11
REMARK SMILES IDX 91 12 10 13 7 15 8 16 9 17 6 18 3 19 4 20 93 21 5 22 2 23
REMARK SMILES IDX 1 24 19 25 20 26 21 27 22 28 23 29 24 30 25 31 26 32 27 33
REMARK SMILES IDX 88 34 28 35 87 36 29 37 30 38 31 39 81 40 32 41 86 42 80 43
REMARK SMILES IDX 82 44 33 45 85 46 79 47 78 48 34 50 66 51 46 52 65 53 47 54
REMARK SMILES IDX 50 55 64 56 83 57 48 58 49 59 63 61 84 62 51 63 35 64 36 65
REMARK SMILES IDX 44 66 37 67 38 68 42 69 45 70 39 71 40 72 43 73 41 74 67 75
REMARK SMILES IDX 68 76 76 77 69 78 70 79 74 80 77 81 71 82 72 83 75 84 73 85
REMARK SMILES IDX 52 86 53 87 61 88 54 89 55 90 59 91 62 92 56 93 57 94 60 95
REMARK SMILES IDX 58 96
REMARK H PARENT 10 14 82 49 50 60
REMARK Flexibility Score: inf
ROOT
ATOM      1  C   UNL A   1      40.446  20.794  26.856  1.00  0.00     0.188 C 
ENDROOT
BRANCH   1   2
ATOM      2  O   UNL A   1      39.781  21.718  26.009  1.00  0.00    -0.376 OA
BRANCH   2   3
ATOM      3  C   UNL A   1      38.441  21.423  25.605  1.00  0.00     0.202 C 
BRANCH   3   4
ATOM      4  C   UNL A   1      37.372  22.530  25.697  1.00  0.00     0.261 C 
BRANCH   4   5
ATOM      5  O   UNL A   1      36.101  22.188  25.090  1.00  0.00    -0.462 OA
BRANCH   5   6
ATOM      6  C   UNL A   1      34.993  22.408  25.833  1.00  0.00     0.328 C 
ATOM      7  O   UNL A   1      34.701  21.751  26.835  1.00  0.00    -0.250 OA
BRANCH   6   8
ATOM      8  C   UNL A   1      34.059  23.560  25.343  1.00  0.00     0.140 C 
ATOM      9  C   UNL A   1      34.692  24.936  25.130  1.00  0.00     0.047 C 
ATOM     10  C   UNL A   1      33.567  23.090  23.964  1.00  0.00     0.105 C 
ATOM     11  C   UNL A   1      33.867  25.744  24.143  1.00  0.00     0.072 C 
ATOM     12  S   UNL A   1      33.326  24.551  22.908  1.00  0.00    -0.159 SA
BRANCH   8  13
ATOM     13  N   UNL A   1      32.970  23.451  26.371  1.00  0.00    -0.191 NA
ATOM     14  H   UNL A   1      33.080  22.508  26.745  1.00  0.00     0.142 HD
BRANCH  13  15
ATOM     15  S   UNL A   1      31.327  23.634  26.242  1.00  0.00     0.260 S 
ATOM     16  O   UNL A   1      30.709  23.229  27.488  1.00  0.00    -0.205 OA
ATOM     17  O   UNL A   1      30.969  23.041  24.977  1.00  0.00    -0.205 OA
BRANCH  15  18
ATOM     18  C   UNL A   1      31.004  25.330  26.037  1.00  0.00     0.188 A 
ATOM     19  N   UNL A   1      30.626  27.186  24.972  1.00  0.00    -0.336 N 
ATOM     20  C   UNL A   1      31.257  27.447  26.161  1.00  0.00     0.201 A 
ATOM     21  C   UNL A   1      30.331  25.855  24.951  1.00  0.00     0.129 A 
ATOM     22  N   UNL A   1      31.523  26.342  26.821  1.00  0.00    -0.224 NA
BRANCH  19  23
ATOM     23  C   UNL A   1      30.522  28.133  23.880  1.00  0.00     0.120 C 
ATOM     24  C   UNL A   1      29.205  28.124  23.115  1.00  0.00     0.027 C 
ENDBRANCH  19  23
ENDBRANCH  15  18
ENDBRANCH  13  15
ENDBRANCH   8  13
ENDBRANCH   6   8
ENDBRANCH   5   6
ENDBRANCH   4   5
ENDBRANCH   3   4
ENDBRANCH   2   3
ENDBRANCH   1   2
BRANCH   1  25
ATOM     25  C   UNL A   1      41.144  19.594  26.201  1.00  0.00     0.188 C 
BRANCH  25  26
ATOM     26  O   UNL A   1      42.213  19.953  25.340  1.00  0.00    -0.376 OA
BRANCH  26  27
ATOM     27  C   UNL A   1      43.398  20.496  25.913  1.00  0.00     0.202 C 
BRANCH  27  28
ATOM     28  C   UNL A   1      43.799  21.889  25.406  1.00  0.00     0.261 C 
BRANCH  28  29
ATOM     29  O   UNL A   1      42.801  22.880  25.624  1.00  0.00    -0.460 OA
BRANCH  29  30
ATOM     30  C   UNL A   1      43.201  24.159  25.468  1.00  0.00     0.338 C 
ATOM     31  O   UNL A   1      44.033  24.575  24.682  1.00  0.00    -0.246 OA
BRANCH  30  32
ATOM     32  C   UNL A   1      42.390  25.008  26.359  1.00  0.00     0.060 A 
ATOM     33  C   UNL A   1      41.407  25.804  25.769  1.00  0.00     0.016 A 
ATOM     34  C   UNL A   1      42.683  25.105  27.731  1.00  0.00     0.016 A 
ATOM     35  C   UNL A   1      40.899  26.863  26.490  1.00  0.00     0.010 A 
ATOM     36  C   UNL A   1      42.174  26.164  28.455  1.00  0.00     0.010 A 
ATOM     37  C   UNL A   1      41.389  27.096  27.782  1.00  0.00    -0.014 A 
BRANCH  37  38
ATOM     38  C   UNL A   1      41.315  28.469  28.250  1.00  0.00     0.031 A 
ATOM     39  C   UNL A   1      42.452  29.367  27.996  1.00  0.00     0.074 A 
ATOM     40  C   UNL A   1      40.252  28.877  28.970  1.00  0.00     0.049 A 
ATOM     41  N   UNL A   1      43.247  29.894  28.870  1.00  0.00    -0.248 NA
ATOM     42  C   UNL A   1      42.747  29.719  26.604  1.00  0.00     0.031 C 
ATOM     43  C   UNL A   1      38.949  28.221  29.121  1.00  0.00     0.029 A 
ATOM     44  N   UNL A   1      40.110  30.031  29.680  1.00  0.00    -0.354 N 
ATOM     45  C   UNL A   1      44.067  30.759  28.161  1.00  0.00     0.074 A 
ATOM     46  C   UNL A   1      43.767  30.564  26.761  1.00  0.00     0.031 C 
ATOM     47  C   UNL A   1      38.089  29.075  29.716  1.00  0.00     0.029 A 
ATOM     48  C   UNL A   1      38.816  30.272  30.102  1.00  0.00     0.049 A 
ATOM     49  H   UNL A   1      40.860  30.637  29.875  1.00  0.00     0.167 HD
ATOM     50  C   UNL A   1      44.829  31.701  28.775  1.00  0.00     0.037 A 
ATOM     51  C   UNL A   1      38.358  31.409  30.671  1.00  0.00     0.037 A 
ATOM     52  C   UNL A   1      45.011  31.450  30.177  1.00  0.00     0.049 A 
ATOM     53  C   UNL A   1      39.514  32.120  31.269  1.00  0.00     0.074 A 
ATOM     54  C   UNL A   1      45.593  30.435  30.911  1.00  0.00     0.029 A 
ATOM     55  N   UNL A   1      44.291  32.190  31.079  1.00  0.00    -0.354 N 
ATOM     56  N   UNL A   1      40.163  31.714  32.324  1.00  0.00    -0.248 NA
ATOM     57  C   UNL A   1      40.196  33.126  30.467  1.00  0.00     0.031 C 
ATOM     58  C   UNL A   1      44.835  30.354  32.116  1.00  0.00     0.029 A 
ATOM     59  C   UNL A   1      43.833  31.321  32.038  1.00  0.00     0.049 A 
ATOM     60  H   UNL A   1      44.132  33.161  31.045  1.00  0.00     0.167 HD
ATOM     61  C   UNL A   1      41.476  32.101  32.102  1.00  0.00     0.074 A 
ATOM     62  C   UNL A   1      41.410  33.070  31.017  1.00  0.00     0.031 C 
ATOM     63  C   UNL A   1      42.518  31.395  32.629  1.00  0.00     0.037 A 
BRANCH  50  64
ATOM     64  C   UNL A   1      45.196  33.000  28.131  1.00  0.00     0.064 A 
ATOM     65  C   UNL A   1      44.226  33.996  27.929  1.00  0.00     0.173 A 
ATOM     66  C   UNL A   1      46.434  33.191  27.485  1.00  0.00     0.173 A 
ATOM     67  F   UNL A   1      43.000  33.871  28.459  1.00  0.00    -0.203 F 
ATOM     68  C   UNL A   1      44.479  35.107  27.120  1.00  0.00     0.198 A 
ATOM     69  C   UNL A   1      46.701  34.323  26.719  1.00  0.00     0.198 A 
ATOM     70  F   UNL A   1      47.382  32.242  27.500  1.00  0.00    -0.203 F 
ATOM     71  F   UNL A   1      43.504  35.993  26.882  1.00  0.00    -0.200 F 
ATOM     72  C   UNL A   1      45.718  35.272  26.522  1.00  0.00     0.200 A 
ATOM     73  F   UNL A   1      47.895  34.453  26.124  1.00  0.00    -0.200 F 
ATOM     74  F   UNL A   1      45.949  36.319  25.719  1.00  0.00    -0.200 F 
ENDBRANCH  50  64
BRANCH  51  75
ATOM     75  C   UNL A   1      37.027  32.022  30.486  1.00  0.00     0.064 A 
ATOM     76  C   UNL A   1      36.055  31.972  31.496  1.00  0.00     0.173 A 
ATOM     77  C   UNL A   1      36.766  32.889  29.404  1.00  0.00     0.173 A 
ATOM     78  F   UNL A   1      36.251  31.212  32.584  1.00  0.00    -0.203 F 
ATOM     79  C   UNL A   1      34.898  32.752  31.433  1.00  0.00     0.198 A 
ATOM     80  C   UNL A   1      35.605  33.655  29.335  1.00  0.00     0.198 A 
ATOM     81  F   UNL A   1      37.674  33.079  28.437  1.00  0.00    -0.203 F 
ATOM     82  F   UNL A   1      34.018  32.724  32.444  1.00  0.00    -0.200 F 
ATOM     83  C   UNL A   1      34.676  33.596  30.356  1.00  0.00     0.200 A 
ATOM     84  F   UNL A   1      35.421  34.490  28.304  1.00  0.00    -0.200 F 
ATOM     85  F   UNL A   1      33.590  34.381  30.320  1.00  0.00    -0.200 F 
ENDBRANCH  51  75
BRANCH  63  86
ATOM     86  C   UNL A   1      42.196  30.399  33.705  1.00  0.00     0.064 A 
ATOM     87  C   UNL A   1      41.746  29.095  33.436  1.00  0.00     0.173 A 
ATOM     88  C   UNL A   1      42.465  30.731  35.039  1.00  0.00     0.173 A 
ATOM     89  F   UNL A   1      41.569  28.677  32.175  1.00  0.00    -0.203 F 
ATOM     90  C   UNL A   1      41.521  28.184  34.466  1.00  0.00     0.198 A 
ATOM     91  C   UNL A   1      42.271  29.807  36.064  1.00  0.00     0.198 A 
ATOM     92  F   UNL A   1      42.956  31.942  35.347  1.00  0.00    -0.203 F 
ATOM     93  F   UNL A   1      41.075  26.951  34.186  1.00  0.00    -0.200 F 
ATOM     94  C   UNL A   1      41.788  28.539  35.778  1.00  0.00     0.200 A 
ATOM     95  F   UNL A   1      42.573  30.137  37.327  1.00  0.00    -0.200 F 
ATOM     96  F   UNL A   1      41.602  27.652  36.766  1.00  0.00    -0.200 F 
ENDBRANCH  63  86
ENDBRANCH  37  38
ENDBRANCH  30  32
ENDBRANCH  29  30
ENDBRANCH  28  29
ENDBRANCH  27  28
ENDBRANCH  26  27
ENDBRANCH  25  26
ENDBRANCH   1  25
TORSDOF 21
ENDMDL
MODEL 3
REMARK VINA RESULT:     -10.5      2.939      4.632
REMARK SMILES CCn1cnc(S(=O)(=O)N[C@]2(C(=O)OCCOCCOCCOC(=O)c3ccc(-c4c5nc(c(-c6c(F)c(F)c(F)c(F)c6F)c6ccc([nH]6)c(-c6c(F)c(F)c(F)c(F)c6F)c6nc(c(-c7c(F)c(F)c(F)c(F)c7F)c7ccc4[nH]7)C=C6)C=C5)cc3)CCSC2)c1
REMARK SMILES IDX 18 1 17 2 16 3 15 4 14 5 12 6 13 7 11 8 89 9 92 10 90 11
REMARK SMILES IDX 91 12 10 13 7 15 8 16 9 17 6 18 3 19 4 20 93 21 5 22 2 23
REMARK SMILES IDX 1 24 19 25 20 26 21 27 22 28 23 29 24 30 25 31 26 32 27 33
REMARK SMILES IDX 88 34 28 35 87 36 29 37 30 38 31 39 81 40 32 41 86 42 80 43
REMARK SMILES IDX 82 44 33 45 85 46 79 47 78 48 34 50 66 51 46 52 65 53 47 54
REMARK SMILES IDX 50 55 64 56 83 57 48 58 49 59 63 61 84 62 51 63 35 64 36 65
REMARK SMILES IDX 44 66 37 67 38 68 42 69 45 70 39 71 40 72 43 73 41 74 67 75
REMARK SMILES IDX 68 76 76 77 69 78 70 79 74 80 77 81 71 82 72 83 75 84 73 85
REMARK SMILES IDX 52 86 53 87 61 88 54 89 55 90 59 91 62 92 56 93 57 94 60 95
REMARK SMILES IDX 58 96
REMARK H PARENT 10 14 82 49 50 60
REMARK Flexibility Score: inf
ROOT
ATOM      1  C   UNL A   1      36.458  23.704  24.732  1.00  0.00     0.188 C 
ENDROOT
BRANCH   1   2
ATOM      2  O   UNL A   1      35.173  24.232  25.023  1.00  0.00    -0.376 OA
BRANCH   2   3
ATOM      3  C   UNL A   1      34.139  23.322  25.408  1.00  0.00     0.202 C 
BRANCH   3   4
ATOM      4  C   UNL A   1      32.680  23.817  25.436  1.00  0.00     0.261 C 
BRANCH   4   5
ATOM      5  O   UNL A   1      32.435  24.913  26.353  1.00  0.00    -0.462 OA
BRANCH   5   6
ATOM      6  C   UNL A   1      31.410  25.741  26.052  1.00  0.00     0.328 C 
ATOM      7  O   UNL A   1      30.265  25.351  25.810  1.00  0.00    -0.250 OA
BRANCH   6   8
ATOM      8  C   UNL A   1      31.751  27.265  26.013  1.00  0.00     0.140 C 
ATOM      9  C   UNL A   1      31.683  28.036  27.332  1.00  0.00     0.047 C 
ATOM     10  C   UNL A   1      33.218  27.312  25.556  1.00  0.00     0.105 C 
ATOM     11  C   UNL A   1      32.566  29.270  27.263  1.00  0.00     0.072 C 
ATOM     12  S   UNL A   1      34.020  28.746  26.339  1.00  0.00    -0.159 SA
BRANCH   8  13
ATOM     13  N   UNL A   1      30.828  27.697  24.910  1.00  0.00    -0.191 NA
ATOM     14  H   UNL A   1      30.064  27.021  24.952  1.00  0.00     0.142 HD
BRANCH  13  15
ATOM     15  S   UNL A   1      31.090  27.897  23.285  1.00  0.00     0.260 S 
ATOM     16  O   UNL A   1      31.079  26.597  22.643  1.00  0.00    -0.205 OA
ATOM     17  O   UNL A   1      32.213  28.796  23.181  1.00  0.00    -0.205 OA
BRANCH  15  18
ATOM     18  C   UNL A   1      29.747  28.796  22.645  1.00  0.00     0.188 A 
ATOM     19  N   UNL A   1      28.646  30.537  21.954  1.00  0.00    -0.336 N 
ATOM     20  C   UNL A   1      27.781  29.610  22.473  1.00  0.00     0.201 A 
ATOM     21  C   UNL A   1      29.885  29.968  21.926  1.00  0.00     0.129 A 
ATOM     22  N   UNL A   1      28.417  28.552  22.924  1.00  0.00    -0.224 NA
BRANCH  19  23
ATOM     23  C   UNL A   1      28.304  31.924  21.709  1.00  0.00     0.120 C 
ATOM     24  C   UNL A   1      27.883  32.264  20.287  1.00  0.00     0.027 C 
ENDBRANCH  19  23
ENDBRANCH  15  18
ENDBRANCH  13  15
ENDBRANCH   8  13
ENDBRANCH   6   8
ENDBRANCH   5   6
ENDBRANCH   4   5
ENDBRANCH   3   4
ENDBRANCH   2   3
ENDBRANCH   1   2
BRANCH   1  25
ATOM     25  C   UNL A   1      36.536  22.451  23.851  1.00  0.00     0.188 C 
BRANCH  25  26
ATOM     26  O   UNL A   1      37.461  21.479  24.315  1.00  0.00    -0.376 OA
BRANCH  26  27
ATOM     27  C   UNL A   1      37.774  21.446  25.705  1.00  0.00     0.202 C 
BRANCH  27  28
ATOM     28  C   UNL A   1      39.228  21.783  26.061  1.00  0.00     0.261 C 
BRANCH  28  29
ATOM     29  O   UNL A   1      39.372  23.033  26.730  1.00  0.00    -0.460 OA
BRANCH  29  30
ATOM     30  C   UNL A   1      40.416  23.126  27.579  1.00  0.00     0.338 C 
ATOM     31  O   UNL A   1      40.848  22.250  28.307  1.00  0.00    -0.246 OA
BRANCH  30  32
ATOM     32  C   UNL A   1      41.022  24.460  27.420  1.00  0.00     0.060 A 
ATOM     33  C   UNL A   1      41.968  24.854  28.368  1.00  0.00     0.016 A 
ATOM     34  C   UNL A   1      40.568  25.347  26.428  1.00  0.00     0.016 A 
ATOM     35  C   UNL A   1      42.269  26.194  28.478  1.00  0.00     0.010 A 
ATOM     36  C   UNL A   1      40.870  26.689  26.536  1.00  0.00     0.010 A 
ATOM     37  C   UNL A   1      41.615  27.104  27.637  1.00  0.00    -0.014 A 
BRANCH  37  38
ATOM     38  C   UNL A   1      41.480  28.456  28.148  1.00  0.00     0.031 A 
ATOM     39  C   UNL A   1      42.586  29.405  27.945  1.00  0.00     0.074 A 
ATOM     40  C   UNL A   1      40.390  28.799  28.861  1.00  0.00     0.049 A 
ATOM     41  N   UNL A   1      43.344  29.933  28.850  1.00  0.00    -0.248 NA
ATOM     42  C   UNL A   1      42.891  29.814  26.571  1.00  0.00     0.031 C 
ATOM     43  C   UNL A   1      39.111  28.089  28.967  1.00  0.00     0.029 A 
ATOM     44  N   UNL A   1      40.191  29.923  29.606  1.00  0.00    -0.354 N 
ATOM     45  C   UNL A   1      44.143  30.851  28.185  1.00  0.00     0.074 A 
ATOM     46  C   UNL A   1      43.874  30.692  26.775  1.00  0.00     0.031 C 
ATOM     47  C   UNL A   1      38.209  28.890  29.573  1.00  0.00     0.029 A 
ATOM     48  C   UNL A   1      38.881  30.100  30.012  1.00  0.00     0.049 A 
ATOM     49  H   UNL A   1      40.913  30.550  29.834  1.00  0.00     0.167 HD
ATOM     50  C   UNL A   1      44.856  31.801  28.844  1.00  0.00     0.037 A 
ATOM     51  C   UNL A   1      38.370  31.198  30.609  1.00  0.00     0.037 A 
ATOM     52  C   UNL A   1      45.024  31.510  30.239  1.00  0.00     0.049 A 
ATOM     53  C   UNL A   1      39.487  31.933  31.251  1.00  0.00     0.074 A 
ATOM     54  C   UNL A   1      45.632  30.495  30.951  1.00  0.00     0.029 A 
ATOM     55  N   UNL A   1      44.260  32.192  31.152  1.00  0.00    -0.354 N 
ATOM     56  N   UNL A   1      40.133  31.518  32.304  1.00  0.00    -0.248 NA
ATOM     57  C   UNL A   1      40.143  32.991  30.495  1.00  0.00     0.031 C 
ATOM     58  C   UNL A   1      44.857  30.345  32.138  1.00  0.00     0.029 A 
ATOM     59  C   UNL A   1      43.820  31.275  32.073  1.00  0.00     0.049 A 
ATOM     60  H   UNL A   1      44.064  33.157  31.147  1.00  0.00     0.167 HD
ATOM     61  C   UNL A   1      41.434  31.962  32.119  1.00  0.00     0.074 A 
ATOM     62  C   UNL A   1      41.348  32.963  31.065  1.00  0.00     0.031 C 
ATOM     63  C   UNL A   1      42.493  31.278  32.643  1.00  0.00     0.037 A 
BRANCH  50  64
ATOM     64  C   UNL A   1      45.183  33.134  28.249  1.00  0.00     0.064 A 
ATOM     65  C   UNL A   1      44.178  34.095  28.053  1.00  0.00     0.173 A 
ATOM     66  C   UNL A   1      46.428  33.396  27.640  1.00  0.00     0.173 A 
ATOM     67  F   UNL A   1      42.946  33.903  28.549  1.00  0.00    -0.203 F 
ATOM     68  C   UNL A   1      44.403  35.240  27.286  1.00  0.00     0.198 A 
ATOM     69  C   UNL A   1      46.665  34.561  26.916  1.00  0.00     0.198 A 
ATOM     70  F   UNL A   1      47.414  32.487  27.650  1.00  0.00    -0.203 F 
ATOM     71  F   UNL A   1      43.398  36.093  27.050  1.00  0.00    -0.200 F 
ATOM     72  C   UNL A   1      45.648  35.475  26.724  1.00  0.00     0.200 A 
ATOM     73  F   UNL A   1      47.866  34.760  26.356  1.00  0.00    -0.200 F 
ATOM     74  F   UNL A   1      45.854  36.556  25.960  1.00  0.00    -0.200 F 
ENDBRANCH  50  64
BRANCH  51  75
ATOM     75  C   UNL A   1      37.019  31.766  30.420  1.00  0.00     0.064 A 
ATOM     76  C   UNL A   1      36.111  31.855  31.484  1.00  0.00     0.173 A 
ATOM     77  C   UNL A   1      36.679  32.463  29.242  1.00  0.00     0.173 A 
ATOM     78  F   UNL A   1      36.385  31.264  32.656  1.00  0.00    -0.203 F 
ATOM     79  C   UNL A   1      34.938  32.608  31.380  1.00  0.00     0.198 A 
ATOM     80  C   UNL A   1      35.502  33.201  29.134  1.00  0.00     0.198 A 
ATOM     81  F   UNL A   1      37.524  32.519  28.202  1.00  0.00    -0.203 F 
ATOM     82  F   UNL A   1      34.121  32.720  32.437  1.00  0.00    -0.200 F 
ATOM     83  C   UNL A   1      34.637  33.283  30.208  1.00  0.00     0.200 A 
ATOM     84  F   UNL A   1      35.242  33.875  28.005  1.00  0.00    -0.200 F 
ATOM     85  F   UNL A   1      33.537  34.045  30.125  1.00  0.00    -0.200 F 
ENDBRANCH  51  75
BRANCH  63  86
ATOM     86  C   UNL A   1      42.192  30.236  33.679  1.00  0.00     0.064 A 
ATOM     87  C   UNL A   1      41.777  28.931  33.360  1.00  0.00     0.173 A 
ATOM     88  C   UNL A   1      42.444  30.525  35.026  1.00  0.00     0.173 A 
ATOM     89  F   UNL A   1      41.617  28.556  32.083  1.00  0.00    -0.203 F 
ATOM     90  C   UNL A   1      41.571  27.978  34.354  1.00  0.00     0.198 A 
ATOM     91  C   UNL A   1      42.269  29.560  36.015  1.00  0.00     0.198 A 
ATOM     92  F   UNL A   1      42.903  31.736  35.381  1.00  0.00    -0.203 F 
ATOM     93  F   UNL A   1      41.157  26.744  34.027  1.00  0.00    -0.200 F 
ATOM     94  C   UNL A   1      41.821  28.291  35.680  1.00  0.00     0.200 A 
ATOM     95  F   UNL A   1      42.557  29.851  37.291  1.00  0.00    -0.200 F 
ATOM     96  F   UNL A   1      41.653  27.364  36.634  1.00  0.00    -0.200 F 
ENDBRANCH  63  86
ENDBRANCH  37  38
ENDBRANCH  30  32
ENDBRANCH  29  30
ENDBRANCH  28  29
ENDBRANCH  27  28
ENDBRANCH  26  27
ENDBRANCH  25  26
ENDBRANCH   1  25
TORSDOF 21
ENDMDL
