MODEL 1
REMARK VINA RESULT:     -11.5      0.000      0.000
REMARK SMILES C[C@H](C(=O)OCCOCCOCCOC(=O)c1ccc(-c2c3nc(c(-c4c(F)c(F)c(F)c(F)c4F)c4ccc([nH]4)c(-c4c(F)c(F)c(F)c(F)c4F)c4nc(c(-c5c(F)c(F)c(F)c(F)c5F)c5ccc2[nH]5)C=C4)C=C3)cc1)c1ccc2c(c1)[nH]c1ccc(Cl)cc12
REMARK SMILES IDX 10 1 9 2 8 3 7 4 6 5 5 6 3 7 4 8 2 9 1 10 80 11 81 12 85 13
REMARK SMILES IDX 82 14 84 15 83 16 86 17 93 18 87 19 92 21 88 22 90 23 89 24
REMARK SMILES IDX 91 25 11 26 12 27 13 28 14 29 15 30 16 31 17 32 18 33 79 34
REMARK SMILES IDX 19 35 78 36 20 37 21 38 22 39 72 40 23 41 77 42 71 43 73 44
REMARK SMILES IDX 24 45 76 46 70 47 69 48 25 50 57 51 37 52 56 53 38 54 41 55
REMARK SMILES IDX 55 56 74 57 39 58 40 59 54 61 75 62 42 63 26 64 27 65 35 66
REMARK SMILES IDX 28 67 29 68 33 69 36 70 30 71 31 72 34 73 32 74 58 75 59 76
REMARK SMILES IDX 67 77 60 78 61 79 65 80 68 81 62 82 63 83 66 84 64 85 43 86
REMARK SMILES IDX 44 87 52 88 45 89 46 90 50 91 53 92 47 93 48 94 51 95 49 96
REMARK H PARENT 86 20 73 49 41 60
REMARK Flexibility Score: inf
ROOT
ATOM      1  C   UNL A   1      34.458  33.095  28.004  1.00  0.00     0.188 C 
ENDROOT
BRANCH   1   2
ATOM      2  C   UNL A   1      34.033  31.633  28.284  1.00  0.00     0.188 C 
BRANCH   2   3
ATOM      3  O   UNL A   1      33.711  30.783  27.187  1.00  0.00    -0.376 OA
BRANCH   3   4
ATOM      4  C   UNL A   1      32.348  30.676  26.789  1.00  0.00     0.202 C 
BRANCH   4   5
ATOM      5  C   UNL A   1      31.884  29.339  26.204  1.00  0.00     0.261 C 
BRANCH   5   6
ATOM      6  O   UNL A   1      31.421  29.450  24.848  1.00  0.00    -0.463 OA
BRANCH   6   7
ATOM      7  C   UNL A   1      31.421  28.333  24.068  1.00  0.00     0.313 C 
ATOM      8  O   UNL A   1      31.889  28.289  22.934  1.00  0.00    -0.252 OA
BRANCH   7   9
ATOM      9  C   UNL A   1      30.824  27.097  24.768  1.00  0.00     0.126 C 
ATOM     10  C   UNL A   1      29.504  26.738  24.074  1.00  0.00     0.025 C 
BRANCH   9  11
ATOM     11  C   UNL A   1      31.796  25.939  25.028  1.00  0.00    -0.032 A 
ATOM     12  C   UNL A   1      33.182  26.095  25.199  1.00  0.00     0.005 A 
ATOM     13  C   UNL A   1      31.282  24.633  24.971  1.00  0.00     0.031 A 
ATOM     14  C   UNL A   1      34.049  24.983  25.308  1.00  0.00     0.011 A 
ATOM     15  C   UNL A   1      32.148  23.549  25.089  1.00  0.00     0.047 A 
ATOM     16  C   UNL A   1      33.523  23.676  25.231  1.00  0.00     0.007 A 
ATOM     17  N   UNL A   1      31.849  22.215  25.058  1.00  0.00    -0.355 N 
ATOM     18  C   UNL A   1      34.067  22.344  25.177  1.00  0.00     0.009 A 
ATOM     19  C   UNL A   1      32.995  21.471  24.975  1.00  0.00     0.047 A 
ATOM     20  H   UNL A   1      30.939  21.842  25.092  1.00  0.00     0.167 HD
ATOM     21  C   UNL A   1      35.366  21.794  25.208  1.00  0.00     0.031 A 
ATOM     22  C   UNL A   1      33.138  20.104  24.724  1.00  0.00     0.028 A 
ATOM     23  C   UNL A   1      35.525  20.421  24.964  1.00  0.00     0.041 A 
ATOM     24  C   UNL A   1      34.434  19.595  24.700  1.00  0.00     0.022 A 
ATOM     25  Cl  UNL A   1      37.107  19.737  24.962  1.00  0.00    -0.084 Cl
ENDBRANCH   9  11
ENDBRANCH   7   9
ENDBRANCH   6   7
ENDBRANCH   5   6
ENDBRANCH   4   5
ENDBRANCH   3   4
ENDBRANCH   2   3
ENDBRANCH   1   2
BRANCH   1  26
ATOM     26  O   UNL A   1      35.218  33.672  29.034  1.00  0.00    -0.376 OA
BRANCH  26  27
ATOM     27  C   UNL A   1      34.576  34.312  30.116  1.00  0.00     0.202 C 
BRANCH  27  28
ATOM     28  C   UNL A   1      34.377  33.682  31.509  1.00  0.00     0.261 C 
BRANCH  28  29
ATOM     29  O   UNL A   1      34.782  32.324  31.713  1.00  0.00    -0.460 OA
BRANCH  29  30
ATOM     30  C   UNL A   1      35.791  32.114  32.595  1.00  0.00     0.338 C 
ATOM     31  O   UNL A   1      35.791  32.352  33.787  1.00  0.00    -0.246 OA
BRANCH  30  32
ATOM     32  C   UNL A   1      36.869  31.371  31.906  1.00  0.00     0.060 A 
ATOM     33  C   UNL A   1      37.885  30.784  32.672  1.00  0.00     0.016 A 
ATOM     34  C   UNL A   1      36.884  31.267  30.515  1.00  0.00     0.016 A 
ATOM     35  C   UNL A   1      38.937  30.111  32.044  1.00  0.00     0.010 A 
ATOM     36  C   UNL A   1      37.949  30.612  29.886  1.00  0.00     0.010 A 
ATOM     37  C   UNL A   1      38.995  30.056  30.644  1.00  0.00    -0.014 A 
BRANCH  37  38
ATOM     38  C   UNL A   1      40.226  29.577  29.963  1.00  0.00     0.031 A 
ATOM     39  C   UNL A   1      41.357  30.549  29.757  1.00  0.00     0.074 A 
ATOM     40  C   UNL A   1      40.347  28.309  29.531  1.00  0.00     0.049 A 
ATOM     41  N   UNL A   1      42.488  30.391  29.119  1.00  0.00    -0.248 NA
ATOM     42  C   UNL A   1      41.182  31.883  30.352  1.00  0.00     0.031 C 
ATOM     43  C   UNL A   1      39.350  27.256  29.710  1.00  0.00     0.029 A 
ATOM     44  N   UNL A   1      41.364  27.698  28.838  1.00  0.00    -0.354 N 
ATOM     45  C   UNL A   1      43.152  31.607  29.223  1.00  0.00     0.074 A 
ATOM     46  C   UNL A   1      42.288  32.500  29.965  1.00  0.00     0.031 C 
ATOM     47  C   UNL A   1      39.799  26.129  29.128  1.00  0.00     0.029 A 
ATOM     48  C   UNL A   1      41.095  26.393  28.502  1.00  0.00     0.049 A 
ATOM     49  H   UNL A   1      42.205  28.152  28.605  1.00  0.00     0.167 HD
ATOM     50  C   UNL A   1      44.373  31.948  28.746  1.00  0.00     0.037 A 
ATOM     51  C   UNL A   1      41.801  25.525  27.751  1.00  0.00     0.037 A 
ATOM     52  C   UNL A   1      45.232  31.060  28.006  1.00  0.00     0.049 A 
ATOM     53  C   UNL A   1      43.120  25.957  27.157  1.00  0.00     0.074 A 
ATOM     54  C   UNL A   1      46.496  31.308  27.499  1.00  0.00     0.029 A 
ATOM     55  N   UNL A   1      44.909  29.758  27.656  1.00  0.00    -0.354 N 
ATOM     56  N   UNL A   1      43.755  27.098  27.281  1.00  0.00    -0.248 NA
ATOM     57  C   UNL A   1      43.823  24.974  26.315  1.00  0.00     0.031 C 
ATOM     58  C   UNL A   1      46.911  30.178  26.789  1.00  0.00     0.029 A 
ATOM     59  C   UNL A   1      45.937  29.201  26.911  1.00  0.00     0.049 A 
ATOM     60  H   UNL A   1      44.074  29.298  27.900  1.00  0.00     0.167 HD
ATOM     61  C   UNL A   1      44.941  26.958  26.568  1.00  0.00     0.074 A 
ATOM     62  C   UNL A   1      44.944  25.618  26.024  1.00  0.00     0.031 C 
ATOM     63  C   UNL A   1      45.938  27.859  26.385  1.00  0.00     0.037 A 
BRANCH  50  64
ATOM     64  C   UNL A   1      44.840  33.356  28.978  1.00  0.00     0.064 A 
ATOM     65  C   UNL A   1      44.541  34.393  28.081  1.00  0.00     0.173 A 
ATOM     66  C   UNL A   1      45.570  33.678  30.133  1.00  0.00     0.173 A 
ATOM     67  F   UNL A   1      43.859  34.137  26.954  1.00  0.00    -0.203 F 
ATOM     68  C   UNL A   1      44.979  35.693  28.320  1.00  0.00     0.198 A 
ATOM     69  C   UNL A   1      45.977  34.985  30.384  1.00  0.00     0.198 A 
ATOM     70  F   UNL A   1      45.878  32.725  31.026  1.00  0.00    -0.203 F 
ATOM     71  F   UNL A   1      44.725  36.659  27.425  1.00  0.00    -0.200 F 
ATOM     72  C   UNL A   1      45.689  35.989  29.474  1.00  0.00     0.200 A 
ATOM     73  F   UNL A   1      46.649  35.271  31.508  1.00  0.00    -0.200 F 
ATOM     74  F   UNL A   1      46.101  37.244  29.706  1.00  0.00    -0.200 F 
ENDBRANCH  50  64
BRANCH  51  75
ATOM     75  C   UNL A   1      41.276  24.156  27.493  1.00  0.00     0.064 A 
ATOM     76  C   UNL A   1      41.885  23.029  28.065  1.00  0.00     0.173 A 
ATOM     77  C   UNL A   1      40.184  23.941  26.640  1.00  0.00     0.173 A 
ATOM     78  F   UNL A   1      42.953  23.176  28.862  1.00  0.00    -0.203 F 
ATOM     79  C   UNL A   1      41.438  21.741  27.772  1.00  0.00     0.198 A 
ATOM     80  C   UNL A   1      39.716  22.655  26.375  1.00  0.00     0.198 A 
ATOM     81  F   UNL A   1      39.570  24.983  26.059  1.00  0.00    -0.203 F 
ATOM     82  F   UNL A   1      42.077  20.680  28.285  1.00  0.00    -0.200 F 
ATOM     83  C   UNL A   1      40.350  21.556  26.933  1.00  0.00     0.200 A 
ATOM     84  F   UNL A   1      38.660  22.482  25.570  1.00  0.00    -0.200 F 
ATOM     85  F   UNL A   1      39.921  20.318  26.651  1.00  0.00    -0.200 F 
ENDBRANCH  51  75
BRANCH  63  86
ATOM     86  C   UNL A   1      47.145  27.415  25.605  1.00  0.00     0.064 A 
ATOM     87  C   UNL A   1      47.267  27.649  24.228  1.00  0.00     0.173 A 
ATOM     88  C   UNL A   1      48.217  26.787  26.260  1.00  0.00     0.173 A 
ATOM     89  F   UNL A   1      46.268  28.235  23.551  1.00  0.00    -0.203 F 
ATOM     90  C   UNL A   1      48.405  27.244  23.530  1.00  0.00     0.198 A 
ATOM     91  C   UNL A   1      49.366  26.416  25.566  1.00  0.00     0.198 A 
ATOM     92  F   UNL A   1      48.158  26.547  27.579  1.00  0.00    -0.203 F 
ATOM     93  F   UNL A   1      48.476  27.432  22.205  1.00  0.00    -0.200 F 
ATOM     94  C   UNL A   1      49.455  26.637  24.201  1.00  0.00     0.200 A 
ATOM     95  F   UNL A   1      50.387  25.845  26.220  1.00  0.00    -0.200 F 
ATOM     96  F   UNL A   1      50.552  26.259  23.530  1.00  0.00    -0.200 F 
ENDBRANCH  63  86
ENDBRANCH  37  38
ENDBRANCH  30  32
ENDBRANCH  29  30
ENDBRANCH  28  29
ENDBRANCH  27  28
ENDBRANCH  26  27
ENDBRANCH   1  26
TORSDOF 18
ENDMDL
MODEL 2
REMARK VINA RESULT:     -11.5      5.562     10.641
REMARK SMILES C[C@H](C(=O)OCCOCCOCCOC(=O)c1ccc(-c2c3nc(c(-c4c(F)c(F)c(F)c(F)c4F)c4ccc([nH]4)c(-c4c(F)c(F)c(F)c(F)c4F)c4nc(c(-c5c(F)c(F)c(F)c(F)c5F)c5ccc2[nH]5)C=C4)C=C3)cc1)c1ccc2c(c1)[nH]c1ccc(Cl)cc12
REMARK SMILES IDX 10 1 9 2 8 3 7 4 6 5 5 6 3 7 4 8 2 9 1 10 80 11 81 12 85 13
REMARK SMILES IDX 82 14 84 15 83 16 86 17 93 18 87 19 92 21 88 22 90 23 89 24
REMARK SMILES IDX 91 25 11 26 12 27 13 28 14 29 15 30 16 31 17 32 18 33 79 34
REMARK SMILES IDX 19 35 78 36 20 37 21 38 22 39 72 40 23 41 77 42 71 43 73 44
REMARK SMILES IDX 24 45 76 46 70 47 69 48 25 50 57 51 37 52 56 53 38 54 41 55
REMARK SMILES IDX 55 56 74 57 39 58 40 59 54 61 75 62 42 63 26 64 27 65 35 66
REMARK SMILES IDX 28 67 29 68 33 69 36 70 30 71 31 72 34 73 32 74 58 75 59 76
REMARK SMILES IDX 67 77 60 78 61 79 65 80 68 81 62 82 63 83 66 84 64 85 43 86
REMARK SMILES IDX 44 87 52 88 45 89 46 90 50 91 53 92 47 93 48 94 51 95 49 96
REMARK H PARENT 86 20 73 49 41 60
REMARK Flexibility Score: inf
ROOT
ATOM      1  C   UNL A   1      40.249  19.811  25.773  1.00  0.00     0.188 C 
ENDROOT
BRANCH   1   2
ATOM      2  C   UNL A   1      40.151  21.099  26.625  1.00  0.00     0.188 C 
BRANCH   2   3
ATOM      3  O   UNL A   1      39.037  21.968  26.440  1.00  0.00    -0.376 OA
BRANCH   3   4
ATOM      4  C   UNL A   1      38.130  21.692  25.378  1.00  0.00     0.202 C 
BRANCH   4   5
ATOM      5  C   UNL A   1      36.775  21.080  25.745  1.00  0.00     0.261 C 
BRANCH   5   6
ATOM      6  O   UNL A   1      35.702  21.554  24.913  1.00  0.00    -0.463 OA
BRANCH   6   7
ATOM      7  C   UNL A   1      34.436  21.125  25.180  1.00  0.00     0.313 C 
ATOM      8  O   UNL A   1      34.016  20.885  26.307  1.00  0.00    -0.252 OA
BRANCH   7   9
ATOM      9  C   UNL A   1      33.548  21.022  23.925  1.00  0.00     0.126 C 
ATOM     10  C   UNL A   1      32.570  19.857  24.118  1.00  0.00     0.025 C 
BRANCH   9  11
ATOM     11  C   UNL A   1      32.948  22.340  23.418  1.00  0.00    -0.032 A 
ATOM     12  C   UNL A   1      33.642  23.269  22.625  1.00  0.00     0.005 A 
ATOM     13  C   UNL A   1      31.668  22.691  23.876  1.00  0.00     0.031 A 
ATOM     14  C   UNL A   1      33.087  24.527  22.291  1.00  0.00     0.011 A 
ATOM     15  C   UNL A   1      31.131  23.929  23.532  1.00  0.00     0.047 A 
ATOM     16  C   UNL A   1      31.807  24.875  22.774  1.00  0.00     0.007 A 
ATOM     17  N   UNL A   1      29.916  24.454  23.875  1.00  0.00    -0.355 N 
ATOM     18  C   UNL A   1      30.983  26.056  22.759  1.00  0.00     0.009 A 
ATOM     19  C   UNL A   1      29.855  25.778  23.537  1.00  0.00     0.047 A 
ATOM     20  H   UNL A   1      29.187  23.949  24.304  1.00  0.00     0.167 HD
ATOM     21  C   UNL A   1      31.110  27.356  22.226  1.00  0.00     0.031 A 
ATOM     22  C   UNL A   1      28.892  26.730  23.880  1.00  0.00     0.028 A 
ATOM     23  C   UNL A   1      30.146  28.320  22.557  1.00  0.00     0.041 A 
ATOM     24  C   UNL A   1      29.070  28.021  23.391  1.00  0.00     0.022 A 
ATOM     25  Cl  UNL A   1      30.303  29.923  21.943  1.00  0.00    -0.084 Cl
ENDBRANCH   9  11
ENDBRANCH   7   9
ENDBRANCH   6   7
ENDBRANCH   5   6
ENDBRANCH   4   5
ENDBRANCH   3   4
ENDBRANCH   2   3
ENDBRANCH   1   2
BRANCH   1  26
ATOM     26  O   UNL A   1      41.567  19.429  25.473  1.00  0.00    -0.376 OA
BRANCH  26  27
ATOM     27  C   UNL A   1      42.646  19.972  26.201  1.00  0.00     0.202 C 
BRANCH  27  28
ATOM     28  C   UNL A   1      43.675  20.967  25.626  1.00  0.00     0.261 C 
BRANCH  28  29
ATOM     29  O   UNL A   1      43.791  22.260  26.230  1.00  0.00    -0.460 OA
BRANCH  29  30
ATOM     30  C   UNL A   1      43.451  23.324  25.461  1.00  0.00     0.338 C 
ATOM     31  O   UNL A   1      43.470  23.394  24.247  1.00  0.00    -0.246 OA
BRANCH  30  32
ATOM     32  C   UNL A   1      42.874  24.370  26.335  1.00  0.00     0.060 A 
ATOM     33  C   UNL A   1      43.374  25.676  26.251  1.00  0.00     0.016 A 
ATOM     34  C   UNL A   1      41.858  24.059  27.239  1.00  0.00     0.016 A 
ATOM     35  C   UNL A   1      42.874  26.673  27.094  1.00  0.00     0.010 A 
ATOM     36  C   UNL A   1      41.375  25.052  28.097  1.00  0.00     0.010 A 
ATOM     37  C   UNL A   1      41.899  26.357  28.049  1.00  0.00    -0.014 A 
BRANCH  37  38
ATOM     38  C   UNL A   1      41.549  27.332  29.115  1.00  0.00     0.031 A 
ATOM     39  C   UNL A   1      42.342  27.314  30.393  1.00  0.00     0.074 A 
ATOM     40  C   UNL A   1      40.549  28.218  28.960  1.00  0.00     0.049 A 
ATOM     41  N   UNL A   1      42.173  28.004  31.492  1.00  0.00    -0.248 NA
ATOM     42  C   UNL A   1      43.483  26.386  30.435  1.00  0.00     0.031 C 
ATOM     43  C   UNL A   1      39.736  28.375  27.757  1.00  0.00     0.029 A 
ATOM     44  N   UNL A   1      40.040  29.147  29.836  1.00  0.00    -0.354 N 
ATOM     45  C   UNL A   1      43.173  27.583  32.359  1.00  0.00     0.074 A 
ATOM     46  C   UNL A   1      43.931  26.562  31.669  1.00  0.00     0.031 C 
ATOM     47  C   UNL A   1      38.818  29.335  27.975  1.00  0.00     0.029 A 
ATOM     48  C   UNL A   1      38.954  29.831  29.345  1.00  0.00     0.049 A 
ATOM     49  H   UNL A   1      40.418  29.308  30.730  1.00  0.00     0.167 HD
ATOM     50  C   UNL A   1      43.437  28.012  33.617  1.00  0.00     0.037 A 
ATOM     51  C   UNL A   1      38.148  30.729  29.944  1.00  0.00     0.037 A 
ATOM     52  C   UNL A   1      42.681  29.026  34.305  1.00  0.00     0.049 A 
ATOM     53  C   UNL A   1      38.411  31.126  31.376  1.00  0.00     0.074 A 
ATOM     54  C   UNL A   1      42.886  29.542  35.573  1.00  0.00     0.029 A 
ATOM     55  N   UNL A   1      41.568  29.669  33.786  1.00  0.00    -0.354 N 
ATOM     56  N   UNL A   1      39.373  30.746  32.182  1.00  0.00    -0.248 NA
ATOM     57  C   UNL A   1      37.471  32.083  31.983  1.00  0.00     0.031 C 
ATOM     58  C   UNL A   1      41.859  30.451  35.846  1.00  0.00     0.029 A 
ATOM     59  C   UNL A   1      41.054  30.553  34.723  1.00  0.00     0.049 A 
ATOM     60  H   UNL A   1      41.197  29.520  32.887  1.00  0.00     0.167 HD
ATOM     61  C   UNL A   1      39.177  31.440  33.371  1.00  0.00     0.074 A 
ATOM     62  C   UNL A   1      38.011  32.274  33.179  1.00  0.00     0.031 C 
ATOM     63  C   UNL A   1      39.901  31.391  34.517  1.00  0.00     0.037 A 
BRANCH  50  64
ATOM     64  C   UNL A   1      44.573  27.357  34.348  1.00  0.00     0.064 A 
ATOM     65  C   UNL A   1      44.390  26.195  35.114  1.00  0.00     0.173 A 
ATOM     66  C   UNL A   1      45.872  27.881  34.253  1.00  0.00     0.173 A 
ATOM     67  F   UNL A   1      43.167  25.662  35.251  1.00  0.00    -0.203 F 
ATOM     68  C   UNL A   1      45.460  25.601  35.779  1.00  0.00     0.198 A 
ATOM     69  C   UNL A   1      46.944  27.265  34.892  1.00  0.00     0.198 A 
ATOM     70  F   UNL A   1      46.103  28.987  33.529  1.00  0.00    -0.203 F 
ATOM     71  F   UNL A   1      45.253  24.520  36.546  1.00  0.00    -0.200 F 
ATOM     72  C   UNL A   1      46.736  26.131  35.660  1.00  0.00     0.200 A 
ATOM     73  F   UNL A   1      48.178  27.769  34.762  1.00  0.00    -0.200 F 
ATOM     74  F   UNL A   1      47.766  25.551  36.294  1.00  0.00    -0.200 F 
ENDBRANCH  50  64
BRANCH  51  75
ATOM     75  C   UNL A   1      36.994  31.312  29.204  1.00  0.00     0.064 A 
ATOM     76  C   UNL A   1      37.001  32.655  28.798  1.00  0.00     0.173 A 
ATOM     77  C   UNL A   1      35.847  30.555  28.926  1.00  0.00     0.173 A 
ATOM     78  F   UNL A   1      38.060  33.431  29.067  1.00  0.00    -0.203 F 
ATOM     79  C   UNL A   1      35.895  33.222  28.165  1.00  0.00     0.198 A 
ATOM     80  C   UNL A   1      34.756  31.114  28.264  1.00  0.00     0.198 A 
ATOM     81  F   UNL A   1      35.784  29.268  29.302  1.00  0.00    -0.203 F 
ATOM     82  F   UNL A   1      35.906  34.522  27.841  1.00  0.00    -0.200 F 
ATOM     83  C   UNL A   1      34.777  32.449  27.893  1.00  0.00     0.200 A 
ATOM     84  F   UNL A   1      33.680  30.362  27.996  1.00  0.00    -0.200 F 
ATOM     85  F   UNL A   1      33.714  32.995  27.285  1.00  0.00    -0.200 F 
ENDBRANCH  51  75
BRANCH  63  86
ATOM     86  C   UNL A   1      39.489  32.302  35.641  1.00  0.00     0.064 A 
ATOM     87  C   UNL A   1      38.570  31.902  36.622  1.00  0.00     0.173 A 
ATOM     88  C   UNL A   1      40.061  33.579  35.761  1.00  0.00     0.173 A 
ATOM     89  F   UNL A   1      37.985  30.697  36.549  1.00  0.00    -0.203 F 
ATOM     90  C   UNL A   1      38.218  32.757  37.666  1.00  0.00     0.198 A 
ATOM     91  C   UNL A   1      39.734  34.417  36.824  1.00  0.00     0.198 A 
ATOM     92  F   UNL A   1      40.953  34.009  34.857  1.00  0.00    -0.203 F 
ATOM     93  F   UNL A   1      37.299  32.373  38.563  1.00  0.00    -0.200 F 
ATOM     94  C   UNL A   1      38.806  34.009  37.770  1.00  0.00     0.200 A 
ATOM     95  F   UNL A   1      40.317  35.618  36.933  1.00  0.00    -0.200 F 
ATOM     96  F   UNL A   1      38.475  34.825  38.780  1.00  0.00    -0.200 F 
ENDBRANCH  63  86
ENDBRANCH  37  38
ENDBRANCH  30  32
ENDBRANCH  29  30
ENDBRANCH  28  29
ENDBRANCH  27  28
ENDBRANCH  26  27
ENDBRANCH   1  26
TORSDOF 18
ENDMDL
MODEL 3
REMARK VINA RESULT:     -11.4      3.002      7.898
REMARK SMILES C[C@H](C(=O)OCCOCCOCCOC(=O)c1ccc(-c2c3nc(c(-c4c(F)c(F)c(F)c(F)c4F)c4ccc([nH]4)c(-c4c(F)c(F)c(F)c(F)c4F)c4nc(c(-c5c(F)c(F)c(F)c(F)c5F)c5ccc2[nH]5)C=C4)C=C3)cc1)c1ccc2c(c1)[nH]c1ccc(Cl)cc12
REMARK SMILES IDX 10 1 9 2 8 3 7 4 6 5 5 6 3 7 4 8 2 9 1 10 80 11 81 12 85 13
REMARK SMILES IDX 82 14 84 15 83 16 86 17 93 18 87 19 92 21 88 22 90 23 89 24
REMARK SMILES IDX 91 25 11 26 12 27 13 28 14 29 15 30 16 31 17 32 18 33 79 34
REMARK SMILES IDX 19 35 78 36 20 37 21 38 22 39 72 40 23 41 77 42 71 43 73 44
REMARK SMILES IDX 24 45 76 46 70 47 69 48 25 50 57 51 37 52 56 53 38 54 41 55
REMARK SMILES IDX 55 56 74 57 39 58 40 59 54 61 75 62 42 63 26 64 27 65 35 66
REMARK SMILES IDX 28 67 29 68 33 69 36 70 30 71 31 72 34 73 32 74 58 75 59 76
REMARK SMILES IDX 67 77 60 78 61 79 65 80 68 81 62 82 63 83 66 84 64 85 43 86
REMARK SMILES IDX 44 87 52 88 45 89 46 90 50 91 53 92 47 93 48 94 51 95 49 96
REMARK H PARENT 86 20 73 49 41 60
REMARK Flexibility Score: inf
ROOT
ATOM      1  C   UNL A   1      35.559  22.181  26.075  1.00  0.00     0.188 C 
ENDROOT
BRANCH   1   2
ATOM      2  C   UNL A   1      35.521  23.712  25.854  1.00  0.00     0.188 C 
BRANCH   2   3
ATOM      3  O   UNL A   1      34.521  24.265  25.003  1.00  0.00    -0.376 OA
BRANCH   3   4
ATOM      4  C   UNL A   1      34.379  25.681  24.955  1.00  0.00     0.202 C 
BRANCH   4   5
ATOM      5  C   UNL A   1      33.427  26.332  25.964  1.00  0.00     0.261 C 
BRANCH   5   6
ATOM      6  O   UNL A   1      32.214  26.814  25.360  1.00  0.00    -0.463 OA
BRANCH   6   7
ATOM      7  C   UNL A   1      31.026  26.488  25.940  1.00  0.00     0.313 C 
ATOM      8  O   UNL A   1      30.603  27.000  26.972  1.00  0.00    -0.252 OA
BRANCH   7   9
ATOM      9  C   UNL A   1      30.220  25.445  25.142  1.00  0.00     0.126 C 
ATOM     10  C   UNL A   1      29.466  26.170  24.020  1.00  0.00     0.025 C 
BRANCH   9  11
ATOM     11  C   UNL A   1      30.980  24.173  24.743  1.00  0.00    -0.032 A 
ATOM     12  C   UNL A   1      31.243  23.795  23.415  1.00  0.00     0.005 A 
ATOM     13  C   UNL A   1      31.326  23.275  25.765  1.00  0.00     0.031 A 
ATOM     14  C   UNL A   1      31.834  22.549  23.098  1.00  0.00     0.011 A 
ATOM     15  C   UNL A   1      31.916  22.057  25.438  1.00  0.00     0.047 A 
ATOM     16  C   UNL A   1      32.160  21.647  24.134  1.00  0.00     0.007 A 
ATOM     17  N   UNL A   1      32.321  21.055  26.276  1.00  0.00    -0.355 N 
ATOM     18  C   UNL A   1      32.640  20.292  24.211  1.00  0.00     0.009 A 
ATOM     19  C   UNL A   1      32.636  19.931  25.561  1.00  0.00     0.047 A 
ATOM     20  H   UNL A   1      32.378  21.132  27.256  1.00  0.00     0.167 HD
ATOM     21  C   UNL A   1      33.010  19.308  23.269  1.00  0.00     0.031 A 
ATOM     22  C   UNL A   1      32.899  18.640  26.024  1.00  0.00     0.028 A 
ATOM     23  C   UNL A   1      33.283  18.008  23.721  1.00  0.00     0.041 A 
ATOM     24  C   UNL A   1      33.203  17.672  25.071  1.00  0.00     0.022 A 
ATOM     25  Cl  UNL A   1      33.704  16.785  22.582  1.00  0.00    -0.084 Cl
ENDBRANCH   9  11
ENDBRANCH   7   9
ENDBRANCH   6   7
ENDBRANCH   5   6
ENDBRANCH   4   5
ENDBRANCH   3   4
ENDBRANCH   2   3
ENDBRANCH   1   2
BRANCH   1  26
ATOM     26  O   UNL A   1      35.816  21.446  24.907  1.00  0.00    -0.376 OA
BRANCH  26  27
ATOM     27  C   UNL A   1      36.493  20.211  24.981  1.00  0.00     0.202 C 
BRANCH  27  28
ATOM     28  C   UNL A   1      38.024  20.060  25.096  1.00  0.00     0.261 C 
BRANCH  28  29
ATOM     29  O   UNL A   1      38.798  21.195  25.498  1.00  0.00    -0.460 OA
BRANCH  29  30
ATOM     30  C   UNL A   1      39.715  20.993  26.476  1.00  0.00     0.338 C 
ATOM     31  O   UNL A   1      40.175  19.931  26.848  1.00  0.00    -0.246 OA
BRANCH  30  32
ATOM     32  C   UNL A   1      40.219  22.309  26.927  1.00  0.00     0.060 A 
ATOM     33  C   UNL A   1      39.726  23.470  26.317  1.00  0.00     0.016 A 
ATOM     34  C   UNL A   1      41.182  22.395  27.934  1.00  0.00     0.016 A 
ATOM     35  C   UNL A   1      40.214  24.724  26.696  1.00  0.00     0.010 A 
ATOM     36  C   UNL A   1      41.686  23.648  28.296  1.00  0.00     0.010 A 
ATOM     37  C   UNL A   1      41.227  24.817  27.661  1.00  0.00    -0.014 A 
BRANCH  37  38
ATOM     38  C   UNL A   1      41.933  26.105  27.884  1.00  0.00     0.031 A 
ATOM     39  C   UNL A   1      41.217  27.195  28.635  1.00  0.00     0.074 A 
ATOM     40  C   UNL A   1      43.183  26.313  27.433  1.00  0.00     0.049 A 
ATOM     41  N   UNL A   1      41.591  28.426  28.880  1.00  0.00    -0.248 NA
ATOM     42  C   UNL A   1      39.898  26.847  29.183  1.00  0.00     0.031 C 
ATOM     43  C   UNL A   1      44.005  25.327  26.735  1.00  0.00     0.029 A 
ATOM     44  N   UNL A   1      43.973  27.436  27.485  1.00  0.00    -0.354 N 
ATOM     45  C   UNL A   1      40.548  29.001  29.595  1.00  0.00     0.074 A 
ATOM     46  C   UNL A   1      39.517  27.994  29.725  1.00  0.00     0.031 C 
ATOM     47  C   UNL A   1      45.182  25.894  26.411  1.00  0.00     0.029 A 
ATOM     48  C   UNL A   1      45.179  27.292  26.843  1.00  0.00     0.049 A 
ATOM     49  H   UNL A   1      43.701  28.265  27.940  1.00  0.00     0.167 HD
ATOM     50  C   UNL A   1      40.459  30.254  30.100  1.00  0.00     0.037 A 
ATOM     51  C   UNL A   1      46.152  28.194  26.606  1.00  0.00     0.037 A 
ATOM     52  C   UNL A   1      41.484  31.257  29.968  1.00  0.00     0.049 A 
ATOM     53  C   UNL A   1      45.991  29.610  27.104  1.00  0.00     0.074 A 
ATOM     54  C   UNL A   1      41.494  32.550  30.464  1.00  0.00     0.029 A 
ATOM     55  N   UNL A   1      42.676  31.084  29.280  1.00  0.00    -0.354 N 
ATOM     56  N   UNL A   1      45.016  30.141  27.802  1.00  0.00    -0.248 NA
ATOM     57  C   UNL A   1      47.071  30.555  26.779  1.00  0.00     0.031 C 
ATOM     58  C   UNL A   1      42.662  33.178  30.022  1.00  0.00     0.029 A 
ATOM     59  C   UNL A   1      43.413  32.257  29.310  1.00  0.00     0.049 A 
ATOM     60  H   UNL A   1      42.955  30.251  28.836  1.00  0.00     0.167 HD
ATOM     61  C   UNL A   1      45.381  31.463  28.030  1.00  0.00     0.074 A 
ATOM     62  C   UNL A   1      46.672  31.652  27.406  1.00  0.00     0.031 C 
ATOM     63  C   UNL A   1      44.706  32.432  28.699  1.00  0.00     0.037 A 
BRANCH  50  64
ATOM     64  C   UNL A   1      39.191  30.627  30.812  1.00  0.00     0.064 A 
ATOM     65  C   UNL A   1      38.090  31.170  30.132  1.00  0.00     0.173 A 
ATOM     66  C   UNL A   1      39.064  30.405  32.193  1.00  0.00     0.173 A 
ATOM     67  F   UNL A   1      38.164  31.416  28.815  1.00  0.00    -0.203 F 
ATOM     68  C   UNL A   1      36.921  31.502  30.813  1.00  0.00     0.198 A 
ATOM     69  C   UNL A   1      37.882  30.707  32.863  1.00  0.00     0.198 A 
ATOM     70  F   UNL A   1      40.085  29.883  32.890  1.00  0.00    -0.203 F 
ATOM     71  F   UNL A   1      35.900  32.066  30.151  1.00  0.00    -0.200 F 
ATOM     72  C   UNL A   1      36.816  31.262  32.174  1.00  0.00     0.200 A 
ATOM     73  F   UNL A   1      37.777  30.460  34.176  1.00  0.00    -0.200 F 
ATOM     74  F   UNL A   1      35.686  31.574  32.825  1.00  0.00    -0.200 F 
ENDBRANCH  50  64
BRANCH  51  75
ATOM     75  C   UNL A   1      47.369  27.802  25.843  1.00  0.00     0.064 A 
ATOM     76  C   UNL A   1      47.367  27.781  24.440  1.00  0.00     0.173 A 
ATOM     77  C   UNL A   1      48.542  27.401  26.496  1.00  0.00     0.173 A 
ATOM     78  F   UNL A   1      46.260  28.125  23.767  1.00  0.00    -0.203 F 
ATOM     79  C   UNL A   1      48.482  27.350  23.724  1.00  0.00     0.198 A 
ATOM     80  C   UNL A   1      49.669  27.002  25.779  1.00  0.00     0.198 A 
ATOM     81  F   UNL A   1      48.596  27.392  27.837  1.00  0.00    -0.203 F 
ATOM     82  F   UNL A   1      48.431  27.284  22.386  1.00  0.00    -0.200 F 
ATOM     83  C   UNL A   1      49.634  26.967  24.393  1.00  0.00     0.200 A 
ATOM     84  F   UNL A   1      50.782  26.640  26.430  1.00  0.00    -0.200 F 
ATOM     85  F   UNL A   1      50.706  26.552  23.704  1.00  0.00    -0.200 F 
ENDBRANCH  51  75
BRANCH  63  86
ATOM     86  C   UNL A   1      45.370  33.773  28.840  1.00  0.00     0.064 A 
ATOM     87  C   UNL A   1      45.153  34.810  27.921  1.00  0.00     0.173 A 
ATOM     88  C   UNL A   1      46.201  34.038  29.941  1.00  0.00     0.173 A 
ATOM     89  F   UNL A   1      44.378  34.608  26.845  1.00  0.00    -0.203 F 
ATOM     90  C   UNL A   1      45.766  36.052  28.083  1.00  0.00     0.198 A 
ATOM     91  C   UNL A   1      46.783  35.290  30.119  1.00  0.00     0.198 A 
ATOM     92  F   UNL A   1      46.436  33.086  30.856  1.00  0.00    -0.203 F 
ATOM     93  F   UNL A   1      45.585  37.011  27.165  1.00  0.00    -0.200 F 
ATOM     94  C   UNL A   1      46.572  36.293  29.185  1.00  0.00     0.200 A 
ATOM     95  F   UNL A   1      47.547  35.526  31.194  1.00  0.00    -0.200 F 
ATOM     96  F   UNL A   1      47.151  37.492  29.345  1.00  0.00    -0.200 F 
ENDBRANCH  63  86
ENDBRANCH  37  38
ENDBRANCH  30  32
ENDBRANCH  29  30
ENDBRANCH  28  29
ENDBRANCH  27  28
ENDBRANCH  26  27
ENDBRANCH   1  26
TORSDOF 18
ENDMDL
