MODEL 1
REMARK VINA RESULT:     -10.1      0.000      0.000
REMARK SMILES O=C(N[C@@H](CS)C(=O)N[C@@H](CO)C(=O)OCCOCCOCCOC(=O)c1ccc(-c2c3nc(c(-c4c(F)c(F)c(F)c(F)c4F)c4ccc([nH]4)c(-c4c(F)c(F)c(F)c(F)c4F)c4nc(c(-c5c(F)c(F)c(F)c(F)c5F)c5ccc2[nH]5)C=C4)C=C3)cc1)c1ccc(F)cc1
REMARK SMILES IDX 19 1 18 2 17 3 16 4 15 5 13 6 14 7 10 8 9 9 7 10 8 11 4 13
REMARK SMILES IDX 3 14 1 15 2 16 90 18 91 19 96 20 92 21 95 22 93 23 94 24
REMARK SMILES IDX 5 25 6 26 11 28 12 29 20 31 21 32 22 33 23 34 24 35 25 36
REMARK SMILES IDX 26 37 27 38 28 39 89 40 29 41 88 42 30 43 31 44 32 45 82 46
REMARK SMILES IDX 33 47 87 48 81 49 83 50 34 51 86 52 80 53 79 54 35 56 67 57
REMARK SMILES IDX 47 58 66 59 48 60 51 61 65 62 84 63 49 64 50 65 64 67 85 68
REMARK SMILES IDX 52 69 36 70 37 71 45 72 38 73 39 74 43 75 46 76 40 77 41 78
REMARK SMILES IDX 44 79 42 80 68 81 69 82 77 83 70 84 71 85 75 86 78 87 72 88
REMARK SMILES IDX 73 89 76 90 74 91 53 92 54 93 62 94 55 95 56 96 60 97 63 98
REMARK SMILES IDX 57 99 58 100 61 101 59 102
REMARK H PARENT 9 12 3 17 6 27 12 30 83 55 51 66
REMARK Flexibility Score: inf
ROOT
ATOM      1  C   UNL A   1      39.714  21.769  26.348  1.00  0.00     0.188 C 
ENDROOT
BRANCH   1   2
ATOM      2  O   UNL A   1      38.318  21.568  26.217  1.00  0.00    -0.376 OA
BRANCH   2   3
ATOM      3  C   UNL A   1      37.643  22.246  25.160  1.00  0.00     0.202 C 
BRANCH   3   4
ATOM      4  C   UNL A   1      36.526  21.495  24.425  1.00  0.00     0.261 C 
BRANCH   4   5
ATOM      5  O   UNL A   1      35.598  20.849  25.324  1.00  0.00    -0.462 OA
BRANCH   5   6
ATOM      6  C   UNL A   1      34.283  21.105  25.070  1.00  0.00     0.331 C 
ATOM      7  O   UNL A   1      33.621  20.527  24.214  1.00  0.00    -0.250 OA
BRANCH   6   8
ATOM      8  C   UNL A   1      33.688  22.218  25.962  1.00  0.00     0.218 C 
BRANCH   8   9
ATOM      9  N   UNL A   1      32.372  22.730  25.563  1.00  0.00    -0.339 N 
ATOM     10  C   UNL A   1      31.958  23.868  24.957  1.00  0.00     0.244 C 
ATOM     11  O   UNL A   1      30.738  23.975  24.780  1.00  0.00    -0.273 OA
ATOM     12  H   UNL A   1      31.633  22.117  25.783  1.00  0.00     0.164 HD
BRANCH  10  13
ATOM     13  C   UNL A   1      32.881  24.968  24.389  1.00  0.00     0.181 C 
BRANCH  13  14
ATOM     14  N   UNL A   1      33.424  25.929  25.344  1.00  0.00    -0.339 N 
ATOM     15  O   UNL A   1      34.072  27.974  26.026  1.00  0.00    -0.269 OA
ATOM     16  C   UNL A   1      33.350  27.304  25.292  1.00  0.00     0.251 C 
ATOM     17  H   UNL A   1      33.900  25.549  26.118  1.00  0.00     0.164 HD
BRANCH  16  18
ATOM     18  C   UNL A   1      32.444  27.990  24.335  1.00  0.00     0.040 A 
ATOM     19  C   UNL A   1      32.921  28.513  23.124  1.00  0.00     0.017 A 
ATOM     20  C   UNL A   1      31.076  28.058  24.631  1.00  0.00     0.017 A 
ATOM     21  C   UNL A   1      32.046  29.168  22.253  1.00  0.00     0.040 A 
ATOM     22  C   UNL A   1      30.201  28.702  23.750  1.00  0.00     0.040 A 
ATOM     23  C   UNL A   1      30.696  29.261  22.576  1.00  0.00     0.123 A 
ATOM     24  F   UNL A   1      29.861  29.890  21.739  1.00  0.00    -0.207 F 
ENDBRANCH  16  18
ENDBRANCH  13  14
BRANCH  13  25
ATOM     25  C   UNL A   1      33.903  24.463  23.358  1.00  0.00     0.101 C 
BRANCH  25  26
ATOM     26  S   UNL A   1      33.322  23.362  22.034  1.00  0.00    -0.177 SA
ATOM     27  H   UNL A   1      34.376  22.671  21.523  1.00  0.00     0.102 HD
ENDBRANCH  25  26
ENDBRANCH  13  25
ENDBRANCH  10  13
ENDBRANCH   8   9
BRANCH   8  28
ATOM     28  C   UNL A   1      33.620  21.681  27.396  1.00  0.00     0.193 C 
BRANCH  28  29
ATOM     29  O   UNL A   1      33.514  20.257  27.407  1.00  0.00    -0.394 OA
ATOM     30  H   UNL A   1      33.388  19.949  28.318  1.00  0.00     0.210 HD
ENDBRANCH  28  29
ENDBRANCH   8  28
ENDBRANCH   6   8
ENDBRANCH   5   6
ENDBRANCH   4   5
ENDBRANCH   3   4
ENDBRANCH   2   3
ENDBRANCH   1   2
BRANCH   1  31
ATOM     31  C   UNL A   1      40.594  20.586  26.785  1.00  0.00     0.188 C 
BRANCH  31  32
ATOM     32  O   UNL A   1      41.553  20.043  25.914  1.00  0.00    -0.376 OA
BRANCH  32  33
ATOM     33  C   UNL A   1      42.927  20.367  26.042  1.00  0.00     0.202 C 
BRANCH  33  34
ATOM     34  C   UNL A   1      43.623  21.557  25.354  1.00  0.00     0.261 C 
BRANCH  34  35
ATOM     35  O   UNL A   1      42.858  22.754  25.198  1.00  0.00    -0.460 OA
BRANCH  35  36
ATOM     36  C   UNL A   1      43.579  23.901  25.124  1.00  0.00     0.338 C 
ATOM     37  O   UNL A   1      44.501  24.166  24.377  1.00  0.00    -0.246 OA
BRANCH  36  38
ATOM     38  C   UNL A   1      42.982  24.882  26.046  1.00  0.00     0.060 A 
ATOM     39  C   UNL A   1      43.397  26.214  25.963  1.00  0.00     0.016 A 
ATOM     40  C   UNL A   1      42.078  24.476  27.025  1.00  0.00     0.016 A 
ATOM     41  C   UNL A   1      42.878  27.161  26.842  1.00  0.00     0.010 A 
ATOM     42  C   UNL A   1      41.583  25.423  27.929  1.00  0.00     0.010 A 
ATOM     43  C   UNL A   1      41.983  26.768  27.843  1.00  0.00    -0.014 A 
BRANCH  43  44
ATOM     44  C   UNL A   1      41.608  27.730  28.904  1.00  0.00     0.031 A 
ATOM     45  C   UNL A   1      42.456  27.801  30.139  1.00  0.00     0.074 A 
ATOM     46  C   UNL A   1      40.567  28.567  28.755  1.00  0.00     0.049 A 
ATOM     47  N   UNL A   1      42.243  28.442  31.258  1.00  0.00    -0.248 NA
ATOM     48  C   UNL A   1      43.727  27.061  30.096  1.00  0.00     0.031 C 
ATOM     49  C   UNL A   1      39.747  28.697  27.552  1.00  0.00     0.029 A 
ATOM     50  N   UNL A   1      40.020  29.470  29.635  1.00  0.00    -0.354 N 
ATOM     51  C   UNL A   1      43.342  28.167  32.060  1.00  0.00     0.074 A 
ATOM     52  C   UNL A   1      44.223  27.308  31.299  1.00  0.00     0.031 C 
ATOM     53  C   UNL A   1      38.791  29.617  27.775  1.00  0.00     0.029 A 
ATOM     54  C   UNL A   1      38.893  30.089  29.155  1.00  0.00     0.049 A 
ATOM     55  H   UNL A   1      40.401  29.654  30.524  1.00  0.00     0.167 HD
ATOM     56  C   UNL A   1      43.587  28.588  33.323  1.00  0.00     0.037 A 
ATOM     57  C   UNL A   1      38.018  30.902  29.782  1.00  0.00     0.037 A 
ATOM     58  C   UNL A   1      42.706  29.436  34.078  1.00  0.00     0.049 A 
ATOM     59  C   UNL A   1      38.232  31.232  31.240  1.00  0.00     0.074 A 
ATOM     60  C   UNL A   1      42.838  29.876  35.383  1.00  0.00     0.029 A 
ATOM     61  N   UNL A   1      41.523  29.970  33.591  1.00  0.00    -0.354 N 
ATOM     62  N   UNL A   1      39.232  30.915  32.024  1.00  0.00    -0.248 NA
ATOM     63  C   UNL A   1      37.177  32.013  31.905  1.00  0.00     0.031 C 
ATOM     64  C   UNL A   1      41.714  30.646  35.699  1.00  0.00     0.029 A 
ATOM     65  C   UNL A   1      40.904  30.721  34.576  1.00  0.00     0.049 A 
ATOM     66  H   UNL A   1      41.175  29.837  32.681  1.00  0.00     0.167 HD
ATOM     67  C   UNL A   1      38.939  31.471  33.263  1.00  0.00     0.074 A 
ATOM     68  C   UNL A   1      37.673  32.159  33.125  1.00  0.00     0.031 C 
ATOM     69  C   UNL A   1      39.651  31.412  34.415  1.00  0.00     0.037 A 
BRANCH  56  70
ATOM     70  C   UNL A   1      44.834  28.086  33.984  1.00  0.00     0.064 A 
ATOM     71  C   UNL A   1      44.854  26.880  34.700  1.00  0.00     0.173 A 
ATOM     72  C   UNL A   1      46.027  28.815  33.884  1.00  0.00     0.173 A 
ATOM     73  F   UNL A   1      43.731  26.160  34.840  1.00  0.00    -0.203 F 
ATOM     74  C   UNL A   1      46.024  26.433  35.308  1.00  0.00     0.198 A 
ATOM     75  C   UNL A   1      47.199  28.352  34.473  1.00  0.00     0.198 A 
ATOM     76  F   UNL A   1      46.055  29.976  33.212  1.00  0.00    -0.203 F 
ATOM     77  F   UNL A   1      46.014  25.298  36.022  1.00  0.00    -0.200 F 
ATOM     78  C   UNL A   1      47.196  27.165  35.188  1.00  0.00     0.200 A 
ATOM     79  F   UNL A   1      48.332  29.059  34.351  1.00  0.00    -0.200 F 
ATOM     80  F   UNL A   1      48.322  26.731  35.772  1.00  0.00    -0.200 F 
ENDBRANCH  56  70
BRANCH  57  81
ATOM     81  C   UNL A   1      36.814  31.408  29.068  1.00  0.00     0.064 A 
ATOM     82  C   UNL A   1      36.706  32.756  28.698  1.00  0.00     0.173 A 
ATOM     83  C   UNL A   1      35.724  30.568  28.795  1.00  0.00     0.173 A 
ATOM     84  F   UNL A   1      37.706  33.606  28.970  1.00  0.00    -0.203 F 
ATOM     85  C   UNL A   1      35.547  33.246  28.098  1.00  0.00     0.198 A 
ATOM     86  C   UNL A   1      34.578  31.053  28.169  1.00  0.00     0.198 A 
ATOM     87  F   UNL A   1      35.768  29.274  29.144  1.00  0.00    -0.203 F 
ATOM     88  F   UNL A   1      35.447  34.551  27.807  1.00  0.00    -0.200 F 
ATOM     89  C   UNL A   1      34.486  32.395  27.830  1.00  0.00     0.200 A 
ATOM     90  F   UNL A   1      33.557  30.225  27.909  1.00  0.00    -0.200 F 
ATOM     91  F   UNL A   1      33.370  32.869  27.261  1.00  0.00    -0.200 F 
ENDBRANCH  57  81
BRANCH  69  92
ATOM     92  C   UNL A   1      39.101  32.134  35.610  1.00  0.00     0.064 A 
ATOM     93  C   UNL A   1      38.325  31.474  36.574  1.00  0.00     0.173 A 
ATOM     94  C   UNL A   1      39.411  33.486  35.827  1.00  0.00     0.173 A 
ATOM     95  F   UNL A   1      37.991  30.185  36.403  1.00  0.00    -0.203 F 
ATOM     96  C   UNL A   1      37.868  32.144  37.706  1.00  0.00     0.198 A 
ATOM     97  C   UNL A   1      38.973  34.146  36.972  1.00  0.00     0.198 A 
ATOM     98  F   UNL A   1      40.155  34.159  34.938  1.00  0.00    -0.203 F 
ATOM     99  F   UNL A   1      37.102  31.503  38.597  1.00  0.00    -0.200 F 
ATOM    100  C   UNL A   1      38.200  33.476  37.908  1.00  0.00     0.200 A 
ATOM    101  F   UNL A   1      39.306  35.428  37.173  1.00  0.00    -0.200 F 
ATOM    102  F   UNL A   1      37.772  34.115  39.005  1.00  0.00    -0.200 F 
ENDBRANCH  69  92
ENDBRANCH  43  44
ENDBRANCH  36  38
ENDBRANCH  35  36
ENDBRANCH  34  35
ENDBRANCH  33  34
ENDBRANCH  32  33
ENDBRANCH  31  32
ENDBRANCH   1  31
TORSDOF 25
ENDMDL
MODEL 2
REMARK VINA RESULT:     -10.0      5.001     10.251
REMARK SMILES O=C(N[C@@H](CS)C(=O)N[C@@H](CO)C(=O)OCCOCCOCCOC(=O)c1ccc(-c2c3nc(c(-c4c(F)c(F)c(F)c(F)c4F)c4ccc([nH]4)c(-c4c(F)c(F)c(F)c(F)c4F)c4nc(c(-c5c(F)c(F)c(F)c(F)c5F)c5ccc2[nH]5)C=C4)C=C3)cc1)c1ccc(F)cc1
REMARK SMILES IDX 19 1 18 2 17 3 16 4 15 5 13 6 14 7 10 8 9 9 7 10 8 11 4 13
REMARK SMILES IDX 3 14 1 15 2 16 90 18 91 19 96 20 92 21 95 22 93 23 94 24
REMARK SMILES IDX 5 25 6 26 11 28 12 29 20 31 21 32 22 33 23 34 24 35 25 36
REMARK SMILES IDX 26 37 27 38 28 39 89 40 29 41 88 42 30 43 31 44 32 45 82 46
REMARK SMILES IDX 33 47 87 48 81 49 83 50 34 51 86 52 80 53 79 54 35 56 67 57
REMARK SMILES IDX 47 58 66 59 48 60 51 61 65 62 84 63 49 64 50 65 64 67 85 68
REMARK SMILES IDX 52 69 36 70 37 71 45 72 38 73 39 74 43 75 46 76 40 77 41 78
REMARK SMILES IDX 44 79 42 80 68 81 69 82 77 83 70 84 71 85 75 86 78 87 72 88
REMARK SMILES IDX 73 89 76 90 74 91 53 92 54 93 62 94 55 95 56 96 60 97 63 98
REMARK SMILES IDX 57 99 58 100 61 101 59 102
REMARK H PARENT 9 12 3 17 6 27 12 30 83 55 51 66
REMARK Flexibility Score: inf
ROOT
ATOM      1  C   UNL A   1      33.693  32.628  27.787  1.00  0.00     0.188 C 
ENDROOT
BRANCH   1   2
ATOM      2  O   UNL A   1      34.354  31.461  28.243  1.00  0.00    -0.376 OA
BRANCH   2   3
ATOM      3  C   UNL A   1      34.568  30.408  27.307  1.00  0.00     0.202 C 
BRANCH   3   4
ATOM      4  C   UNL A   1      33.544  29.267  27.264  1.00  0.00     0.261 C 
BRANCH   4   5
ATOM      5  O   UNL A   1      32.980  29.066  25.950  1.00  0.00    -0.462 OA
BRANCH   5   6
ATOM      6  C   UNL A   1      32.907  27.764  25.551  1.00  0.00     0.331 C 
ATOM      7  O   UNL A   1      33.226  26.810  26.252  1.00  0.00    -0.250 OA
BRANCH   6   8
ATOM      8  C   UNL A   1      32.390  27.590  24.105  1.00  0.00     0.218 C 
BRANCH   8   9
ATOM      9  N   UNL A   1      30.956  27.317  23.960  1.00  0.00    -0.339 N 
ATOM     10  C   UNL A   1      30.194  26.211  24.132  1.00  0.00     0.244 C 
ATOM     11  O   UNL A   1      28.985  26.344  23.906  1.00  0.00    -0.273 OA
ATOM     12  H   UNL A   1      30.436  28.105  23.679  1.00  0.00     0.164 HD
BRANCH  10  13
ATOM     13  C   UNL A   1      30.693  24.854  24.677  1.00  0.00     0.181 C 
BRANCH  13  14
ATOM     14  N   UNL A   1      30.058  24.360  25.895  1.00  0.00    -0.339 N 
ATOM     15  O   UNL A   1      29.717  22.877  27.552  1.00  0.00    -0.269 OA
ATOM     16  C   UNL A   1      30.487  23.342  26.717  1.00  0.00     0.251 C 
ATOM     17  H   UNL A   1      29.222  24.810  26.160  1.00  0.00     0.164 HD
BRANCH  16  18
ATOM     18  C   UNL A   1      31.851  22.768  26.583  1.00  0.00     0.040 A 
ATOM     19  C   UNL A   1      32.078  21.580  25.872  1.00  0.00     0.017 A 
ATOM     20  C   UNL A   1      32.935  23.468  27.130  1.00  0.00     0.017 A 
ATOM     21  C   UNL A   1      33.370  21.057  25.779  1.00  0.00     0.040 A 
ATOM     22  C   UNL A   1      34.229  22.950  27.021  1.00  0.00     0.040 A 
ATOM     23  C   UNL A   1      34.433  21.744  26.358  1.00  0.00     0.123 A 
ATOM     24  F   UNL A   1      35.670  21.239  26.267  1.00  0.00    -0.207 F 
ENDBRANCH  16  18
ENDBRANCH  13  14
BRANCH  13  25
ATOM     25  C   UNL A   1      30.898  23.779  23.597  1.00  0.00     0.101 C 
BRANCH  25  26
ATOM     26  S   UNL A   1      32.487  23.732  22.718  1.00  0.00    -0.177 SA
ATOM     27  H   UNL A   1      33.054  24.968  22.736  1.00  0.00     0.102 HD
ENDBRANCH  25  26
ENDBRANCH  13  25
ENDBRANCH  10  13
ENDBRANCH   8   9
BRANCH   8  28
ATOM     28  C   UNL A   1      32.757  28.856  23.323  1.00  0.00     0.193 C 
BRANCH  28  29
ATOM     29  O   UNL A   1      31.608  29.676  23.106  1.00  0.00    -0.394 OA
ATOM     30  H   UNL A   1      30.805  29.150  23.242  1.00  0.00     0.210 HD
ENDBRANCH  28  29
ENDBRANCH   8  28
ENDBRANCH   6   8
ENDBRANCH   5   6
ENDBRANCH   4   5
ENDBRANCH   3   4
ENDBRANCH   2   3
ENDBRANCH   1   2
BRANCH   1  31
ATOM     31  C   UNL A   1      34.415  33.980  27.903  1.00  0.00     0.188 C 
BRANCH  31  32
ATOM     32  O   UNL A   1      34.910  34.428  29.140  1.00  0.00    -0.376 OA
BRANCH  32  33
ATOM     33  C   UNL A   1      34.045  34.638  30.243  1.00  0.00     0.202 C 
BRANCH  33  34
ATOM     34  C   UNL A   1      34.064  33.823  31.550  1.00  0.00     0.261 C 
BRANCH  34  35
ATOM     35  O   UNL A   1      34.608  32.503  31.484  1.00  0.00    -0.460 OA
BRANCH  35  36
ATOM     36  C   UNL A   1      35.548  32.212  32.419  1.00  0.00     0.338 C 
ATOM     37  O   UNL A   1      35.504  32.403  33.618  1.00  0.00    -0.246 OA
BRANCH  36  38
ATOM     38  C   UNL A   1      36.644  31.485  31.759  1.00  0.00     0.060 A 
ATOM     39  C   UNL A   1      37.436  30.628  32.530  1.00  0.00     0.016 A 
ATOM     40  C   UNL A   1      36.931  31.702  30.413  1.00  0.00     0.016 A 
ATOM     41  C   UNL A   1      38.502  29.950  31.944  1.00  0.00     0.010 A 
ATOM     42  C   UNL A   1      38.024  31.046  29.835  1.00  0.00     0.010 A 
ATOM     43  C   UNL A   1      38.815  30.170  30.599  1.00  0.00    -0.014 A 
BRANCH  43  44
ATOM     44  C   UNL A   1      40.073  29.620  30.044  1.00  0.00     0.031 A 
ATOM     45  C   UNL A   1      41.288  30.501  30.015  1.00  0.00     0.074 A 
ATOM     46  C   UNL A   1      40.156  28.346  29.623  1.00  0.00     0.049 A 
ATOM     47  N   UNL A   1      42.445  30.301  29.442  1.00  0.00    -0.248 NA
ATOM     48  C   UNL A   1      41.185  31.771  30.750  1.00  0.00     0.031 C 
ATOM     49  C   UNL A   1      39.094  27.348  29.724  1.00  0.00     0.029 A 
ATOM     50  N   UNL A   1      41.193  27.676  29.021  1.00  0.00    -0.354 N 
ATOM     51  C   UNL A   1      43.202  31.428  29.729  1.00  0.00     0.074 A 
ATOM     52  C   UNL A   1      42.378  32.305  30.532  1.00  0.00     0.031 C 
ATOM     53  C   UNL A   1      39.530  26.194  29.186  1.00  0.00     0.029 A 
ATOM     54  C   UNL A   1      40.874  26.395  28.647  1.00  0.00     0.049 A 
ATOM     55  H   UNL A   1      42.080  28.078  28.871  1.00  0.00     0.167 HD
ATOM     56  C   UNL A   1      44.470  31.709  29.347  1.00  0.00     0.037 A 
ATOM     57  C   UNL A   1      41.572  25.508  27.908  1.00  0.00     0.037 A 
ATOM     58  C   UNL A   1      45.284  30.838  28.542  1.00  0.00     0.049 A 
ATOM     59  C   UNL A   1      42.923  25.905  27.363  1.00  0.00     0.074 A 
ATOM     60  C   UNL A   1      46.561  31.053  28.058  1.00  0.00     0.029 A 
ATOM     61  N   UNL A   1      44.892  29.583  28.103  1.00  0.00    -0.354 N 
ATOM     62  N   UNL A   1      43.613  26.999  27.571  1.00  0.00    -0.248 NA
ATOM     63  C   UNL A   1      43.579  24.950  26.456  1.00  0.00     0.031 C 
ATOM     64  C   UNL A   1      46.929  29.942  27.291  1.00  0.00     0.029 A 
ATOM     65  C   UNL A   1      45.897  29.018  27.335  1.00  0.00     0.049 A 
ATOM     66  H   UNL A   1      44.030  29.157  28.307  1.00  0.00     0.167 HD
ATOM     67  C   UNL A   1      44.787  26.857  26.841  1.00  0.00     0.074 A 
ATOM     68  C   UNL A   1      44.724  25.563  26.195  1.00  0.00     0.031 C 
ATOM     69  C   UNL A   1      45.822  27.723  26.711  1.00  0.00     0.037 A 
BRANCH  56  70
ATOM     70  C   UNL A   1      45.029  33.039  29.748  1.00  0.00     0.064 A 
ATOM     71  C   UNL A   1      44.838  34.185  28.963  1.00  0.00     0.173 A 
ATOM     72  C   UNL A   1      45.752  33.168  30.942  1.00  0.00     0.173 A 
ATOM     73  F   UNL A   1      44.173  34.105  27.801  1.00  0.00    -0.203 F 
ATOM     74  C   UNL A   1      45.369  35.412  29.354  1.00  0.00     0.198 A 
ATOM     75  C   UNL A   1      46.259  34.401  31.341  1.00  0.00     0.198 A 
ATOM     76  F   UNL A   1      45.962  32.098  31.724  1.00  0.00    -0.203 F 
ATOM     77  F   UNL A   1      45.211  36.489  28.571  1.00  0.00    -0.200 F 
ATOM     78  C   UNL A   1      46.072  35.520  30.545  1.00  0.00     0.200 A 
ATOM     79  F   UNL A   1      46.934  34.503  32.495  1.00  0.00    -0.200 F 
ATOM     80  F   UNL A   1      46.579  36.702  30.921  1.00  0.00    -0.200 F 
ENDBRANCH  56  70
BRANCH  57  81
ATOM     81  C   UNL A   1      40.988  24.182  27.571  1.00  0.00     0.064 A 
ATOM     82  C   UNL A   1      41.538  22.998  28.083  1.00  0.00     0.173 A 
ATOM     83  C   UNL A   1      39.908  24.068  26.683  1.00  0.00     0.173 A 
ATOM     84  F   UNL A   1      42.595  23.052  28.906  1.00  0.00    -0.203 F 
ATOM     85  C   UNL A   1      41.040  21.752  27.706  1.00  0.00     0.198 A 
ATOM     86  C   UNL A   1      39.391  22.823  26.331  1.00  0.00     0.198 A 
ATOM     87  F   UNL A   1      39.356  25.168  26.151  1.00  0.00    -0.203 F 
ATOM     88  F   UNL A   1      41.620  20.634  28.165  1.00  0.00    -0.200 F 
ATOM     89  C   UNL A   1      39.964  21.665  26.835  1.00  0.00     0.200 A 
ATOM     90  F   UNL A   1      38.350  22.745  25.492  1.00  0.00    -0.200 F 
ATOM     91  F   UNL A   1      39.491  20.467  26.467  1.00  0.00    -0.200 F 
ENDBRANCH  57  81
BRANCH  69  92
ATOM     92  C   UNL A   1      46.987  27.293  25.868  1.00  0.00     0.064 A 
ATOM     93  C   UNL A   1      47.079  27.637  24.513  1.00  0.00     0.173 A 
ATOM     94  C   UNL A   1      48.055  26.585  26.442  1.00  0.00     0.173 A 
ATOM     95  F   UNL A   1      46.076  28.301  23.917  1.00  0.00    -0.203 F 
ATOM     96  C   UNL A   1      48.192  27.279  23.757  1.00  0.00     0.198 A 
ATOM     97  C   UNL A   1      49.178  26.250  25.690  1.00  0.00     0.198 A 
ATOM     98  F   UNL A   1      48.018  26.238  27.737  1.00  0.00    -0.203 F 
ATOM     99  F   UNL A   1      48.244  27.590  22.456  1.00  0.00    -0.200 F 
ATOM    100  C   UNL A   1      49.243  26.594  24.349  1.00  0.00     0.200 A 
ATOM    101  F   UNL A   1      50.198  25.601  26.266  1.00  0.00    -0.200 F 
ATOM    102  F   UNL A   1      50.320  26.263  23.623  1.00  0.00    -0.200 F 
ENDBRANCH  69  92
ENDBRANCH  43  44
ENDBRANCH  36  38
ENDBRANCH  35  36
ENDBRANCH  34  35
ENDBRANCH  33  34
ENDBRANCH  32  33
ENDBRANCH  31  32
ENDBRANCH   1  31
TORSDOF 25
ENDMDL
MODEL 3
REMARK VINA RESULT:      -9.9      3.576      9.433
REMARK SMILES O=C(N[C@@H](CS)C(=O)N[C@@H](CO)C(=O)OCCOCCOCCOC(=O)c1ccc(-c2c3nc(c(-c4c(F)c(F)c(F)c(F)c4F)c4ccc([nH]4)c(-c4c(F)c(F)c(F)c(F)c4F)c4nc(c(-c5c(F)c(F)c(F)c(F)c5F)c5ccc2[nH]5)C=C4)C=C3)cc1)c1ccc(F)cc1
REMARK SMILES IDX 19 1 18 2 17 3 16 4 15 5 13 6 14 7 10 8 9 9 7 10 8 11 4 13
REMARK SMILES IDX 3 14 1 15 2 16 90 18 91 19 96 20 92 21 95 22 93 23 94 24
REMARK SMILES IDX 5 25 6 26 11 28 12 29 20 31 21 32 22 33 23 34 24 35 25 36
REMARK SMILES IDX 26 37 27 38 28 39 89 40 29 41 88 42 30 43 31 44 32 45 82 46
REMARK SMILES IDX 33 47 87 48 81 49 83 50 34 51 86 52 80 53 79 54 35 56 67 57
REMARK SMILES IDX 47 58 66 59 48 60 51 61 65 62 84 63 49 64 50 65 64 67 85 68
REMARK SMILES IDX 52 69 36 70 37 71 45 72 38 73 39 74 43 75 46 76 40 77 41 78
REMARK SMILES IDX 44 79 42 80 68 81 69 82 77 83 70 84 71 85 75 86 78 87 72 88
REMARK SMILES IDX 73 89 76 90 74 91 53 92 54 93 62 94 55 95 56 96 60 97 63 98
REMARK SMILES IDX 57 99 58 100 61 101 59 102
REMARK H PARENT 9 12 3 17 6 27 12 30 83 55 51 66
REMARK Flexibility Score: inf
ROOT
ATOM      1  C   UNL A   1      33.637  32.815  28.373  1.00  0.00     0.188 C 
ENDROOT
BRANCH   1   2
ATOM      2  O   UNL A   1      34.258  31.647  27.865  1.00  0.00    -0.376 OA
BRANCH   2   3
ATOM      3  C   UNL A   1      33.426  30.658  27.264  1.00  0.00     0.202 C 
BRANCH   3   4
ATOM      4  C   UNL A   1      34.046  29.289  26.960  1.00  0.00     0.261 C 
BRANCH   4   5
ATOM      5  O   UNL A   1      33.093  28.349  26.416  1.00  0.00    -0.462 OA
BRANCH   5   6
ATOM      6  C   UNL A   1      33.204  28.132  25.074  1.00  0.00     0.331 C 
ATOM      7  O   UNL A   1      34.202  28.400  24.414  1.00  0.00    -0.250 OA
BRANCH   6   8
ATOM      8  C   UNL A   1      31.934  27.521  24.441  1.00  0.00     0.218 C 
BRANCH   8   9
ATOM      9  N   UNL A   1      31.090  26.717  25.333  1.00  0.00    -0.339 N 
ATOM     10  C   UNL A   1      31.117  25.423  25.727  1.00  0.00     0.244 C 
ATOM     11  O   UNL A   1      30.218  25.073  26.502  1.00  0.00    -0.273 OA
ATOM     12  H   UNL A   1      30.347  27.228  25.729  1.00  0.00     0.164 HD
BRANCH  10  13
ATOM     13  C   UNL A   1      32.219  24.400  25.373  1.00  0.00     0.181 C 
BRANCH  13  14
ATOM     14  N   UNL A   1      32.845  24.535  24.062  1.00  0.00    -0.339 N 
ATOM     15  O   UNL A   1      34.243  23.931  22.405  1.00  0.00    -0.269 OA
ATOM     16  C   UNL A   1      33.567  23.587  23.370  1.00  0.00     0.251 C 
ATOM     17  H   UNL A   1      32.739  25.408  23.619  1.00  0.00     0.164 HD
BRANCH  16  18
ATOM     18  C   UNL A   1      33.576  22.164  23.797  1.00  0.00     0.040 A 
ATOM     19  C   UNL A   1      32.505  21.306  23.502  1.00  0.00     0.017 A 
ATOM     20  C   UNL A   1      34.707  21.663  24.455  1.00  0.00     0.017 A 
ATOM     21  C   UNL A   1      32.536  19.977  23.933  1.00  0.00     0.040 A 
ATOM     22  C   UNL A   1      34.740  20.328  24.872  1.00  0.00     0.040 A 
ATOM     23  C   UNL A   1      33.650  19.501  24.618  1.00  0.00     0.123 A 
ATOM     24  F   UNL A   1      33.675  18.228  25.030  1.00  0.00    -0.207 F 
ENDBRANCH  16  18
ENDBRANCH  13  14
BRANCH  13  25
ATOM     25  C   UNL A   1      33.209  24.121  26.515  1.00  0.00     0.101 C 
BRANCH  25  26
ATOM     26  S   UNL A   1      32.948  22.646  27.544  1.00  0.00    -0.177 SA
ATOM     27  H   UNL A   1      32.230  22.984  28.648  1.00  0.00     0.102 HD
ENDBRANCH  25  26
ENDBRANCH  13  25
ENDBRANCH  10  13
ENDBRANCH   8   9
BRANCH   8  28
ATOM     28  C   UNL A   1      31.111  28.669  23.846  1.00  0.00     0.193 C 
BRANCH  28  29
ATOM     29  O   UNL A   1      31.466  29.917  24.440  1.00  0.00    -0.394 OA
ATOM     30  H   UNL A   1      30.812  30.590  24.193  1.00  0.00     0.210 HD
ENDBRANCH  28  29
ENDBRANCH   8  28
ENDBRANCH   6   8
ENDBRANCH   5   6
ENDBRANCH   4   5
ENDBRANCH   3   4
ENDBRANCH   2   3
ENDBRANCH   1   2
BRANCH   1  31
ATOM     31  C   UNL A   1      34.515  33.898  29.021  1.00  0.00     0.188 C 
BRANCH  31  32
ATOM     32  O   UNL A   1      34.610  35.180  28.455  1.00  0.00    -0.376 OA
BRANCH  32  33
ATOM     33  C   UNL A   1      33.653  36.184  28.748  1.00  0.00     0.202 C 
BRANCH  33  34
ATOM     34  C   UNL A   1      32.523  36.052  29.786  1.00  0.00     0.261 C 
BRANCH  34  35
ATOM     35  O   UNL A   1      32.632  36.846  30.970  1.00  0.00    -0.460 OA
BRANCH  35  36
ATOM     36  C   UNL A   1      32.499  36.171  32.139  1.00  0.00     0.338 C 
ATOM     37  O   UNL A   1      31.560  36.177  32.911  1.00  0.00    -0.246 OA
BRANCH  36  38
ATOM     38  C   UNL A   1      33.667  35.289  32.299  1.00  0.00     0.060 A 
ATOM     39  C   UNL A   1      33.454  33.963  32.684  1.00  0.00     0.016 A 
ATOM     40  C   UNL A   1      34.959  35.787  32.139  1.00  0.00     0.016 A 
ATOM     41  C   UNL A   1      34.538  33.111  32.876  1.00  0.00     0.010 A 
ATOM     42  C   UNL A   1      36.048  34.938  32.366  1.00  0.00     0.010 A 
ATOM     43  C   UNL A   1      35.842  33.598  32.739  1.00  0.00    -0.014 A 
BRANCH  43  44
ATOM     44  C   UNL A   1      36.984  32.753  33.156  1.00  0.00     0.031 A 
ATOM     45  C   UNL A   1      37.591  32.986  34.508  1.00  0.00     0.074 A 
ATOM     46  C   UNL A   1      37.443  31.759  32.376  1.00  0.00     0.049 A 
ATOM     47  N   UNL A   1      38.682  32.488  35.026  1.00  0.00    -0.248 NA
ATOM     48  C   UNL A   1      36.853  33.892  35.402  1.00  0.00     0.031 C 
ATOM     49  C   UNL A   1      36.858  31.338  31.105  1.00  0.00     0.029 A 
ATOM     50  N   UNL A   1      38.519  30.921  32.546  1.00  0.00    -0.354 N 
ATOM     51  C   UNL A   1      38.773  33.034  36.299  1.00  0.00     0.074 A 
ATOM     52  C   UNL A   1      37.625  33.896  36.478  1.00  0.00     0.031 C 
ATOM     53  C   UNL A   1      37.592  30.329  30.602  1.00  0.00     0.029 A 
ATOM     54  C   UNL A   1      38.732  30.080  31.483  1.00  0.00     0.049 A 
ATOM     55  H   UNL A   1      39.082  30.925  33.354  1.00  0.00     0.167 HD
ATOM     56  C   UNL A   1      39.736  32.840  37.230  1.00  0.00     0.037 A 
ATOM     57  C   UNL A   1      39.761  29.245  31.231  1.00  0.00     0.037 A 
ATOM     58  C   UNL A   1      40.880  31.989  37.046  1.00  0.00     0.049 A 
ATOM     59  C   UNL A   1      40.901  29.163  32.217  1.00  0.00     0.074 A 
ATOM     60  C   UNL A   1      41.938  31.764  37.907  1.00  0.00     0.029 A 
ATOM     61  N   UNL A   1      41.112  31.221  35.915  1.00  0.00    -0.354 N 
ATOM     62  N   UNL A   1      41.028  29.733  33.390  1.00  0.00    -0.248 NA
ATOM     63  C   UNL A   1      42.056  28.338  31.828  1.00  0.00     0.031 C 
ATOM     64  C   UNL A   1      42.833  30.890  37.281  1.00  0.00     0.029 A 
ATOM     65  C   UNL A   1      42.308  30.536  36.047  1.00  0.00     0.049 A 
ATOM     66  H   UNL A   1      40.515  31.170  35.134  1.00  0.00     0.167 HD
ATOM     67  C   UNL A   1      42.260  29.324  33.885  1.00  0.00     0.074 A 
ATOM     68  C   UNL A   1      42.838  28.444  32.892  1.00  0.00     0.031 C 
ATOM     69  C   UNL A   1      42.861  29.652  35.054  1.00  0.00     0.037 A 
BRANCH  56  70
ATOM     70  C   UNL A   1      39.620  33.610  38.509  1.00  0.00     0.064 A 
ATOM     71  C   UNL A   1      40.306  34.817  38.707  1.00  0.00     0.173 A 
ATOM     72  C   UNL A   1      38.797  33.140  39.543  1.00  0.00     0.173 A 
ATOM     73  F   UNL A   1      41.122  35.295  37.756  1.00  0.00    -0.203 F 
ATOM     74  C   UNL A   1      40.184  35.516  39.906  1.00  0.00     0.198 A 
ATOM     75  C   UNL A   1      38.659  33.855  40.728  1.00  0.00     0.198 A 
ATOM     76  F   UNL A   1      38.123  31.989  39.399  1.00  0.00    -0.203 F 
ATOM     77  F   UNL A   1      40.879  36.648  40.093  1.00  0.00    -0.200 F 
ATOM     78  C   UNL A   1      39.357  35.038  40.911  1.00  0.00     0.200 A 
ATOM     79  F   UNL A   1      37.855  33.394  41.696  1.00  0.00    -0.200 F 
ATOM     80  F   UNL A   1      39.239  35.715  42.062  1.00  0.00    -0.200 F 
ENDBRANCH  56  70
BRANCH  57  81
ATOM     81  C   UNL A   1      39.810  28.470  29.962  1.00  0.00     0.064 A 
ATOM     82  C   UNL A   1      39.266  27.180  29.881  1.00  0.00     0.173 A 
ATOM     83  C   UNL A   1      40.454  28.978  28.824  1.00  0.00     0.173 A 
ATOM     84  F   UNL A   1      38.672  26.635  30.953  1.00  0.00    -0.203 F 
ATOM     85  C   UNL A   1      39.380  26.423  28.716  1.00  0.00     0.198 A 
ATOM     86  C   UNL A   1      40.541  28.232  27.650  1.00  0.00     0.198 A 
ATOM     87  F   UNL A   1      41.006  30.199  28.853  1.00  0.00    -0.203 F 
ATOM     88  F   UNL A   1      38.901  25.172  28.683  1.00  0.00    -0.200 F 
ATOM     89  C   UNL A   1      40.012  26.951  27.600  1.00  0.00     0.200 A 
ATOM     90  F   UNL A   1      41.149  28.749  26.574  1.00  0.00    -0.200 F 
ATOM     91  F   UNL A   1      40.128  26.220  26.484  1.00  0.00    -0.200 F 
ENDBRANCH  57  81
BRANCH  69  92
ATOM     92  C   UNL A   1      44.198  29.036  35.346  1.00  0.00     0.064 A 
ATOM     93  C   UNL A   1      44.310  27.743  35.878  1.00  0.00     0.173 A 
ATOM     94  C   UNL A   1      45.381  29.721  35.025  1.00  0.00     0.173 A 
ATOM     95  F   UNL A   1      43.208  27.055  36.213  1.00  0.00    -0.203 F 
ATOM     96  C   UNL A   1      45.558  27.163  36.090  1.00  0.00     0.198 A 
ATOM     97  C   UNL A   1      46.626  29.128  35.216  1.00  0.00     0.198 A 
ATOM     98  F   UNL A   1      45.327  30.957  34.507  1.00  0.00    -0.203 F 
ATOM     99  F   UNL A   1      45.642  25.940  36.630  1.00  0.00    -0.200 F 
ATOM    100  C   UNL A   1      46.713  27.852  35.751  1.00  0.00     0.200 A 
ATOM    101  F   UNL A   1      47.740  29.789  34.875  1.00  0.00    -0.200 F 
ATOM    102  F   UNL A   1      47.912  27.287  35.944  1.00  0.00    -0.200 F 
ENDBRANCH  69  92
ENDBRANCH  43  44
ENDBRANCH  36  38
ENDBRANCH  35  36
ENDBRANCH  34  35
ENDBRANCH  33  34
ENDBRANCH  32  33
ENDBRANCH  31  32
ENDBRANCH   1  31
TORSDOF 25
ENDMDL
