MODEL 1
REMARK VINA RESULT:     -12.7      0.000      0.000
REMARK SMILES COC(=O)c1ccc(NC(=O)[C@@H]2CC=CC[C@@H]2C(=O)OCCOCCOCCOC(=O)c2ccc(-c3c4nc(c(-c5c(F)c(F)c(F)c(F)c5F)c5ccc([nH]5)c(-c5c(F)c(F)c(F)c(F)c5F)c5nc(c(-c6c(F)c(F)c(F)c(F)c6F)c6ccc3[nH]6)C=C5)C=C4)cc2)c(C)c1
REMARK SMILES IDX 24 1 23 2 22 3 21 4 20 5 18 6 19 7 17 8 12 9 13 10 14 11
REMARK SMILES IDX 16 12 15 13 10 14 9 15 11 17 8 18 5 19 6 20 97 21 7 22 95 23
REMARK SMILES IDX 96 24 3 25 4 26 2 27 1 28 25 29 26 30 27 31 28 32 29 33
REMARK SMILES IDX 30 34 31 35 32 36 33 37 94 38 34 39 93 40 35 41 36 42 37 43
REMARK SMILES IDX 87 44 38 45 92 46 86 47 88 48 39 49 91 50 85 51 84 52 40 54
REMARK SMILES IDX 72 55 52 56 71 57 53 58 56 59 70 60 89 61 54 62 55 63 69 65
REMARK SMILES IDX 90 66 57 67 41 68 42 69 50 70 43 71 44 72 48 73 51 74 45 75
REMARK SMILES IDX 46 76 49 77 47 78 73 79 74 80 82 81 75 82 76 83 80 84 83 85
REMARK SMILES IDX 77 86 78 87 81 88 79 89 58 90 59 91 67 92 60 93 61 94 65 95
REMARK SMILES IDX 68 96 62 97 63 98 66 99 64 100
REMARK H PARENT 9 16 88 53 56 64
REMARK Flexibility Score: inf
ROOT
ATOM      1  C   UNL A   1      32.941  33.140  27.706  1.00  0.00     0.188 C 
ENDROOT
BRANCH   1   2
ATOM      2  O   UNL A   1      33.583  31.884  28.070  1.00  0.00    -0.376 OA
BRANCH   2   3
ATOM      3  C   UNL A   1      34.313  31.002  27.175  1.00  0.00     0.202 C 
BRANCH   3   4
ATOM      4  C   UNL A   1      34.411  29.292  27.405  1.00  0.00     0.261 C 
BRANCH   4   5
ATOM      5  O   UNL A   1      33.098  28.094  27.460  1.00  0.00    -0.463 OA
BRANCH   5   6
ATOM      6  C   UNL A   1      31.883  27.399  27.196  1.00  0.00     0.310 C 
ATOM      7  O   UNL A   1      30.880  27.805  27.778  1.00  0.00    -0.252 OA
BRANCH   6   8
ATOM      8  C   UNL A   1      31.400  26.226  26.168  1.00  0.00     0.116 C 
ATOM      9  C   UNL A   1      32.514  25.913  25.034  1.00  0.00     0.097 C 
ATOM     10  C   UNL A   1      32.747  27.112  24.084  1.00  0.00     0.041 C 
ATOM     11  C   UNL A   1      31.448  27.703  23.617  1.00  0.00    -0.030 C 
ATOM     12  C   UNL A   1      30.144  26.352  25.257  1.00  0.00     0.043 C 
ATOM     13  C   UNL A   1      30.267  27.337  24.129  1.00  0.00    -0.030 C 
BRANCH   9  14
ATOM     14  C   UNL A   1      33.836  25.311  25.474  1.00  0.00     0.228 C 
ATOM     15  N   UNL A   1      34.067  23.976  25.694  1.00  0.00    -0.326 N 
ATOM     16  H   UNL A   1      34.869  23.816  26.243  1.00  0.00     0.169 HD
ATOM     17  O   UNL A   1      34.841  26.027  25.529  1.00  0.00    -0.274 OA
BRANCH  15  18
ATOM     18  C   UNL A   1      33.417  22.778  25.315  1.00  0.00     0.044 A 
ATOM     19  C   UNL A   1      32.695  20.189  24.421  1.00  0.00     0.060 A 
ATOM     20  C   UNL A   1      32.444  21.306  23.630  1.00  0.00     0.018 A 
ATOM     21  C   UNL A   1      33.176  20.380  25.719  1.00  0.00     0.021 A 
ATOM     22  C   UNL A   1      32.776  22.587  24.090  1.00  0.00     0.027 A 
ATOM     23  C   UNL A   1      33.505  21.666  26.191  1.00  0.00    -0.027 A 
ATOM     24  C   UNL A   1      33.957  21.773  27.625  1.00  0.00     0.046 C 
BRANCH  19  25
ATOM     25  C   UNL A   1      32.367  18.841  23.887  1.00  0.00     0.337 C 
ATOM     26  O   UNL A   1      32.363  18.548  22.701  1.00  0.00    -0.246 OA
BRANCH  25  27
ATOM     27  O   UNL A   1      31.998  18.019  24.895  1.00  0.00    -0.465 OA
ATOM     28  C   UNL A   1      32.809  16.849  24.976  1.00  0.00     0.282 C 
ENDBRANCH  25  27
ENDBRANCH  19  25
ENDBRANCH  15  18
ENDBRANCH   9  14
ENDBRANCH   6   8
ENDBRANCH   5   6
ENDBRANCH   4   5
ENDBRANCH   3   4
ENDBRANCH   2   3
ENDBRANCH   1   2
BRANCH   1  29
ATOM     29  C   UNL A   1      33.313  34.488  28.348  1.00  0.00     0.188 C 
BRANCH  29  30
ATOM     30  O   UNL A   1      32.589  34.855  29.521  1.00  0.00    -0.376 OA
BRANCH  30  31
ATOM     31  C   UNL A   1      33.198  35.733  30.474  1.00  0.00     0.202 C 
BRANCH  31  32
ATOM     32  C   UNL A   1      33.693  35.139  31.813  1.00  0.00     0.261 C 
BRANCH  32  33
ATOM     33  O   UNL A   1      35.000  34.564  31.685  1.00  0.00    -0.460 OA
BRANCH  33  34
ATOM     34  C   UNL A   1      35.085  33.271  32.126  1.00  0.00     0.338 C 
ATOM     35  O   UNL A   1      35.153  32.911  33.286  1.00  0.00    -0.246 OA
BRANCH  34  36
ATOM     36  C   UNL A   1      35.532  32.458  30.962  1.00  0.00     0.060 A 
ATOM     37  C   UNL A   1      35.707  31.088  31.172  1.00  0.00     0.016 A 
ATOM     38  C   UNL A   1      36.227  33.099  29.943  1.00  0.00     0.016 A 
ATOM     39  C   UNL A   1      36.809  30.457  30.595  1.00  0.00     0.010 A 
ATOM     40  C   UNL A   1      37.372  32.489  29.460  1.00  0.00     0.010 A 
ATOM     41  C   UNL A   1      37.763  31.224  29.913  1.00  0.00    -0.014 A 
BRANCH  41  42
ATOM     42  C   UNL A   1      39.243  30.936  29.985  1.00  0.00     0.031 A 
ATOM     43  C   UNL A   1      39.738  29.622  28.968  1.00  0.00     0.074 A 
ATOM     44  C   UNL A   1      39.975  31.773  30.896  1.00  0.00     0.049 A 
ATOM     45  N   UNL A   1      40.503  28.640  29.388  1.00  0.00    -0.248 NA
ATOM     46  C   UNL A   1      39.421  29.280  27.564  1.00  0.00     0.031 C 
ATOM     47  C   UNL A   1      41.405  32.183  31.032  1.00  0.00     0.029 A 
ATOM     48  N   UNL A   1      39.539  32.364  32.133  1.00  0.00    -0.354 N 
ATOM     49  C   UNL A   1      41.054  27.848  28.421  1.00  0.00     0.074 A 
ATOM     50  C   UNL A   1      40.206  28.202  27.295  1.00  0.00     0.031 C 
ATOM     51  C   UNL A   1      41.787  32.695  32.183  1.00  0.00     0.029 A 
ATOM     52  C   UNL A   1      40.659  32.604  32.992  1.00  0.00     0.049 A 
ATOM     53  H   UNL A   1      38.604  32.575  32.356  1.00  0.00     0.167 HD
ATOM     54  C   UNL A   1      42.236  27.133  28.628  1.00  0.00     0.037 A 
ATOM     55  C   UNL A   1      40.888  32.272  34.281  1.00  0.00     0.037 A 
ATOM     56  C   UNL A   1      43.106  27.533  29.823  1.00  0.00     0.049 A 
ATOM     57  C   UNL A   1      41.883  31.104  34.554  1.00  0.00     0.074 A 
ATOM     58  C   UNL A   1      44.318  28.235  29.891  1.00  0.00     0.029 A 
ATOM     59  N   UNL A   1      42.758  27.405  31.171  1.00  0.00    -0.354 N 
ATOM     60  N   UNL A   1      42.780  30.536  33.747  1.00  0.00    -0.248 NA
ATOM     61  C   UNL A   1      41.719  30.364  35.800  1.00  0.00     0.031 C 
ATOM     62  C   UNL A   1      44.627  28.592  31.240  1.00  0.00     0.029 A 
ATOM     63  C   UNL A   1      43.636  28.092  32.056  1.00  0.00     0.049 A 
ATOM     64  H   UNL A   1      41.980  26.888  31.479  1.00  0.00     0.167 HD
ATOM     65  C   UNL A   1      43.027  29.221  34.224  1.00  0.00     0.074 A 
ATOM     66  C   UNL A   1      42.409  29.243  35.557  1.00  0.00     0.031 C 
ATOM     67  C   UNL A   1      43.439  28.074  33.528  1.00  0.00     0.037 A 
BRANCH  54  68
ATOM     68  C   UNL A   1      42.849  26.277  27.510  1.00  0.00     0.064 A 
ATOM     69  C   UNL A   1      42.549  24.903  27.329  1.00  0.00     0.173 A 
ATOM     70  C   UNL A   1      43.726  26.804  26.543  1.00  0.00     0.173 A 
ATOM     71  F   UNL A   1      41.618  24.272  28.050  1.00  0.00    -0.203 F 
ATOM     72  C   UNL A   1      43.179  24.103  26.372  1.00  0.00     0.198 A 
ATOM     73  C   UNL A   1      44.370  25.999  25.591  1.00  0.00     0.198 A 
ATOM     74  F   UNL A   1      43.954  28.123  26.472  1.00  0.00    -0.203 F 
ATOM     75  F   UNL A   1      42.869  22.800  26.287  1.00  0.00    -0.200 F 
ATOM     76  C   UNL A   1      44.113  24.644  25.519  1.00  0.00     0.200 A 
ATOM     77  F   UNL A   1      45.245  26.550  24.739  1.00  0.00    -0.200 F 
ATOM     78  F   UNL A   1      44.736  23.872  24.619  1.00  0.00    -0.200 F 
ENDBRANCH  54  68
BRANCH  55  79
ATOM     79  C   UNL A   1      40.068  33.190  35.137  1.00  0.00     0.064 A 
ATOM     80  C   UNL A   1      38.944  32.532  35.712  1.00  0.00     0.173 A 
ATOM     81  C   UNL A   1      40.777  34.038  35.994  1.00  0.00     0.173 A 
ATOM     82  F   UNL A   1      38.169  31.743  34.950  1.00  0.00    -0.203 F 
ATOM     83  C   UNL A   1      38.805  32.434  37.101  1.00  0.00     0.198 A 
ATOM     84  C   UNL A   1      40.661  33.918  37.377  1.00  0.00     0.198 A 
ATOM     85  F   UNL A   1      41.681  34.891  35.513  1.00  0.00    -0.203 F 
ATOM     86  F   UNL A   1      37.894  31.605  37.630  1.00  0.00    -0.200 F 
ATOM     87  C   UNL A   1      39.715  33.070  37.929  1.00  0.00     0.200 A 
ATOM     88  F   UNL A   1      41.550  34.536  38.169  1.00  0.00    -0.200 F 
ATOM     89  F   UNL A   1      39.717  32.826  39.247  1.00  0.00    -0.200 F 
ENDBRANCH  55  79
BRANCH  67  90
ATOM     90  C   UNL A   1      43.630  26.705  34.230  1.00  0.00     0.064 A 
ATOM     91  C   UNL A   1      42.554  25.911  34.673  1.00  0.00     0.173 A 
ATOM     92  C   UNL A   1      44.905  26.178  34.567  1.00  0.00     0.173 A 
ATOM     93  F   UNL A   1      41.294  26.362  34.620  1.00  0.00    -0.203 F 
ATOM     94  C   UNL A   1      42.736  24.632  35.220  1.00  0.00     0.198 A 
ATOM     95  C   UNL A   1      45.085  24.930  35.170  1.00  0.00     0.198 A 
ATOM     96  F   UNL A   1      46.046  26.833  34.333  1.00  0.00    -0.203 F 
ATOM     97  F   UNL A   1      41.666  23.880  35.522  1.00  0.00    -0.200 F 
ATOM     98  C   UNL A   1      44.001  24.137  35.459  1.00  0.00     0.200 A 
ATOM     99  F   UNL A   1      46.325  24.504  35.454  1.00  0.00    -0.200 F 
ATOM    100  F   UNL A   1      44.176  22.919  35.989  1.00  0.00    -0.200 F 
ENDBRANCH  67  90
ENDBRANCH  41  42
ENDBRANCH  34  36
ENDBRANCH  33  34
ENDBRANCH  32  33
ENDBRANCH  31  32
ENDBRANCH  30  31
ENDBRANCH  29  30
ENDBRANCH   1  29
TORSDOF 21
ENDMDL
MODEL 2
REMARK VINA RESULT:     -12.5      1.315      2.342
REMARK SMILES COC(=O)c1ccc(NC(=O)[C@@H]2CC=CC[C@@H]2C(=O)OCCOCCOCCOC(=O)c2ccc(-c3c4nc(c(-c5c(F)c(F)c(F)c(F)c5F)c5ccc([nH]5)c(-c5c(F)c(F)c(F)c(F)c5F)c5nc(c(-c6c(F)c(F)c(F)c(F)c6F)c6ccc3[nH]6)C=C5)C=C4)cc2)c(C)c1
REMARK SMILES IDX 24 1 23 2 22 3 21 4 20 5 18 6 19 7 17 8 12 9 13 10 14 11
REMARK SMILES IDX 16 12 15 13 10 14 9 15 11 17 8 18 5 19 6 20 97 21 7 22 95 23
REMARK SMILES IDX 96 24 3 25 4 26 2 27 1 28 25 29 26 30 27 31 28 32 29 33
REMARK SMILES IDX 30 34 31 35 32 36 33 37 94 38 34 39 93 40 35 41 36 42 37 43
REMARK SMILES IDX 87 44 38 45 92 46 86 47 88 48 39 49 91 50 85 51 84 52 40 54
REMARK SMILES IDX 72 55 52 56 71 57 53 58 56 59 70 60 89 61 54 62 55 63 69 65
REMARK SMILES IDX 90 66 57 67 41 68 42 69 50 70 43 71 44 72 48 73 51 74 45 75
REMARK SMILES IDX 46 76 49 77 47 78 73 79 74 80 82 81 75 82 76 83 80 84 83 85
REMARK SMILES IDX 77 86 78 87 81 88 79 89 58 90 59 91 67 92 60 93 61 94 65 95
REMARK SMILES IDX 68 96 62 97 63 98 66 99 64 100
REMARK H PARENT 9 16 88 53 56 64
REMARK Flexibility Score: inf
ROOT
ATOM      1  C   UNL A   1      32.844  33.322  27.754  1.00  0.00     0.188 C 
ENDROOT
BRANCH   1   2
ATOM      2  O   UNL A   1      33.568  32.059  27.706  1.00  0.00    -0.376 OA
BRANCH   2   3
ATOM      3  C   UNL A   1      33.210  30.894  26.915  1.00  0.00     0.202 C 
BRANCH   3   4
ATOM      4  C   UNL A   1      31.577  30.482  26.525  1.00  0.00     0.261 C 
BRANCH   4   5
ATOM      5  O   UNL A   1      30.931  29.758  25.036  1.00  0.00    -0.463 OA
BRANCH   5   6
ATOM      6  C   UNL A   1      30.831  29.052  23.803  1.00  0.00     0.310 C 
ATOM      7  O   UNL A   1      29.968  29.436  23.017  1.00  0.00    -0.252 OA
BRANCH   6   8
ATOM      8  C   UNL A   1      31.688  27.888  23.042  1.00  0.00     0.116 C 
ATOM      9  C   UNL A   1      31.674  26.489  23.859  1.00  0.00     0.097 C 
ATOM     10  C   UNL A   1      32.393  26.593  25.225  1.00  0.00     0.041 C 
ATOM     11  C   UNL A   1      33.716  27.293  25.097  1.00  0.00    -0.030 C 
ATOM     12  C   UNL A   1      33.215  27.998  22.759  1.00  0.00     0.043 C 
ATOM     13  C   UNL A   1      34.099  27.905  23.970  1.00  0.00    -0.030 C 
BRANCH   9  14
ATOM     14  C   UNL A   1      30.354  25.755  24.003  1.00  0.00     0.228 C 
ATOM     15  N   UNL A   1      30.196  24.391  23.969  1.00  0.00    -0.326 N 
ATOM     16  H   UNL A   1      29.266  24.122  23.785  1.00  0.00     0.169 HD
ATOM     17  O   UNL A   1      29.335  26.387  24.298  1.00  0.00    -0.274 OA
BRANCH  15  18
ATOM     18  C   UNL A   1      31.061  23.284  24.138  1.00  0.00     0.044 A 
ATOM     19  C   UNL A   1      33.196  21.503  24.676  1.00  0.00     0.060 A 
ATOM     20  C   UNL A   1      32.867  21.837  23.366  1.00  0.00     0.018 A 
ATOM     21  C   UNL A   1      32.368  21.946  25.710  1.00  0.00     0.021 A 
ATOM     22  C   UNL A   1      31.792  22.696  23.105  1.00  0.00     0.027 A 
ATOM     23  C   UNL A   1      31.279  22.803  25.454  1.00  0.00    -0.027 A 
ATOM     24  C   UNL A   1      30.410  23.175  26.629  1.00  0.00     0.046 C 
BRANCH  19  25
ATOM     25  C   UNL A   1      34.367  20.621  24.921  1.00  0.00     0.337 C 
ATOM     26  O   UNL A   1      34.389  19.420  24.697  1.00  0.00    -0.246 OA
BRANCH  25  27
ATOM     27  O   UNL A   1      35.367  21.324  25.499  1.00  0.00    -0.465 OA
ATOM     28  C   UNL A   1      36.353  21.751  24.562  1.00  0.00     0.282 C 
ENDBRANCH  25  27
ENDBRANCH  19  25
ENDBRANCH  15  18
ENDBRANCH   9  14
ENDBRANCH   6   8
ENDBRANCH   5   6
ENDBRANCH   4   5
ENDBRANCH   3   4
ENDBRANCH   2   3
ENDBRANCH   1   2
BRANCH   1  29
ATOM     29  C   UNL A   1      33.357  34.553  28.522  1.00  0.00     0.188 C 
BRANCH  29  30
ATOM     30  O   UNL A   1      32.658  34.891  29.720  1.00  0.00    -0.376 OA
BRANCH  30  31
ATOM     31  C   UNL A   1      33.291  35.740  30.683  1.00  0.00     0.202 C 
BRANCH  31  32
ATOM     32  C   UNL A   1      34.006  35.085  31.888  1.00  0.00     0.261 C 
BRANCH  32  33
ATOM     33  O   UNL A   1      35.134  34.304  31.472  1.00  0.00    -0.460 OA
BRANCH  33  34
ATOM     34  C   UNL A   1      35.089  32.999  31.882  1.00  0.00     0.338 C 
ATOM     35  O   UNL A   1      35.024  32.610  33.033  1.00  0.00    -0.246 OA
BRANCH  34  36
ATOM     36  C   UNL A   1      35.586  32.182  30.741  1.00  0.00     0.060 A 
ATOM     37  C   UNL A   1      35.800  30.822  30.978  1.00  0.00     0.016 A 
ATOM     38  C   UNL A   1      36.282  32.828  29.727  1.00  0.00     0.016 A 
ATOM     39  C   UNL A   1      36.933  30.217  30.434  1.00  0.00     0.010 A 
ATOM     40  C   UNL A   1      37.456  32.248  29.277  1.00  0.00     0.010 A 
ATOM     41  C   UNL A   1      37.877  31.003  29.759  1.00  0.00    -0.014 A 
BRANCH  41  42
ATOM     42  C   UNL A   1      39.363  30.763  29.867  1.00  0.00     0.031 A 
ATOM     43  C   UNL A   1      39.923  29.459  28.870  1.00  0.00     0.074 A 
ATOM     44  C   UNL A   1      40.047  31.629  30.788  1.00  0.00     0.049 A 
ATOM     45  N   UNL A   1      40.710  28.505  29.314  1.00  0.00    -0.248 NA
ATOM     46  C   UNL A   1      39.649  29.099  27.461  1.00  0.00     0.031 C 
ATOM     47  C   UNL A   1      41.460  32.085  30.954  1.00  0.00     0.029 A 
ATOM     48  N   UNL A   1      39.564  32.213  32.010  1.00  0.00    -0.354 N 
ATOM     49  C   UNL A   1      41.307  27.725  28.365  1.00  0.00     0.074 A 
ATOM     50  C   UNL A   1      40.474  28.045  27.217  1.00  0.00     0.031 C 
ATOM     51  C   UNL A   1      41.798  32.616  32.109  1.00  0.00     0.029 A 
ATOM     52  C   UNL A   1      40.656  32.493  32.893  1.00  0.00     0.049 A 
ATOM     53  H   UNL A   1      38.618  32.394  32.212  1.00  0.00     0.167 HD
ATOM     54  C   UNL A   1      42.506  27.050  28.603  1.00  0.00     0.037 A 
ATOM     55  C   UNL A   1      40.866  32.177  34.189  1.00  0.00     0.037 A 
ATOM     56  C   UNL A   1      43.336  27.485  29.815  1.00  0.00     0.049 A 
ATOM     57  C   UNL A   1      41.892  31.043  34.493  1.00  0.00     0.074 A 
ATOM     58  C   UNL A   1      44.523  28.225  29.905  1.00  0.00     0.029 A 
ATOM     59  N   UNL A   1      42.961  27.354  31.155  1.00  0.00    -0.354 N 
ATOM     60  N   UNL A   1      42.824  30.500  33.710  1.00  0.00    -0.248 NA
ATOM     61  C   UNL A   1      41.723  30.306  35.740  1.00  0.00     0.031 C 
ATOM     62  C   UNL A   1      44.789  28.601  31.258  1.00  0.00     0.029 A 
ATOM     63  C   UNL A   1      43.797  28.074  32.055  1.00  0.00     0.049 A 
ATOM     64  H   UNL A   1      42.193  26.814  31.449  1.00  0.00     0.167 HD
ATOM     65  C   UNL A   1      43.102  29.196  34.202  1.00  0.00     0.074 A 
ATOM     66  C   UNL A   1      42.454  29.206  35.520  1.00  0.00     0.031 C 
ATOM     67  C   UNL A   1      43.567  28.059  33.523  1.00  0.00     0.037 A 
BRANCH  54  68
ATOM     68  C   UNL A   1      43.172  26.208  27.505  1.00  0.00     0.064 A 
ATOM     69  C   UNL A   1      44.098  26.740  26.572  1.00  0.00     0.173 A 
ATOM     70  C   UNL A   1      42.950  24.825  27.367  1.00  0.00     0.173 A 
ATOM     71  F   UNL A   1      44.553  27.993  26.648  1.00  0.00    -0.203 F 
ATOM     72  C   UNL A   1      44.630  25.996  25.515  1.00  0.00     0.198 A 
ATOM     73  C   UNL A   1      43.472  24.080  26.297  1.00  0.00     0.198 A 
ATOM     74  F   UNL A   1      42.249  24.148  28.287  1.00  0.00    -0.203 F 
ATOM     75  F   UNL A   1      45.473  26.581  24.650  1.00  0.00    -0.200 F 
ATOM     76  C   UNL A   1      44.295  24.671  25.360  1.00  0.00     0.200 A 
ATOM     77  F   UNL A   1      43.170  22.779  26.184  1.00  0.00    -0.200 F 
ATOM     78  F   UNL A   1      44.785  23.965  24.332  1.00  0.00    -0.200 F 
ENDBRANCH  54  68
BRANCH  55  79
ATOM     79  C   UNL A   1      39.997  33.073  35.020  1.00  0.00     0.064 A 
ATOM     80  C   UNL A   1      38.888  32.381  35.583  1.00  0.00     0.173 A 
ATOM     81  C   UNL A   1      40.660  33.956  35.881  1.00  0.00     0.173 A 
ATOM     82  F   UNL A   1      38.156  31.556  34.815  1.00  0.00    -0.203 F 
ATOM     83  C   UNL A   1      38.728  32.292  36.970  1.00  0.00     0.198 A 
ATOM     84  C   UNL A   1      40.523  33.845  37.263  1.00  0.00     0.198 A 
ATOM     85  F   UNL A   1      41.541  34.836  35.407  1.00  0.00    -0.203 F 
ATOM     86  F   UNL A   1      37.837  31.436  37.491  1.00  0.00    -0.200 F 
ATOM     87  C   UNL A   1      39.598  32.969  37.807  1.00  0.00     0.200 A 
ATOM     88  F   UNL A   1      41.374  34.503  38.064  1.00  0.00    -0.200 F 
ATOM     89  F   UNL A   1      39.585  32.739  39.127  1.00  0.00    -0.200 F 
ENDBRANCH  55  79
BRANCH  67  90
ATOM     90  C   UNL A   1      43.785  26.701  34.238  1.00  0.00     0.064 A 
ATOM     91  C   UNL A   1      45.050  26.096  34.372  1.00  0.00     0.173 A 
ATOM     92  C   UNL A   1      42.718  25.909  34.740  1.00  0.00     0.173 A 
ATOM     93  F   UNL A   1      46.130  26.612  33.769  1.00  0.00    -0.203 F 
ATOM     94  C   UNL A   1      45.248  24.915  35.103  1.00  0.00     0.198 A 
ATOM     95  C   UNL A   1      42.910  24.700  35.415  1.00  0.00     0.198 A 
ATOM     96  F   UNL A   1      41.433  26.256  34.611  1.00  0.00    -0.203 F 
ATOM     97  F   UNL A   1      46.492  24.448  35.286  1.00  0.00    -0.200 F 
ATOM     98  C   UNL A   1      44.179  24.223  35.634  1.00  0.00     0.200 A 
ATOM     99  F   UNL A   1      41.847  24.013  35.859  1.00  0.00    -0.200 F 
ATOM    100  F   UNL A   1      44.367  23.092  36.326  1.00  0.00    -0.200 F 
ENDBRANCH  67  90
ENDBRANCH  41  42
ENDBRANCH  34  36
ENDBRANCH  33  34
ENDBRANCH  32  33
ENDBRANCH  31  32
ENDBRANCH  30  31
ENDBRANCH  29  30
ENDBRANCH   1  29
TORSDOF 21
ENDMDL
MODEL 3
REMARK VINA RESULT:     -12.4      3.828     10.364
REMARK SMILES COC(=O)c1ccc(NC(=O)[C@@H]2CC=CC[C@@H]2C(=O)OCCOCCOCCOC(=O)c2ccc(-c3c4nc(c(-c5c(F)c(F)c(F)c(F)c5F)c5ccc([nH]5)c(-c5c(F)c(F)c(F)c(F)c5F)c5nc(c(-c6c(F)c(F)c(F)c(F)c6F)c6ccc3[nH]6)C=C5)C=C4)cc2)c(C)c1
REMARK SMILES IDX 24 1 23 2 22 3 21 4 20 5 18 6 19 7 17 8 12 9 13 10 14 11
REMARK SMILES IDX 16 12 15 13 10 14 9 15 11 17 8 18 5 19 6 20 97 21 7 22 95 23
REMARK SMILES IDX 96 24 3 25 4 26 2 27 1 28 25 29 26 30 27 31 28 32 29 33
REMARK SMILES IDX 30 34 31 35 32 36 33 37 94 38 34 39 93 40 35 41 36 42 37 43
REMARK SMILES IDX 87 44 38 45 92 46 86 47 88 48 39 49 91 50 85 51 84 52 40 54
REMARK SMILES IDX 72 55 52 56 71 57 53 58 56 59 70 60 89 61 54 62 55 63 69 65
REMARK SMILES IDX 90 66 57 67 41 68 42 69 50 70 43 71 44 72 48 73 51 74 45 75
REMARK SMILES IDX 46 76 49 77 47 78 73 79 74 80 82 81 75 82 76 83 80 84 83 85
REMARK SMILES IDX 77 86 78 87 81 88 79 89 58 90 59 91 67 92 60 93 61 94 65 95
REMARK SMILES IDX 68 96 62 97 63 98 66 99 64 100
REMARK H PARENT 9 16 88 53 56 64
REMARK Flexibility Score: inf
ROOT
ATOM      1  C   UNL A   1      39.999  21.169  26.602  1.00  0.00     0.188 C 
ENDROOT
BRANCH   1   2
ATOM      2  O   UNL A   1      39.108  21.798  25.637  1.00  0.00    -0.376 OA
BRANCH   2   3
ATOM      3  C   UNL A   1      38.101  22.806  25.927  1.00  0.00     0.202 C 
BRANCH   3   4
ATOM      4  C   UNL A   1      36.453  22.667  25.425  1.00  0.00     0.261 C 
BRANCH   4   5
ATOM      5  O   UNL A   1      35.308  23.951  24.978  1.00  0.00    -0.463 OA
BRANCH   5   6
ATOM      6  C   UNL A   1      34.103  24.659  24.703  1.00  0.00     0.310 C 
ATOM      7  O   UNL A   1      34.112  25.867  24.928  1.00  0.00    -0.252 OA
BRANCH   6   8
ATOM      8  C   UNL A   1      32.670  24.312  24.004  1.00  0.00     0.116 C 
ATOM      9  C   UNL A   1      31.617  23.672  25.056  1.00  0.00     0.097 C 
ATOM     10  C   UNL A   1      32.072  22.291  25.585  1.00  0.00     0.041 C 
ATOM     11  C   UNL A   1      32.543  21.404  24.469  1.00  0.00    -0.030 C 
ATOM     12  C   UNL A   1      32.512  23.291  22.839  1.00  0.00     0.043 C 
ATOM     13  C   UNL A   1      32.714  21.851  23.219  1.00  0.00    -0.030 C 
BRANCH   9  14
ATOM     14  C   UNL A   1      31.119  24.545  26.194  1.00  0.00     0.228 C 
ATOM     15  N   UNL A   1      30.899  25.898  26.118  1.00  0.00    -0.326 N 
ATOM     16  H   UNL A   1      30.867  26.326  27.005  1.00  0.00     0.169 HD
ATOM     17  O   UNL A   1      30.753  24.018  27.249  1.00  0.00    -0.274 OA
BRANCH  15  18
ATOM     18  C   UNL A   1      30.710  26.818  25.060  1.00  0.00     0.044 A 
ATOM     19  C   UNL A   1      29.932  28.931  23.341  1.00  0.00     0.060 A 
ATOM     20  C   UNL A   1      29.467  27.637  23.127  1.00  0.00     0.018 A 
ATOM     21  C   UNL A   1      30.898  29.142  24.329  1.00  0.00     0.021 A 
ATOM     22  C   UNL A   1      29.878  26.590  23.963  1.00  0.00     0.027 A 
ATOM     23  C   UNL A   1      31.323  28.093  25.168  1.00  0.00    -0.027 A 
ATOM     24  C   UNL A   1      32.412  28.408  26.160  1.00  0.00     0.046 C 
BRANCH  19  25
ATOM     25  C   UNL A   1      29.445  30.025  22.461  1.00  0.00     0.337 C 
ATOM     26  O   UNL A   1      29.599  30.059  21.249  1.00  0.00    -0.246 OA
BRANCH  25  27
ATOM     27  O   UNL A   1      28.884  31.005  23.204  1.00  0.00    -0.465 OA
ATOM     28  C   UNL A   1      28.541  32.153  22.431  1.00  0.00     0.282 C 
ENDBRANCH  25  27
ENDBRANCH  19  25
ENDBRANCH  15  18
ENDBRANCH   9  14
ENDBRANCH   6   8
ENDBRANCH   5   6
ENDBRANCH   4   5
ENDBRANCH   3   4
ENDBRANCH   2   3
ENDBRANCH   1   2
BRANCH   1  29
ATOM     29  C   UNL A   1      41.260  20.388  26.193  1.00  0.00     0.188 C 
BRANCH  29  30
ATOM     30  O   UNL A   1      42.277  21.130  25.519  1.00  0.00    -0.376 OA
BRANCH  30  31
ATOM     31  C   UNL A   1      43.193  21.918  26.287  1.00  0.00     0.202 C 
BRANCH  31  32
ATOM     32  C   UNL A   1      42.678  22.602  27.575  1.00  0.00     0.261 C 
BRANCH  32  33
ATOM     33  O   UNL A   1      42.688  24.031  27.456  1.00  0.00    -0.460 OA
BRANCH  33  34
ATOM     34  C   UNL A   1      42.449  24.485  26.187  1.00  0.00     0.338 C 
ATOM     35  O   UNL A   1      43.245  24.493  25.266  1.00  0.00    -0.246 OA
BRANCH  34  36
ATOM     36  C   UNL A   1      41.245  25.356  26.271  1.00  0.00     0.060 A 
ATOM     37  C   UNL A   1      41.359  26.650  25.756  1.00  0.00     0.016 A 
ATOM     38  C   UNL A   1      40.305  25.081  27.257  1.00  0.00     0.016 A 
ATOM     39  C   UNL A   1      40.778  27.705  26.460  1.00  0.00     0.010 A 
ATOM     40  C   UNL A   1      39.821  26.142  28.003  1.00  0.00     0.010 A 
ATOM     41  C   UNL A   1      40.192  27.460  27.709  1.00  0.00    -0.014 A 
BRANCH  41  42
ATOM     42  C   UNL A   1      40.299  28.427  28.863  1.00  0.00     0.031 A 
ATOM     43  C   UNL A   1      38.873  29.387  29.089  1.00  0.00     0.074 A 
ATOM     44  C   UNL A   1      41.561  28.406  29.551  1.00  0.00     0.049 A 
ATOM     45  N   UNL A   1      38.905  30.691  29.246  1.00  0.00    -0.248 NA
ATOM     46  C   UNL A   1      37.435  29.039  29.105  1.00  0.00     0.031 C 
ATOM     47  C   UNL A   1      42.025  28.806  30.914  1.00  0.00     0.029 A 
ATOM     48  N   UNL A   1      42.873  28.134  29.028  1.00  0.00    -0.354 N 
ATOM     49  C   UNL A   1      37.758  31.271  29.709  1.00  0.00     0.074 A 
ATOM     50  C   UNL A   1      36.813  30.198  29.449  1.00  0.00     0.031 C 
ATOM     51  C   UNL A   1      43.319  28.961  31.097  1.00  0.00     0.029 A 
ATOM     52  C   UNL A   1      43.872  28.767  29.836  1.00  0.00     0.049 A 
ATOM     53  H   UNL A   1      43.059  27.591  28.229  1.00  0.00     0.167 HD
ATOM     54  C   UNL A   1      37.764  32.487  30.396  1.00  0.00     0.037 A 
ATOM     55  C   UNL A   1      44.902  29.580  29.517  1.00  0.00     0.037 A 
ATOM     56  C   UNL A   1      39.104  32.982  30.948  1.00  0.00     0.049 A 
ATOM     57  C   UNL A   1      44.748  31.096  29.846  1.00  0.00     0.074 A 
ATOM     58  C   UNL A   1      39.609  33.018  32.255  1.00  0.00     0.029 A 
ATOM     59  N   UNL A   1      40.210  33.373  30.188  1.00  0.00    -0.354 N 
ATOM     60  N   UNL A   1      43.881  31.714  30.648  1.00  0.00    -0.248 NA
ATOM     61  C   UNL A   1      45.516  32.035  29.038  1.00  0.00     0.031 C 
ATOM     62  C   UNL A   1      41.004  33.331  32.256  1.00  0.00     0.029 A 
ATOM     63  C   UNL A   1      41.400  33.536  30.953  1.00  0.00     0.049 A 
ATOM     64  H   UNL A   1      40.171  33.522  29.217  1.00  0.00     0.167 HD
ATOM     65  C   UNL A   1      43.759  33.059  30.207  1.00  0.00     0.074 A 
ATOM     66  C   UNL A   1      44.887  33.194  29.275  1.00  0.00     0.031 C 
ATOM     67  C   UNL A   1      42.683  33.951  30.329  1.00  0.00     0.037 A 
BRANCH  54  68
ATOM     68  C   UNL A   1      36.462  33.098  30.934  1.00  0.00     0.064 A 
ATOM     69  C   UNL A   1      35.638  33.966  30.174  1.00  0.00     0.173 A 
ATOM     70  C   UNL A   1      35.957  32.806  32.215  1.00  0.00     0.173 A 
ATOM     71  F   UNL A   1      35.871  34.229  28.885  1.00  0.00    -0.203 F 
ATOM     72  C   UNL A   1      34.505  34.597  30.696  1.00  0.00     0.198 A 
ATOM     73  C   UNL A   1      34.828  33.449  32.746  1.00  0.00     0.198 A 
ATOM     74  F   UNL A   1      36.525  31.860  32.976  1.00  0.00    -0.203 F 
ATOM     75  F   UNL A   1      33.796  35.435  29.924  1.00  0.00    -0.200 F 
ATOM     76  C   UNL A   1      34.114  34.360  31.993  1.00  0.00     0.200 A 
ATOM     77  F   UNL A   1      34.436  33.176  33.998  1.00  0.00    -0.200 F 
ATOM     78  F   UNL A   1      33.044  34.984  32.502  1.00  0.00    -0.200 F 
ENDBRANCH  54  68
BRANCH  55  79
ATOM     79  C   UNL A   1      45.974  28.730  28.902  1.00  0.00     0.064 A 
ATOM     80  C   UNL A   1      46.375  27.664  29.756  1.00  0.00     0.173 A 
ATOM     81  C   UNL A   1      45.805  28.396  27.554  1.00  0.00     0.173 A 
ATOM     82  F   UNL A   1      46.618  27.904  31.055  1.00  0.00    -0.203 F 
ATOM     83  C   UNL A   1      46.222  26.332  29.357  1.00  0.00     0.198 A 
ATOM     84  C   UNL A   1      45.622  27.071  27.163  1.00  0.00     0.198 A 
ATOM     85  F   UNL A   1      45.680  29.345  26.627  1.00  0.00    -0.203 F 
ATOM     86  F   UNL A   1      46.360  25.341  30.251  1.00  0.00    -0.200 F 
ATOM     87  C   UNL A   1      45.772  26.044  28.080  1.00  0.00     0.200 A 
ATOM     88  F   UNL A   1      45.182  26.804  25.924  1.00  0.00    -0.200 F 
ATOM     89  F   UNL A   1      45.431  24.790  27.748  1.00  0.00    -0.200 F 
ENDBRANCH  55  79
BRANCH  67  90
ATOM     90  C   UNL A   1      42.731  35.388  29.750  1.00  0.00     0.064 A 
ATOM     91  C   UNL A   1      42.191  35.731  28.496  1.00  0.00     0.173 A 
ATOM     92  C   UNL A   1      43.403  36.461  30.394  1.00  0.00     0.173 A 
ATOM     93  F   UNL A   1      41.709  34.791  27.670  1.00  0.00    -0.203 F 
ATOM     94  C   UNL A   1      42.156  37.052  28.024  1.00  0.00     0.198 A 
ATOM     95  C   UNL A   1      43.422  37.766  29.894  1.00  0.00     0.198 A 
ATOM     96  F   UNL A   1      44.075  36.314  31.541  1.00  0.00    -0.203 F 
ATOM     97  F   UNL A   1      41.530  37.329  26.870  1.00  0.00    -0.200 F 
ATOM     98  C   UNL A   1      42.763  38.072  28.728  1.00  0.00     0.200 A 
ATOM     99  F   UNL A   1      44.080  38.724  30.565  1.00  0.00    -0.200 F 
ATOM    100  F   UNL A   1      42.737  39.332  28.276  1.00  0.00    -0.200 F 
ENDBRANCH  67  90
ENDBRANCH  41  42
ENDBRANCH  34  36
ENDBRANCH  33  34
ENDBRANCH  32  33
ENDBRANCH  31  32
ENDBRANCH  30  31
ENDBRANCH  29  30
ENDBRANCH   1  29
TORSDOF 21
ENDMDL
