MODEL 1
REMARK VINA RESULT:     -11.0      0.000      0.000
REMARK SMILES COc1ccc(NS(=O)(=O)c2ccc(NC(=O)[C@H]3CCCC[C@@H]3C(=O)OCCOCCOCCOC(=O)c3ccc(-c4c5nc(c(-c6c(F)c(F)c(F)c(F)c6F)c6ccc([nH]6)c(-c6c(F)c(F)c(F)c(F)c6F)c6nc(c(-c7c(F)c(F)c(F)c(F)c7F)c7ccc4[nH]7)C=C6)C=C5)cc3)cc2)cc1
REMARK SMILES IDX 28 1 27 2 26 3 24 4 25 5 23 6 18 7 19 8 20 9 22 10 21 11
REMARK SMILES IDX 16 12 15 13 17 15 14 16 11 17 12 18 102 19 13 20 101 21 8 22
REMARK SMILES IDX 9 23 10 24 7 25 6 27 3 28 4 29 104 30 5 31 103 32 2 33 1 34
REMARK SMILES IDX 29 35 30 36 31 37 32 38 33 39 34 40 35 41 36 42 37 43 38 44
REMARK SMILES IDX 39 45 100 46 40 47 99 48 41 49 42 50 43 51 93 52 44 53 98 54
REMARK SMILES IDX 92 55 94 56 45 57 97 58 91 59 90 60 46 62 78 63 58 64 77 65
REMARK SMILES IDX 59 66 62 67 76 68 95 69 60 70 61 71 75 73 96 74 63 75 47 76
REMARK SMILES IDX 48 77 56 78 49 79 50 80 54 81 57 82 51 83 52 84 55 85 53 86
REMARK SMILES IDX 79 87 80 88 88 89 81 90 82 91 86 92 89 93 83 94 84 95 87 96
REMARK SMILES IDX 85 97 64 98 65 99 73 100 66 101 67 102 71 103 74 104 68 105
REMARK SMILES IDX 69 106 72 107 70 108
REMARK H PARENT 15 14 7 26 94 61 62 72
REMARK Flexibility Score: inf
ROOT
ATOM      1  C   UNL A   1      33.557  27.879  25.902  1.00  0.00     0.202 C 
ENDROOT
BRANCH   1   2
ATOM      2  C   UNL A   1      33.021  26.489  26.317  1.00  0.00     0.261 C 
BRANCH   2   3
ATOM      3  O   UNL A   1      32.739  25.571  25.223  1.00  0.00    -0.463 OA
BRANCH   3   4
ATOM      4  C   UNL A   1      33.741  24.711  24.863  1.00  0.00     0.309 C 
ATOM      5  O   UNL A   1      34.806  25.088  24.384  1.00  0.00    -0.252 OA
BRANCH   4   6
ATOM      6  C   UNL A   1      33.488  23.219  25.205  1.00  0.00     0.111 C 
ATOM      7  C   UNL A   1      33.705  22.155  24.109  1.00  0.00     0.093 C 
ATOM      8  C   UNL A   1      32.747  22.293  22.946  1.00  0.00     0.014 C 
ATOM      9  C   UNL A   1      31.379  22.860  23.317  1.00  0.00     0.001 C 
ATOM     10  C   UNL A   1      32.127  23.043  25.834  1.00  0.00     0.016 C 
ATOM     11  C   UNL A   1      31.018  22.935  24.805  1.00  0.00     0.001 C 
BRANCH   7  12
ATOM     12  C   UNL A   1      33.936  20.712  24.669  1.00  0.00     0.228 C 
ATOM     13  N   UNL A   1      35.092  20.030  24.934  1.00  0.00    -0.326 N 
ATOM     14  H   UNL A   1      34.900  19.071  25.052  1.00  0.00     0.169 HD
ATOM     15  O   UNL A   1      32.916  20.004  24.781  1.00  0.00    -0.274 OA
BRANCH  13  16
ATOM     16  C   UNL A   1      36.473  20.274  25.091  1.00  0.00     0.041 A 
ATOM     17  C   UNL A   1      39.176  20.817  25.786  1.00  0.00     0.087 A 
ATOM     18  C   UNL A   1      38.782  19.552  25.371  1.00  0.00     0.024 A 
ATOM     19  C   UNL A   1      38.240  21.851  25.753  1.00  0.00     0.024 A 
ATOM     20  C   UNL A   1      37.468  19.332  24.915  1.00  0.00     0.027 A 
ATOM     21  C   UNL A   1      36.896  21.575  25.420  1.00  0.00     0.027 A 
BRANCH  17  22
ATOM     22  S   UNL A   1      40.838  21.107  26.365  1.00  0.00     0.261 S 
ATOM     23  O   UNL A   1      41.689  20.106  25.781  1.00  0.00    -0.201 OA
ATOM     24  O   UNL A   1      40.804  21.265  27.805  1.00  0.00    -0.201 OA
BRANCH  22  25
ATOM     25  N   UNL A   1      41.407  22.578  25.714  1.00  0.00    -0.280 N 
ATOM     26  H   UNL A   1      40.808  23.230  25.284  1.00  0.00     0.180 HD
BRANCH  25  27
ATOM     27  C   UNL A   1      42.804  22.796  25.837  1.00  0.00     0.049 A 
ATOM     28  C   UNL A   1      45.386  23.737  25.862  1.00  0.00     0.119 A 
ATOM     29  C   UNL A   1      44.835  23.307  24.662  1.00  0.00     0.048 A 
ATOM     30  C   UNL A   1      44.673  23.663  27.058  1.00  0.00     0.048 A 
ATOM     31  C   UNL A   1      43.562  22.770  24.669  1.00  0.00     0.030 A 
ATOM     32  C   UNL A   1      43.358  23.206  27.045  1.00  0.00     0.030 A 
BRANCH  28  33
ATOM     33  O   UNL A   1      46.635  24.288  25.862  1.00  0.00    -0.497 OA
ATOM     34  C   UNL A   1      47.067  24.457  27.210  1.00  0.00     0.278 C 
ENDBRANCH  28  33
ENDBRANCH  25  27
ENDBRANCH  22  25
ENDBRANCH  17  22
ENDBRANCH  13  16
ENDBRANCH   7  12
ENDBRANCH   4   6
ENDBRANCH   3   4
ENDBRANCH   2   3
ENDBRANCH   1   2
BRANCH   1  35
ATOM     35  O   UNL A   1      32.581  28.800  25.411  1.00  0.00    -0.376 OA
BRANCH  35  36
ATOM     36  C   UNL A   1      32.491  29.998  26.160  1.00  0.00     0.188 C 
BRANCH  36  37
ATOM     37  C   UNL A   1      31.287  30.880  25.817  1.00  0.00     0.188 C 
BRANCH  37  38
ATOM     38  O   UNL A   1      31.287  32.197  26.360  1.00  0.00    -0.376 OA
BRANCH  38  39
ATOM     39  C   UNL A   1      32.339  32.449  27.296  1.00  0.00     0.202 C 
BRANCH  39  40
ATOM     40  C   UNL A   1      32.840  33.899  27.513  1.00  0.00     0.261 C 
BRANCH  40  41
ATOM     41  O   UNL A   1      32.320  34.586  28.665  1.00  0.00    -0.460 OA
BRANCH  41  42
ATOM     42  C   UNL A   1      33.272  35.180  29.434  1.00  0.00     0.338 C 
ATOM     43  O   UNL A   1      33.136  36.203  30.087  1.00  0.00    -0.246 OA
BRANCH  42  44
ATOM     44  C   UNL A   1      34.462  34.303  29.580  1.00  0.00     0.060 A 
ATOM     45  C   UNL A   1      34.334  33.241  30.477  1.00  0.00     0.016 A 
ATOM     46  C   UNL A   1      35.696  34.554  28.990  1.00  0.00     0.016 A 
ATOM     47  C   UNL A   1      35.434  32.492  30.880  1.00  0.00     0.010 A 
ATOM     48  C   UNL A   1      36.815  33.802  29.400  1.00  0.00     0.010 A 
ATOM     49  C   UNL A   1      36.706  32.809  30.398  1.00  0.00    -0.014 A 
BRANCH  49  50
ATOM     50  C   UNL A   1      37.907  32.210  31.054  1.00  0.00     0.031 A 
ATOM     51  C   UNL A   1      38.705  31.133  30.356  1.00  0.00     0.074 A 
ATOM     52  C   UNL A   1      38.353  32.674  32.237  1.00  0.00     0.049 A 
ATOM     53  N   UNL A   1      39.700  30.405  30.806  1.00  0.00    -0.248 NA
ATOM     54  C   UNL A   1      38.346  30.845  28.960  1.00  0.00     0.031 C 
ATOM     55  C   UNL A   1      37.777  33.795  32.978  1.00  0.00     0.029 A 
ATOM     56  N   UNL A   1      39.390  32.245  33.032  1.00  0.00    -0.354 N 
ATOM     57  C   UNL A   1      40.069  29.570  29.756  1.00  0.00     0.074 A 
ATOM     58  C   UNL A   1      39.192  29.875  28.648  1.00  0.00     0.031 C 
ATOM     59  C   UNL A   1      38.447  33.947  34.130  1.00  0.00     0.029 A 
ATOM     60  C   UNL A   1      39.436  32.879  34.248  1.00  0.00     0.049 A 
ATOM     61  H   UNL A   1      40.033  31.552  32.757  1.00  0.00     0.167 HD
ATOM     62  C   UNL A   1      41.039  28.622  29.723  1.00  0.00     0.037 A 
ATOM     63  C   UNL A   1      40.129  32.591  35.367  1.00  0.00     0.037 A 
ATOM     64  C   UNL A   1      41.902  28.301  30.832  1.00  0.00     0.049 A 
ATOM     65  C   UNL A   1      41.080  31.427  35.374  1.00  0.00     0.074 A 
ATOM     66  C   UNL A   1      42.901  27.345  30.901  1.00  0.00     0.029 A 
ATOM     67  N   UNL A   1      41.852  28.914  32.074  1.00  0.00    -0.354 N 
ATOM     68  N   UNL A   1      41.398  30.613  34.399  1.00  0.00    -0.248 NA
ATOM     69  C   UNL A   1      41.761  31.137  36.643  1.00  0.00     0.031 C 
ATOM     70  C   UNL A   1      43.393  27.320  32.211  1.00  0.00     0.029 A 
ATOM     71  C   UNL A   1      42.759  28.316  32.936  1.00  0.00     0.049 A 
ATOM     72  H   UNL A   1      41.259  29.664  32.310  1.00  0.00     0.167 HD
ATOM     73  C   UNL A   1      42.327  29.727  34.926  1.00  0.00     0.074 A 
ATOM     74  C   UNL A   1      42.531  30.110  36.307  1.00  0.00     0.031 C 
ATOM     75  C   UNL A   1      42.956  28.692  34.314  1.00  0.00     0.037 A 
BRANCH  62  76
ATOM     76  C   UNL A   1      41.157  27.793  28.474  1.00  0.00     0.064 A 
ATOM     77  C   UNL A   1      40.400  26.631  28.266  1.00  0.00     0.173 A 
ATOM     78  C   UNL A   1      42.042  28.187  27.457  1.00  0.00     0.173 A 
ATOM     79  F   UNL A   1      39.546  26.202  29.207  1.00  0.00    -0.203 F 
ATOM     80  C   UNL A   1      40.552  25.875  27.105  1.00  0.00     0.198 A 
ATOM     81  C   UNL A   1      42.168  27.447  26.284  1.00  0.00     0.198 A 
ATOM     82  F   UNL A   1      42.785  29.294  27.597  1.00  0.00    -0.203 F 
ATOM     83  F   UNL A   1      39.862  24.736  26.951  1.00  0.00    -0.200 F 
ATOM     84  C   UNL A   1      41.431  26.286  26.113  1.00  0.00     0.200 A 
ATOM     85  F   UNL A   1      43.008  27.854  25.323  1.00  0.00    -0.200 F 
ATOM     86  F   UNL A   1      41.578  25.556  24.999  1.00  0.00    -0.200 F 
ENDBRANCH  62  76
BRANCH  63  87
ATOM     87  C   UNL A   1      39.861  33.375  36.600  1.00  0.00     0.064 A 
ATOM     88  C   UNL A   1      40.579  34.538  36.899  1.00  0.00     0.173 A 
ATOM     89  C   UNL A   1      38.845  32.986  37.489  1.00  0.00     0.173 A 
ATOM     90  F   UNL A   1      41.579  34.933  36.097  1.00  0.00    -0.203 F 
ATOM     91  C   UNL A   1      40.288  35.286  38.039  1.00  0.00     0.198 A 
ATOM     92  C   UNL A   1      38.533  33.752  38.608  1.00  0.00     0.198 A 
ATOM     93  F   UNL A   1      38.133  31.874  37.251  1.00  0.00    -0.203 F 
ATOM     94  F   UNL A   1      41.009  36.379  38.321  1.00  0.00    -0.200 F 
ATOM     95  C   UNL A   1      39.257  34.900  38.884  1.00  0.00     0.200 A 
ATOM     96  F   UNL A   1      37.525  33.383  39.411  1.00  0.00    -0.200 F 
ATOM     97  F   UNL A   1      38.965  35.634  39.967  1.00  0.00    -0.200 F 
ENDBRANCH  63  87
BRANCH  75  98
ATOM     98  C   UNL A   1      43.954  27.910  35.122  1.00  0.00     0.064 A 
ATOM     99  C   UNL A   1      45.278  28.343  35.282  1.00  0.00     0.173 A 
ATOM    100  C   UNL A   1      43.566  26.732  35.779  1.00  0.00     0.173 A 
ATOM    101  F   UNL A   1      45.705  29.453  34.662  1.00  0.00    -0.203 F 
ATOM    102  C   UNL A   1      46.182  27.613  36.051  1.00  0.00     0.198 A 
ATOM    103  C   UNL A   1      44.462  26.024  36.574  1.00  0.00     0.198 A 
ATOM    104  F   UNL A   1      42.309  26.275  35.664  1.00  0.00    -0.203 F 
ATOM    105  F   UNL A   1      47.455  28.020  36.152  1.00  0.00    -0.200 F 
ATOM    106  C   UNL A   1      45.771  26.460  36.704  1.00  0.00     0.200 A 
ATOM    107  F   UNL A   1      44.059  24.918  37.215  1.00  0.00    -0.200 F 
ATOM    108  F   UNL A   1      46.640  25.766  37.452  1.00  0.00    -0.200 F 
ENDBRANCH  75  98
ENDBRANCH  49  50
ENDBRANCH  42  44
ENDBRANCH  41  42
ENDBRANCH  40  41
ENDBRANCH  39  40
ENDBRANCH  38  39
ENDBRANCH  37  38
ENDBRANCH  36  37
ENDBRANCH  35  36
ENDBRANCH   1  35
TORSDOF 23
ENDMDL
MODEL 2
REMARK VINA RESULT:     -10.9      4.527      7.391
REMARK SMILES COc1ccc(NS(=O)(=O)c2ccc(NC(=O)[C@H]3CCCC[C@@H]3C(=O)OCCOCCOCCOC(=O)c3ccc(-c4c5nc(c(-c6c(F)c(F)c(F)c(F)c6F)c6ccc([nH]6)c(-c6c(F)c(F)c(F)c(F)c6F)c6nc(c(-c7c(F)c(F)c(F)c(F)c7F)c7ccc4[nH]7)C=C6)C=C5)cc3)cc2)cc1
REMARK SMILES IDX 28 1 27 2 26 3 24 4 25 5 23 6 18 7 19 8 20 9 22 10 21 11
REMARK SMILES IDX 16 12 15 13 17 15 14 16 11 17 12 18 102 19 13 20 101 21 8 22
REMARK SMILES IDX 9 23 10 24 7 25 6 27 3 28 4 29 104 30 5 31 103 32 2 33 1 34
REMARK SMILES IDX 29 35 30 36 31 37 32 38 33 39 34 40 35 41 36 42 37 43 38 44
REMARK SMILES IDX 39 45 100 46 40 47 99 48 41 49 42 50 43 51 93 52 44 53 98 54
REMARK SMILES IDX 92 55 94 56 45 57 97 58 91 59 90 60 46 62 78 63 58 64 77 65
REMARK SMILES IDX 59 66 62 67 76 68 95 69 60 70 61 71 75 73 96 74 63 75 47 76
REMARK SMILES IDX 48 77 56 78 49 79 50 80 54 81 57 82 51 83 52 84 55 85 53 86
REMARK SMILES IDX 79 87 80 88 88 89 81 90 82 91 86 92 89 93 83 94 84 95 87 96
REMARK SMILES IDX 85 97 64 98 65 99 73 100 66 101 67 102 71 103 74 104 68 105
REMARK SMILES IDX 69 106 72 107 70 108
REMARK H PARENT 15 14 7 26 94 61 62 72
REMARK Flexibility Score: inf
ROOT
ATOM      1  C   UNL A   1      32.959  31.288  27.245  1.00  0.00     0.202 C 
ENDROOT
BRANCH   1   2
ATOM      2  C   UNL A   1      32.977  29.837  26.710  1.00  0.00     0.261 C 
BRANCH   2   3
ATOM      3  O   UNL A   1      32.118  29.579  25.563  1.00  0.00    -0.463 OA
BRANCH   3   4
ATOM      4  C   UNL A   1      32.681  28.918  24.505  1.00  0.00     0.309 C 
ATOM      5  O   UNL A   1      33.741  29.261  23.991  1.00  0.00    -0.252 OA
BRANCH   4   6
ATOM      6  C   UNL A   1      31.943  27.628  24.061  1.00  0.00     0.111 C 
ATOM      7  C   UNL A   1      31.014  26.916  25.066  1.00  0.00     0.093 C 
ATOM      8  C   UNL A   1      31.747  26.363  26.268  1.00  0.00     0.014 C 
ATOM      9  C   UNL A   1      33.183  25.928  25.987  1.00  0.00     0.001 C 
ATOM     10  C   UNL A   1      32.916  26.638  23.467  1.00  0.00     0.016 C 
ATOM     11  C   UNL A   1      33.618  25.805  24.523  1.00  0.00     0.001 C 
BRANCH   7  12
ATOM     12  C   UNL A   1      29.954  25.983  24.392  1.00  0.00     0.228 C 
ATOM     13  N   UNL A   1      30.042  24.682  23.978  1.00  0.00    -0.326 N 
ATOM     14  H   UNL A   1      29.285  24.462  23.387  1.00  0.00     0.169 HD
ATOM     15  O   UNL A   1      28.886  26.530  24.054  1.00  0.00    -0.274 OA
BRANCH  13  16
ATOM     16  C   UNL A   1      30.880  23.558  24.135  1.00  0.00     0.041 A 
ATOM     17  C   UNL A   1      32.241  21.085  24.487  1.00  0.00     0.087 A 
ATOM     18  C   UNL A   1      32.268  21.753  23.269  1.00  0.00     0.024 A 
ATOM     19  C   UNL A   1      31.621  21.706  25.573  1.00  0.00     0.024 A 
ATOM     20  C   UNL A   1      31.691  23.032  23.148  1.00  0.00     0.027 A 
ATOM     21  C   UNL A   1      30.936  22.927  25.391  1.00  0.00     0.027 A 
BRANCH  17  22
ATOM     22  S   UNL A   1      32.967  19.465  24.652  1.00  0.00     0.261 S 
ATOM     23  O   UNL A   1      33.116  18.912  23.332  1.00  0.00    -0.201 OA
ATOM     24  O   UNL A   1      32.227  18.727  25.656  1.00  0.00    -0.201 OA
BRANCH  22  25
ATOM     25  N   UNL A   1      34.566  19.626  25.225  1.00  0.00    -0.280 N 
ATOM     26  H   UNL A   1      35.105  18.851  25.505  1.00  0.00     0.180 HD
BRANCH  25  27
ATOM     27  C   UNL A   1      35.064  20.954  25.271  1.00  0.00     0.049 A 
ATOM     28  C   UNL A   1      36.452  23.293  25.667  1.00  0.00     0.119 A 
ATOM     29  C   UNL A   1      35.665  22.792  26.695  1.00  0.00     0.048 A 
ATOM     30  C   UNL A   1      36.520  22.657  24.427  1.00  0.00     0.048 A 
ATOM     31  C   UNL A   1      34.915  21.654  26.465  1.00  0.00     0.030 A 
ATOM     32  C   UNL A   1      35.835  21.462  24.230  1.00  0.00     0.030 A 
BRANCH  28  33
ATOM     33  O   UNL A   1      37.212  24.404  25.890  1.00  0.00    -0.497 OA
ATOM     34  C   UNL A   1      38.413  24.019  26.556  1.00  0.00     0.278 C 
ENDBRANCH  28  33
ENDBRANCH  25  27
ENDBRANCH  22  25
ENDBRANCH  17  22
ENDBRANCH  13  16
ENDBRANCH   7  12
ENDBRANCH   4   6
ENDBRANCH   3   4
ENDBRANCH   2   3
ENDBRANCH   1   2
BRANCH   1  35
ATOM     35  O   UNL A   1      33.853  31.563  28.325  1.00  0.00    -0.376 OA
BRANCH  35  36
ATOM     36  C   UNL A   1      34.578  32.771  28.180  1.00  0.00     0.188 C 
BRANCH  36  37
ATOM     37  C   UNL A   1      34.996  33.431  29.496  1.00  0.00     0.188 C 
BRANCH  37  38
ATOM     38  O   UNL A   1      34.154  33.199  30.621  1.00  0.00    -0.376 OA
BRANCH  38  39
ATOM     39  C   UNL A   1      34.794  32.530  31.710  1.00  0.00     0.202 C 
BRANCH  39  40
ATOM     40  C   UNL A   1      36.093  31.723  31.457  1.00  0.00     0.261 C 
BRANCH  40  41
ATOM     41  O   UNL A   1      35.944  30.296  31.344  1.00  0.00    -0.460 OA
BRANCH  41  42
ATOM     42  C   UNL A   1      36.524  29.764  30.235  1.00  0.00     0.338 C 
ATOM     43  O   UNL A   1      35.945  29.396  29.224  1.00  0.00    -0.246 OA
BRANCH  42  44
ATOM     44  C   UNL A   1      38.003  29.888  30.295  1.00  0.00     0.060 A 
ATOM     45  C   UNL A   1      38.615  30.468  29.183  1.00  0.00     0.016 A 
ATOM     46  C   UNL A   1      38.792  29.356  31.309  1.00  0.00     0.016 A 
ATOM     47  C   UNL A   1      39.994  30.432  29.009  1.00  0.00     0.010 A 
ATOM     48  C   UNL A   1      40.190  29.311  31.135  1.00  0.00     0.010 A 
ATOM     49  C   UNL A   1      40.798  29.788  29.952  1.00  0.00    -0.014 A 
BRANCH  49  50
ATOM     50  C   UNL A   1      42.223  29.491  29.618  1.00  0.00     0.031 A 
ATOM     51  C   UNL A   1      42.598  28.192  28.943  1.00  0.00     0.074 A 
ATOM     52  C   UNL A   1      43.188  30.406  29.831  1.00  0.00     0.049 A 
ATOM     53  N   UNL A   1      43.785  27.697  28.683  1.00  0.00    -0.248 NA
ATOM     54  C   UNL A   1      41.490  27.341  28.488  1.00  0.00     0.031 C 
ATOM     55  C   UNL A   1      42.976  31.756  30.351  1.00  0.00     0.029 A 
ATOM     56  N   UNL A   1      44.549  30.328  29.649  1.00  0.00    -0.354 N 
ATOM     57  C   UNL A   1      43.562  26.478  28.051  1.00  0.00     0.074 A 
ATOM     58  C   UNL A   1      42.129  26.303  27.969  1.00  0.00     0.031 C 
ATOM     59  C   UNL A   1      44.162  32.368  30.473  1.00  0.00     0.029 A 
ATOM     60  C   UNL A   1      45.221  31.424  30.128  1.00  0.00     0.049 A 
ATOM     61  H   UNL A   1      44.996  29.563  29.219  1.00  0.00     0.167 HD
ATOM     62  C   UNL A   1      44.468  25.577  27.595  1.00  0.00     0.037 A 
ATOM     63  C   UNL A   1      46.535  31.624  30.350  1.00  0.00     0.037 A 
ATOM     64  C   UNL A   1      45.897  25.738  27.694  1.00  0.00     0.049 A 
ATOM     65  C   UNL A   1      47.523  30.547  29.999  1.00  0.00     0.074 A 
ATOM     66  C   UNL A   1      46.895  24.873  27.279  1.00  0.00     0.029 A 
ATOM     67  N   UNL A   1      46.531  26.830  28.268  1.00  0.00    -0.354 N 
ATOM     68  N   UNL A   1      47.310  29.381  29.442  1.00  0.00    -0.248 NA
ATOM     69  C   UNL A   1      48.932  30.811  30.318  1.00  0.00     0.031 C 
ATOM     70  C   UNL A   1      48.127  25.400  27.682  1.00  0.00     0.029 A 
ATOM     71  C   UNL A   1      47.903  26.633  28.274  1.00  0.00     0.049 A 
ATOM     72  H   UNL A   1      46.073  27.628  28.620  1.00  0.00     0.167 HD
ATOM     73  C   UNL A   1      48.555  28.779  29.325  1.00  0.00     0.074 A 
ATOM     74  C   UNL A   1      49.522  29.715  29.860  1.00  0.00     0.031 C 
ATOM     75  C   UNL A   1      48.865  27.561  28.815  1.00  0.00     0.037 A 
BRANCH  62  76
ATOM     76  C   UNL A   1      43.941  24.286  27.033  1.00  0.00     0.064 A 
ATOM     77  C   UNL A   1      43.412  23.271  27.844  1.00  0.00     0.173 A 
ATOM     78  C   UNL A   1      43.954  24.073  25.645  1.00  0.00     0.173 A 
ATOM     79  F   UNL A   1      43.382  23.416  29.177  1.00  0.00    -0.203 F 
ATOM     80  C   UNL A   1      42.952  22.077  27.289  1.00  0.00     0.198 A 
ATOM     81  C   UNL A   1      43.465  22.892  25.092  1.00  0.00     0.198 A 
ATOM     82  F   UNL A   1      44.440  25.013  24.821  1.00  0.00    -0.203 F 
ATOM     83  F   UNL A   1      42.506  21.096  28.086  1.00  0.00    -0.200 F 
ATOM     84  C   UNL A   1      42.974  21.891  25.914  1.00  0.00     0.200 A 
ATOM     85  F   UNL A   1      43.475  22.722  23.763  1.00  0.00    -0.200 F 
ATOM     86  F   UNL A   1      42.535  20.742  25.383  1.00  0.00    -0.200 F 
ENDBRANCH  62  76
BRANCH  63  87
ATOM     87  C   UNL A   1      46.966  32.873  31.029  1.00  0.00     0.064 A 
ATOM     88  C   UNL A   1      47.278  34.030  30.307  1.00  0.00     0.173 A 
ATOM     89  C   UNL A   1      47.040  32.938  32.431  1.00  0.00     0.173 A 
ATOM     90  F   UNL A   1      47.253  34.010  28.966  1.00  0.00    -0.203 F 
ATOM     91  C   UNL A   1      47.641  35.207  30.961  1.00  0.00     0.198 A 
ATOM     92  C   UNL A   1      47.369  34.122  33.084  1.00  0.00     0.198 A 
ATOM     93  F   UNL A   1      46.758  31.853  33.169  1.00  0.00    -0.203 F 
ATOM     94  F   UNL A   1      47.964  36.294  30.247  1.00  0.00    -0.200 F 
ATOM     95  C   UNL A   1      47.673  35.256  32.347  1.00  0.00     0.200 A 
ATOM     96  F   UNL A   1      47.381  34.166  34.423  1.00  0.00    -0.200 F 
ATOM     97  F   UNL A   1      48.000  36.394  32.973  1.00  0.00    -0.200 F 
ENDBRANCH  63  87
BRANCH  75  98
ATOM     98  C   UNL A   1      50.317  27.172  28.778  1.00  0.00     0.064 A 
ATOM     99  C   UNL A   1      51.120  27.417  27.655  1.00  0.00     0.173 A 
ATOM    100  C   UNL A   1      50.921  26.583  29.900  1.00  0.00     0.173 A 
ATOM    101  F   UNL A   1      50.590  27.964  26.551  1.00  0.00    -0.203 F 
ATOM    102  C   UNL A   1      52.469  27.067  27.649  1.00  0.00     0.198 A 
ATOM    103  C   UNL A   1      52.276  26.264  29.903  1.00  0.00     0.198 A 
ATOM    104  F   UNL A   1      50.199  26.330  31.003  1.00  0.00    -0.203 F 
ATOM    105  F   UNL A   1      53.207  27.268  26.548  1.00  0.00    -0.200 F 
ATOM    106  C   UNL A   1      53.047  26.500  28.776  1.00  0.00     0.200 A 
ATOM    107  F   UNL A   1      52.835  25.730  30.997  1.00  0.00    -0.200 F 
ATOM    108  F   UNL A   1      54.347  26.173  28.771  1.00  0.00    -0.200 F 
ENDBRANCH  75  98
ENDBRANCH  49  50
ENDBRANCH  42  44
ENDBRANCH  41  42
ENDBRANCH  40  41
ENDBRANCH  39  40
ENDBRANCH  38  39
ENDBRANCH  37  38
ENDBRANCH  36  37
ENDBRANCH  35  36
ENDBRANCH   1  35
TORSDOF 23
ENDMDL
MODEL 3
REMARK VINA RESULT:     -10.5      4.219      8.051
REMARK SMILES COc1ccc(NS(=O)(=O)c2ccc(NC(=O)[C@H]3CCCC[C@@H]3C(=O)OCCOCCOCCOC(=O)c3ccc(-c4c5nc(c(-c6c(F)c(F)c(F)c(F)c6F)c6ccc([nH]6)c(-c6c(F)c(F)c(F)c(F)c6F)c6nc(c(-c7c(F)c(F)c(F)c(F)c7F)c7ccc4[nH]7)C=C6)C=C5)cc3)cc2)cc1
REMARK SMILES IDX 28 1 27 2 26 3 24 4 25 5 23 6 18 7 19 8 20 9 22 10 21 11
REMARK SMILES IDX 16 12 15 13 17 15 14 16 11 17 12 18 102 19 13 20 101 21 8 22
REMARK SMILES IDX 9 23 10 24 7 25 6 27 3 28 4 29 104 30 5 31 103 32 2 33 1 34
REMARK SMILES IDX 29 35 30 36 31 37 32 38 33 39 34 40 35 41 36 42 37 43 38 44
REMARK SMILES IDX 39 45 100 46 40 47 99 48 41 49 42 50 43 51 93 52 44 53 98 54
REMARK SMILES IDX 92 55 94 56 45 57 97 58 91 59 90 60 46 62 78 63 58 64 77 65
REMARK SMILES IDX 59 66 62 67 76 68 95 69 60 70 61 71 75 73 96 74 63 75 47 76
REMARK SMILES IDX 48 77 56 78 49 79 50 80 54 81 57 82 51 83 52 84 55 85 53 86
REMARK SMILES IDX 79 87 80 88 88 89 81 90 82 91 86 92 89 93 83 94 84 95 87 96
REMARK SMILES IDX 85 97 64 98 65 99 73 100 66 101 67 102 71 103 74 104 68 105
REMARK SMILES IDX 69 106 72 107 70 108
REMARK H PARENT 15 14 7 26 94 61 62 72
REMARK Flexibility Score: inf
ROOT
ATOM      1  C   UNL A   1      32.901  31.391  27.206  1.00  0.00     0.202 C 
ENDROOT
BRANCH   1   2
ATOM      2  C   UNL A   1      33.072  29.865  27.015  1.00  0.00     0.261 C 
BRANCH   2   3
ATOM      3  O   UNL A   1      32.110  29.231  26.127  1.00  0.00    -0.463 OA
BRANCH   3   4
ATOM      4  C   UNL A   1      32.545  28.909  24.870  1.00  0.00     0.309 C 
ATOM      5  O   UNL A   1      33.441  29.521  24.296  1.00  0.00    -0.252 OA
BRANCH   4   6
ATOM      6  C   UNL A   1      31.907  27.637  24.253  1.00  0.00     0.111 C 
ATOM      7  C   UNL A   1      30.957  26.783  25.119  1.00  0.00     0.093 C 
ATOM      8  C   UNL A   1      31.643  26.146  26.307  1.00  0.00     0.014 C 
ATOM      9  C   UNL A   1      33.115  25.810  26.081  1.00  0.00     0.001 C 
ATOM     10  C   UNL A   1      32.967  26.760  23.631  1.00  0.00     0.016 C 
ATOM     11  C   UNL A   1      33.646  25.858  24.644  1.00  0.00     0.001 C 
BRANCH   7  12
ATOM     12  C   UNL A   1      29.992  25.874  24.287  1.00  0.00     0.228 C 
ATOM     13  N   UNL A   1      30.143  24.594  23.828  1.00  0.00    -0.326 N 
ATOM     14  H   UNL A   1      29.462  24.396  23.145  1.00  0.00     0.169 HD
ATOM     15  O   UNL A   1      28.964  26.429  23.854  1.00  0.00    -0.274 OA
BRANCH  13  16
ATOM     16  C   UNL A   1      30.972  23.470  24.029  1.00  0.00     0.041 A 
ATOM     17  C   UNL A   1      32.312  20.997  24.450  1.00  0.00     0.087 A 
ATOM     18  C   UNL A   1      32.413  21.672  23.240  1.00  0.00     0.024 A 
ATOM     19  C   UNL A   1      31.626  21.610  25.499  1.00  0.00     0.024 A 
ATOM     20  C   UNL A   1      31.843  22.951  23.091  1.00  0.00     0.027 A 
ATOM     21  C   UNL A   1      30.951  22.831  25.283  1.00  0.00     0.027 A 
BRANCH  17  22
ATOM     22  S   UNL A   1      33.029  19.376  24.649  1.00  0.00     0.261 S 
ATOM     23  O   UNL A   1      33.025  18.731  23.364  1.00  0.00    -0.201 OA
ATOM     24  O   UNL A   1      32.393  18.726  25.777  1.00  0.00    -0.201 OA
BRANCH  22  25
ATOM     25  N   UNL A   1      34.683  19.542  25.034  1.00  0.00    -0.280 N 
ATOM     26  H   UNL A   1      35.276  18.765  25.154  1.00  0.00     0.180 HD
BRANCH  25  27
ATOM     27  C   UNL A   1      35.145  20.877  25.167  1.00  0.00     0.049 A 
ATOM     28  C   UNL A   1      36.429  23.229  25.776  1.00  0.00     0.119 A 
ATOM     29  C   UNL A   1      35.536  22.690  26.692  1.00  0.00     0.048 A 
ATOM     30  C   UNL A   1      36.656  22.626  24.539  1.00  0.00     0.048 A 
ATOM     31  C   UNL A   1      34.842  21.545  26.350  1.00  0.00     0.030 A 
ATOM     32  C   UNL A   1      36.023  21.423  24.236  1.00  0.00     0.030 A 
BRANCH  28  33
ATOM     33  O   UNL A   1      37.135  24.348  26.112  1.00  0.00    -0.497 OA
ATOM     34  C   UNL A   1      38.458  23.969  26.481  1.00  0.00     0.278 C 
ENDBRANCH  28  33
ENDBRANCH  25  27
ENDBRANCH  22  25
ENDBRANCH  17  22
ENDBRANCH  13  16
ENDBRANCH   7  12
ENDBRANCH   4   6
ENDBRANCH   3   4
ENDBRANCH   2   3
ENDBRANCH   1   2
BRANCH   1  35
ATOM     35  O   UNL A   1      33.807  32.008  28.122  1.00  0.00    -0.376 OA
BRANCH  35  36
ATOM     36  C   UNL A   1      33.711  33.421  28.162  1.00  0.00     0.188 C 
BRANCH  36  37
ATOM     37  C   UNL A   1      34.436  34.080  29.339  1.00  0.00     0.188 C 
BRANCH  37  38
ATOM     38  O   UNL A   1      34.028  33.678  30.643  1.00  0.00    -0.376 OA
BRANCH  38  39
ATOM     39  C   UNL A   1      35.107  33.427  31.548  1.00  0.00     0.202 C 
BRANCH  39  40
ATOM     40  C   UNL A   1      36.025  32.200  31.324  1.00  0.00     0.261 C 
BRANCH  40  41
ATOM     41  O   UNL A   1      36.053  31.225  32.382  1.00  0.00    -0.460 OA
BRANCH  41  42
ATOM     42  C   UNL A   1      36.889  31.541  33.407  1.00  0.00     0.338 C 
ATOM     43  O   UNL A   1      36.605  32.214  34.387  1.00  0.00    -0.246 OA
BRANCH  42  44
ATOM     44  C   UNL A   1      38.157  30.773  33.318  1.00  0.00     0.060 A 
ATOM     45  C   UNL A   1      39.236  31.286  34.040  1.00  0.00     0.016 A 
ATOM     46  C   UNL A   1      38.354  29.683  32.478  1.00  0.00     0.016 A 
ATOM     47  C   UNL A   1      40.528  30.804  33.860  1.00  0.00     0.010 A 
ATOM     48  C   UNL A   1      39.662  29.194  32.288  1.00  0.00     0.010 A 
ATOM     49  C   UNL A   1      40.769  29.794  32.926  1.00  0.00    -0.014 A 
BRANCH  49  50
ATOM     50  C   UNL A   1      42.175  29.493  32.522  1.00  0.00     0.031 A 
ATOM     51  C   UNL A   1      42.852  30.298  31.437  1.00  0.00     0.074 A 
ATOM     52  C   UNL A   1      42.897  28.559  33.173  1.00  0.00     0.049 A 
ATOM     53  N   UNL A   1      44.017  30.114  30.862  1.00  0.00    -0.248 NA
ATOM     54  C   UNL A   1      42.127  31.476  30.941  1.00  0.00     0.031 C 
ATOM     55  C   UNL A   1      42.438  27.787  34.326  1.00  0.00     0.029 A 
ATOM     56  N   UNL A   1      44.169  28.091  32.941  1.00  0.00    -0.354 N 
ATOM     57  C   UNL A   1      44.153  31.141  29.933  1.00  0.00     0.074 A 
ATOM     58  C   UNL A   1      42.952  31.943  30.015  1.00  0.00     0.031 C 
ATOM     59  C   UNL A   1      43.399  26.923  34.683  1.00  0.00     0.029 A 
ATOM     60  C   UNL A   1      44.501  27.018  33.730  1.00  0.00     0.049 A 
ATOM     61  H   UNL A   1      44.779  28.485  32.277  1.00  0.00     0.167 HD
ATOM     62  C   UNL A   1      45.176  31.384  29.076  1.00  0.00     0.037 A 
ATOM     63  C   UNL A   1      45.528  26.150  33.649  1.00  0.00     0.037 A 
ATOM     64  C   UNL A   1      46.365  30.575  28.977  1.00  0.00     0.049 A 
ATOM     65  C   UNL A   1      46.572  26.328  32.583  1.00  0.00     0.074 A 
ATOM     66  C   UNL A   1      47.447  30.731  28.128  1.00  0.00     0.029 A 
ATOM     67  N   UNL A   1      46.616  29.445  29.740  1.00  0.00    -0.354 N 
ATOM     68  N   UNL A   1      46.678  27.271  31.680  1.00  0.00    -0.248 NA
ATOM     69  C   UNL A   1      47.634  25.314  32.519  1.00  0.00     0.031 C 
ATOM     70  C   UNL A   1      48.310  29.645  28.315  1.00  0.00     0.029 A 
ATOM     71  C   UNL A   1      47.806  28.857  29.339  1.00  0.00     0.049 A 
ATOM     72  H   UNL A   1      46.035  29.109  30.460  1.00  0.00     0.167 HD
ATOM     73  C   UNL A   1      47.824  26.978  30.953  1.00  0.00     0.074 A 
ATOM     74  C   UNL A   1      48.386  25.774  31.528  1.00  0.00     0.031 C 
ATOM     75  C   UNL A   1      48.361  27.653  29.906  1.00  0.00     0.037 A 
BRANCH  62  76
ATOM     76  C   UNL A   1      45.013  32.521  28.105  1.00  0.00     0.064 A 
ATOM     77  C   UNL A   1      45.479  33.816  28.375  1.00  0.00     0.173 A 
ATOM     78  C   UNL A   1      44.386  32.297  26.868  1.00  0.00     0.173 A 
ATOM     79  F   UNL A   1      46.077  34.090  29.544  1.00  0.00    -0.203 F 
ATOM     80  C   UNL A   1      45.291  34.851  27.460  1.00  0.00     0.198 A 
ATOM     81  C   UNL A   1      44.228  33.325  25.944  1.00  0.00     0.198 A 
ATOM     82  F   UNL A   1      43.929  31.076  26.553  1.00  0.00    -0.203 F 
ATOM     83  F   UNL A   1      45.691  36.094  27.762  1.00  0.00    -0.200 F 
ATOM     84  C   UNL A   1      44.670  34.604  26.244  1.00  0.00     0.200 A 
ATOM     85  F   UNL A   1      43.640  33.080  24.765  1.00  0.00    -0.200 F 
ATOM     86  F   UNL A   1      44.486  35.601  25.367  1.00  0.00    -0.200 F 
ENDBRANCH  62  76
BRANCH  63  87
ATOM     87  C   UNL A   1      45.550  24.977  34.560  1.00  0.00     0.064 A 
ATOM     88  C   UNL A   1      46.108  25.054  35.841  1.00  0.00     0.173 A 
ATOM     89  C   UNL A   1      44.973  23.756  34.170  1.00  0.00     0.173 A 
ATOM     90  F   UNL A   1      46.698  26.188  36.247  1.00  0.00    -0.203 F 
ATOM     91  C   UNL A   1      46.084  23.956  36.700  1.00  0.00     0.198 A 
ATOM     92  C   UNL A   1      44.919  22.672  35.041  1.00  0.00     0.198 A 
ATOM     93  F   UNL A   1      44.431  23.629  32.950  1.00  0.00    -0.203 F 
ATOM     94  F   UNL A   1      46.652  24.045  37.910  1.00  0.00    -0.200 F 
ATOM     95  C   UNL A   1      45.478  22.772  36.305  1.00  0.00     0.200 A 
ATOM     96  F   UNL A   1      44.317  21.537  34.659  1.00  0.00    -0.200 F 
ATOM     97  F   UNL A   1      45.436  21.726  37.141  1.00  0.00    -0.200 F 
ENDBRANCH  63  87
BRANCH  75  98
ATOM     98  C   UNL A   1      49.643  27.127  29.324  1.00  0.00     0.064 A 
ATOM     99  C   UNL A   1      49.655  26.250  28.230  1.00  0.00     0.173 A 
ATOM    100  C   UNL A   1      50.880  27.540  29.844  1.00  0.00     0.173 A 
ATOM    101  F   UNL A   1      48.501  25.810  27.705  1.00  0.00    -0.203 F 
ATOM    102  C   UNL A   1      50.855  25.789  27.693  1.00  0.00     0.198 A 
ATOM    103  C   UNL A   1      52.077  27.105  29.284  1.00  0.00     0.198 A 
ATOM    104  F   UNL A   1      50.927  28.383  30.888  1.00  0.00    -0.203 F 
ATOM    105  F   UNL A   1      50.841  24.915  26.677  1.00  0.00    -0.200 F 
ATOM    106  C   UNL A   1      52.065  26.225  28.214  1.00  0.00     0.200 A 
ATOM    107  F   UNL A   1      53.244  27.538  29.780  1.00  0.00    -0.200 F 
ATOM    108  F   UNL A   1      53.218  25.789  27.689  1.00  0.00    -0.200 F 
ENDBRANCH  75  98
ENDBRANCH  49  50
ENDBRANCH  42  44
ENDBRANCH  41  42
ENDBRANCH  40  41
ENDBRANCH  39  40
ENDBRANCH  38  39
ENDBRANCH  37  38
ENDBRANCH  36  37
ENDBRANCH  35  36
ENDBRANCH   1  35
TORSDOF 23
ENDMDL
