MODEL 1
REMARK VINA RESULT:     -11.6      0.000      0.000
REMARK SMILES CC(C)(C)c1cc2c(cc1Cl)C=C(C(=O)OCCOCCOCCOC(=O)c1ccc(-c3c4nc(c(-c5c(F)c(F)c(F)c(F)c5F)c5ccc([nH]5)c(-c5c(F)c(F)c(F)c(F)c5F)c5nc(c(-c6c(F)c(F)c(F)c(F)c6F)c6ccc3[nH]6)C=C5)C=C4)cc1)[C@@H](C(F)(F)F)O2
REMARK SMILES IDX 21 1 20 2 19 3 18 4 17 5 16 6 14 7 15 8 13 9 5 10 6 11 10 12
REMARK SMILES IDX 7 13 9 14 11 15 8 16 96 17 12 18 91 19 2 20 1 21 3 22 4 23
REMARK SMILES IDX 92 24 93 25 94 26 95 27 22 28 23 29 24 30 25 31 26 32 27 33
REMARK SMILES IDX 28 34 29 35 90 36 30 37 89 38 31 39 32 40 33 41 83 42 34 43
REMARK SMILES IDX 88 44 82 45 84 46 35 47 87 48 81 49 80 50 36 52 68 53 48 54
REMARK SMILES IDX 67 55 49 56 52 57 66 58 85 59 50 60 51 61 65 63 86 64 53 65
REMARK SMILES IDX 37 66 38 67 46 68 39 69 40 70 44 71 47 72 41 73 42 74 45 75
REMARK SMILES IDX 43 76 69 77 70 78 78 79 71 80 72 81 76 82 79 83 73 84 74 85
REMARK SMILES IDX 77 86 75 87 54 88 55 89 63 90 56 91 57 92 61 93 64 94 58 95
REMARK SMILES IDX 59 96 62 97 60 98
REMARK H PARENT 84 51 52 62
REMARK Flexibility Score: inf
ROOT
ATOM      1  C   UNL A   1      33.904  32.017  28.096  1.00  0.00     0.188 C 
ENDROOT
BRANCH   1   2
ATOM      2  C   UNL A   1      32.860  31.365  27.165  1.00  0.00     0.188 C 
BRANCH   2   3
ATOM      3  O   UNL A   1      32.422  30.047  27.401  1.00  0.00    -0.376 OA
BRANCH   3   4
ATOM      4  C   UNL A   1      32.450  29.063  26.382  1.00  0.00     0.202 C 
BRANCH   4   5
ATOM      5  C   UNL A   1      33.573  28.031  26.201  1.00  0.00     0.261 C 
BRANCH   5   6
ATOM      6  O   UNL A   1      33.164  26.671  26.028  1.00  0.00    -0.460 OA
BRANCH   6   7
ATOM      7  C   UNL A   1      33.432  26.146  24.807  1.00  0.00     0.338 C 
ATOM      8  O   UNL A   1      33.956  26.715  23.865  1.00  0.00    -0.246 OA
BRANCH   7   9
ATOM      9  C   UNL A   1      33.155  24.697  24.821  1.00  0.00     0.087 C 
ATOM     10  C   UNL A   1      33.612  19.661  24.530  1.00  0.00    -0.020 A 
ATOM     11  C   UNL A   1      32.536  20.594  24.548  1.00  0.00     0.053 A 
ATOM     12  C   UNL A   1      34.886  20.194  24.815  1.00  0.00     0.045 A 
ATOM     13  C   UNL A   1      32.723  21.969  24.721  1.00  0.00     0.128 A 
ATOM     14  C   UNL A   1      35.069  21.578  24.991  1.00  0.00     0.032 A 
ATOM     15  Cl  UNL A   1      36.341  19.280  25.001  1.00  0.00    -0.084 Cl
ATOM     16  C   UNL A   1      34.000  22.468  24.906  1.00  0.00     0.019 A 
ATOM     17  O   UNL A   1      31.602  22.747  24.677  1.00  0.00    -0.475 OA
ATOM     18  C   UNL A   1      34.222  23.899  24.957  1.00  0.00     0.027 C 
ATOM     19  C   UNL A   1      31.742  24.196  24.688  1.00  0.00     0.316 C 
BRANCH  10  20
ATOM     20  C   UNL A   1      33.258  18.192  24.184  1.00  0.00    -0.012 C 
ATOM     21  C   UNL A   1      34.396  17.282  23.671  1.00  0.00     0.016 C 
ATOM     22  C   UNL A   1      32.195  18.171  23.050  1.00  0.00     0.016 C 
ATOM     23  C   UNL A   1      32.669  17.505  25.435  1.00  0.00     0.016 C 
ENDBRANCH  10  20
BRANCH  19  24
ATOM     24  C   UNL A   1      31.043  24.763  23.443  1.00  0.00     0.430 C 
ATOM     25  F   UNL A   1      30.673  26.052  23.630  1.00  0.00    -0.167 F 
ATOM     26  F   UNL A   1      31.858  24.745  22.362  1.00  0.00    -0.167 F 
ATOM     27  F   UNL A   1      29.933  24.061  23.125  1.00  0.00    -0.167 F 
ENDBRANCH  19  24
ENDBRANCH   7   9
ENDBRANCH   6   7
ENDBRANCH   5   6
ENDBRANCH   4   5
ENDBRANCH   3   4
ENDBRANCH   2   3
ENDBRANCH   1   2
BRANCH   1  28
ATOM     28  O   UNL A   1      34.505  33.248  27.758  1.00  0.00    -0.376 OA
BRANCH  28  29
ATOM     29  C   UNL A   1      34.757  34.214  28.767  1.00  0.00     0.202 C 
BRANCH  29  30
ATOM     30  C   UNL A   1      34.532  33.944  30.264  1.00  0.00     0.261 C 
BRANCH  30  31
ATOM     31  O   UNL A   1      35.712  33.699  31.040  1.00  0.00    -0.460 OA
BRANCH  31  32
ATOM     32  C   UNL A   1      35.758  32.487  31.659  1.00  0.00     0.338 C 
ATOM     33  O   UNL A   1      34.941  32.012  32.416  1.00  0.00    -0.246 OA
BRANCH  32  34
ATOM     34  C   UNL A   1      36.887  31.718  31.096  1.00  0.00     0.060 A 
ATOM     35  C   UNL A   1      36.978  31.487  29.725  1.00  0.00     0.016 A 
ATOM     36  C   UNL A   1      37.865  31.222  31.971  1.00  0.00     0.016 A 
ATOM     37  C   UNL A   1      38.074  30.778  29.224  1.00  0.00     0.010 A 
ATOM     38  C   UNL A   1      38.949  30.498  31.471  1.00  0.00     0.010 A 
ATOM     39  C   UNL A   1      39.072  30.294  30.090  1.00  0.00    -0.014 A 
BRANCH  39  40
ATOM     40  C   UNL A   1      40.333  29.753  29.524  1.00  0.00     0.031 A 
ATOM     41  C   UNL A   1      40.459  28.338  29.055  1.00  0.00     0.074 A 
ATOM     42  C   UNL A   1      41.383  30.590  29.436  1.00  0.00     0.049 A 
ATOM     43  N   UNL A   1      41.461  27.770  28.429  1.00  0.00    -0.248 NA
ATOM     44  C   UNL A   1      39.327  27.441  29.322  1.00  0.00     0.031 C 
ATOM     45  C   UNL A   1      41.385  31.977  29.903  1.00  0.00     0.029 A 
ATOM     46  N   UNL A   1      42.639  30.409  28.916  1.00  0.00    -0.354 N 
ATOM     47  C   UNL A   1      41.072  26.458  28.200  1.00  0.00     0.074 A 
ATOM     48  C   UNL A   1      39.764  26.298  28.804  1.00  0.00     0.031 C 
ATOM     49  C   UNL A   1      42.570  32.534  29.613  1.00  0.00     0.029 A 
ATOM     50  C   UNL A   1      43.417  31.539  28.962  1.00  0.00     0.049 A 
ATOM     51  H   UNL A   1      42.953  29.552  28.546  1.00  0.00     0.167 HD
ATOM     52  C   UNL A   1      41.741  25.490  27.527  1.00  0.00     0.037 A 
ATOM     53  C   UNL A   1      44.669  31.758  28.517  1.00  0.00     0.037 A 
ATOM     54  C   UNL A   1      43.052  25.656  26.947  1.00  0.00     0.049 A 
ATOM     55  C   UNL A   1      45.403  30.654  27.811  1.00  0.00     0.074 A 
ATOM     56  C   UNL A   1      43.791  24.742  26.213  1.00  0.00     0.029 A 
ATOM     57  N   UNL A   1      43.829  26.802  27.048  1.00  0.00    -0.354 N 
ATOM     58  N   UNL A   1      44.991  29.445  27.517  1.00  0.00    -0.248 NA
ATOM     59  C   UNL A   1      46.773  30.945  27.368  1.00  0.00     0.031 C 
ATOM     60  C   UNL A   1      45.034  25.314  25.921  1.00  0.00     0.029 A 
ATOM     61  C   UNL A   1      45.049  26.607  26.417  1.00  0.00     0.049 A 
ATOM     62  H   UNL A   1      43.555  27.632  27.501  1.00  0.00     0.167 HD
ATOM     63  C   UNL A   1      46.036  28.841  26.833  1.00  0.00     0.074 A 
ATOM     64  C   UNL A   1      47.098  29.821  26.743  1.00  0.00     0.031 C 
ATOM     65  C   UNL A   1      46.101  27.587  26.324  1.00  0.00     0.037 A 
BRANCH  52  66
ATOM     66  C   UNL A   1      41.069  24.158  27.350  1.00  0.00     0.064 A 
ATOM     67  C   UNL A   1      39.998  23.998  26.458  1.00  0.00     0.173 A 
ATOM     68  C   UNL A   1      41.568  23.011  27.986  1.00  0.00     0.173 A 
ATOM     69  F   UNL A   1      39.485  25.062  25.822  1.00  0.00    -0.203 F 
ATOM     70  C   UNL A   1      39.444  22.743  26.220  1.00  0.00     0.198 A 
ATOM     71  C   UNL A   1      41.030  21.753  27.723  1.00  0.00     0.198 A 
ATOM     72  F   UNL A   1      42.602  23.103  28.836  1.00  0.00    -0.203 F 
ATOM     73  F   UNL A   1      38.407  22.619  25.379  1.00  0.00    -0.200 F 
ATOM     74  C   UNL A   1      39.967  21.621  26.844  1.00  0.00     0.200 A 
ATOM     75  F   UNL A   1      41.551  20.666  28.311  1.00  0.00    -0.200 F 
ATOM     76  F   UNL A   1      39.449  20.410  26.593  1.00  0.00    -0.200 F 
ENDBRANCH  52  66
BRANCH  53  77
ATOM     77  C   UNL A   1      45.273  33.105  28.680  1.00  0.00     0.064 A 
ATOM     78  C   UNL A   1      45.052  34.109  27.728  1.00  0.00     0.173 A 
ATOM     79  C   UNL A   1      46.043  33.428  29.806  1.00  0.00     0.173 A 
ATOM     80  F   UNL A   1      44.333  33.843  26.627  1.00  0.00    -0.203 F 
ATOM     81  C   UNL A   1      45.587  35.384  27.893  1.00  0.00     0.198 A 
ATOM     82  C   UNL A   1      46.552  34.711  29.984  1.00  0.00     0.198 A 
ATOM     83  F   UNL A   1      46.273  32.503  30.750  1.00  0.00    -0.203 F 
ATOM     84  F   UNL A   1      45.387  36.319  26.953  1.00  0.00    -0.200 F 
ATOM     85  C   UNL A   1      46.328  35.688  29.026  1.00  0.00     0.200 A 
ATOM     86  F   UNL A   1      47.251  35.005  31.090  1.00  0.00    -0.200 F 
ATOM     87  F   UNL A   1      46.828  36.920  29.191  1.00  0.00    -0.200 F 
ENDBRANCH  53  77
BRANCH  65  88
ATOM     88  C   UNL A   1      47.357  27.191  25.600  1.00  0.00     0.064 A 
ATOM     89  C   UNL A   1      47.547  27.484  24.242  1.00  0.00     0.173 A 
ATOM     90  C   UNL A   1      48.417  26.587  26.296  1.00  0.00     0.173 A 
ATOM     91  F   UNL A   1      46.560  28.045  23.528  1.00  0.00    -0.203 F 
ATOM     92  C   UNL A   1      48.748  27.179  23.604  1.00  0.00     0.198 A 
ATOM     93  C   UNL A   1      49.626  26.312  25.663  1.00  0.00     0.198 A 
ATOM     94  F   UNL A   1      48.290  26.291  27.598  1.00  0.00    -0.203 F 
ATOM     95  F   UNL A   1      48.895  27.440  22.298  1.00  0.00    -0.200 F 
ATOM     96  C   UNL A   1      49.790  26.606  24.318  1.00  0.00     0.200 A 
ATOM     97  F   UNL A   1      50.638  25.774  26.358  1.00  0.00    -0.200 F 
ATOM     98  F   UNL A   1      50.953  26.336  23.708  1.00  0.00    -0.200 F 
ENDBRANCH  65  88
ENDBRANCH  39  40
ENDBRANCH  32  34
ENDBRANCH  31  32
ENDBRANCH  30  31
ENDBRANCH  29  30
ENDBRANCH  28  29
ENDBRANCH   1  28
TORSDOF 19
ENDMDL
MODEL 2
REMARK VINA RESULT:     -11.2      3.504      9.311
REMARK SMILES CC(C)(C)c1cc2c(cc1Cl)C=C(C(=O)OCCOCCOCCOC(=O)c1ccc(-c3c4nc(c(-c5c(F)c(F)c(F)c(F)c5F)c5ccc([nH]5)c(-c5c(F)c(F)c(F)c(F)c5F)c5nc(c(-c6c(F)c(F)c(F)c(F)c6F)c6ccc3[nH]6)C=C5)C=C4)cc1)[C@@H](C(F)(F)F)O2
REMARK SMILES IDX 21 1 20 2 19 3 18 4 17 5 16 6 14 7 15 8 13 9 5 10 6 11 10 12
REMARK SMILES IDX 7 13 9 14 11 15 8 16 96 17 12 18 91 19 2 20 1 21 3 22 4 23
REMARK SMILES IDX 92 24 93 25 94 26 95 27 22 28 23 29 24 30 25 31 26 32 27 33
REMARK SMILES IDX 28 34 29 35 90 36 30 37 89 38 31 39 32 40 33 41 83 42 34 43
REMARK SMILES IDX 88 44 82 45 84 46 35 47 87 48 81 49 80 50 36 52 68 53 48 54
REMARK SMILES IDX 67 55 49 56 52 57 66 58 85 59 50 60 51 61 65 63 86 64 53 65
REMARK SMILES IDX 37 66 38 67 46 68 39 69 40 70 44 71 47 72 41 73 42 74 45 75
REMARK SMILES IDX 43 76 69 77 70 78 78 79 71 80 72 81 76 82 79 83 73 84 74 85
REMARK SMILES IDX 77 86 75 87 54 88 55 89 63 90 56 91 57 92 61 93 64 94 58 95
REMARK SMILES IDX 59 96 62 97 60 98
REMARK H PARENT 84 51 52 62
REMARK Flexibility Score: inf
ROOT
ATOM      1  C   UNL A   1      38.776  23.591  26.439  1.00  0.00     0.188 C 
ENDROOT
BRANCH   1   2
ATOM      2  C   UNL A   1      37.278  23.690  26.082  1.00  0.00     0.188 C 
BRANCH   2   3
ATOM      3  O   UNL A   1      36.819  23.263  24.820  1.00  0.00    -0.376 OA
BRANCH   3   4
ATOM      4  C   UNL A   1      35.700  22.403  24.691  1.00  0.00     0.202 C 
BRANCH   4   5
ATOM      5  C   UNL A   1      34.293  22.865  24.283  1.00  0.00     0.261 C 
BRANCH   5   6
ATOM      6  O   UNL A   1      34.121  24.270  24.075  1.00  0.00    -0.460 OA
BRANCH   6   7
ATOM      7  C   UNL A   1      33.377  24.899  25.018  1.00  0.00     0.338 C 
ATOM      8  O   UNL A   1      33.470  24.773  26.227  1.00  0.00    -0.246 OA
BRANCH   7   9
ATOM      9  C   UNL A   1      32.526  25.919  24.376  1.00  0.00     0.087 C 
ATOM     10  C   UNL A   1      29.708  30.032  23.485  1.00  0.00    -0.020 A 
ATOM     11  C   UNL A   1      29.918  28.775  22.849  1.00  0.00     0.053 A 
ATOM     12  C   UNL A   1      30.585  30.332  24.548  1.00  0.00     0.045 A 
ATOM     13  C   UNL A   1      30.851  27.838  23.304  1.00  0.00     0.128 A 
ATOM     14  C   UNL A   1      31.524  29.387  25.000  1.00  0.00     0.032 A 
ATOM     15  Cl  UNL A   1      30.654  31.832  25.402  1.00  0.00    -0.084 Cl
ATOM     16  C   UNL A   1      31.631  28.130  24.408  1.00  0.00     0.019 A 
ATOM     17  O   UNL A   1      30.916  26.660  22.617  1.00  0.00    -0.475 OA
ATOM     18  C   UNL A   1      32.508  27.120  24.967  1.00  0.00     0.027 C 
ATOM     19  C   UNL A   1      31.747  25.581  23.134  1.00  0.00     0.316 C 
BRANCH  10  20
ATOM     20  C   UNL A   1      28.539  30.900  22.951  1.00  0.00    -0.012 C 
ATOM     21  C   UNL A   1      27.312  31.092  23.868  1.00  0.00     0.016 C 
ATOM     22  C   UNL A   1      27.967  30.254  21.658  1.00  0.00     0.016 C 
ATOM     23  C   UNL A   1      29.069  32.310  22.614  1.00  0.00     0.016 C 
ENDBRANCH  10  20
BRANCH  19  24
ATOM     24  C   UNL A   1      30.867  24.337  23.325  1.00  0.00     0.430 C 
ATOM     25  F   UNL A   1      29.651  24.500  22.751  1.00  0.00    -0.167 F 
ATOM     26  F   UNL A   1      31.422  23.240  22.755  1.00  0.00    -0.167 F 
ATOM     27  F   UNL A   1      30.668  24.056  24.632  1.00  0.00    -0.167 F 
ENDBRANCH  19  24
ENDBRANCH   7   9
ENDBRANCH   6   7
ENDBRANCH   5   6
ENDBRANCH   4   5
ENDBRANCH   3   4
ENDBRANCH   2   3
ENDBRANCH   1   2
BRANCH   1  28
ATOM     28  O   UNL A   1      39.373  22.341  26.710  1.00  0.00    -0.376 OA
BRANCH  28  29
ATOM     29  C   UNL A   1      39.072  21.220  25.893  1.00  0.00     0.202 C 
BRANCH  29  30
ATOM     30  C   UNL A   1      39.702  19.834  26.103  1.00  0.00     0.261 C 
BRANCH  30  31
ATOM     31  O   UNL A   1      40.904  19.574  25.369  1.00  0.00    -0.460 OA
BRANCH  31  32
ATOM     32  C   UNL A   1      42.013  19.354  26.129  1.00  0.00     0.338 C 
ATOM     33  O   UNL A   1      42.543  18.295  26.375  1.00  0.00    -0.246 OA
BRANCH  32  34
ATOM     34  C   UNL A   1      42.622  20.662  26.455  1.00  0.00     0.060 A 
ATOM     35  C   UNL A   1      43.202  21.445  25.459  1.00  0.00     0.016 A 
ATOM     36  C   UNL A   1      42.605  21.096  27.788  1.00  0.00     0.016 A 
ATOM     37  C   UNL A   1      43.745  22.687  25.799  1.00  0.00     0.010 A 
ATOM     38  C   UNL A   1      43.165  22.329  28.129  1.00  0.00     0.010 A 
ATOM     39  C   UNL A   1      43.716  23.144  27.129  1.00  0.00    -0.014 A 
BRANCH  39  40
ATOM     40  C   UNL A   1      44.082  24.550  27.429  1.00  0.00     0.031 A 
ATOM     41  C   UNL A   1      45.481  25.062  27.289  1.00  0.00     0.074 A 
ATOM     42  C   UNL A   1      43.098  25.375  27.834  1.00  0.00     0.049 A 
ATOM     43  N   UNL A   1      45.916  26.293  27.400  1.00  0.00    -0.248 NA
ATOM     44  C   UNL A   1      46.528  24.075  26.995  1.00  0.00     0.031 C 
ATOM     45  C   UNL A   1      41.707  24.973  28.047  1.00  0.00     0.029 A 
ATOM     46  N   UNL A   1      43.107  26.716  28.124  1.00  0.00    -0.354 N 
ATOM     47  C   UNL A   1      47.282  26.238  27.160  1.00  0.00     0.074 A 
ATOM     48  C   UNL A   1      47.613  24.842  26.952  1.00  0.00     0.031 C 
ATOM     49  C   UNL A   1      40.988  26.049  28.394  1.00  0.00     0.029 A 
ATOM     50  C   UNL A   1      41.870  27.212  28.452  1.00  0.00     0.049 A 
ATOM     51  H   UNL A   1      43.922  27.269  28.099  1.00  0.00     0.167 HD
ATOM     52  C   UNL A   1      48.165  27.263  27.097  1.00  0.00     0.037 A 
ATOM     53  C   UNL A   1      41.482  28.466  28.750  1.00  0.00     0.037 A 
ATOM     54  C   UNL A   1      47.826  28.648  27.325  1.00  0.00     0.049 A 
ATOM     55  C   UNL A   1      42.492  29.578  28.714  1.00  0.00     0.074 A 
ATOM     56  C   UNL A   1      48.648  29.760  27.244  1.00  0.00     0.029 A 
ATOM     57  N   UNL A   1      46.571  29.111  27.695  1.00  0.00    -0.354 N 
ATOM     58  N   UNL A   1      43.762  29.529  28.394  1.00  0.00    -0.248 NA
ATOM     59  C   UNL A   1      42.014  30.921  29.071  1.00  0.00     0.031 C 
ATOM     60  C   UNL A   1      47.907  30.885  27.619  1.00  0.00     0.029 A 
ATOM     61  C   UNL A   1      46.605  30.486  27.875  1.00  0.00     0.049 A 
ATOM     62  H   UNL A   1      45.773  28.546  27.813  1.00  0.00     0.167 HD
ATOM     63  C   UNL A   1      44.229  30.832  28.485  1.00  0.00     0.074 A 
ATOM     64  C   UNL A   1      43.103  31.653  28.876  1.00  0.00     0.031 C 
ATOM     65  C   UNL A   1      45.480  31.301  28.259  1.00  0.00     0.037 A 
BRANCH  52  66
ATOM     66  C   UNL A   1      49.591  26.949  26.746  1.00  0.00     0.064 A 
ATOM     67  C   UNL A   1      50.528  26.620  27.737  1.00  0.00     0.173 A 
ATOM     68  C   UNL A   1      49.999  26.862  25.406  1.00  0.00     0.173 A 
ATOM     69  F   UNL A   1      50.189  26.684  29.033  1.00  0.00    -0.203 F 
ATOM     70  C   UNL A   1      51.822  26.230  27.401  1.00  0.00     0.198 A 
ATOM     71  C   UNL A   1      51.285  26.443  25.072  1.00  0.00     0.198 A 
ATOM     72  F   UNL A   1      49.139  27.149  24.416  1.00  0.00    -0.203 F 
ATOM     73  F   UNL A   1      52.705  25.941  28.367  1.00  0.00    -0.200 F 
ATOM     74  C   UNL A   1      52.196  26.131  26.070  1.00  0.00     0.200 A 
ATOM     75  F   UNL A   1      51.638  26.328  23.784  1.00  0.00    -0.200 F 
ATOM     76  F   UNL A   1      53.434  25.730  25.747  1.00  0.00    -0.200 F 
ENDBRANCH  52  66
BRANCH  53  77
ATOM     77  C   UNL A   1      40.053  28.732  29.050  1.00  0.00     0.064 A 
ATOM     78  C   UNL A   1      39.170  29.132  28.038  1.00  0.00     0.173 A 
ATOM     79  C   UNL A   1      39.532  28.551  30.339  1.00  0.00     0.173 A 
ATOM     80  F   UNL A   1      39.625  29.332  26.793  1.00  0.00    -0.203 F 
ATOM     81  C   UNL A   1      37.821  29.349  28.307  1.00  0.00     0.198 A 
ATOM     82  C   UNL A   1      38.177  28.740  30.600  1.00  0.00     0.198 A 
ATOM     83  F   UNL A   1      40.335  28.159  31.340  1.00  0.00    -0.203 F 
ATOM     84  F   UNL A   1      37.003  29.761  27.328  1.00  0.00    -0.200 F 
ATOM     85  C   UNL A   1      37.323  29.143  29.585  1.00  0.00     0.200 A 
ATOM     86  F   UNL A   1      37.697  28.520  31.833  1.00  0.00    -0.200 F 
ATOM     87  F   UNL A   1      36.022  29.336  29.839  1.00  0.00    -0.200 F 
ENDBRANCH  53  77
BRANCH  65  88
ATOM     88  C   UNL A   1      45.712  32.778  28.408  1.00  0.00     0.064 A 
ATOM     89  C   UNL A   1      45.446  33.673  27.361  1.00  0.00     0.173 A 
ATOM     90  C   UNL A   1      46.122  33.312  29.640  1.00  0.00     0.173 A 
ATOM     91  F   UNL A   1      45.066  33.214  26.160  1.00  0.00    -0.203 F 
ATOM     92  C   UNL A   1      45.592  35.047  27.540  1.00  0.00     0.198 A 
ATOM     93  C   UNL A   1      46.238  34.687  29.823  1.00  0.00     0.198 A 
ATOM     94  F   UNL A   1      46.384  32.500  30.675  1.00  0.00    -0.203 F 
ATOM     95  F   UNL A   1      45.362  35.882  26.517  1.00  0.00    -0.200 F 
ATOM     96  C   UNL A   1      45.975  35.553  28.774  1.00  0.00     0.200 A 
ATOM     97  F   UNL A   1      46.592  35.174  31.021  1.00  0.00    -0.200 F 
ATOM     98  F   UNL A   1      46.091  36.877  28.950  1.00  0.00    -0.200 F 
ENDBRANCH  65  88
ENDBRANCH  39  40
ENDBRANCH  32  34
ENDBRANCH  31  32
ENDBRANCH  30  31
ENDBRANCH  29  30
ENDBRANCH  28  29
ENDBRANCH   1  28
TORSDOF 19
ENDMDL
MODEL 3
REMARK VINA RESULT:     -11.0      8.120     15.254
REMARK SMILES CC(C)(C)c1cc2c(cc1Cl)C=C(C(=O)OCCOCCOCCOC(=O)c1ccc(-c3c4nc(c(-c5c(F)c(F)c(F)c(F)c5F)c5ccc([nH]5)c(-c5c(F)c(F)c(F)c(F)c5F)c5nc(c(-c6c(F)c(F)c(F)c(F)c6F)c6ccc3[nH]6)C=C5)C=C4)cc1)[C@@H](C(F)(F)F)O2
REMARK SMILES IDX 21 1 20 2 19 3 18 4 17 5 16 6 14 7 15 8 13 9 5 10 6 11 10 12
REMARK SMILES IDX 7 13 9 14 11 15 8 16 96 17 12 18 91 19 2 20 1 21 3 22 4 23
REMARK SMILES IDX 92 24 93 25 94 26 95 27 22 28 23 29 24 30 25 31 26 32 27 33
REMARK SMILES IDX 28 34 29 35 90 36 30 37 89 38 31 39 32 40 33 41 83 42 34 43
REMARK SMILES IDX 88 44 82 45 84 46 35 47 87 48 81 49 80 50 36 52 68 53 48 54
REMARK SMILES IDX 67 55 49 56 52 57 66 58 85 59 50 60 51 61 65 63 86 64 53 65
REMARK SMILES IDX 37 66 38 67 46 68 39 69 40 70 44 71 47 72 41 73 42 74 45 75
REMARK SMILES IDX 43 76 69 77 70 78 78 79 71 80 72 81 76 82 79 83 73 84 74 85
REMARK SMILES IDX 77 86 75 87 54 88 55 89 63 90 56 91 57 92 61 93 64 94 58 95
REMARK SMILES IDX 59 96 62 97 60 98
REMARK H PARENT 84 51 52 62
REMARK Flexibility Score: inf
ROOT
ATOM      1  C   UNL A   1      42.919  39.239  26.857  1.00  0.00     0.188 C 
ENDROOT
BRANCH   1   2
ATOM      2  C   UNL A   1      43.879  40.400  26.523  1.00  0.00     0.188 C 
BRANCH   2   3
ATOM      3  O   UNL A   1      43.368  41.669  26.185  1.00  0.00    -0.376 OA
BRANCH   3   4
ATOM      4  C   UNL A   1      43.660  42.276  24.938  1.00  0.00     0.202 C 
BRANCH   4   5
ATOM      5  C   UNL A   1      45.005  42.155  24.206  1.00  0.00     0.261 C 
BRANCH   5   6
ATOM      6  O   UNL A   1      45.286  43.156  23.224  1.00  0.00    -0.460 OA
BRANCH   6   7
ATOM      7  C   UNL A   1      45.468  42.685  21.966  1.00  0.00     0.338 C 
ATOM      8  O   UNL A   1      45.756  41.544  21.646  1.00  0.00    -0.246 OA
BRANCH   7   9
ATOM      9  C   UNL A   1      45.093  43.726  20.990  1.00  0.00     0.087 C 
ATOM     10  C   UNL A   1      44.449  48.154  18.615  1.00  0.00    -0.020 A 
ATOM     11  C   UNL A   1      43.904  46.842  18.506  1.00  0.00     0.053 A 
ATOM     12  C   UNL A   1      45.559  48.283  19.476  1.00  0.00     0.045 A 
ATOM     13  C   UNL A   1      44.351  45.765  19.278  1.00  0.00     0.128 A 
ATOM     14  C   UNL A   1      46.006  47.196  20.249  1.00  0.00     0.032 A 
ATOM     15  Cl  UNL A   1      46.502  49.714  19.693  1.00  0.00    -0.084 Cl
ATOM     16  C   UNL A   1      45.382  45.952  20.181  1.00  0.00     0.019 A 
ATOM     17  O   UNL A   1      43.709  44.575  19.093  1.00  0.00    -0.475 OA
ATOM     18  C   UNL A   1      45.767  44.880  21.077  1.00  0.00     0.027 C 
ATOM     19  C   UNL A   1      44.013  43.457  19.976  1.00  0.00     0.316 C 
BRANCH  10  20
ATOM     20  C   UNL A   1      43.751  49.271  17.798  1.00  0.00    -0.012 C 
ATOM     21  C   UNL A   1      44.580  49.989  16.712  1.00  0.00     0.016 C 
ATOM     22  C   UNL A   1      43.295  50.405  18.759  1.00  0.00     0.016 C 
ATOM     23  C   UNL A   1      42.510  48.682  17.095  1.00  0.00     0.016 C 
ENDBRANCH  10  20
BRANCH  19  24
ATOM     24  C   UNL A   1      42.708  42.986  20.634  1.00  0.00     0.430 C 
ATOM     25  F   UNL A   1      41.633  43.278  19.863  1.00  0.00    -0.167 F 
ATOM     26  F   UNL A   1      42.699  41.645  20.821  1.00  0.00    -0.167 F 
ATOM     27  F   UNL A   1      42.514  43.564  21.840  1.00  0.00    -0.167 F 
ENDBRANCH  19  24
ENDBRANCH   7   9
ENDBRANCH   6   7
ENDBRANCH   5   6
ENDBRANCH   4   5
ENDBRANCH   3   4
ENDBRANCH   2   3
ENDBRANCH   1   2
BRANCH   1  28
ATOM     28  O   UNL A   1      42.996  38.571  28.098  1.00  0.00    -0.376 OA
BRANCH  28  29
ATOM     29  C   UNL A   1      43.922  39.008  29.081  1.00  0.00     0.202 C 
BRANCH  29  30
ATOM     30  C   UNL A   1      45.312  38.376  29.265  1.00  0.00     0.261 C 
BRANCH  30  31
ATOM     31  O   UNL A   1      46.001  38.015  28.062  1.00  0.00    -0.460 OA
BRANCH  31  32
ATOM     32  C   UNL A   1      46.911  37.011  28.193  1.00  0.00     0.338 C 
ATOM     33  O   UNL A   1      48.103  37.112  28.377  1.00  0.00    -0.246 OA
BRANCH  32  34
ATOM     34  C   UNL A   1      46.180  35.729  28.289  1.00  0.00     0.060 A 
ATOM     35  C   UNL A   1      45.270  35.352  27.304  1.00  0.00     0.016 A 
ATOM     36  C   UNL A   1      46.420  34.902  29.396  1.00  0.00     0.016 A 
ATOM     37  C   UNL A   1      44.617  34.121  27.414  1.00  0.00     0.010 A 
ATOM     38  C   UNL A   1      45.753  33.682  29.514  1.00  0.00     0.010 A 
ATOM     39  C   UNL A   1      44.865  33.272  28.509  1.00  0.00    -0.014 A 
BRANCH  39  40
ATOM     40  C   UNL A   1      44.346  31.883  28.491  1.00  0.00     0.031 A 
ATOM     41  C   UNL A   1      43.054  31.501  29.143  1.00  0.00     0.074 A 
ATOM     42  C   UNL A   1      45.080  30.954  27.851  1.00  0.00     0.049 A 
ATOM     43  N   UNL A   1      42.424  30.353  29.099  1.00  0.00    -0.248 NA
ATOM     44  C   UNL A   1      42.384  32.527  29.952  1.00  0.00     0.031 C 
ATOM     45  C   UNL A   1      46.376  31.206  27.219  1.00  0.00     0.029 A 
ATOM     46  N   UNL A   1      44.844  29.624  27.615  1.00  0.00    -0.354 N 
ATOM     47  C   UNL A   1      41.268  30.523  29.847  1.00  0.00     0.074 A 
ATOM     48  C   UNL A   1      41.311  31.871  30.381  1.00  0.00     0.031 C 
ATOM     49  C   UNL A   1      46.802  30.079  26.631  1.00  0.00     0.029 A 
ATOM     50  C   UNL A   1      45.823  29.020  26.866  1.00  0.00     0.049 A 
ATOM     51  H   UNL A   1      44.050  29.147  27.950  1.00  0.00     0.167 HD
ATOM     52  C   UNL A   1      40.259  29.641  30.046  1.00  0.00     0.037 A 
ATOM     53  C   UNL A   1      45.919  27.759  26.403  1.00  0.00     0.037 A 
ATOM     54  C   UNL A   1      40.237  28.295  29.524  1.00  0.00     0.049 A 
ATOM     55  C   UNL A   1      44.804  26.789  26.674  1.00  0.00     0.074 A 
ATOM     56  C   UNL A   1      39.238  27.342  29.642  1.00  0.00     0.029 A 
ATOM     57  N   UNL A   1      41.264  27.703  28.803  1.00  0.00    -0.354 N 
ATOM     58  N   UNL A   1      43.672  26.989  27.303  1.00  0.00    -0.248 NA
ATOM     59  C   UNL A   1      44.975  25.422  26.164  1.00  0.00     0.031 C 
ATOM     60  C   UNL A   1      39.683  26.160  29.043  1.00  0.00     0.029 A 
ATOM     61  C   UNL A   1      40.935  26.391  28.496  1.00  0.00     0.049 A 
ATOM     62  H   UNL A   1      42.104  28.149  28.546  1.00  0.00     0.167 HD
ATOM     63  C   UNL A   1      42.984  25.785  27.242  1.00  0.00     0.074 A 
ATOM     64  C   UNL A   1      43.820  24.863  26.502  1.00  0.00     0.031 C 
ATOM     65  C   UNL A   1      41.768  25.478  27.754  1.00  0.00     0.037 A 
BRANCH  52  66
ATOM     66  C   UNL A   1      39.069  30.094  30.843  1.00  0.00     0.064 A 
ATOM     67  C   UNL A   1      39.008  29.899  32.231  1.00  0.00     0.173 A 
ATOM     68  C   UNL A   1      38.036  30.828  30.239  1.00  0.00     0.173 A 
ATOM     69  F   UNL A   1      39.970  29.205  32.858  1.00  0.00    -0.203 F 
ATOM     70  C   UNL A   1      37.952  30.410  32.982  1.00  0.00     0.198 A 
ATOM     71  C   UNL A   1      36.997  31.362  30.998  1.00  0.00     0.198 A 
ATOM     72  F   UNL A   1      38.053  31.059  28.917  1.00  0.00    -0.203 F 
ATOM     73  F   UNL A   1      37.905  30.191  34.303  1.00  0.00    -0.200 F 
ATOM     74  C   UNL A   1      36.954  31.150  32.367  1.00  0.00     0.200 A 
ATOM     75  F   UNL A   1      36.044  32.096  30.404  1.00  0.00    -0.200 F 
ATOM     76  F   UNL A   1      35.953  31.663  33.095  1.00  0.00    -0.200 F 
ENDBRANCH  52  66
BRANCH  53  77
ATOM     77  C   UNL A   1      47.096  27.373  25.585  1.00  0.00     0.064 A 
ATOM     78  C   UNL A   1      47.144  27.666  24.215  1.00  0.00     0.173 A 
ATOM     79  C   UNL A   1      48.209  26.745  26.160  1.00  0.00     0.173 A 
ATOM     80  F   UNL A   1      46.096  28.253  23.618  1.00  0.00    -0.203 F 
ATOM     81  C   UNL A   1      48.260  27.336  23.450  1.00  0.00     0.198 A 
ATOM     82  C   UNL A   1      49.336  26.443  25.399  1.00  0.00     0.198 A 
ATOM     83  F   UNL A   1      48.215  26.454  27.469  1.00  0.00    -0.203 F 
ATOM     84  F   UNL A   1      48.269  27.600  22.136  1.00  0.00    -0.200 F 
ATOM     85  C   UNL A   1      49.359  26.735  24.044  1.00  0.00     0.200 A 
ATOM     86  F   UNL A   1      50.404  25.880  25.982  1.00  0.00    -0.200 F 
ATOM     87  F   UNL A   1      50.439  26.435  23.310  1.00  0.00    -0.200 F 
ENDBRANCH  53  77
BRANCH  65  88
ATOM     88  C   UNL A   1      41.241  24.090  27.521  1.00  0.00     0.064 A 
ATOM     89  C   UNL A   1      40.177  23.845  26.641  1.00  0.00     0.173 A 
ATOM     90  C   UNL A   1      41.864  22.984  28.121  1.00  0.00     0.173 A 
ATOM     91  F   UNL A   1      39.537  24.867  26.054  1.00  0.00    -0.203 F 
ATOM     92  C   UNL A   1      39.750  22.546  26.377  1.00  0.00     0.198 A 
ATOM     93  C   UNL A   1      41.455  21.686  27.831  1.00  0.00     0.198 A 
ATOM     94  F   UNL A   1      42.890  23.163  28.967  1.00  0.00    -0.203 F 
ATOM     95  F   UNL A   1      38.712  22.337  25.556  1.00  0.00    -0.200 F 
ATOM     96  C   UNL A   1      40.398  21.467  26.962  1.00  0.00     0.200 A 
ATOM     97  F   UNL A   1      42.093  20.645  28.385  1.00  0.00    -0.200 F 
ATOM     98  F   UNL A   1      40.001  20.217  26.688  1.00  0.00    -0.200 F 
ENDBRANCH  65  88
ENDBRANCH  39  40
ENDBRANCH  32  34
ENDBRANCH  31  32
ENDBRANCH  30  31
ENDBRANCH  29  30
ENDBRANCH  28  29
ENDBRANCH   1  28
TORSDOF 19
ENDMDL
