MODEL 1
REMARK VINA RESULT:     -11.7      0.000      0.000
REMARK SMILES C=CCn1nc(C(=O)OCCOCCOCCOC(=O)c2ccc(-c3c4nc(c(-c5c(F)c(F)c(F)c(F)c5F)c5ccc([nH]5)c(-c5c(F)c(F)c(F)c(F)c5F)c5nc(c(-c6c(F)c(F)c(F)c(F)c6F)c6ccc3[nH]6)C=C5)C=C4)cc2)c2c1CC[C@@H]([NH+]1CCC(C(C)(C)O)CC1)C2
REMARK SMILES IDX 13 1 12 2 11 3 10 4 9 5 7 6 8 7 6 8 4 9 5 10 85 11 84 12
REMARK SMILES IDX 86 13 99 14 87 15 88 16 3 17 2 18 1 19 89 20 90 21 98 22
REMARK SMILES IDX 91 24 97 25 92 26 93 27 94 28 95 29 96 30 14 32 15 33 16 34
REMARK SMILES IDX 17 35 18 36 19 37 20 38 21 39 22 40 83 41 23 42 82 43 24 44
REMARK SMILES IDX 25 45 26 46 76 47 27 48 81 49 75 50 77 51 28 52 80 53 74 54
REMARK SMILES IDX 73 55 29 57 61 58 41 59 60 60 42 61 45 62 59 63 78 64 43 65
REMARK SMILES IDX 44 66 58 68 79 69 46 70 30 71 31 72 39 73 32 74 33 75 37 76
REMARK SMILES IDX 40 77 34 78 35 79 38 80 36 81 62 82 63 83 71 84 64 85 65 86
REMARK SMILES IDX 69 87 72 88 66 89 67 90 70 91 68 92 47 93 48 94 56 95 49 96
REMARK SMILES IDX 50 97 54 98 57 99 51 100 52 101 55 102 53 103
REMARK H PARENT 89 23 96 31 77 56 45 67
REMARK Flexibility Score: inf
ROOT
ATOM      1  C   UNL A   1      34.197  33.698  29.319  1.00  0.00     0.188 C 
ENDROOT
BRANCH   1   2
ATOM      2  O   UNL A   1      34.425  32.319  29.080  1.00  0.00    -0.376 OA
BRANCH   2   3
ATOM      3  C   UNL A   1      34.406  31.765  27.773  1.00  0.00     0.202 C 
BRANCH   3   4
ATOM      4  C   UNL A   1      33.834  30.377  27.434  1.00  0.00     0.261 C 
BRANCH   4   5
ATOM      5  O   UNL A   1      32.556  30.364  26.809  1.00  0.00    -0.458 OA
BRANCH   5   6
ATOM      6  C   UNL A   1      31.876  29.184  26.878  1.00  0.00     0.359 C 
ATOM      7  O   UNL A   1      31.619  28.603  27.931  1.00  0.00    -0.244 OA
BRANCH   6   8
ATOM      8  C   UNL A   1      31.439  28.727  25.555  1.00  0.00     0.174 A 
ATOM      9  N   UNL A   1      30.559  28.798  23.610  1.00  0.00    -0.265 N 
ATOM     10  N   UNL A   1      30.946  29.585  24.635  1.00  0.00    -0.165 NA
ATOM     11  C   UNL A   1      30.622  27.477  23.945  1.00  0.00     0.043 A 
ATOM     12  C   UNL A   1      31.478  27.411  25.019  1.00  0.00     0.014 A 
ATOM     13  C   UNL A   1      29.983  26.328  23.277  1.00  0.00     0.062 C 
ATOM     14  C   UNL A   1      32.089  26.134  25.489  1.00  0.00     0.105 C 
ATOM     15  C   UNL A   1      30.443  25.015  23.935  1.00  0.00     0.072 C 
ATOM     16  C   UNL A   1      31.908  24.973  24.447  1.00  0.00     0.189 C 
BRANCH   9  17
ATOM     17  C   UNL A   1      30.340  29.374  22.285  1.00  0.00     0.171 C 
BRANCH  17  18
ATOM     18  C   UNL A   1      28.948  29.895  22.085  1.00  0.00    -0.011 C 
ATOM     19  C   UNL A   1      28.632  31.195  22.018  1.00  0.00     0.006 C 
ENDBRANCH  17  18
ENDBRANCH   9  17
BRANCH  16  20
ATOM     20  N   UNL A   1      33.039  24.820  23.503  1.00  0.00    -0.332 N 
ATOM     21  C   UNL A   1      33.152  23.661  22.639  1.00  0.00     0.262 C 
ATOM     22  C   UNL A   1      34.360  25.192  23.995  1.00  0.00     0.262 C 
ATOM     23  H   UNL A   1      32.677  25.543  22.881  1.00  0.00     0.348 HD
ATOM     24  C   UNL A   1      33.849  22.440  23.244  1.00  0.00     0.068 C 
ATOM     25  C   UNL A   1      35.022  24.125  24.855  1.00  0.00     0.068 C 
ATOM     26  C   UNL A   1      34.952  22.678  24.309  1.00  0.00     0.031 C 
BRANCH  26  27
ATOM     27  C   UNL A   1      34.958  21.622  25.484  1.00  0.00     0.062 C 
ATOM     28  C   UNL A   1      33.561  21.264  26.004  1.00  0.00     0.042 C 
ATOM     29  C   UNL A   1      35.687  20.339  25.062  1.00  0.00     0.042 C 
BRANCH  27  30
ATOM     30  O   UNL A   1      35.683  22.140  26.603  1.00  0.00    -0.390 OA
ATOM     31  H   UNL A   1      35.068  22.578  27.212  1.00  0.00     0.211 HD
ENDBRANCH  27  30
ENDBRANCH  26  27
ENDBRANCH  16  20
ENDBRANCH   6   8
ENDBRANCH   5   6
ENDBRANCH   4   5
ENDBRANCH   3   4
ENDBRANCH   2   3
ENDBRANCH   1   2
BRANCH   1  32
ATOM     32  C   UNL A   1      33.276  34.537  28.409  1.00  0.00     0.188 C 
BRANCH  32  33
ATOM     33  O   UNL A   1      32.623  35.622  29.024  1.00  0.00    -0.376 OA
BRANCH  33  34
ATOM     34  C   UNL A   1      33.320  36.678  29.659  1.00  0.00     0.202 C 
BRANCH  34  35
ATOM     35  C   UNL A   1      33.152  37.100  31.116  1.00  0.00     0.261 C 
BRANCH  35  36
ATOM     36  O   UNL A   1      33.989  36.474  32.065  1.00  0.00    -0.460 OA
BRANCH  36  37
ATOM     37  C   UNL A   1      33.528  35.278  32.487  1.00  0.00     0.338 C 
ATOM     38  O   UNL A   1      32.363  34.937  32.614  1.00  0.00    -0.246 OA
BRANCH  37  39
ATOM     39  C   UNL A   1      34.658  34.460  32.923  1.00  0.00     0.060 A 
ATOM     40  C   UNL A   1      35.902  35.089  32.966  1.00  0.00     0.016 A 
ATOM     41  C   UNL A   1      34.524  33.063  32.955  1.00  0.00     0.016 A 
ATOM     42  C   UNL A   1      37.022  34.309  32.812  1.00  0.00     0.010 A 
ATOM     43  C   UNL A   1      35.645  32.285  32.794  1.00  0.00     0.010 A 
ATOM     44  C   UNL A   1      36.867  32.926  32.633  1.00  0.00    -0.014 A 
BRANCH  44  45
ATOM     45  C   UNL A   1      38.062  32.159  32.356  1.00  0.00     0.031 A 
ATOM     46  C   UNL A   1      38.883  31.958  33.563  1.00  0.00     0.074 A 
ATOM     47  C   UNL A   1      38.371  31.683  31.136  1.00  0.00     0.049 A 
ATOM     48  N   UNL A   1      40.004  32.534  33.831  1.00  0.00    -0.248 NA
ATOM     49  C   UNL A   1      38.315  31.185  34.676  1.00  0.00     0.031 C 
ATOM     50  C   UNL A   1      37.513  31.614  29.949  1.00  0.00     0.029 A 
ATOM     51  N   UNL A   1      39.522  31.080  30.719  1.00  0.00    -0.354 N 
ATOM     52  C   UNL A   1      40.392  32.037  35.067  1.00  0.00     0.074 A 
ATOM     53  C   UNL A   1      39.248  31.356  35.615  1.00  0.00     0.031 C 
ATOM     54  C   UNL A   1      38.088  30.806  29.028  1.00  0.00     0.029 A 
ATOM     55  C   UNL A   1      39.413  30.432  29.496  1.00  0.00     0.049 A 
ATOM     56  H   UNL A   1      40.356  31.101  31.241  1.00  0.00     0.167 HD
ATOM     57  C   UNL A   1      41.710  31.987  35.390  1.00  0.00     0.037 A 
ATOM     58  C   UNL A   1      40.340  29.618  28.936  1.00  0.00     0.037 A 
ATOM     59  C   UNL A   1      42.494  32.789  34.488  1.00  0.00     0.049 A 
ATOM     60  C   UNL A   1      41.652  29.955  29.535  1.00  0.00     0.074 A 
ATOM     61  C   UNL A   1      42.772  34.127  34.323  1.00  0.00     0.029 A 
ATOM     62  N   UNL A   1      42.801  32.156  33.313  1.00  0.00    -0.354 N 
ATOM     63  N   UNL A   1      42.275  31.077  29.310  1.00  0.00    -0.248 NA
ATOM     64  C   UNL A   1      42.138  29.189  30.679  1.00  0.00     0.031 C 
ATOM     65  C   UNL A   1      43.114  34.295  32.947  1.00  0.00     0.029 A 
ATOM     66  C   UNL A   1      43.070  33.053  32.317  1.00  0.00     0.049 A 
ATOM     67  H   UNL A   1      42.825  31.178  33.201  1.00  0.00     0.167 HD
ATOM     68  C   UNL A   1      42.902  31.362  30.506  1.00  0.00     0.074 A 
ATOM     69  C   UNL A   1      42.943  30.100  31.232  1.00  0.00     0.031 C 
ATOM     70  C   UNL A   1      43.026  32.651  30.930  1.00  0.00     0.037 A 
BRANCH  57  71
ATOM     71  C   UNL A   1      42.348  30.855  36.158  1.00  0.00     0.064 A 
ATOM     72  C   UNL A   1      43.239  31.160  37.205  1.00  0.00     0.173 A 
ATOM     73  C   UNL A   1      42.379  29.521  35.695  1.00  0.00     0.173 A 
ATOM     74  F   UNL A   1      43.315  32.406  37.697  1.00  0.00    -0.203 F 
ATOM     75  C   UNL A   1      44.136  30.211  37.706  1.00  0.00     0.198 A 
ATOM     76  C   UNL A   1      43.238  28.567  36.233  1.00  0.00     0.198 A 
ATOM     77  F   UNL A   1      41.677  29.121  34.628  1.00  0.00    -0.203 F 
ATOM     78  F   UNL A   1      45.047  30.575  38.619  1.00  0.00    -0.200 F 
ATOM     79  C   UNL A   1      44.135  28.917  37.218  1.00  0.00     0.200 A 
ATOM     80  F   UNL A   1      43.243  27.326  35.725  1.00  0.00    -0.200 F 
ATOM     81  F   UNL A   1      45.031  28.023  37.657  1.00  0.00    -0.200 F 
ENDBRANCH  57  71
BRANCH  58  82
ATOM     82  C   UNL A   1      40.154  28.417  28.092  1.00  0.00     0.064 A 
ATOM     83  C   UNL A   1      40.860  28.258  26.887  1.00  0.00     0.173 A 
ATOM     84  C   UNL A   1      39.521  27.271  28.605  1.00  0.00     0.173 A 
ATOM     85  F   UNL A   1      41.524  29.294  26.352  1.00  0.00    -0.203 F 
ATOM     86  C   UNL A   1      40.961  27.015  26.256  1.00  0.00     0.198 A 
ATOM     87  C   UNL A   1      39.620  26.031  27.972  1.00  0.00     0.198 A 
ATOM     88  F   UNL A   1      38.880  27.312  29.782  1.00  0.00    -0.203 F 
ATOM     89  F   UNL A   1      41.703  26.887  25.146  1.00  0.00    -0.200 F 
ATOM     90  C   UNL A   1      40.354  25.899  26.807  1.00  0.00     0.200 A 
ATOM     91  F   UNL A   1      39.060  24.950  28.534  1.00  0.00    -0.200 F 
ATOM     92  F   UNL A   1      40.512  24.694  26.243  1.00  0.00    -0.200 F 
ENDBRANCH  58  82
BRANCH  70  93
ATOM     93  C   UNL A   1      42.961  33.720  29.885  1.00  0.00     0.064 A 
ATOM     94  C   UNL A   1      41.789  34.397  29.509  1.00  0.00     0.173 A 
ATOM     95  C   UNL A   1      44.162  34.114  29.282  1.00  0.00     0.173 A 
ATOM     96  F   UNL A   1      40.617  34.125  30.097  1.00  0.00    -0.203 F 
ATOM     97  C   UNL A   1      41.821  35.397  28.539  1.00  0.00     0.198 A 
ATOM     98  C   UNL A   1      44.196  35.137  28.343  1.00  0.00     0.198 A 
ATOM     99  F   UNL A   1      45.316  33.524  29.634  1.00  0.00    -0.203 F 
ATOM    100  F   UNL A   1      40.688  36.017  28.175  1.00  0.00    -0.200 F 
ATOM    101  C   UNL A   1      43.025  35.771  27.962  1.00  0.00     0.200 A 
ATOM    102  F   UNL A   1      45.369  35.522  27.821  1.00  0.00    -0.200 F 
ATOM    103  F   UNL A   1      43.060  36.755  27.054  1.00  0.00    -0.200 F 
ENDBRANCH  70  93
ENDBRANCH  44  45
ENDBRANCH  37  39
ENDBRANCH  36  37
ENDBRANCH  35  36
ENDBRANCH  34  35
ENDBRANCH  33  34
ENDBRANCH  32  33
ENDBRANCH   1  32
TORSDOF 22
ENDMDL
MODEL 2
REMARK VINA RESULT:     -10.8      0.858      2.055
REMARK SMILES C=CCn1nc(C(=O)OCCOCCOCCOC(=O)c2ccc(-c3c4nc(c(-c5c(F)c(F)c(F)c(F)c5F)c5ccc([nH]5)c(-c5c(F)c(F)c(F)c(F)c5F)c5nc(c(-c6c(F)c(F)c(F)c(F)c6F)c6ccc3[nH]6)C=C5)C=C4)cc2)c2c1CC[C@@H]([NH+]1CCC(C(C)(C)O)CC1)C2
REMARK SMILES IDX 13 1 12 2 11 3 10 4 9 5 7 6 8 7 6 8 4 9 5 10 85 11 84 12
REMARK SMILES IDX 86 13 99 14 87 15 88 16 3 17 2 18 1 19 89 20 90 21 98 22
REMARK SMILES IDX 91 24 97 25 92 26 93 27 94 28 95 29 96 30 14 32 15 33 16 34
REMARK SMILES IDX 17 35 18 36 19 37 20 38 21 39 22 40 83 41 23 42 82 43 24 44
REMARK SMILES IDX 25 45 26 46 76 47 27 48 81 49 75 50 77 51 28 52 80 53 74 54
REMARK SMILES IDX 73 55 29 57 61 58 41 59 60 60 42 61 45 62 59 63 78 64 43 65
REMARK SMILES IDX 44 66 58 68 79 69 46 70 30 71 31 72 39 73 32 74 33 75 37 76
REMARK SMILES IDX 40 77 34 78 35 79 38 80 36 81 62 82 63 83 71 84 64 85 65 86
REMARK SMILES IDX 69 87 72 88 66 89 67 90 70 91 68 92 47 93 48 94 56 95 49 96
REMARK SMILES IDX 50 97 54 98 57 99 51 100 52 101 55 102 53 103
REMARK H PARENT 89 23 96 31 77 56 45 67
REMARK Flexibility Score: inf
ROOT
ATOM      1  C   UNL A   1      34.705  33.652  29.599  1.00  0.00     0.188 C 
ENDROOT
BRANCH   1   2
ATOM      2  O   UNL A   1      35.097  32.546  28.802  1.00  0.00    -0.376 OA
BRANCH   2   3
ATOM      3  C   UNL A   1      34.297  32.062  27.734  1.00  0.00     0.202 C 
BRANCH   3   4
ATOM      4  C   UNL A   1      33.843  30.599  27.593  1.00  0.00     0.261 C 
BRANCH   4   5
ATOM      5  O   UNL A   1      32.643  30.385  26.859  1.00  0.00    -0.458 OA
BRANCH   5   6
ATOM      6  C   UNL A   1      32.135  29.121  26.910  1.00  0.00     0.359 C 
ATOM      7  O   UNL A   1      32.094  28.441  27.935  1.00  0.00    -0.244 OA
BRANCH   6   8
ATOM      8  C   UNL A   1      31.594  28.696  25.615  1.00  0.00     0.174 A 
ATOM      9  N   UNL A   1      30.598  28.827  23.729  1.00  0.00    -0.265 N 
ATOM     10  N   UNL A   1      31.088  29.586  24.732  1.00  0.00    -0.165 NA
ATOM     11  C   UNL A   1      30.616  27.502  24.054  1.00  0.00     0.043 A 
ATOM     12  C   UNL A   1      31.533  27.385  25.071  1.00  0.00     0.014 A 
ATOM     13  C   UNL A   1      29.880  26.392  23.421  1.00  0.00     0.062 C 
ATOM     14  C   UNL A   1      32.108  26.075  25.496  1.00  0.00     0.105 C 
ATOM     15  C   UNL A   1      30.314  25.052  24.043  1.00  0.00     0.072 C 
ATOM     16  C   UNL A   1      31.804  24.933  24.462  1.00  0.00     0.189 C 
BRANCH   9  17
ATOM     17  C   UNL A   1      30.326  29.424  22.423  1.00  0.00     0.171 C 
BRANCH  17  18
ATOM     18  C   UNL A   1      29.122  30.318  22.417  1.00  0.00    -0.011 C 
ATOM     19  C   UNL A   1      28.081  30.174  21.586  1.00  0.00     0.006 C 
ENDBRANCH  17  18
ENDBRANCH   9  17
BRANCH  16  20
ATOM     20  N   UNL A   1      32.865  24.732  23.447  1.00  0.00    -0.332 N 
ATOM     21  C   UNL A   1      32.926  23.524  22.646  1.00  0.00     0.262 C 
ATOM     22  C   UNL A   1      34.213  25.139  23.818  1.00  0.00     0.262 C 
ATOM     23  H   UNL A   1      32.451  25.415  22.813  1.00  0.00     0.348 HD
ATOM     24  C   UNL A   1      33.677  22.345  23.268  1.00  0.00     0.068 C 
ATOM     25  C   UNL A   1      34.947  24.128  24.688  1.00  0.00     0.068 C 
ATOM     26  C   UNL A   1      34.853  22.651  24.233  1.00  0.00     0.031 C 
BRANCH  26  27
ATOM     27  C   UNL A   1      34.955  21.667  25.464  1.00  0.00     0.062 C 
ATOM     28  C   UNL A   1      33.615  21.398  26.158  1.00  0.00     0.042 C 
ATOM     29  C   UNL A   1      35.586  20.331  25.045  1.00  0.00     0.042 C 
BRANCH  27  30
ATOM     30  O   UNL A   1      35.821  22.218  26.461  1.00  0.00    -0.390 OA
ATOM     31  H   UNL A   1      35.337  22.302  27.298  1.00  0.00     0.211 HD
ENDBRANCH  27  30
ENDBRANCH  26  27
ENDBRANCH  16  20
ENDBRANCH   6   8
ENDBRANCH   5   6
ENDBRANCH   4   5
ENDBRANCH   3   4
ENDBRANCH   2   3
ENDBRANCH   1   2
BRANCH   1  32
ATOM     32  C   UNL A   1      33.774  34.754  29.053  1.00  0.00     0.188 C 
BRANCH  32  33
ATOM     33  O   UNL A   1      32.682  35.101  29.872  1.00  0.00    -0.376 OA
BRANCH  33  34
ATOM     34  C   UNL A   1      32.615  36.322  30.585  1.00  0.00     0.202 C 
BRANCH  34  35
ATOM     35  C   UNL A   1      33.099  36.539  32.016  1.00  0.00     0.261 C 
BRANCH  35  36
ATOM     36  O   UNL A   1      34.314  35.920  32.383  1.00  0.00    -0.460 OA
BRANCH  36  37
ATOM     37  C   UNL A   1      34.159  34.666  32.855  1.00  0.00     0.338 C 
ATOM     38  O   UNL A   1      33.111  34.077  33.060  1.00  0.00    -0.246 OA
BRANCH  37  39
ATOM     39  C   UNL A   1      35.468  34.136  33.234  1.00  0.00     0.060 A 
ATOM     40  C   UNL A   1      36.575  34.911  32.892  1.00  0.00     0.016 A 
ATOM     41  C   UNL A   1      35.582  32.787  33.606  1.00  0.00     0.016 A 
ATOM     42  C   UNL A   1      37.775  34.267  32.702  1.00  0.00     0.010 A 
ATOM     43  C   UNL A   1      36.781  32.145  33.408  1.00  0.00     0.010 A 
ATOM     44  C   UNL A   1      37.834  32.876  32.872  1.00  0.00    -0.014 A 
BRANCH  44  45
ATOM     45  C   UNL A   1      39.083  32.225  32.547  1.00  0.00     0.031 A 
ATOM     46  C   UNL A   1      40.026  32.239  33.679  1.00  0.00     0.074 A 
ATOM     47  C   UNL A   1      39.340  31.667  31.349  1.00  0.00     0.049 A 
ATOM     48  N   UNL A   1      41.088  32.961  33.783  1.00  0.00    -0.248 NA
ATOM     49  C   UNL A   1      39.656  31.522  34.908  1.00  0.00     0.031 C 
ATOM     50  C   UNL A   1      38.395  31.383  30.265  1.00  0.00     0.029 A 
ATOM     51  N   UNL A   1      40.514  31.158  30.876  1.00  0.00    -0.354 N 
ATOM     52  C   UNL A   1      41.641  32.636  35.014  1.00  0.00     0.074 A 
ATOM     53  C   UNL A   1      40.641  31.890  35.731  1.00  0.00     0.031 C 
ATOM     54  C   UNL A   1      38.980  30.557  29.367  1.00  0.00     0.029 A 
ATOM     55  C   UNL A   1      40.376  30.383  29.732  1.00  0.00     0.049 A 
ATOM     56  H   UNL A   1      41.381  31.325  31.308  1.00  0.00     0.167 HD
ATOM     57  C   UNL A   1      42.979  32.767  35.208  1.00  0.00     0.037 A 
ATOM     58  C   UNL A   1      41.343  29.627  29.158  1.00  0.00     0.037 A 
ATOM     59  C   UNL A   1      43.577  33.558  34.164  1.00  0.00     0.049 A 
ATOM     60  C   UNL A   1      42.651  30.167  29.591  1.00  0.00     0.074 A 
ATOM     61  C   UNL A   1      43.675  34.896  33.854  1.00  0.00     0.029 A 
ATOM     62  N   UNL A   1      43.854  32.850  33.026  1.00  0.00    -0.354 N 
ATOM     63  N   UNL A   1      43.111  31.324  29.207  1.00  0.00    -0.248 NA
ATOM     64  C   UNL A   1      43.326  29.579  30.744  1.00  0.00     0.031 C 
ATOM     65  C   UNL A   1      43.872  34.963  32.442  1.00  0.00     0.029 A 
ATOM     66  C   UNL A   1      43.923  33.667  31.933  1.00  0.00     0.049 A 
ATOM     67  H   UNL A   1      43.987  31.874  32.999  1.00  0.00     0.167 HD
ATOM     68  C   UNL A   1      43.802  31.795  30.305  1.00  0.00     0.074 A 
ATOM     69  C   UNL A   1      44.060  30.625  31.132  1.00  0.00     0.031 C 
ATOM     70  C   UNL A   1      43.807  33.127  30.598  1.00  0.00     0.037 A 
BRANCH  57  71
ATOM     71  C   UNL A   1      43.814  31.797  36.006  1.00  0.00     0.064 A 
ATOM     72  C   UNL A   1      43.847  30.444  35.615  1.00  0.00     0.173 A 
ATOM     73  C   UNL A   1      44.297  32.071  37.304  1.00  0.00     0.173 A 
ATOM     74  F   UNL A   1      43.380  30.070  34.414  1.00  0.00    -0.203 F 
ATOM     75  C   UNL A   1      44.275  29.437  36.485  1.00  0.00     0.198 A 
ATOM     76  C   UNL A   1      44.771  31.070  38.148  1.00  0.00     0.198 A 
ATOM     77  F   UNL A   1      44.213  33.289  37.853  1.00  0.00    -0.203 F 
ATOM     78  F   UNL A   1      44.178  28.153  36.115  1.00  0.00    -0.200 F 
ATOM     79  C   UNL A   1      44.734  29.751  37.751  1.00  0.00     0.200 A 
ATOM     80  F   UNL A   1      45.183  31.392  39.383  1.00  0.00    -0.200 F 
ATOM     81  F   UNL A   1      45.092  28.784  38.606  1.00  0.00    -0.200 F 
ENDBRANCH  57  71
BRANCH  58  82
ATOM     82  C   UNL A   1      41.230  28.335  28.446  1.00  0.00     0.064 A 
ATOM     83  C   UNL A   1      40.437  27.291  28.953  1.00  0.00     0.173 A 
ATOM     84  C   UNL A   1      41.647  28.213  27.108  1.00  0.00     0.173 A 
ATOM     85  F   UNL A   1      39.967  27.349  30.208  1.00  0.00    -0.203 F 
ATOM     86  C   UNL A   1      40.048  26.212  28.154  1.00  0.00     0.198 A 
ATOM     87  C   UNL A   1      41.261  27.134  26.313  1.00  0.00     0.198 A 
ATOM     88  F   UNL A   1      42.352  29.191  26.520  1.00  0.00    -0.203 F 
ATOM     89  F   UNL A   1      39.231  25.272  28.652  1.00  0.00    -0.200 F 
ATOM     90  C   UNL A   1      40.447  26.142  26.830  1.00  0.00     0.200 A 
ATOM     91  F   UNL A   1      41.622  27.096  25.022  1.00  0.00    -0.200 F 
ATOM     92  F   UNL A   1      40.015  25.147  26.043  1.00  0.00    -0.200 F 
ENDBRANCH  58  82
BRANCH  70  93
ATOM     93  C   UNL A   1      43.520  34.071  29.474  1.00  0.00     0.064 A 
ATOM     94  C   UNL A   1      44.467  34.492  28.525  1.00  0.00     0.173 A 
ATOM     95  C   UNL A   1      42.203  34.522  29.322  1.00  0.00     0.173 A 
ATOM     96  F   UNL A   1      45.729  34.043  28.563  1.00  0.00    -0.203 F 
ATOM     97  C   UNL A   1      44.110  35.360  27.495  1.00  0.00     0.198 A 
ATOM     98  C   UNL A   1      41.842  35.356  28.272  1.00  0.00     0.198 A 
ATOM     99  F   UNL A   1      41.252  34.119  30.180  1.00  0.00    -0.203 F 
ATOM    100  F   UNL A   1      45.033  35.771  26.611  1.00  0.00    -0.200 F 
ATOM    101  C   UNL A   1      42.797  35.786  27.365  1.00  0.00     0.200 A 
ATOM    102  F   UNL A   1      40.563  35.730  28.128  1.00  0.00    -0.200 F 
ATOM    103  F   UNL A   1      42.447  36.594  26.356  1.00  0.00    -0.200 F 
ENDBRANCH  70  93
ENDBRANCH  44  45
ENDBRANCH  37  39
ENDBRANCH  36  37
ENDBRANCH  35  36
ENDBRANCH  34  35
ENDBRANCH  33  34
ENDBRANCH  32  33
ENDBRANCH   1  32
TORSDOF 22
ENDMDL
MODEL 3
REMARK VINA RESULT:     -10.7      3.130      5.130
REMARK SMILES C=CCn1nc(C(=O)OCCOCCOCCOC(=O)c2ccc(-c3c4nc(c(-c5c(F)c(F)c(F)c(F)c5F)c5ccc([nH]5)c(-c5c(F)c(F)c(F)c(F)c5F)c5nc(c(-c6c(F)c(F)c(F)c(F)c6F)c6ccc3[nH]6)C=C5)C=C4)cc2)c2c1CC[C@@H]([NH+]1CCC(C(C)(C)O)CC1)C2
REMARK SMILES IDX 13 1 12 2 11 3 10 4 9 5 7 6 8 7 6 8 4 9 5 10 85 11 84 12
REMARK SMILES IDX 86 13 99 14 87 15 88 16 3 17 2 18 1 19 89 20 90 21 98 22
REMARK SMILES IDX 91 24 97 25 92 26 93 27 94 28 95 29 96 30 14 32 15 33 16 34
REMARK SMILES IDX 17 35 18 36 19 37 20 38 21 39 22 40 83 41 23 42 82 43 24 44
REMARK SMILES IDX 25 45 26 46 76 47 27 48 81 49 75 50 77 51 28 52 80 53 74 54
REMARK SMILES IDX 73 55 29 57 61 58 41 59 60 60 42 61 45 62 59 63 78 64 43 65
REMARK SMILES IDX 44 66 58 68 79 69 46 70 30 71 31 72 39 73 32 74 33 75 37 76
REMARK SMILES IDX 40 77 34 78 35 79 38 80 36 81 62 82 63 83 71 84 64 85 65 86
REMARK SMILES IDX 69 87 72 88 66 89 67 90 70 91 68 92 47 93 48 94 56 95 49 96
REMARK SMILES IDX 50 97 54 98 57 99 51 100 52 101 55 102 53 103
REMARK H PARENT 89 23 96 31 77 56 45 67
REMARK Flexibility Score: inf
ROOT
ATOM      1  C   UNL A   1      30.945  29.491  24.726  1.00  0.00     0.188 C 
ENDROOT
BRANCH   1   2
ATOM      2  O   UNL A   1      30.575  29.524  23.357  1.00  0.00    -0.376 OA
BRANCH   2   3
ATOM      3  C   UNL A   1      30.056  28.387  22.686  1.00  0.00     0.202 C 
BRANCH   3   4
ATOM      4  C   UNL A   1      30.927  27.279  22.068  1.00  0.00     0.261 C 
BRANCH   4   5
ATOM      5  O   UNL A   1      32.334  27.462  22.167  1.00  0.00    -0.458 OA
BRANCH   5   6
ATOM      6  C   UNL A   1      33.081  26.322  22.150  1.00  0.00     0.359 C 
ATOM      7  O   UNL A   1      33.719  25.936  21.172  1.00  0.00    -0.244 OA
BRANCH   6   8
ATOM      8  C   UNL A   1      33.078  25.647  23.453  1.00  0.00     0.174 A 
ATOM      9  N   UNL A   1      32.976  25.404  25.573  1.00  0.00    -0.265 N 
ATOM     10  N   UNL A   1      32.768  26.306  24.591  1.00  0.00    -0.165 NA
ATOM     11  C   UNL A   1      33.582  24.279  25.094  1.00  0.00     0.043 A 
ATOM     12  C   UNL A   1      33.344  24.281  23.740  1.00  0.00     0.014 A 
ATOM     13  C   UNL A   1      34.286  23.224  25.847  1.00  0.00     0.062 C 
ATOM     14  C   UNL A   1      33.538  23.076  22.882  1.00  0.00     0.105 C 
ATOM     15  C   UNL A   1      34.695  22.084  24.896  1.00  0.00     0.072 C 
ATOM     16  C   UNL A   1      33.717  21.768  23.733  1.00  0.00     0.189 C 
BRANCH   9  17
ATOM     17  C   UNL A   1      32.385  25.607  26.894  1.00  0.00     0.171 C 
BRANCH  17  18
ATOM     18  C   UNL A   1      31.525  26.832  26.978  1.00  0.00    -0.011 C 
ATOM     19  C   UNL A   1      31.758  27.863  27.801  1.00  0.00     0.006 C 
ENDBRANCH  17  18
ENDBRANCH   9  17
BRANCH  16  20
ATOM     20  N   UNL A   1      32.459  21.024  23.978  1.00  0.00    -0.332 N 
ATOM     21  C   UNL A   1      32.168  20.437  25.272  1.00  0.00     0.262 C 
ATOM     22  C   UNL A   1      32.013  20.125  22.923  1.00  0.00     0.262 C 
ATOM     23  H   UNL A   1      31.901  21.878  23.975  1.00  0.00     0.348 HD
ATOM     24  C   UNL A   1      32.725  19.032  25.511  1.00  0.00     0.068 C 
ATOM     25  C   UNL A   1      32.726  18.780  22.913  1.00  0.00     0.068 C 
ATOM     26  C   UNL A   1      32.881  18.088  24.289  1.00  0.00     0.031 C 
BRANCH  26  27
ATOM     27  C   UNL A   1      34.174  17.182  24.331  1.00  0.00     0.062 C 
ATOM     28  C   UNL A   1      34.100  16.041  25.353  1.00  0.00     0.042 C 
ATOM     29  C   UNL A   1      34.480  16.601  22.943  1.00  0.00     0.042 C 
BRANCH  27  30
ATOM     30  O   UNL A   1      35.312  17.971  24.690  1.00  0.00    -0.390 OA
ATOM     31  H   UNL A   1      35.484  17.877  25.641  1.00  0.00     0.211 HD
ENDBRANCH  27  30
ENDBRANCH  26  27
ENDBRANCH  16  20
ENDBRANCH   6   8
ENDBRANCH   5   6
ENDBRANCH   4   5
ENDBRANCH   3   4
ENDBRANCH   2   3
ENDBRANCH   1   2
BRANCH   1  32
ATOM     32  C   UNL A   1      32.321  29.999  25.205  1.00  0.00     0.188 C 
BRANCH  32  33
ATOM     33  O   UNL A   1      32.312  30.829  26.342  1.00  0.00    -0.376 OA
BRANCH  33  34
ATOM     34  C   UNL A   1      33.482  31.145  27.071  1.00  0.00     0.202 C 
BRANCH  34  35
ATOM     35  C   UNL A   1      33.583  32.201  28.169  1.00  0.00     0.261 C 
BRANCH  35  36
ATOM     36  O   UNL A   1      34.881  32.622  28.535  1.00  0.00    -0.460 OA
BRANCH  36  37
ATOM     37  C   UNL A   1      35.435  31.876  29.513  1.00  0.00     0.338 C 
ATOM     38  O   UNL A   1      35.066  31.784  30.672  1.00  0.00    -0.246 OA
BRANCH  37  39
ATOM     39  C   UNL A   1      36.670  31.277  29.011  1.00  0.00     0.060 A 
ATOM     40  C   UNL A   1      36.608  29.932  28.650  1.00  0.00     0.016 A 
ATOM     41  C   UNL A   1      37.890  31.942  29.216  1.00  0.00     0.016 A 
ATOM     42  C   UNL A   1      37.765  29.194  28.718  1.00  0.00     0.010 A 
ATOM     43  C   UNL A   1      39.044  31.201  29.290  1.00  0.00     0.010 A 
ATOM     44  C   UNL A   1      38.949  29.824  29.130  1.00  0.00    -0.014 A 
BRANCH  44  45
ATOM     45  C   UNL A   1      40.116  28.988  29.301  1.00  0.00     0.031 A 
ATOM     46  C   UNL A   1      40.449  28.785  30.722  1.00  0.00     0.074 A 
ATOM     47  C   UNL A   1      40.804  28.455  28.274  1.00  0.00     0.049 A 
ATOM     48  N   UNL A   1      41.438  29.311  31.360  1.00  0.00    -0.248 NA
ATOM     49  C   UNL A   1      39.481  28.081  31.575  1.00  0.00     0.031 C 
ATOM     50  C   UNL A   1      40.413  28.390  26.863  1.00  0.00     0.029 A 
ATOM     51  N   UNL A   1      41.989  27.779  28.297  1.00  0.00    -0.354 N 
ATOM     52  C   UNL A   1      41.337  28.836  32.660  1.00  0.00     0.074 A 
ATOM     53  C   UNL A   1      40.035  28.235  32.780  1.00  0.00     0.031 C 
ATOM     54  C   UNL A   1      41.225  27.523  26.214  1.00  0.00     0.029 A 
ATOM     55  C   UNL A   1      42.276  27.097  27.123  1.00  0.00     0.049 A 
ATOM     56  H   UNL A   1      42.587  27.775  29.078  1.00  0.00     0.167 HD
ATOM     57  C   UNL A   1      42.453  28.729  33.427  1.00  0.00     0.037 A 
ATOM     58  C   UNL A   1      43.290  26.218  26.936  1.00  0.00     0.037 A 
ATOM     59  C   UNL A   1      43.550  29.459  32.847  1.00  0.00     0.049 A 
ATOM     60  C   UNL A   1      44.327  26.506  27.953  1.00  0.00     0.074 A 
ATOM     61  C   UNL A   1      43.949  30.774  32.772  1.00  0.00     0.029 A 
ATOM     62  N   UNL A   1      44.210  28.772  31.864  1.00  0.00    -0.354 N 
ATOM     63  N   UNL A   1      45.055  27.587  27.946  1.00  0.00    -0.248 NA
ATOM     64  C   UNL A   1      44.334  25.756  29.205  1.00  0.00     0.031 C 
ATOM     65  C   UNL A   1      44.760  30.878  31.602  1.00  0.00     0.029 A 
ATOM     66  C   UNL A   1      44.864  29.620  31.014  1.00  0.00     0.049 A 
ATOM     67  H   UNL A   1      44.214  27.790  31.780  1.00  0.00     0.167 HD
ATOM     68  C   UNL A   1      45.240  27.879  29.283  1.00  0.00     0.074 A 
ATOM     69  C   UNL A   1      44.948  26.642  29.993  1.00  0.00     0.031 C 
ATOM     70  C   UNL A   1      45.286  29.174  29.706  1.00  0.00     0.037 A 
BRANCH  57  71
ATOM     71  C   UNL A   1      42.711  27.593  34.385  1.00  0.00     0.064 A 
ATOM     72  C   UNL A   1      43.170  26.362  33.874  1.00  0.00     0.173 A 
ATOM     73  C   UNL A   1      42.215  27.561  35.706  1.00  0.00     0.173 A 
ATOM     74  F   UNL A   1      43.630  26.274  32.617  1.00  0.00    -0.203 F 
ATOM     75  C   UNL A   1      43.078  25.180  34.614  1.00  0.00     0.198 A 
ATOM     76  C   UNL A   1      42.175  26.390  36.458  1.00  0.00     0.198 A 
ATOM     77  F   UNL A   1      41.637  28.626  36.276  1.00  0.00    -0.203 F 
ATOM     78  F   UNL A   1      43.415  24.013  34.047  1.00  0.00    -0.200 F 
ATOM     79  C   UNL A   1      42.579  25.195  35.904  1.00  0.00     0.200 A 
ATOM     80  F   UNL A   1      41.659  26.420  37.696  1.00  0.00    -0.200 F 
ATOM     81  F   UNL A   1      42.439  24.055  36.594  1.00  0.00    -0.200 F 
ENDBRANCH  57  71
BRANCH  58  82
ATOM     82  C   UNL A   1      43.340  25.001  26.097  1.00  0.00     0.064 A 
ATOM     83  C   UNL A   1      44.377  24.797  25.169  1.00  0.00     0.173 A 
ATOM     84  C   UNL A   1      42.549  23.880  26.410  1.00  0.00     0.173 A 
ATOM     85  F   UNL A   1      45.200  25.805  24.846  1.00  0.00    -0.203 F 
ATOM     86  C   UNL A   1      44.633  23.537  24.622  1.00  0.00     0.198 A 
ATOM     87  C   UNL A   1      42.804  22.623  25.860  1.00  0.00     0.198 A 
ATOM     88  F   UNL A   1      41.579  23.963  27.332  1.00  0.00    -0.203 F 
ATOM     89  F   UNL A   1      45.675  23.366  23.796  1.00  0.00    -0.200 F 
ATOM     90  C   UNL A   1      43.856  22.448  24.979  1.00  0.00     0.200 A 
ATOM     91  F   UNL A   1      42.069  21.569  26.242  1.00  0.00    -0.200 F 
ATOM     92  F   UNL A   1      44.146  21.226  24.512  1.00  0.00    -0.200 F 
ENDBRANCH  58  82
BRANCH  70  93
ATOM     93  C   UNL A   1      45.655  30.208  28.691  1.00  0.00     0.064 A 
ATOM     94  C   UNL A   1      44.738  30.875  27.860  1.00  0.00     0.173 A 
ATOM     95  C   UNL A   1      47.002  30.581  28.602  1.00  0.00     0.173 A 
ATOM     96  F   UNL A   1      43.425  30.624  27.943  1.00  0.00    -0.203 F 
ATOM     97  C   UNL A   1      45.166  31.843  26.955  1.00  0.00     0.198 A 
ATOM     98  C   UNL A   1      47.420  31.574  27.725  1.00  0.00     0.198 A 
ATOM     99  F   UNL A   1      47.914  30.001  29.400  1.00  0.00    -0.203 F 
ATOM    100  F   UNL A   1      44.279  32.453  26.153  1.00  0.00    -0.200 F 
ATOM    101  C   UNL A   1      46.505  32.197  26.892  1.00  0.00     0.200 A 
ATOM    102  F   UNL A   1      48.709  31.940  27.700  1.00  0.00    -0.200 F 
ATOM    103  F   UNL A   1      46.912  33.151  26.044  1.00  0.00    -0.200 F 
ENDBRANCH  70  93
ENDBRANCH  44  45
ENDBRANCH  37  39
ENDBRANCH  36  37
ENDBRANCH  35  36
ENDBRANCH  34  35
ENDBRANCH  33  34
ENDBRANCH  32  33
ENDBRANCH   1  32
TORSDOF 22
ENDMDL
