MODEL 1
REMARK VINA RESULT:     -10.9      0.000      0.000
REMARK SMILES C[C@@H]1C(=O)NC(=O)CN1C(=O)NC1(CC(=O)OCCOCCOCCOC(=O)c2ccc(-c3c4nc(c(-c5c(F)c(F)c(F)c(F)c5F)c5ccc([nH]5)c(-c5c(F)c(F)c(F)c(F)c5F)c5nc(c(-c6c(F)c(F)c(F)c(F)c6F)c6ccc3[nH]6)C=C5)C=C4)cc2)CCC1
REMARK SMILES IDX 21 1 20 2 19 3 18 4 17 5 15 6 16 7 14 8 13 9 92 10 94 11
REMARK SMILES IDX 93 12 12 13 10 14 11 15 9 17 1 18 2 19 3 20 4 21 5 22 8 23
REMARK SMILES IDX 6 24 7 26 22 27 23 28 24 29 25 30 26 31 27 32 28 33 29 34
REMARK SMILES IDX 30 35 91 36 31 37 90 38 32 39 33 40 34 41 84 42 35 43 89 44
REMARK SMILES IDX 83 45 85 46 36 47 88 48 82 49 81 50 37 52 69 53 49 54 68 55
REMARK SMILES IDX 50 56 53 57 67 58 86 59 51 60 52 61 66 63 87 64 54 65 38 66
REMARK SMILES IDX 39 67 47 68 40 69 41 70 45 71 48 72 42 73 43 74 46 75 44 76
REMARK SMILES IDX 70 77 71 78 79 79 72 80 73 81 77 82 80 83 74 84 75 85 78 86
REMARK SMILES IDX 76 87 55 88 56 89 64 90 57 91 58 92 62 93 65 94 59 95 60 96
REMARK SMILES IDX 63 97 61 98
REMARK H PARENT 12 16 5 25 85 51 53 62
REMARK Flexibility Score: inf
ROOT
ATOM      1  C   UNL A   1      37.729  21.288  25.351  1.00  0.00     0.188 C 
ENDROOT
BRANCH   1   2
ATOM      2  O   UNL A   1      36.693  21.801  26.173  1.00  0.00    -0.376 OA
BRANCH   2   3
ATOM      3  C   UNL A   1      35.728  22.630  25.534  1.00  0.00     0.202 C 
BRANCH   3   4
ATOM      4  C   UNL A   1      34.537  21.990  24.723  1.00  0.00     0.261 C 
BRANCH   4   5
ATOM      5  O   UNL A   1      33.142  22.234  25.130  1.00  0.00    -0.463 OA
BRANCH   5   6
ATOM      6  C   UNL A   1      32.164  22.367  24.158  1.00  0.00     0.308 C 
ATOM      7  O   UNL A   1      31.903  21.459  23.372  1.00  0.00    -0.252 OA
BRANCH   6   8
ATOM      8  C   UNL A   1      31.434  23.792  24.049  1.00  0.00     0.151 C 
BRANCH   8   9
ATOM      9  C   UNL A   1      31.187  24.713  25.315  1.00  0.00     0.052 C 
ATOM     10  C   UNL A   1      30.317  23.962  26.408  1.00  0.00     0.029 C 
ATOM     11  C   UNL A   1      30.266  25.977  25.793  1.00  0.00     0.029 C 
ATOM     12  C   UNL A   1      29.188  24.994  26.170  1.00  0.00     0.005 C 
BRANCH   9  13
ATOM     13  N   UNL A   1      32.484  25.136  25.733  1.00  0.00    -0.332 N 
ATOM     14  C   UNL A   1      33.226  26.063  25.145  1.00  0.00     0.318 C 
ATOM     15  O   UNL A   1      34.377  25.673  25.143  1.00  0.00    -0.249 OA
ATOM     16  H   UNL A   1      32.862  24.701  26.531  1.00  0.00     0.165 HD
BRANCH  14  17
ATOM     17  N   UNL A   1      32.825  27.155  24.458  1.00  0.00    -0.304 N 
ATOM     18  C   UNL A   1      33.466  27.984  22.162  1.00  0.00     0.042 C 
ATOM     19  C   UNL A   1      32.419  27.316  23.062  1.00  0.00     0.174 C 
ATOM     20  C   UNL A   1      31.136  28.145  22.998  1.00  0.00     0.249 C 
ATOM     21  O   UNL A   1      30.358  28.079  22.048  1.00  0.00    -0.272 OA
ATOM     22  N   UNL A   1      31.007  29.140  23.936  1.00  0.00    -0.293 N 
ATOM     23  C   UNL A   1      32.993  28.418  25.172  1.00  0.00     0.222 C 
ATOM     24  C   UNL A   1      31.882  29.418  24.953  1.00  0.00     0.246 C 
ATOM     25  H   UNL A   1      30.207  29.710  23.872  1.00  0.00     0.173 HD
ATOM     26  O   UNL A   1      31.813  30.479  25.573  1.00  0.00    -0.273 OA
ENDBRANCH  14  17
ENDBRANCH   9  13
ENDBRANCH   8   9
ENDBRANCH   6   8
ENDBRANCH   5   6
ENDBRANCH   4   5
ENDBRANCH   3   4
ENDBRANCH   2   3
ENDBRANCH   1   2
BRANCH   1  27
ATOM     27  C   UNL A   1      39.161  21.501  25.891  1.00  0.00     0.188 C 
BRANCH  27  28
ATOM     28  O   UNL A   1      40.193  20.548  25.656  1.00  0.00    -0.376 OA
BRANCH  28  29
ATOM     29  C   UNL A   1      41.298  20.630  26.536  1.00  0.00     0.202 C 
BRANCH  29  30
ATOM     30  C   UNL A   1      42.607  21.118  25.874  1.00  0.00     0.261 C 
BRANCH  30  31
ATOM     31  O   UNL A   1      42.469  22.349  25.122  1.00  0.00    -0.460 OA
BRANCH  31  32
ATOM     32  C   UNL A   1      43.352  23.343  25.435  1.00  0.00     0.338 C 
ATOM     33  O   UNL A   1      44.494  23.459  25.003  1.00  0.00    -0.246 OA
BRANCH  32  34
ATOM     34  C   UNL A   1      42.673  24.443  26.194  1.00  0.00     0.060 A 
ATOM     35  C   UNL A   1      43.185  25.750  26.067  1.00  0.00     0.016 A 
ATOM     36  C   UNL A   1      41.505  24.242  26.932  1.00  0.00     0.016 A 
ATOM     37  C   UNL A   1      42.593  26.828  26.737  1.00  0.00     0.010 A 
ATOM     38  C   UNL A   1      40.927  25.317  27.630  1.00  0.00     0.010 A 
ATOM     39  C   UNL A   1      41.502  26.604  27.586  1.00  0.00    -0.014 A 
BRANCH  39  40
ATOM     40  C   UNL A   1      41.182  27.583  28.665  1.00  0.00     0.031 A 
ATOM     41  C   UNL A   1      42.021  27.505  29.919  1.00  0.00     0.074 A 
ATOM     42  C   UNL A   1      40.211  28.510  28.574  1.00  0.00     0.049 A 
ATOM     43  N   UNL A   1      41.883  28.122  31.066  1.00  0.00    -0.248 NA
ATOM     44  C   UNL A   1      43.176  26.592  29.868  1.00  0.00     0.031 C 
ATOM     45  C   UNL A   1      39.377  28.762  27.403  1.00  0.00     0.029 A 
ATOM     46  N   UNL A   1      39.753  29.412  29.510  1.00  0.00    -0.354 N 
ATOM     47  C   UNL A   1      42.921  27.660  31.867  1.00  0.00     0.074 A 
ATOM     48  C   UNL A   1      43.664  26.693  31.092  1.00  0.00     0.031 C 
ATOM     49  C   UNL A   1      38.490  29.733  27.698  1.00  0.00     0.029 A 
ATOM     50  C   UNL A   1      38.668  30.145  29.092  1.00  0.00     0.049 A 
ATOM     51  H   UNL A   1      40.167  29.522  30.397  1.00  0.00     0.167 HD
ATOM     52  C   UNL A   1      43.236  28.012  33.136  1.00  0.00     0.037 A 
ATOM     53  C   UNL A   1      37.892  31.018  29.768  1.00  0.00     0.037 A 
ATOM     54  C   UNL A   1      42.498  28.968  33.916  1.00  0.00     0.049 A 
ATOM     55  C   UNL A   1      38.200  31.318  31.220  1.00  0.00     0.074 A 
ATOM     56  C   UNL A   1      42.725  29.380  35.217  1.00  0.00     0.029 A 
ATOM     57  N   UNL A   1      41.387  29.660  33.463  1.00  0.00    -0.354 N 
ATOM     58  N   UNL A   1      39.178  30.873  31.975  1.00  0.00    -0.248 NA
ATOM     59  C   UNL A   1      37.292  32.244  31.916  1.00  0.00     0.031 C 
ATOM     60  C   UNL A   1      41.720  30.283  35.570  1.00  0.00     0.029 A 
ATOM     61  C   UNL A   1      40.905  30.483  34.468  1.00  0.00     0.049 A 
ATOM     62  H   UNL A   1      40.998  29.581  32.562  1.00  0.00     0.167 HD
ATOM     63  C   UNL A   1      39.024  31.492  33.210  1.00  0.00     0.074 A 
ATOM     64  C   UNL A   1      37.871  32.358  33.102  1.00  0.00     0.031 C 
ATOM     65  C   UNL A   1      39.767  31.357  34.337  1.00  0.00     0.037 A 
BRANCH  52  66
ATOM     66  C   UNL A   1      44.417  27.337  33.771  1.00  0.00     0.064 A 
ATOM     67  C   UNL A   1      44.285  26.139  34.488  1.00  0.00     0.173 A 
ATOM     68  C   UNL A   1      45.705  27.876  33.624  1.00  0.00     0.173 A 
ATOM     69  F   UNL A   1      43.074  25.594  34.676  1.00  0.00    -0.203 F 
ATOM     70  C   UNL A   1      45.396  25.515  35.051  1.00  0.00     0.198 A 
ATOM     71  C   UNL A   1      46.816  27.232  34.161  1.00  0.00     0.198 A 
ATOM     72  F   UNL A   1      45.886  29.020  32.949  1.00  0.00    -0.203 F 
ATOM     73  F   UNL A   1      45.240  24.394  35.770  1.00  0.00    -0.200 F 
ATOM     74  C   UNL A   1      46.660  26.056  34.878  1.00  0.00     0.200 A 
ATOM     75  F   UNL A   1      48.040  27.750  33.981  1.00  0.00    -0.200 F 
ATOM     76  F   UNL A   1      47.730  25.446  35.407  1.00  0.00    -0.200 F 
ENDBRANCH  52  66
BRANCH  53  77
ATOM     77  C   UNL A   1      36.714  31.660  29.115  1.00  0.00     0.064 A 
ATOM     78  C   UNL A   1      36.695  33.037  28.839  1.00  0.00     0.173 A 
ATOM     79  C   UNL A   1      35.551  30.930  28.828  1.00  0.00     0.173 A 
ATOM     80  F   UNL A   1      37.766  33.792  29.129  1.00  0.00    -0.203 F 
ATOM     81  C   UNL A   1      35.553  33.660  28.337  1.00  0.00     0.198 A 
ATOM     82  C   UNL A   1      34.422  31.548  28.291  1.00  0.00     0.198 A 
ATOM     83  F   UNL A   1      35.503  29.614  29.083  1.00  0.00    -0.203 F 
ATOM     84  F   UNL A   1      35.541  34.988  28.159  1.00  0.00    -0.200 F 
ATOM     85  C   UNL A   1      34.418  32.914  28.059  1.00  0.00     0.200 A 
ATOM     86  F   UNL A   1      33.329  30.821  28.018  1.00  0.00    -0.200 F 
ATOM     87  F   UNL A   1      33.318  33.515  27.586  1.00  0.00    -0.200 F 
ENDBRANCH  53  77
BRANCH  65  88
ATOM     88  C   UNL A   1      39.396  32.202  35.524  1.00  0.00     0.064 A 
ATOM     89  C   UNL A   1      38.507  31.748  36.510  1.00  0.00     0.173 A 
ATOM     90  C   UNL A   1      39.968  33.473  35.694  1.00  0.00     0.173 A 
ATOM     91  F   UNL A   1      37.925  30.545  36.393  1.00  0.00    -0.203 F 
ATOM     92  C   UNL A   1      38.174  32.551  37.599  1.00  0.00     0.198 A 
ATOM     93  C   UNL A   1      39.662  34.257  36.803  1.00  0.00     0.198 A 
ATOM     94  F   UNL A   1      40.836  33.951  34.790  1.00  0.00    -0.203 F 
ATOM     95  F   UNL A   1      37.277  32.121  38.496  1.00  0.00    -0.200 F 
ATOM     96  C   UNL A   1      38.757  33.800  37.749  1.00  0.00     0.200 A 
ATOM     97  F   UNL A   1      40.242  35.455  36.955  1.00  0.00    -0.200 F 
ATOM     98  F   UNL A   1      38.440  34.568  38.800  1.00  0.00    -0.200 F 
ENDBRANCH  65  88
ENDBRANCH  39  40
ENDBRANCH  32  34
ENDBRANCH  31  32
ENDBRANCH  30  31
ENDBRANCH  29  30
ENDBRANCH  28  29
ENDBRANCH  27  28
ENDBRANCH   1  27
TORSDOF 20
ENDMDL
MODEL 2
REMARK VINA RESULT:     -10.8      4.925     10.328
REMARK SMILES C[C@@H]1C(=O)NC(=O)CN1C(=O)NC1(CC(=O)OCCOCCOCCOC(=O)c2ccc(-c3c4nc(c(-c5c(F)c(F)c(F)c(F)c5F)c5ccc([nH]5)c(-c5c(F)c(F)c(F)c(F)c5F)c5nc(c(-c6c(F)c(F)c(F)c(F)c6F)c6ccc3[nH]6)C=C5)C=C4)cc2)CCC1
REMARK SMILES IDX 21 1 20 2 19 3 18 4 17 5 15 6 16 7 14 8 13 9 92 10 94 11
REMARK SMILES IDX 93 12 12 13 10 14 11 15 9 17 1 18 2 19 3 20 4 21 5 22 8 23
REMARK SMILES IDX 6 24 7 26 22 27 23 28 24 29 25 30 26 31 27 32 28 33 29 34
REMARK SMILES IDX 30 35 91 36 31 37 90 38 32 39 33 40 34 41 84 42 35 43 89 44
REMARK SMILES IDX 83 45 85 46 36 47 88 48 82 49 81 50 37 52 69 53 49 54 68 55
REMARK SMILES IDX 50 56 53 57 67 58 86 59 51 60 52 61 66 63 87 64 54 65 38 66
REMARK SMILES IDX 39 67 47 68 40 69 41 70 45 71 48 72 42 73 43 74 46 75 44 76
REMARK SMILES IDX 70 77 71 78 79 79 72 80 73 81 77 82 80 83 74 84 75 85 78 86
REMARK SMILES IDX 76 87 55 88 56 89 64 90 57 91 58 92 62 93 65 94 59 95 60 96
REMARK SMILES IDX 63 97 61 98
REMARK H PARENT 12 16 5 25 85 51 53 62
REMARK Flexibility Score: inf
ROOT
ATOM      1  C   UNL A   1      35.223  32.659  28.189  1.00  0.00     0.188 C 
ENDROOT
BRANCH   1   2
ATOM      2  O   UNL A   1      34.683  31.348  28.165  1.00  0.00    -0.376 OA
BRANCH   2   3
ATOM      3  C   UNL A   1      33.494  31.165  27.404  1.00  0.00     0.202 C 
BRANCH   3   4
ATOM      4  C   UNL A   1      33.286  29.857  26.548  1.00  0.00     0.261 C 
BRANCH   4   5
ATOM      5  O   UNL A   1      32.547  29.909  25.274  1.00  0.00    -0.463 OA
BRANCH   5   6
ATOM      6  C   UNL A   1      32.775  28.935  24.316  1.00  0.00     0.308 C 
ATOM      7  O   UNL A   1      33.328  29.192  23.248  1.00  0.00    -0.252 OA
BRANCH   6   8
ATOM      8  C   UNL A   1      32.216  27.463  24.626  1.00  0.00     0.151 C 
BRANCH   8   9
ATOM      9  C   UNL A   1      31.254  26.698  23.625  1.00  0.00     0.052 C 
ATOM     10  C   UNL A   1      29.885  27.476  23.440  1.00  0.00     0.029 C 
ATOM     11  C   UNL A   1      30.253  25.406  23.582  1.00  0.00     0.029 C 
ATOM     12  C   UNL A   1      29.157  26.290  24.119  1.00  0.00     0.005 C 
BRANCH   9  13
ATOM     13  N   UNL A   1      32.024  26.498  22.441  1.00  0.00    -0.332 N 
ATOM     14  C   UNL A   1      33.061  25.683  22.316  1.00  0.00     0.318 C 
ATOM     15  O   UNL A   1      33.901  26.250  21.646  1.00  0.00    -0.249 OA
ATOM     16  H   UNL A   1      31.759  27.011  21.643  1.00  0.00     0.165 HD
BRANCH  14  17
ATOM     17  N   UNL A   1      33.304  24.521  22.962  1.00  0.00    -0.304 N 
ATOM     18  C   UNL A   1      35.385  23.684  24.119  1.00  0.00     0.042 C 
ATOM     19  C   UNL A   1      33.965  24.252  24.239  1.00  0.00     0.174 C 
ATOM     20  C   UNL A   1      33.123  23.266  25.049  1.00  0.00     0.249 C 
ATOM     21  O   UNL A   1      33.195  23.193  26.274  1.00  0.00    -0.272 OA
ATOM     22  N   UNL A   1      32.457  22.303  24.331  1.00  0.00    -0.293 N 
ATOM     23  C   UNL A   1      33.024  23.320  22.179  1.00  0.00     0.222 C 
ATOM     24  C   UNL A   1      32.424  22.180  22.967  1.00  0.00     0.246 C 
ATOM     25  H   UNL A   1      31.952  21.634  24.849  1.00  0.00     0.173 HD
ATOM     26  O   UNL A   1      32.022  21.146  22.436  1.00  0.00    -0.273 OA
ENDBRANCH  14  17
ENDBRANCH   9  13
ENDBRANCH   8   9
ENDBRANCH   6   8
ENDBRANCH   5   6
ENDBRANCH   4   5
ENDBRANCH   3   4
ENDBRANCH   2   3
ENDBRANCH   1   2
BRANCH   1  27
ATOM     27  C   UNL A   1      34.453  33.669  29.069  1.00  0.00     0.188 C 
BRANCH  27  28
ATOM     28  O   UNL A   1      34.008  33.326  30.378  1.00  0.00    -0.376 OA
BRANCH  28  29
ATOM     29  C   UNL A   1      34.495  34.158  31.414  1.00  0.00     0.202 C 
BRANCH  29  30
ATOM     30  C   UNL A   1      34.381  33.548  32.830  1.00  0.00     0.261 C 
BRANCH  30  31
ATOM     31  O   UNL A   1      35.608  32.949  33.319  1.00  0.00    -0.460 OA
BRANCH  31  32
ATOM     32  C   UNL A   1      36.767  33.552  32.924  1.00  0.00     0.338 C 
ATOM     33  O   UNL A   1      37.175  34.649  33.294  1.00  0.00    -0.246 OA
BRANCH  32  34
ATOM     34  C   UNL A   1      37.633  32.598  32.156  1.00  0.00     0.060 A 
ATOM     35  C   UNL A   1      38.378  31.648  32.884  1.00  0.00     0.016 A 
ATOM     36  C   UNL A   1      37.650  32.549  30.761  1.00  0.00     0.016 A 
ATOM     37  C   UNL A   1      39.198  30.718  32.231  1.00  0.00     0.010 A 
ATOM     38  C   UNL A   1      38.496  31.637  30.106  1.00  0.00     0.010 A 
ATOM     39  C   UNL A   1      39.319  30.757  30.837  1.00  0.00    -0.014 A 
BRANCH  39  40
ATOM     40  C   UNL A   1      40.515  30.159  30.175  1.00  0.00     0.031 A 
ATOM     41  C   UNL A   1      41.690  31.079  29.942  1.00  0.00     0.074 A 
ATOM     42  C   UNL A   1      40.596  28.871  29.792  1.00  0.00     0.049 A 
ATOM     43  N   UNL A   1      42.796  30.881  29.268  1.00  0.00    -0.248 NA
ATOM     44  C   UNL A   1      41.595  32.417  30.552  1.00  0.00     0.031 C 
ATOM     45  C   UNL A   1      39.582  27.846  30.022  1.00  0.00     0.029 A 
ATOM     46  N   UNL A   1      41.590  28.210  29.104  1.00  0.00    -0.354 N 
ATOM     47  C   UNL A   1      43.512  32.070  29.366  1.00  0.00     0.074 A 
ATOM     48  C   UNL A   1      42.710  32.992  30.135  1.00  0.00     0.031 C 
ATOM     49  C   UNL A   1      39.993  26.692  29.461  1.00  0.00     0.029 A 
ATOM     50  C   UNL A   1      41.281  26.905  28.798  1.00  0.00     0.049 A 
ATOM     51  H   UNL A   1      42.444  28.633  28.855  1.00  0.00     0.167 HD
ATOM     52  C   UNL A   1      44.734  32.368  28.865  1.00  0.00     0.037 A 
ATOM     53  C   UNL A   1      41.946  26.005  28.043  1.00  0.00     0.037 A 
ATOM     54  C   UNL A   1      45.535  31.458  28.093  1.00  0.00     0.049 A 
ATOM     55  C   UNL A   1      43.262  26.397  27.405  1.00  0.00     0.074 A 
ATOM     56  C   UNL A   1      46.778  31.672  27.524  1.00  0.00     0.029 A 
ATOM     57  N   UNL A   1      45.167  30.160  27.779  1.00  0.00    -0.354 N 
ATOM     58  N   UNL A   1      43.930  27.523  27.494  1.00  0.00    -0.248 NA
ATOM     59  C   UNL A   1      43.916  25.388  26.556  1.00  0.00     0.031 C 
ATOM     60  C   UNL A   1      47.140  30.519  26.823  1.00  0.00     0.029 A 
ATOM     61  C   UNL A   1      46.153  29.566  27.008  1.00  0.00     0.049 A 
ATOM     62  H   UNL A   1      44.332  29.724  28.063  1.00  0.00     0.167 HD
ATOM     63  C   UNL A   1      45.092  27.342  26.752  1.00  0.00     0.074 A 
ATOM     64  C   UNL A   1      45.050  25.992  26.234  1.00  0.00     0.031 C 
ATOM     65  C   UNL A   1      46.106  28.213  26.517  1.00  0.00     0.037 A 
BRANCH  52  66
ATOM     66  C   UNL A   1      45.267  33.749  29.115  1.00  0.00     0.064 A 
ATOM     67  C   UNL A   1      46.178  34.011  30.149  1.00  0.00     0.173 A 
ATOM     68  C   UNL A   1      44.893  34.816  28.283  1.00  0.00     0.173 A 
ATOM     69  F   UNL A   1      46.552  33.031  30.985  1.00  0.00    -0.203 F 
ATOM     70  C   UNL A   1      46.681  35.294  30.353  1.00  0.00     0.198 A 
ATOM     71  C   UNL A   1      45.422  36.089  28.471  1.00  0.00     0.198 A 
ATOM     72  F   UNL A   1      44.024  34.619  27.281  1.00  0.00    -0.203 F 
ATOM     73  F   UNL A   1      47.517  35.531  31.374  1.00  0.00    -0.200 F 
ATOM     74  C   UNL A   1      46.310  36.329  29.507  1.00  0.00     0.200 A 
ATOM     75  F   UNL A   1      45.073  37.086  27.644  1.00  0.00    -0.200 F 
ATOM     76  F   UNL A   1      46.807  37.560  29.695  1.00  0.00    -0.200 F 
ENDBRANCH  52  66
BRANCH  53  77
ATOM     77  C   UNL A   1      41.381  24.646  27.798  1.00  0.00     0.064 A 
ATOM     78  C   UNL A   1      41.980  23.500  28.345  1.00  0.00     0.173 A 
ATOM     79  C   UNL A   1      40.282  24.454  26.947  1.00  0.00     0.173 A 
ATOM     80  F   UNL A   1      43.058  23.621  29.135  1.00  0.00    -0.203 F 
ATOM     81  C   UNL A   1      41.526  22.221  28.024  1.00  0.00     0.198 A 
ATOM     82  C   UNL A   1      39.805  23.176  26.657  1.00  0.00     0.198 A 
ATOM     83  F   UNL A   1      39.676  25.509  26.383  1.00  0.00    -0.203 F 
ATOM     84  F   UNL A   1      42.168  21.145  28.500  1.00  0.00    -0.200 F 
ATOM     85  C   UNL A   1      40.435  22.061  27.183  1.00  0.00     0.200 A 
ATOM     86  F   UNL A   1      38.747  23.026  25.849  1.00  0.00    -0.200 F 
ATOM     87  F   UNL A   1      40.005  20.831  26.867  1.00  0.00    -0.200 F 
ENDBRANCH  53  77
BRANCH  65  88
ATOM     88  C   UNL A   1      47.276  27.721  25.713  1.00  0.00     0.064 A 
ATOM     89  C   UNL A   1      47.280  27.752  24.310  1.00  0.00     0.173 A 
ATOM     90  C   UNL A   1      48.427  27.242  26.360  1.00  0.00     0.173 A 
ATOM     91  F   UNL A   1      46.203  28.191  23.642  1.00  0.00    -0.203 F 
ATOM     92  C   UNL A   1      48.376  27.286  23.586  1.00  0.00     0.198 A 
ATOM     93  C   UNL A   1      49.535  26.813  25.633  1.00  0.00     0.198 A 
ATOM     94  F   UNL A   1      48.485  27.203  27.700  1.00  0.00    -0.203 F 
ATOM     95  F   UNL A   1      48.332  27.270  22.247  1.00  0.00    -0.200 F 
ATOM     96  C   UNL A   1      49.504  26.824  24.247  1.00  0.00     0.200 A 
ATOM     97  F   UNL A   1      50.631  26.386  26.274  1.00  0.00    -0.200 F 
ATOM     98  F   UNL A   1      50.558  26.383  23.548  1.00  0.00    -0.200 F 
ENDBRANCH  65  88
ENDBRANCH  39  40
ENDBRANCH  32  34
ENDBRANCH  31  32
ENDBRANCH  30  31
ENDBRANCH  29  30
ENDBRANCH  28  29
ENDBRANCH  27  28
ENDBRANCH   1  27
TORSDOF 20
ENDMDL
MODEL 3
REMARK VINA RESULT:     -10.8      4.547     10.248
REMARK SMILES C[C@@H]1C(=O)NC(=O)CN1C(=O)NC1(CC(=O)OCCOCCOCCOC(=O)c2ccc(-c3c4nc(c(-c5c(F)c(F)c(F)c(F)c5F)c5ccc([nH]5)c(-c5c(F)c(F)c(F)c(F)c5F)c5nc(c(-c6c(F)c(F)c(F)c(F)c6F)c6ccc3[nH]6)C=C5)C=C4)cc2)CCC1
REMARK SMILES IDX 21 1 20 2 19 3 18 4 17 5 15 6 16 7 14 8 13 9 92 10 94 11
REMARK SMILES IDX 93 12 12 13 10 14 11 15 9 17 1 18 2 19 3 20 4 21 5 22 8 23
REMARK SMILES IDX 6 24 7 26 22 27 23 28 24 29 25 30 26 31 27 32 28 33 29 34
REMARK SMILES IDX 30 35 91 36 31 37 90 38 32 39 33 40 34 41 84 42 35 43 89 44
REMARK SMILES IDX 83 45 85 46 36 47 88 48 82 49 81 50 37 52 69 53 49 54 68 55
REMARK SMILES IDX 50 56 53 57 67 58 86 59 51 60 52 61 66 63 87 64 54 65 38 66
REMARK SMILES IDX 39 67 47 68 40 69 41 70 45 71 48 72 42 73 43 74 46 75 44 76
REMARK SMILES IDX 70 77 71 78 79 79 72 80 73 81 77 82 80 83 74 84 75 85 78 86
REMARK SMILES IDX 76 87 55 88 56 89 64 90 57 91 58 92 62 93 65 94 59 95 60 96
REMARK SMILES IDX 63 97 61 98
REMARK H PARENT 12 16 5 25 85 51 53 62
REMARK Flexibility Score: inf
ROOT
ATOM      1  C   UNL A   1      34.558  32.774  27.994  1.00  0.00     0.188 C 
ENDROOT
BRANCH   1   2
ATOM      2  O   UNL A   1      33.545  31.854  27.621  1.00  0.00    -0.376 OA
BRANCH   2   3
ATOM      3  C   UNL A   1      33.953  30.501  27.439  1.00  0.00     0.202 C 
BRANCH   3   4
ATOM      4  C   UNL A   1      33.017  29.479  26.686  1.00  0.00     0.261 C 
BRANCH   4   5
ATOM      5  O   UNL A   1      33.330  28.039  26.693  1.00  0.00    -0.463 OA
BRANCH   5   6
ATOM      6  C   UNL A   1      32.295  27.119  26.645  1.00  0.00     0.308 C 
ATOM      7  O   UNL A   1      31.259  27.274  27.289  1.00  0.00    -0.252 OA
BRANCH   6   8
ATOM      8  C   UNL A   1      32.535  25.796  25.770  1.00  0.00     0.151 C 
BRANCH   8   9
ATOM      9  C   UNL A   1      32.313  25.770  24.201  1.00  0.00     0.052 C 
ATOM     10  C   UNL A   1      33.657  26.101  23.427  1.00  0.00     0.029 C 
ATOM     11  C   UNL A   1      31.678  26.685  23.004  1.00  0.00     0.029 C 
ATOM     12  C   UNL A   1      33.000  27.402  22.907  1.00  0.00     0.005 C 
BRANCH   9  13
ATOM     13  N   UNL A   1      31.730  24.498  23.923  1.00  0.00    -0.332 N 
ATOM     14  C   UNL A   1      32.371  23.339  23.890  1.00  0.00     0.318 C 
ATOM     15  O   UNL A   1      31.937  22.700  22.953  1.00  0.00    -0.249 OA
ATOM     16  H   UNL A   1      30.763  24.479  23.740  1.00  0.00     0.165 HD
BRANCH  14  17
ATOM     17  N   UNL A   1      33.460  22.957  24.592  1.00  0.00    -0.304 N 
ATOM     18  C   UNL A   1      35.720  22.146  23.812  1.00  0.00     0.042 C 
ATOM     19  C   UNL A   1      34.877  23.277  24.415  1.00  0.00     0.174 C 
ATOM     20  C   UNL A   1      35.485  23.658  25.765  1.00  0.00     0.249 C 
ATOM     21  O   UNL A   1      36.489  24.360  25.859  1.00  0.00    -0.272 OA
ATOM     22  N   UNL A   1      34.997  22.988  26.861  1.00  0.00    -0.293 N 
ATOM     23  C   UNL A   1      33.212  21.911  25.580  1.00  0.00     0.222 C 
ATOM     24  C   UNL A   1      33.985  22.065  26.868  1.00  0.00     0.246 C 
ATOM     25  H   UNL A   1      35.418  23.192  27.729  1.00  0.00     0.173 HD
ATOM     26  O   UNL A   1      33.801  21.338  27.844  1.00  0.00    -0.273 OA
ENDBRANCH  14  17
ENDBRANCH   9  13
ENDBRANCH   8   9
ENDBRANCH   6   8
ENDBRANCH   5   6
ENDBRANCH   4   5
ENDBRANCH   3   4
ENDBRANCH   2   3
ENDBRANCH   1   2
BRANCH   1  27
ATOM     27  C   UNL A   1      34.047  34.144  28.491  1.00  0.00     0.188 C 
BRANCH  27  28
ATOM     28  O   UNL A   1      33.215  34.255  29.642  1.00  0.00    -0.376 OA
BRANCH  28  29
ATOM     29  C   UNL A   1      33.711  35.102  30.661  1.00  0.00     0.202 C 
BRANCH  29  30
ATOM     30  C   UNL A   1      34.186  34.361  31.933  1.00  0.00     0.261 C 
BRANCH  30  31
ATOM     31  O   UNL A   1      34.592  32.989  31.703  1.00  0.00    -0.460 OA
BRANCH  31  32
ATOM     32  C   UNL A   1      35.523  32.487  32.567  1.00  0.00     0.338 C 
ATOM     33  O   UNL A   1      35.484  32.555  33.792  1.00  0.00    -0.246 OA
BRANCH  32  34
ATOM     34  C   UNL A   1      36.501  31.607  31.849  1.00  0.00     0.060 A 
ATOM     35  C   UNL A   1      37.233  30.672  32.609  1.00  0.00     0.016 A 
ATOM     36  C   UNL A   1      36.639  31.606  30.459  1.00  0.00     0.016 A 
ATOM     37  C   UNL A   1      38.155  29.809  32.002  1.00  0.00     0.010 A 
ATOM     38  C   UNL A   1      37.585  30.762  29.852  1.00  0.00     0.010 A 
ATOM     39  C   UNL A   1      38.391  29.902  30.625  1.00  0.00    -0.014 A 
BRANCH  39  40
ATOM     40  C   UNL A   1      39.669  29.390  30.051  1.00  0.00     0.031 A 
ATOM     41  C   UNL A   1      40.808  30.378  29.946  1.00  0.00     0.074 A 
ATOM     42  C   UNL A   1      39.852  28.122  29.639  1.00  0.00     0.049 A 
ATOM     43  N   UNL A   1      41.975  30.261  29.364  1.00  0.00    -0.248 NA
ATOM     44  C   UNL A   1      40.588  31.687  30.585  1.00  0.00     0.031 C 
ATOM     45  C   UNL A   1      38.881  27.038  29.751  1.00  0.00     0.029 A 
ATOM     46  N   UNL A   1      40.936  27.537  29.019  1.00  0.00    -0.354 N 
ATOM     47  C   UNL A   1      42.614  31.481  29.558  1.00  0.00     0.074 A 
ATOM     48  C   UNL A   1      41.700  32.334  30.283  1.00  0.00     0.031 C 
ATOM     49  C   UNL A   1      39.400  25.927  29.193  1.00  0.00     0.029 A 
ATOM     50  C   UNL A   1      40.726  26.229  28.650  1.00  0.00     0.049 A 
ATOM     51  H   UNL A   1      41.783  28.012  28.857  1.00  0.00     0.167 HD
ATOM     52  C   UNL A   1      43.855  31.860  29.173  1.00  0.00     0.037 A 
ATOM     53  C   UNL A   1      41.500  25.391  27.929  1.00  0.00     0.037 A 
ATOM     54  C   UNL A   1      44.767  31.020  28.446  1.00  0.00     0.049 A 
ATOM     55  C   UNL A   1      42.842  25.873  27.417  1.00  0.00     0.074 A 
ATOM     56  C   UNL A   1      46.040  31.317  27.993  1.00  0.00     0.029 A 
ATOM     57  N   UNL A   1      44.499  29.715  28.064  1.00  0.00    -0.354 N 
ATOM     58  N   UNL A   1      43.437  27.029  27.597  1.00  0.00    -0.248 NA
ATOM     59  C   UNL A   1      43.620  24.928  26.599  1.00  0.00     0.031 C 
ATOM     60  C   UNL A   1      46.523  30.209  27.291  1.00  0.00     0.029 A 
ATOM     61  C   UNL A   1      45.577  29.200  27.363  1.00  0.00     0.049 A 
ATOM     62  H   UNL A   1      43.668  29.227  28.262  1.00  0.00     0.167 HD
ATOM     63  C   UNL A   1      44.666  26.933  26.952  1.00  0.00     0.074 A 
ATOM     64  C   UNL A   1      44.742  25.602  26.393  1.00  0.00     0.031 C 
ATOM     65  C   UNL A   1      45.646  27.864  26.831  1.00  0.00     0.037 A 
BRANCH  52  66
ATOM     66  C   UNL A   1      44.289  33.258  29.508  1.00  0.00     0.064 A 
ATOM     67  C   UNL A   1      44.008  34.340  28.662  1.00  0.00     0.173 A 
ATOM     68  C   UNL A   1      44.961  33.522  30.712  1.00  0.00     0.173 A 
ATOM     69  F   UNL A   1      43.387  34.139  27.490  1.00  0.00    -0.203 F 
ATOM     70  C   UNL A   1      44.398  35.634  29.000  1.00  0.00     0.198 A 
ATOM     71  C   UNL A   1      45.321  34.820  31.061  1.00  0.00     0.198 A 
ATOM     72  F   UNL A   1      45.255  32.522  31.556  1.00  0.00    -0.203 F 
ATOM     73  F   UNL A   1      44.157  36.647  28.157  1.00  0.00    -0.200 F 
ATOM     74  C   UNL A   1      45.045  35.873  30.203  1.00  0.00     0.200 A 
ATOM     75  F   UNL A   1      45.934  35.052  32.231  1.00  0.00    -0.200 F 
ATOM     76  F   UNL A   1      45.406  37.121  30.534  1.00  0.00    -0.200 F 
ENDBRANCH  52  66
BRANCH  53  77
ATOM     77  C   UNL A   1      41.034  24.013  27.597  1.00  0.00     0.064 A 
ATOM     78  C   UNL A   1      41.634  22.883  28.174  1.00  0.00     0.173 A 
ATOM     79  C   UNL A   1      40.036  23.792  26.635  1.00  0.00     0.173 A 
ATOM     80  F   UNL A   1      42.620  23.034  29.071  1.00  0.00    -0.203 F 
ATOM     81  C   UNL A   1      41.281  21.593  27.780  1.00  0.00     0.198 A 
ATOM     82  C   UNL A   1      39.657  22.501  26.268  1.00  0.00     0.198 A 
ATOM     83  F   UNL A   1      39.435  24.832  26.038  1.00  0.00    -0.203 F 
ATOM     84  F   UNL A   1      41.927  20.537  28.292  1.00  0.00    -0.200 F 
ATOM     85  C   UNL A   1      40.289  21.403  26.830  1.00  0.00     0.200 A 
ATOM     86  F   UNL A   1      38.693  22.322  25.355  1.00  0.00    -0.200 F 
ATOM     87  F   UNL A   1      39.957  20.164  26.443  1.00  0.00    -0.200 F 
ENDBRANCH  53  77
BRANCH  65  88
ATOM     88  C   UNL A   1      46.906  27.461  26.116  1.00  0.00     0.064 A 
ATOM     89  C   UNL A   1      47.996  26.895  26.795  1.00  0.00     0.173 A 
ATOM     90  C   UNL A   1      47.009  27.611  24.724  1.00  0.00     0.173 A 
ATOM     91  F   UNL A   1      47.955  26.737  28.127  1.00  0.00    -0.203 F 
ATOM     92  C   UNL A   1      49.156  26.533  26.111  1.00  0.00     0.198 A 
ATOM     93  C   UNL A   1      48.154  27.213  24.040  1.00  0.00     0.198 A 
ATOM     94  F   UNL A   1      45.991  28.133  24.023  1.00  0.00    -0.203 F 
ATOM     95  F   UNL A   1      50.206  26.052  26.789  1.00  0.00    -0.200 F 
ATOM     96  C   UNL A   1      49.231  26.686  24.735  1.00  0.00     0.200 A 
ATOM     97  F   UNL A   1      48.216  27.343  22.708  1.00  0.00    -0.200 F 
ATOM     98  F   UNL A   1      50.344  26.331  24.081  1.00  0.00    -0.200 F 
ENDBRANCH  65  88
ENDBRANCH  39  40
ENDBRANCH  32  34
ENDBRANCH  31  32
ENDBRANCH  30  31
ENDBRANCH  29  30
ENDBRANCH  28  29
ENDBRANCH  27  28
ENDBRANCH   1  27
TORSDOF 20
ENDMDL
