MODEL 1
REMARK VINA RESULT:     -12.6      0.000      0.000
REMARK SMILES Cc1ccc(C(=O)N2CCC3(CCC(=O)N(CC(=O)OCCOCCOCCOC(=O)c4ccc(-c5c6nc(c(-c7c(F)c(F)c(F)c(F)c7F)c7ccc([nH]7)c(-c7c(F)c(F)c(F)c(F)c7F)c7nc(c(-c8c(F)c(F)c(F)c(F)c8F)c8ccc5[nH]8)C=C7)C=C6)cc4)C3)CC2)cc1O
REMARK SMILES IDX 24 1 23 2 22 3 21 4 20 5 18 6 19 7 17 8 16 9 6 10 7 11 8 12
REMARK SMILES IDX 9 13 97 14 10 15 96 16 11 17 12 18 95 19 13 20 14 21 15 22
REMARK SMILES IDX 5 23 1 24 2 25 3 26 99 27 4 28 98 29 100 30 25 32 26 33
REMARK SMILES IDX 27 34 28 35 29 36 30 37 31 38 32 39 33 40 94 41 34 42 93 43
REMARK SMILES IDX 35 44 36 45 37 46 87 47 38 48 92 49 86 50 88 51 39 52 91 53
REMARK SMILES IDX 85 54 84 55 40 57 72 58 52 59 71 60 53 61 56 62 70 63 89 64
REMARK SMILES IDX 54 65 55 66 69 68 90 69 57 70 41 71 42 72 50 73 43 74 44 75
REMARK SMILES IDX 48 76 51 77 45 78 46 79 49 80 47 81 73 82 74 83 82 84 75 85
REMARK SMILES IDX 76 86 80 87 83 88 77 89 78 90 81 91 79 92 58 93 59 94 67 95
REMARK SMILES IDX 60 96 61 97 65 98 68 99 62 100 63 101 66 102 64 103
REMARK H PARENT 100 31 88 56 56 67
REMARK Flexibility Score: inf
ROOT
ATOM      1  C   UNL A   1      41.000  19.707  26.355  1.00  0.00     0.188 C 
ENDROOT
BRANCH   1   2
ATOM      2  O   UNL A   1      40.927  21.110  26.124  1.00  0.00    -0.376 OA
BRANCH   2   3
ATOM      3  C   UNL A   1      39.731  21.805  26.459  1.00  0.00     0.202 C 
BRANCH   3   4
ATOM      4  C   UNL A   1      38.458  21.346  25.733  1.00  0.00     0.261 C 
BRANCH   4   5
ATOM      5  O   UNL A   1      37.569  22.417  25.323  1.00  0.00    -0.462 OA
BRANCH   5   6
ATOM      6  C   UNL A   1      36.328  22.425  25.872  1.00  0.00     0.325 C 
ATOM      7  O   UNL A   1      35.792  23.432  26.331  1.00  0.00    -0.250 OA
BRANCH   6   8
ATOM      8  C   UNL A   1      35.529  21.102  25.766  1.00  0.00     0.242 C 
BRANCH   8   9
ATOM      9  N   UNL A   1      34.061  20.996  25.735  1.00  0.00    -0.331 N 
ATOM     10  C   UNL A   1      32.402  25.858  21.709  1.00  0.00     0.253 C 
ATOM     11  O   UNL A   1      32.834  25.976  20.565  1.00  0.00    -0.269 OA
ATOM     12  N   UNL A   1      32.274  24.622  22.324  1.00  0.00    -0.339 N 
ATOM     13  C   UNL A   1      33.275  23.615  22.037  1.00  0.00     0.120 C 
ATOM     14  C   UNL A   1      31.112  24.188  23.092  1.00  0.00     0.120 C 
ATOM     15  C   UNL A   1      33.807  23.088  23.368  1.00  0.00     0.030 C 
ATOM     16  C   UNL A   1      31.525  23.530  24.411  1.00  0.00     0.030 C 
ATOM     17  C   UNL A   1      32.679  22.503  24.261  1.00  0.00    -0.008 C 
ATOM     18  C   UNL A   1      32.103  21.205  23.629  1.00  0.00     0.019 C 
ATOM     19  C   UNL A   1      33.242  22.196  25.689  1.00  0.00     0.127 C 
ATOM     20  C   UNL A   1      33.095  20.058  23.727  1.00  0.00     0.101 C 
ATOM     21  C   UNL A   1      33.414  19.902  25.191  1.00  0.00     0.223 C 
ATOM     22  O   UNL A   1      32.891  19.035  25.877  1.00  0.00    -0.275 OA
BRANCH  10  23
ATOM     23  C   UNL A   1      32.204  27.082  22.537  1.00  0.00     0.043 A 
ATOM     24  C   UNL A   1      31.519  30.248  25.396  1.00  0.00     0.048 C 
ATOM     25  C   UNL A   1      31.790  29.167  24.393  1.00  0.00    -0.009 A 
ATOM     26  C   UNL A   1      30.733  28.692  23.610  1.00  0.00     0.008 A 
ATOM     27  C   UNL A   1      33.050  28.575  24.237  1.00  0.00     0.119 A 
ATOM     28  C   UNL A   1      30.936  27.644  22.716  1.00  0.00     0.014 A 
ATOM     29  C   UNL A   1      33.264  27.554  23.310  1.00  0.00     0.060 A 
BRANCH  27  30
ATOM     30  O   UNL A   1      34.126  28.928  25.000  1.00  0.00    -0.508 OA
ATOM     31  H   UNL A   1      34.764  29.526  24.663  1.00  0.00     0.293 HD
ENDBRANCH  27  30
ENDBRANCH  10  23
ENDBRANCH   8   9
ENDBRANCH   6   8
ENDBRANCH   5   6
ENDBRANCH   4   5
ENDBRANCH   3   4
ENDBRANCH   2   3
ENDBRANCH   1   2
BRANCH   1  32
ATOM     32  C   UNL A   1      42.318  18.981  26.105  1.00  0.00     0.188 C 
BRANCH  32  33
ATOM     33  O   UNL A   1      43.026  19.510  24.996  1.00  0.00    -0.376 OA
BRANCH  33  34
ATOM     34  C   UNL A   1      44.282  20.089  25.331  1.00  0.00     0.202 C 
BRANCH  34  35
ATOM     35  C   UNL A   1      44.366  21.443  24.634  1.00  0.00     0.261 C 
BRANCH  35  36
ATOM     36  O   UNL A   1      43.734  22.497  25.394  1.00  0.00    -0.460 OA
BRANCH  36  37
ATOM     37  C   UNL A   1      44.189  23.748  25.176  1.00  0.00     0.338 C 
ATOM     38  O   UNL A   1      44.962  24.112  24.296  1.00  0.00    -0.246 OA
BRANCH  37  39
ATOM     39  C   UNL A   1      43.462  24.689  26.056  1.00  0.00     0.060 A 
ATOM     40  C   UNL A   1      43.768  26.054  25.979  1.00  0.00     0.016 A 
ATOM     41  C   UNL A   1      42.507  24.240  26.968  1.00  0.00     0.016 A 
ATOM     42  C   UNL A   1      43.165  26.969  26.842  1.00  0.00     0.010 A 
ATOM     43  C   UNL A   1      41.910  25.154  27.843  1.00  0.00     0.010 A 
ATOM     44  C   UNL A   1      42.263  26.517  27.812  1.00  0.00    -0.014 A 
BRANCH  44  45
ATOM     45  C   UNL A   1      41.827  27.423  28.905  1.00  0.00     0.031 A 
ATOM     46  C   UNL A   1      42.580  27.390  30.209  1.00  0.00     0.074 A 
ATOM     47  C   UNL A   1      40.791  28.268  28.751  1.00  0.00     0.049 A 
ATOM     48  N   UNL A   1      42.328  28.010  31.334  1.00  0.00    -0.248 NA
ATOM     49  C   UNL A   1      43.778  26.535  30.250  1.00  0.00     0.031 C 
ATOM     50  C   UNL A   1      40.008  28.434  27.529  1.00  0.00     0.029 A 
ATOM     51  N   UNL A   1      40.209  29.135  29.644  1.00  0.00    -0.354 N 
ATOM     52  C   UNL A   1      43.319  27.603  32.219  1.00  0.00     0.074 A 
ATOM     53  C   UNL A   1      44.168  26.673  31.509  1.00  0.00     0.031 C 
ATOM     54  C   UNL A   1      39.030  29.330  27.756  1.00  0.00     0.029 A 
ATOM     55  C   UNL A   1      39.095  29.770  29.150  1.00  0.00     0.049 A 
ATOM     56  H   UNL A   1      40.556  29.287  30.553  1.00  0.00     0.167 HD
ATOM     57  C   UNL A   1      43.505  27.976  33.507  1.00  0.00     0.037 A 
ATOM     58  C   UNL A   1      38.210  30.582  29.763  1.00  0.00     0.037 A 
ATOM     59  C   UNL A   1      42.673  28.918  34.209  1.00  0.00     0.049 A 
ATOM     60  C   UNL A   1      38.409  30.935  31.218  1.00  0.00     0.074 A 
ATOM     61  C   UNL A   1      42.808  29.386  35.504  1.00  0.00     0.029 A 
ATOM     62  N   UNL A   1      41.550  29.531  33.675  1.00  0.00    -0.354 N 
ATOM     63  N   UNL A   1      39.365  30.570  32.039  1.00  0.00    -0.248 NA
ATOM     64  C   UNL A   1      37.403  31.815  31.833  1.00  0.00     0.031 C 
ATOM     65  C   UNL A   1      41.732  30.235  35.776  1.00  0.00     0.029 A 
ATOM     66  C   UNL A   1      40.965  30.349  34.628  1.00  0.00     0.049 A 
ATOM     67  H   UNL A   1      41.218  29.404  32.757  1.00  0.00     0.167 HD
ATOM     68  C   UNL A   1      39.096  31.203  33.247  1.00  0.00     0.074 A 
ATOM     69  C   UNL A   1      37.895  31.985  33.051  1.00  0.00     0.031 C 
ATOM     70  C   UNL A   1      39.781  31.140  34.415  1.00  0.00     0.037 A 
BRANCH  57  71
ATOM     71  C   UNL A   1      44.637  27.348  34.265  1.00  0.00     0.064 A 
ATOM     72  C   UNL A   1      44.483  26.141  34.961  1.00  0.00     0.173 A 
ATOM     73  C   UNL A   1      45.915  27.928  34.227  1.00  0.00     0.173 A 
ATOM     74  F   UNL A   1      43.279  25.555  35.039  1.00  0.00    -0.203 F 
ATOM     75  C   UNL A   1      45.565  25.542  35.599  1.00  0.00     0.198 A 
ATOM     76  C   UNL A   1      47.000  27.312  34.841  1.00  0.00     0.198 A 
ATOM     77  F   UNL A   1      46.115  29.082  33.571  1.00  0.00    -0.203 F 
ATOM     78  F   UNL A   1      45.391  24.403  36.285  1.00  0.00    -0.200 F 
ATOM     79  C   UNL A   1      46.825  26.121  35.529  1.00  0.00     0.200 A 
ATOM     80  F   UNL A   1      48.218  27.865  34.759  1.00  0.00    -0.200 F 
ATOM     81  F   UNL A   1      47.869  25.531  36.127  1.00  0.00    -0.200 F 
ENDBRANCH  57  71
BRANCH  58  82
ATOM     82  C   UNL A   1      37.025  31.099  29.025  1.00  0.00     0.064 A 
ATOM     83  C   UNL A   1      36.950  32.438  28.614  1.00  0.00     0.173 A 
ATOM     84  C   UNL A   1      35.914  30.280  28.773  1.00  0.00     0.173 A 
ATOM     85  F   UNL A   1      37.972  33.272  28.859  1.00  0.00    -0.203 F 
ATOM     86  C   UNL A   1      35.798  32.946  28.014  1.00  0.00     0.198 A 
ATOM     87  C   UNL A   1      34.778  30.779  28.139  1.00  0.00     0.198 A 
ATOM     88  F   UNL A   1      35.929  28.993  29.149  1.00  0.00    -0.203 F 
ATOM     89  F   UNL A   1      35.728  34.246  27.698  1.00  0.00    -0.200 F 
ATOM     90  C   UNL A   1      34.716  32.115  27.773  1.00  0.00     0.200 A 
ATOM     91  F   UNL A   1      33.737  29.970  27.900  1.00  0.00    -0.200 F 
ATOM     92  F   UNL A   1      33.605  32.604  27.203  1.00  0.00    -0.200 F 
ENDBRANCH  58  82
BRANCH  70  93
ATOM     93  C   UNL A   1      39.287  31.979  35.560  1.00  0.00     0.064 A 
ATOM     94  C   UNL A   1      38.422  31.465  36.538  1.00  0.00     0.173 A 
ATOM     95  C   UNL A   1      39.726  33.305  35.706  1.00  0.00     0.173 A 
ATOM     96  F   UNL A   1      37.964  30.209  36.440  1.00  0.00    -0.203 F 
ATOM     97  C   UNL A   1      37.994  32.256  37.602  1.00  0.00     0.198 A 
ATOM     98  C   UNL A   1      39.324  34.081  36.789  1.00  0.00     0.198 A 
ATOM     99  F   UNL A   1      40.563  33.844  34.806  1.00  0.00    -0.203 F 
ATOM    100  F   UNL A   1      37.128  31.759  38.495  1.00  0.00    -0.200 F 
ATOM    101  C   UNL A   1      38.451  33.559  37.731  1.00  0.00     0.200 A 
ATOM    102  F   UNL A   1      39.781  35.334  36.922  1.00  0.00    -0.200 F 
ATOM    103  F   UNL A   1      38.045  34.313  38.762  1.00  0.00    -0.200 F 
ENDBRANCH  70  93
ENDBRANCH  44  45
ENDBRANCH  37  39
ENDBRANCH  36  37
ENDBRANCH  35  36
ENDBRANCH  34  35
ENDBRANCH  33  34
ENDBRANCH  32  33
ENDBRANCH   1  32
TORSDOF 20
ENDMDL
MODEL 2
REMARK VINA RESULT:     -12.2      0.826      6.860
REMARK SMILES Cc1ccc(C(=O)N2CCC3(CCC(=O)N(CC(=O)OCCOCCOCCOC(=O)c4ccc(-c5c6nc(c(-c7c(F)c(F)c(F)c(F)c7F)c7ccc([nH]7)c(-c7c(F)c(F)c(F)c(F)c7F)c7nc(c(-c8c(F)c(F)c(F)c(F)c8F)c8ccc5[nH]8)C=C7)C=C6)cc4)C3)CC2)cc1O
REMARK SMILES IDX 24 1 23 2 22 3 21 4 20 5 18 6 19 7 17 8 16 9 6 10 7 11 8 12
REMARK SMILES IDX 9 13 97 14 10 15 96 16 11 17 12 18 95 19 13 20 14 21 15 22
REMARK SMILES IDX 5 23 1 24 2 25 3 26 99 27 4 28 98 29 100 30 25 32 26 33
REMARK SMILES IDX 27 34 28 35 29 36 30 37 31 38 32 39 33 40 94 41 34 42 93 43
REMARK SMILES IDX 35 44 36 45 37 46 87 47 38 48 92 49 86 50 88 51 39 52 91 53
REMARK SMILES IDX 85 54 84 55 40 57 72 58 52 59 71 60 53 61 56 62 70 63 89 64
REMARK SMILES IDX 54 65 55 66 69 68 90 69 57 70 41 71 42 72 50 73 43 74 44 75
REMARK SMILES IDX 48 76 51 77 45 78 46 79 49 80 47 81 73 82 74 83 82 84 75 85
REMARK SMILES IDX 76 86 80 87 83 88 77 89 78 90 81 91 79 92 58 93 59 94 67 95
REMARK SMILES IDX 60 96 61 97 65 98 68 99 62 100 63 101 66 102 64 103
REMARK H PARENT 100 31 88 56 56 67
REMARK Flexibility Score: inf
ROOT
ATOM      1  C   UNL A   1      40.700  21.741  27.435  1.00  0.00     0.188 C 
ENDROOT
BRANCH   1   2
ATOM      2  O   UNL A   1      39.596  21.507  26.567  1.00  0.00    -0.376 OA
BRANCH   2   3
ATOM      3  C   UNL A   1      39.102  22.579  25.771  1.00  0.00     0.202 C 
BRANCH   3   4
ATOM      4  C   UNL A   1      37.612  22.912  25.938  1.00  0.00     0.261 C 
BRANCH   4   5
ATOM      5  O   UNL A   1      36.733  22.287  24.967  1.00  0.00    -0.462 OA
BRANCH   5   6
ATOM      6  C   UNL A   1      36.155  21.114  25.331  1.00  0.00     0.325 C 
ATOM      7  O   UNL A   1      36.554  20.012  24.959  1.00  0.00    -0.250 OA
BRANCH   6   8
ATOM      8  C   UNL A   1      35.022  21.213  26.382  1.00  0.00     0.242 C 
BRANCH   8   9
ATOM      9  N   UNL A   1      33.583  21.089  26.095  1.00  0.00    -0.331 N 
ATOM     10  C   UNL A   1      32.599  25.908  21.805  1.00  0.00     0.253 C 
ATOM     11  O   UNL A   1      33.223  26.024  20.753  1.00  0.00    -0.269 OA
ATOM     12  N   UNL A   1      32.380  24.674  22.397  1.00  0.00    -0.339 N 
ATOM     13  C   UNL A   1      33.427  23.678  22.297  1.00  0.00     0.120 C 
ATOM     14  C   UNL A   1      31.106  24.229  22.953  1.00  0.00     0.120 C 
ATOM     15  C   UNL A   1      33.723  23.164  23.705  1.00  0.00     0.030 C 
ATOM     16  C   UNL A   1      31.289  23.583  24.329  1.00  0.00     0.030 C 
ATOM     17  C   UNL A   1      32.463  22.570  24.391  1.00  0.00    -0.008 C 
ATOM     18  C   UNL A   1      32.022  21.261  23.677  1.00  0.00     0.019 C 
ATOM     19  C   UNL A   1      32.771  22.278  25.898  1.00  0.00     0.127 C 
ATOM     20  C   UNL A   1      32.995  20.128  23.956  1.00  0.00     0.101 C 
ATOM     21  C   UNL A   1      33.054  19.983  25.455  1.00  0.00     0.223 C 
ATOM     22  O   UNL A   1      32.429  19.114  26.045  1.00  0.00    -0.275 OA
BRANCH  10  23
ATOM     23  C   UNL A   1      32.244  27.133  22.575  1.00  0.00     0.043 A 
ATOM     24  C   UNL A   1      31.189  30.320  25.295  1.00  0.00     0.048 C 
ATOM     25  C   UNL A   1      31.585  29.237  24.337  1.00  0.00    -0.009 A 
ATOM     26  C   UNL A   1      30.584  28.557  23.636  1.00  0.00     0.008 A 
ATOM     27  C   UNL A   1      32.915  28.839  24.150  1.00  0.00     0.119 A 
ATOM     28  C   UNL A   1      30.912  27.501  22.789  1.00  0.00     0.014 A 
ATOM     29  C   UNL A   1      33.249  27.810  23.268  1.00  0.00     0.060 A 
BRANCH  27  30
ATOM     30  O   UNL A   1      33.952  29.400  24.836  1.00  0.00    -0.508 OA
ATOM     31  H   UNL A   1      33.957  30.321  25.010  1.00  0.00     0.293 HD
ENDBRANCH  27  30
ENDBRANCH  10  23
ENDBRANCH   8   9
ENDBRANCH   6   8
ENDBRANCH   5   6
ENDBRANCH   4   5
ENDBRANCH   3   4
ENDBRANCH   2   3
ENDBRANCH   1   2
BRANCH   1  32
ATOM     32  C   UNL A   1      42.065  21.168  27.070  1.00  0.00     0.188 C 
BRANCH  32  33
ATOM     33  O   UNL A   1      42.454  21.493  25.747  1.00  0.00    -0.376 OA
BRANCH  33  34
ATOM     34  C   UNL A   1      43.863  21.558  25.553  1.00  0.00     0.202 C 
BRANCH  34  35
ATOM     35  C   UNL A   1      44.128  22.543  24.419  1.00  0.00     0.261 C 
BRANCH  35  36
ATOM     36  O   UNL A   1      43.481  23.818  24.632  1.00  0.00    -0.460 OA
BRANCH  36  37
ATOM     37  C   UNL A   1      44.260  24.814  25.101  1.00  0.00     0.338 C 
ATOM     38  O   UNL A   1      45.358  25.159  24.676  1.00  0.00    -0.246 OA
BRANCH  37  39
ATOM     39  C   UNL A   1      43.506  25.582  26.116  1.00  0.00     0.060 A 
ATOM     40  C   UNL A   1      43.856  26.920  26.342  1.00  0.00     0.016 A 
ATOM     41  C   UNL A   1      42.483  24.995  26.859  1.00  0.00     0.016 A 
ATOM     42  C   UNL A   1      43.227  27.661  27.343  1.00  0.00     0.010 A 
ATOM     43  C   UNL A   1      41.858  25.733  27.871  1.00  0.00     0.010 A 
ATOM     44  C   UNL A   1      42.253  27.057  28.145  1.00  0.00    -0.014 A 
BRANCH  44  45
ATOM     45  C   UNL A   1      41.774  27.735  29.377  1.00  0.00     0.031 A 
ATOM     46  C   UNL A   1      40.511  28.551  29.303  1.00  0.00     0.074 A 
ATOM     47  C   UNL A   1      42.436  27.629  30.544  1.00  0.00     0.049 A 
ATOM     48  N   UNL A   1      39.953  29.308  30.213  1.00  0.00    -0.248 NA
ATOM     49  C   UNL A   1      39.779  28.509  28.026  1.00  0.00     0.031 C 
ATOM     50  C   UNL A   1      43.642  26.835  30.763  1.00  0.00     0.029 A 
ATOM     51  N   UNL A   1      42.189  28.211  31.764  1.00  0.00    -0.354 N 
ATOM     52  C   UNL A   1      38.823  29.850  29.612  1.00  0.00     0.074 A 
ATOM     53  C   UNL A   1      38.780  29.348  28.257  1.00  0.00     0.031 C 
ATOM     54  C   UNL A   1      44.046  27.000  32.036  1.00  0.00     0.029 A 
ATOM     55  C   UNL A   1      43.150  27.941  32.708  1.00  0.00     0.049 A 
ATOM     56  H   UNL A   1      41.399  28.770  31.945  1.00  0.00     0.167 HD
ATOM     57  C   UNL A   1      37.903  30.688  30.145  1.00  0.00     0.037 A 
ATOM     58  C   UNL A   1      43.307  28.426  33.957  1.00  0.00     0.037 A 
ATOM     59  C   UNL A   1      37.933  31.171  31.500  1.00  0.00     0.049 A 
ATOM     60  C   UNL A   1      42.296  29.406  34.505  1.00  0.00     0.074 A 
ATOM     61  C   UNL A   1      37.021  31.993  32.140  1.00  0.00     0.029 A 
ATOM     62  N   UNL A   1      38.927  30.881  32.421  1.00  0.00    -0.354 N 
ATOM     63  N   UNL A   1      41.215  29.888  33.942  1.00  0.00    -0.248 NA
ATOM     64  C   UNL A   1      42.529  29.908  35.869  1.00  0.00     0.031 C 
ATOM     65  C   UNL A   1      37.495  32.251  33.430  1.00  0.00     0.029 A 
ATOM     66  C   UNL A   1      38.667  31.535  33.614  1.00  0.00     0.049 A 
ATOM     67  H   UNL A   1      39.703  30.299  32.253  1.00  0.00     0.167 HD
ATOM     68  C   UNL A   1      40.625  30.716  34.890  1.00  0.00     0.074 A 
ATOM     69  C   UNL A   1      41.459  30.661  36.070  1.00  0.00     0.031 C 
ATOM     70  C   UNL A   1      39.493  31.456  34.791  1.00  0.00     0.037 A 
BRANCH  57  71
ATOM     71  C   UNL A   1      36.791  31.166  29.260  1.00  0.00     0.064 A 
ATOM     72  C   UNL A   1      35.696  30.352  28.940  1.00  0.00     0.173 A 
ATOM     73  C   UNL A   1      36.787  32.488  28.787  1.00  0.00     0.173 A 
ATOM     74  F   UNL A   1      35.659  29.076  29.354  1.00  0.00    -0.203 F 
ATOM     75  C   UNL A   1      34.642  30.840  28.173  1.00  0.00     0.198 A 
ATOM     76  C   UNL A   1      35.719  32.982  28.046  1.00  0.00     0.198 A 
ATOM     77  F   UNL A   1      37.811  33.309  29.069  1.00  0.00    -0.203 F 
ATOM     78  F   UNL A   1      33.617  30.036  27.854  1.00  0.00    -0.200 F 
ATOM     79  C   UNL A   1      34.648  32.158  27.737  1.00  0.00     0.200 A 
ATOM     80  F   UNL A   1      35.720  34.259  27.639  1.00  0.00    -0.200 F 
ATOM     81  F   UNL A   1      33.622  32.632  27.016  1.00  0.00    -0.200 F 
ENDBRANCH  57  71
BRANCH  58  82
ATOM     82  C   UNL A   1      44.484  28.031  34.776  1.00  0.00     0.064 A 
ATOM     83  C   UNL A   1      45.657  28.801  34.785  1.00  0.00     0.173 A 
ATOM     84  C   UNL A   1      44.485  26.839  35.518  1.00  0.00     0.173 A 
ATOM     85  F   UNL A   1      45.720  29.932  34.068  1.00  0.00    -0.203 F 
ATOM     86  C   UNL A   1      46.794  28.377  35.472  1.00  0.00     0.198 A 
ATOM     87  C   UNL A   1      45.609  26.435  36.235  1.00  0.00     0.198 A 
ATOM     88  F   UNL A   1      43.392  26.062  35.541  1.00  0.00    -0.203 F 
ATOM     89  F   UNL A   1      47.922  29.096  35.404  1.00  0.00    -0.200 F 
ATOM     90  C   UNL A   1      46.767  27.198  36.200  1.00  0.00     0.200 A 
ATOM     91  F   UNL A   1      45.576  25.300  36.945  1.00  0.00    -0.200 F 
ATOM     92  F   UNL A   1      47.862  26.786  36.854  1.00  0.00    -0.200 F 
ENDBRANCH  58  82
BRANCH  70  93
ATOM     93  C   UNL A   1      39.055  32.227  36.004  1.00  0.00     0.064 A 
ATOM     94  C   UNL A   1      38.231  31.657  36.987  1.00  0.00     0.173 A 
ATOM     95  C   UNL A   1      39.507  33.540  36.210  1.00  0.00     0.173 A 
ATOM     96  F   UNL A   1      37.762  30.411  36.834  1.00  0.00    -0.203 F 
ATOM     97  C   UNL A   1      37.854  32.384  38.114  1.00  0.00     0.198 A 
ATOM     98  C   UNL A   1      39.157  34.251  37.354  1.00  0.00     0.198 A 
ATOM     99  F   UNL A   1      40.306  34.129  35.308  1.00  0.00    -0.203 F 
ATOM    100  F   UNL A   1      37.026  31.837  39.014  1.00  0.00    -0.200 F 
ATOM    101  C   UNL A   1      38.324  33.675  38.301  1.00  0.00     0.200 A 
ATOM    102  F   UNL A   1      39.627  35.492  37.541  1.00  0.00    -0.200 F 
ATOM    103  F   UNL A   1      37.968  34.368  39.392  1.00  0.00    -0.200 F 
ENDBRANCH  70  93
ENDBRANCH  44  45
ENDBRANCH  37  39
ENDBRANCH  36  37
ENDBRANCH  35  36
ENDBRANCH  34  35
ENDBRANCH  33  34
ENDBRANCH  32  33
ENDBRANCH   1  32
TORSDOF 20
ENDMDL
MODEL 3
REMARK VINA RESULT:     -11.3      2.921      9.504
REMARK SMILES Cc1ccc(C(=O)N2CCC3(CCC(=O)N(CC(=O)OCCOCCOCCOC(=O)c4ccc(-c5c6nc(c(-c7c(F)c(F)c(F)c(F)c7F)c7ccc([nH]7)c(-c7c(F)c(F)c(F)c(F)c7F)c7nc(c(-c8c(F)c(F)c(F)c(F)c8F)c8ccc5[nH]8)C=C7)C=C6)cc4)C3)CC2)cc1O
REMARK SMILES IDX 24 1 23 2 22 3 21 4 20 5 18 6 19 7 17 8 16 9 6 10 7 11 8 12
REMARK SMILES IDX 9 13 97 14 10 15 96 16 11 17 12 18 95 19 13 20 14 21 15 22
REMARK SMILES IDX 5 23 1 24 2 25 3 26 99 27 4 28 98 29 100 30 25 32 26 33
REMARK SMILES IDX 27 34 28 35 29 36 30 37 31 38 32 39 33 40 94 41 34 42 93 43
REMARK SMILES IDX 35 44 36 45 37 46 87 47 38 48 92 49 86 50 88 51 39 52 91 53
REMARK SMILES IDX 85 54 84 55 40 57 72 58 52 59 71 60 53 61 56 62 70 63 89 64
REMARK SMILES IDX 54 65 55 66 69 68 90 69 57 70 41 71 42 72 50 73 43 74 44 75
REMARK SMILES IDX 48 76 51 77 45 78 46 79 49 80 47 81 73 82 74 83 82 84 75 85
REMARK SMILES IDX 76 86 80 87 83 88 77 89 78 90 81 91 79 92 58 93 59 94 67 95
REMARK SMILES IDX 60 96 61 97 65 98 68 99 62 100 63 101 66 102 64 103
REMARK H PARENT 100 31 88 56 56 67
REMARK Flexibility Score: inf
ROOT
ATOM      1  C   UNL A   1      29.900  31.296  24.320  1.00  0.00     0.188 C 
ENDROOT
BRANCH   1   2
ATOM      2  O   UNL A   1      28.768  31.545  23.494  1.00  0.00    -0.376 OA
BRANCH   2   3
ATOM      3  C   UNL A   1      27.969  30.447  23.067  1.00  0.00     0.202 C 
BRANCH   3   4
ATOM      4  C   UNL A   1      28.654  29.072  23.072  1.00  0.00     0.261 C 
BRANCH   4   5
ATOM      5  O   UNL A   1      29.628  28.871  22.015  1.00  0.00    -0.462 OA
BRANCH   5   6
ATOM      6  C   UNL A   1      30.876  28.498  22.397  1.00  0.00     0.325 C 
ATOM      7  O   UNL A   1      31.867  29.216  22.282  1.00  0.00    -0.250 OA
BRANCH   6   8
ATOM      8  C   UNL A   1      30.983  27.143  23.139  1.00  0.00     0.242 C 
BRANCH   8   9
ATOM      9  N   UNL A   1      31.291  26.979  24.569  1.00  0.00    -0.331 N 
ATOM     10  C   UNL A   1      35.514  22.003  24.520  1.00  0.00     0.253 C 
ATOM     11  O   UNL A   1      36.555  21.996  23.867  1.00  0.00    -0.269 OA
ATOM     12  N   UNL A   1      34.945  23.178  24.986  1.00  0.00    -0.339 N 
ATOM     13  C   UNL A   1      35.047  24.358  24.153  1.00  0.00     0.120 C 
ATOM     14  C   UNL A   1      34.414  23.372  26.331  1.00  0.00     0.120 C 
ATOM     15  C   UNL A   1      33.645  24.939  23.986  1.00  0.00     0.030 C 
ATOM     16  C   UNL A   1      33.047  24.060  26.301  1.00  0.00     0.030 C 
ATOM     17  C   UNL A   1      32.986  25.284  25.349  1.00  0.00    -0.008 C 
ATOM     18  C   UNL A   1      33.727  26.471  26.026  1.00  0.00     0.019 C 
ATOM     19  C   UNL A   1      31.480  25.651  25.129  1.00  0.00     0.127 C 
ATOM     20  C   UNL A   1      33.454  27.777  25.299  1.00  0.00     0.101 C 
ATOM     21  C   UNL A   1      31.957  27.951  25.294  1.00  0.00     0.223 C 
ATOM     22  O   UNL A   1      31.390  28.689  26.086  1.00  0.00    -0.275 OA
BRANCH  10  23
ATOM     23  C   UNL A   1      34.728  20.742  24.640  1.00  0.00     0.043 A 
ATOM     24  C   UNL A   1      32.592  16.994  24.406  1.00  0.00     0.048 C 
ATOM     25  C   UNL A   1      33.350  18.282  24.521  1.00  0.00    -0.009 A 
ATOM     26  C   UNL A   1      32.682  19.483  24.268  1.00  0.00     0.008 A 
ATOM     27  C   UNL A   1      34.718  18.333  24.823  1.00  0.00     0.119 A 
ATOM     28  C   UNL A   1      33.372  20.693  24.301  1.00  0.00     0.014 A 
ATOM     29  C   UNL A   1      35.401  19.548  24.899  1.00  0.00     0.060 A 
BRANCH  27  30
ATOM     30  O   UNL A   1      35.468  17.210  25.022  1.00  0.00    -0.508 OA
ATOM     31  H   UNL A   1      35.232  16.602  25.695  1.00  0.00     0.293 HD
ENDBRANCH  27  30
ENDBRANCH  10  23
ENDBRANCH   8   9
ENDBRANCH   6   8
ENDBRANCH   5   6
ENDBRANCH   4   5
ENDBRANCH   3   4
ENDBRANCH   2   3
ENDBRANCH   1   2
BRANCH   1  32
ATOM     32  C   UNL A   1      30.296  32.331  25.368  1.00  0.00     0.188 C 
BRANCH  32  33
ATOM     33  O   UNL A   1      30.754  31.737  26.571  1.00  0.00    -0.376 OA
BRANCH  33  34
ATOM     34  C   UNL A   1      32.101  32.058  26.901  1.00  0.00     0.202 C 
BRANCH  34  35
ATOM     35  C   UNL A   1      32.157  33.552  27.202  1.00  0.00     0.261 C 
BRANCH  35  36
ATOM     36  O   UNL A   1      32.895  33.845  28.410  1.00  0.00    -0.460 OA
BRANCH  36  37
ATOM     37  C   UNL A   1      34.088  34.455  28.250  1.00  0.00     0.338 C 
ATOM     38  O   UNL A   1      34.287  35.638  27.994  1.00  0.00    -0.246 OA
BRANCH  37  39
ATOM     39  C   UNL A   1      35.168  33.514  28.619  1.00  0.00     0.060 A 
ATOM     40  C   UNL A   1      34.819  32.269  29.161  1.00  0.00     0.016 A 
ATOM     41  C   UNL A   1      36.511  33.852  28.461  1.00  0.00     0.016 A 
ATOM     42  C   UNL A   1      35.803  31.381  29.596  1.00  0.00     0.010 A 
ATOM     43  C   UNL A   1      37.499  32.968  28.908  1.00  0.00     0.010 A 
ATOM     44  C   UNL A   1      37.151  31.744  29.513  1.00  0.00    -0.014 A 
BRANCH  44  45
ATOM     45  C   UNL A   1      38.185  30.941  30.214  1.00  0.00     0.031 A 
ATOM     46  C   UNL A   1      38.435  31.210  31.675  1.00  0.00     0.074 A 
ATOM     47  C   UNL A   1      38.887  29.985  29.579  1.00  0.00     0.049 A 
ATOM     48  N   UNL A   1      39.346  30.711  32.471  1.00  0.00    -0.248 NA
ATOM     49  C   UNL A   1      37.535  32.178  32.324  1.00  0.00     0.031 C 
ATOM     50  C   UNL A   1      38.713  29.593  28.183  1.00  0.00     0.029 A 
ATOM     51  N   UNL A   1      39.907  29.181  30.030  1.00  0.00    -0.354 N 
ATOM     52  C   UNL A   1      39.145  31.320  33.703  1.00  0.00     0.074 A 
ATOM     53  C   UNL A   1      38.037  32.236  33.549  1.00  0.00     0.031 C 
ATOM     54  C   UNL A   1      39.613  28.639  27.883  1.00  0.00     0.029 A 
ATOM     55  C   UNL A   1      40.452  28.383  29.054  1.00  0.00     0.049 A 
ATOM     56  H   UNL A   1      40.218  29.178  30.964  1.00  0.00     0.167 HD
ATOM     57  C   UNL A   1      39.823  31.129  34.860  1.00  0.00     0.037 A 
ATOM     58  C   UNL A   1      41.525  27.568  29.092  1.00  0.00     0.037 A 
ATOM     59  C   UNL A   1      40.913  30.203  35.019  1.00  0.00     0.049 A 
ATOM     60  C   UNL A   1      42.300  27.419  30.381  1.00  0.00     0.074 A 
ATOM     61  C   UNL A   1      41.635  29.914  36.164  1.00  0.00     0.029 A 
ATOM     62  N   UNL A   1      41.440  29.420  34.005  1.00  0.00    -0.354 N 
ATOM     63  N   UNL A   1      42.084  27.975  31.549  1.00  0.00    -0.248 NA
ATOM     64  C   UNL A   1      43.469  26.525  30.356  1.00  0.00     0.031 C 
ATOM     65  C   UNL A   1      42.639  29.001  35.829  1.00  0.00     0.029 A 
ATOM     66  C   UNL A   1      42.499  28.672  34.491  1.00  0.00     0.049 A 
ATOM     67  H   UNL A   1      41.112  29.399  33.077  1.00  0.00     0.167 HD
ATOM     68  C   UNL A   1      43.063  27.472  32.399  1.00  0.00     0.074 A 
ATOM     69  C   UNL A   1      43.864  26.556  31.619  1.00  0.00     0.031 C 
ATOM     70  C   UNL A   1      43.278  27.746  33.710  1.00  0.00     0.037 A 
BRANCH  57  71
ATOM     71  C   UNL A   1      39.432  31.955  36.049  1.00  0.00     0.064 A 
ATOM     72  C   UNL A   1      40.028  33.194  36.319  1.00  0.00     0.173 A 
ATOM     73  C   UNL A   1      38.388  31.531  36.887  1.00  0.00     0.173 A 
ATOM     74  F   UNL A   1      41.040  33.638  35.557  1.00  0.00    -0.203 F 
ATOM     75  C   UNL A   1      39.601  33.975  37.389  1.00  0.00     0.198 A 
ATOM     76  C   UNL A   1      37.944  32.327  37.937  1.00  0.00     0.198 A 
ATOM     77  F   UNL A   1      37.782  30.353  36.668  1.00  0.00    -0.203 F 
ATOM     78  F   UNL A   1      40.205  35.144  37.648  1.00  0.00    -0.200 F 
ATOM     79  C   UNL A   1      38.551  33.547  38.190  1.00  0.00     0.200 A 
ATOM     80  F   UNL A   1      36.920  31.917  38.700  1.00  0.00    -0.200 F 
ATOM     81  F   UNL A   1      38.128  34.309  39.207  1.00  0.00    -0.200 F 
ENDBRANCH  57  71
BRANCH  58  82
ATOM     82  C   UNL A   1      41.970  26.848  27.867  1.00  0.00     0.064 A 
ATOM     83  C   UNL A   1      41.616  25.511  27.640  1.00  0.00     0.173 A 
ATOM     84  C   UNL A   1      42.813  27.465  26.930  1.00  0.00     0.173 A 
ATOM     85  F   UNL A   1      40.838  24.864  28.521  1.00  0.00    -0.203 F 
ATOM     86  C   UNL A   1      42.117  24.808  26.544  1.00  0.00     0.198 A 
ATOM     87  C   UNL A   1      43.283  26.774  25.816  1.00  0.00     0.198 A 
ATOM     88  F   UNL A   1      43.187  28.742  27.101  1.00  0.00    -0.203 F 
ATOM     89  F   UNL A   1      41.820  23.510  26.391  1.00  0.00    -0.200 F 
ATOM     90  C   UNL A   1      42.945  25.441  25.631  1.00  0.00     0.200 A 
ATOM     91  F   UNL A   1      44.076  27.392  24.931  1.00  0.00    -0.200 F 
ATOM     92  F   UNL A   1      43.433  24.764  24.582  1.00  0.00    -0.200 F 
ENDBRANCH  58  82
BRANCH  70  93
ATOM     93  C   UNL A   1      44.389  27.009  34.403  1.00  0.00     0.064 A 
ATOM     94  C   UNL A   1      44.181  25.772  35.031  1.00  0.00     0.173 A 
ATOM     95  C   UNL A   1      45.694  27.528  34.396  1.00  0.00     0.173 A 
ATOM     96  F   UNL A   1      42.952  25.237  35.077  1.00  0.00    -0.203 F 
ATOM     97  C   UNL A   1      45.231  25.098  35.650  1.00  0.00     0.198 A 
ATOM     98  C   UNL A   1      46.747  26.836  34.985  1.00  0.00     0.198 A 
ATOM     99  F   UNL A   1      45.951  28.702  33.800  1.00  0.00    -0.203 F 
ATOM    100  F   UNL A   1      44.998  23.942  36.287  1.00  0.00    -0.200 F 
ATOM    101  C   UNL A   1      46.513  25.625  35.620  1.00  0.00     0.200 A 
ATOM    102  F   UNL A   1      47.989  27.338  34.938  1.00  0.00    -0.200 F 
ATOM    103  F   UNL A   1      47.523  24.968  36.207  1.00  0.00    -0.200 F 
ENDBRANCH  70  93
ENDBRANCH  44  45
ENDBRANCH  37  39
ENDBRANCH  36  37
ENDBRANCH  35  36
ENDBRANCH  34  35
ENDBRANCH  33  34
ENDBRANCH  32  33
ENDBRANCH   1  32
TORSDOF 20
ENDMDL
