MODEL 1
REMARK VINA RESULT:     -11.7      0.000      0.000
REMARK SMILES CCOc1ccc2nc(S[C@@H](C(=O)OCCOCCOCCOC(=O)c3ccc(-c4c5nc(c(-c6c(F)c(F)c(F)c(F)c6F)c6ccc([nH]6)c(-c6c(F)c(F)c(F)c(F)c6F)c6nc(c(-c7c(F)c(F)c(F)c(F)c7F)c7ccc4[nH]7)C=C6)C=C5)cc3)c3ccccc3)[nH]c2c1
REMARK SMILES IDX 18 1 17 2 16 3 15 4 14 5 12 6 13 7 11 8 10 9 9 10 4 11 5 12
REMARK SMILES IDX 97 13 6 14 96 15 7 16 95 17 8 18 3 20 2 21 1 22 89 23 90 24
REMARK SMILES IDX 94 25 91 26 93 27 92 28 19 29 20 30 21 31 22 32 23 33 24 34
REMARK SMILES IDX 25 35 26 36 27 37 88 38 28 39 87 40 29 41 30 42 31 43 81 44
REMARK SMILES IDX 32 45 86 46 80 47 82 48 33 49 85 50 79 51 78 52 34 54 66 55
REMARK SMILES IDX 46 56 65 57 47 58 50 59 64 60 83 61 48 62 49 63 63 65 84 66
REMARK SMILES IDX 51 67 35 68 36 69 44 70 37 71 38 72 42 73 45 74 39 75 40 76
REMARK SMILES IDX 43 77 41 78 67 79 68 80 76 81 69 82 70 83 74 84 77 85 71 86
REMARK SMILES IDX 72 87 75 88 73 89 52 90 53 91 61 92 54 93 55 94 59 95 62 96
REMARK SMILES IDX 56 97 57 98 60 99 58 100
REMARK H PARENT 95 19 82 53 50 64
REMARK Flexibility Score: inf
ROOT
ATOM      1  C   UNL A   1      30.166  25.634  25.757  1.00  0.00     0.188 C 
ENDROOT
BRANCH   1   2
ATOM      2  O   UNL A   1      29.936  24.625  26.735  1.00  0.00    -0.376 OA
BRANCH   2   3
ATOM      3  C   UNL A   1      30.417  23.313  26.494  1.00  0.00     0.202 C 
BRANCH   3   4
ATOM      4  C   UNL A   1      31.921  23.109  26.686  1.00  0.00     0.261 C 
BRANCH   4   5
ATOM      5  O   UNL A   1      32.741  23.563  25.582  1.00  0.00    -0.462 OA
BRANCH   5   6
ATOM      6  C   UNL A   1      33.740  22.718  25.222  1.00  0.00     0.324 C 
ATOM      7  O   UNL A   1      34.813  22.675  25.826  1.00  0.00    -0.251 OA
BRANCH   6   8
ATOM      8  C   UNL A   1      33.516  21.909  23.939  1.00  0.00     0.194 C 
BRANCH   8   9
ATOM      9  S   UNL A   1      32.955  22.672  22.412  1.00  0.00    -0.068 SA
BRANCH   9  10
ATOM     10  C   UNL A   1      32.653  24.369  22.456  1.00  0.00     0.167 A 
ATOM     11  C   UNL A   1      31.363  28.693  22.809  1.00  0.00     0.121 A 
ATOM     12  C   UNL A   1      32.744  28.869  22.754  1.00  0.00     0.049 A 
ATOM     13  C   UNL A   1      30.775  27.447  22.529  1.00  0.00     0.074 A 
ATOM     14  C   UNL A   1      33.590  27.773  22.525  1.00  0.00     0.034 A 
ATOM     15  C   UNL A   1      31.643  26.351  22.397  1.00  0.00     0.070 A 
ATOM     16  C   UNL A   1      33.025  26.489  22.446  1.00  0.00     0.090 A 
ATOM     17  N   UNL A   1      31.449  24.990  22.255  1.00  0.00    -0.333 N 
ATOM     18  N   UNL A   1      33.627  25.256  22.469  1.00  0.00    -0.223 NA
ATOM     19  H   UNL A   1      30.596  24.545  22.046  1.00  0.00     0.169 HD
BRANCH  11  20
ATOM     20  O   UNL A   1      30.601  29.614  23.485  1.00  0.00    -0.494 OA
BRANCH  20  21
ATOM     21  C   UNL A   1      29.382  30.022  22.873  1.00  0.00     0.226 C 
ATOM     22  C   UNL A   1      28.808  31.283  23.489  1.00  0.00     0.049 C 
ENDBRANCH  20  21
ENDBRANCH  11  20
ENDBRANCH   9  10
ENDBRANCH   8   9
BRANCH   8  23
ATOM     23  C   UNL A   1      33.008  20.512  24.270  1.00  0.00    -0.023 A 
ATOM     24  C   UNL A   1      33.197  19.921  25.528  1.00  0.00     0.005 A 
ATOM     25  C   UNL A   1      32.541  19.700  23.218  1.00  0.00     0.005 A 
ATOM     26  C   UNL A   1      32.872  18.578  25.740  1.00  0.00     0.000 A 
ATOM     27  C   UNL A   1      32.260  18.351  23.420  1.00  0.00     0.000 A 
ATOM     28  C   UNL A   1      32.411  17.794  24.685  1.00  0.00     0.000 A 
ENDBRANCH   8  23
ENDBRANCH   6   8
ENDBRANCH   5   6
ENDBRANCH   4   5
ENDBRANCH   3   4
ENDBRANCH   2   3
ENDBRANCH   1   2
BRANCH   1  29
ATOM     29  C   UNL A   1      31.037  26.851  26.113  1.00  0.00     0.188 C 
BRANCH  29  30
ATOM     30  O   UNL A   1      32.428  26.580  26.010  1.00  0.00    -0.376 OA
BRANCH  30  31
ATOM     31  C   UNL A   1      33.263  27.703  26.258  1.00  0.00     0.202 C 
BRANCH  31  32
ATOM     32  C   UNL A   1      32.419  28.948  26.501  1.00  0.00     0.261 C 
BRANCH  32  33
ATOM     33  O   UNL A   1      33.164  30.130  26.145  1.00  0.00    -0.460 OA
BRANCH  33  34
ATOM     34  C   UNL A   1      33.468  30.983  27.142  1.00  0.00     0.338 C 
ATOM     35  O   UNL A   1      32.770  31.883  27.571  1.00  0.00    -0.246 OA
BRANCH  34  36
ATOM     36  C   UNL A   1      34.855  30.719  27.600  1.00  0.00     0.060 A 
ATOM     37  C   UNL A   1      35.323  29.430  27.881  1.00  0.00     0.016 A 
ATOM     38  C   UNL A   1      35.678  31.817  27.844  1.00  0.00     0.016 A 
ATOM     39  C   UNL A   1      36.575  29.243  28.478  1.00  0.00     0.010 A 
ATOM     40  C   UNL A   1      36.944  31.628  28.401  1.00  0.00     0.010 A 
ATOM     41  C   UNL A   1      37.390  30.345  28.761  1.00  0.00    -0.014 A 
BRANCH  41  42
ATOM     42  C   UNL A   1      38.659  30.223  29.525  1.00  0.00     0.031 A 
ATOM     43  C   UNL A   1      39.736  29.318  29.000  1.00  0.00     0.074 A 
ATOM     44  C   UNL A   1      38.861  30.867  30.686  1.00  0.00     0.049 A 
ATOM     45  N   UNL A   1      40.701  28.701  29.630  1.00  0.00    -0.248 NA
ATOM     46  C   UNL A   1      39.712  29.080  27.552  1.00  0.00     0.031 C 
ATOM     47  C   UNL A   1      37.985  31.882  31.264  1.00  0.00     0.029 A 
ATOM     48  N   UNL A   1      39.867  30.716  31.609  1.00  0.00    -0.354 N 
ATOM     49  C   UNL A   1      41.349  27.938  28.664  1.00  0.00     0.074 A 
ATOM     50  C   UNL A   1      40.690  28.197  27.403  1.00  0.00     0.031 C 
ATOM     51  C   UNL A   1      38.473  32.240  32.463  1.00  0.00     0.029 A 
ATOM     52  C   UNL A   1      39.631  31.404  32.773  1.00  0.00     0.049 A 
ATOM     53  H   UNL A   1      40.673  30.173  31.454  1.00  0.00     0.167 HD
ATOM     54  C   UNL A   1      42.388  27.086  28.833  1.00  0.00     0.037 A 
ATOM     55  C   UNL A   1      40.219  31.301  33.981  1.00  0.00     0.037 A 
ATOM     56  C   UNL A   1      43.062  26.887  30.088  1.00  0.00     0.049 A 
ATOM     57  C   UNL A   1      41.322  30.296  34.184  1.00  0.00     0.074 A 
ATOM     58  C   UNL A   1      44.093  26.017  30.394  1.00  0.00     0.029 A 
ATOM     59  N   UNL A   1      42.783  27.601  31.244  1.00  0.00    -0.354 N 
ATOM     60  N   UNL A   1      41.841  29.449  33.327  1.00  0.00    -0.248 NA
ATOM     61  C   UNL A   1      41.904  30.214  35.532  1.00  0.00     0.031 C 
ATOM     62  C   UNL A   1      44.425  26.193  31.742  1.00  0.00     0.029 A 
ATOM     63  C   UNL A   1      43.627  27.200  32.262  1.00  0.00     0.049 A 
ATOM     64  H   UNL A   1      42.087  28.293  31.326  1.00  0.00     0.167 HD
ATOM     65  C   UNL A   1      42.816  28.748  34.025  1.00  0.00     0.074 A 
ATOM     66  C   UNL A   1      42.826  29.274  35.373  1.00  0.00     0.031 C 
ATOM     67  C   UNL A   1      43.629  27.754  33.590  1.00  0.00     0.037 A 
BRANCH  54  68
ATOM     68  C   UNL A   1      42.825  26.269  27.654  1.00  0.00     0.064 A 
ATOM     69  C   UNL A   1      42.218  25.050  27.327  1.00  0.00     0.173 A 
ATOM     70  C   UNL A   1      43.844  26.743  26.811  1.00  0.00     0.173 A 
ATOM     71  F   UNL A   1      41.256  24.542  28.111  1.00  0.00    -0.203 F 
ATOM     72  C   UNL A   1      42.622  24.328  26.205  1.00  0.00     0.198 A 
ATOM     73  C   UNL A   1      44.229  26.032  25.678  1.00  0.00     0.198 A 
ATOM     74  F   UNL A   1      44.457  27.905  27.081  1.00  0.00    -0.203 F 
ATOM     75  F   UNL A   1      42.055  23.146  25.931  1.00  0.00    -0.200 F 
ATOM     76  C   UNL A   1      43.621  24.823  25.378  1.00  0.00     0.200 A 
ATOM     77  F   UNL A   1      45.187  26.518  24.877  1.00  0.00    -0.200 F 
ATOM     78  F   UNL A   1      44.001  24.131  24.295  1.00  0.00    -0.200 F 
ENDBRANCH  54  68
BRANCH  55  79
ATOM     79  C   UNL A   1      39.704  32.110  35.115  1.00  0.00     0.064 A 
ATOM     80  C   UNL A   1      40.142  33.424  35.324  1.00  0.00     0.173 A 
ATOM     81  C   UNL A   1      38.753  31.586  36.005  1.00  0.00     0.173 A 
ATOM     82  F   UNL A   1      41.071  33.956  34.517  1.00  0.00    -0.203 F 
ATOM     83  C   UNL A   1      39.650  34.183  36.384  1.00  0.00     0.198 A 
ATOM     84  C   UNL A   1      38.239  32.357  37.045  1.00  0.00     0.198 A 
ATOM     85  F   UNL A   1      38.307  30.331  35.849  1.00  0.00    -0.203 F 
ATOM     86  F   UNL A   1      40.112  35.424  36.585  1.00  0.00    -0.200 F 
ATOM     87  C   UNL A   1      38.693  33.653  37.238  1.00  0.00     0.200 A 
ATOM     88  F   UNL A   1      37.305  31.844  37.857  1.00  0.00    -0.200 F 
ATOM     89  F   UNL A   1      38.211  34.388  38.248  1.00  0.00    -0.200 F 
ENDBRANCH  55  79
BRANCH  67  90
ATOM     90  C   UNL A   1      44.632  27.209  34.561  1.00  0.00     0.064 A 
ATOM     91  C   UNL A   1      44.361  26.073  35.336  1.00  0.00     0.173 A 
ATOM     92  C   UNL A   1      45.900  27.800  34.672  1.00  0.00     0.173 A 
ATOM     93  F   UNL A   1      43.158  25.483  35.270  1.00  0.00    -0.203 F 
ATOM     94  C   UNL A   1      45.320  25.556  36.202  1.00  0.00     0.198 A 
ATOM     95  C   UNL A   1      46.863  27.268  35.523  1.00  0.00     0.198 A 
ATOM     96  F   UNL A   1      46.206  28.884  33.945  1.00  0.00    -0.203 F 
ATOM     97  F   UNL A   1      45.033  24.487  36.958  1.00  0.00    -0.200 F 
ATOM     98  C   UNL A   1      46.572  26.149  36.291  1.00  0.00     0.200 A 
ATOM     99  F   UNL A   1      48.074  27.836  35.601  1.00  0.00    -0.200 F 
ATOM    100  F   UNL A   1      47.497  25.646  37.119  1.00  0.00    -0.200 F 
ENDBRANCH  67  90
ENDBRANCH  41  42
ENDBRANCH  34  36
ENDBRANCH  33  34
ENDBRANCH  32  33
ENDBRANCH  31  32
ENDBRANCH  30  31
ENDBRANCH  29  30
ENDBRANCH   1  29
TORSDOF 22
ENDMDL
MODEL 2
REMARK VINA RESULT:     -11.7      3.061      8.568
REMARK SMILES CCOc1ccc2nc(S[C@@H](C(=O)OCCOCCOCCOC(=O)c3ccc(-c4c5nc(c(-c6c(F)c(F)c(F)c(F)c6F)c6ccc([nH]6)c(-c6c(F)c(F)c(F)c(F)c6F)c6nc(c(-c7c(F)c(F)c(F)c(F)c7F)c7ccc4[nH]7)C=C6)C=C5)cc3)c3ccccc3)[nH]c2c1
REMARK SMILES IDX 18 1 17 2 16 3 15 4 14 5 12 6 13 7 11 8 10 9 9 10 4 11 5 12
REMARK SMILES IDX 97 13 6 14 96 15 7 16 95 17 8 18 3 20 2 21 1 22 89 23 90 24
REMARK SMILES IDX 94 25 91 26 93 27 92 28 19 29 20 30 21 31 22 32 23 33 24 34
REMARK SMILES IDX 25 35 26 36 27 37 88 38 28 39 87 40 29 41 30 42 31 43 81 44
REMARK SMILES IDX 32 45 86 46 80 47 82 48 33 49 85 50 79 51 78 52 34 54 66 55
REMARK SMILES IDX 46 56 65 57 47 58 50 59 64 60 83 61 48 62 49 63 63 65 84 66
REMARK SMILES IDX 51 67 35 68 36 69 44 70 37 71 38 72 42 73 45 74 39 75 40 76
REMARK SMILES IDX 43 77 41 78 67 79 68 80 76 81 69 82 70 83 74 84 77 85 71 86
REMARK SMILES IDX 72 87 75 88 73 89 52 90 53 91 61 92 54 93 55 94 59 95 62 96
REMARK SMILES IDX 56 97 57 98 60 99 58 100
REMARK H PARENT 95 19 82 53 50 64
REMARK Flexibility Score: inf
ROOT
ATOM      1  C   UNL A   1      39.165  22.224  25.941  1.00  0.00     0.188 C 
ENDROOT
BRANCH   1   2
ATOM      2  O   UNL A   1      38.539  23.288  26.650  1.00  0.00    -0.376 OA
BRANCH   2   3
ATOM      3  C   UNL A   1      37.497  24.014  26.018  1.00  0.00     0.202 C 
BRANCH   3   4
ATOM      4  C   UNL A   1      36.793  23.302  24.861  1.00  0.00     0.261 C 
BRANCH   4   5
ATOM      5  O   UNL A   1      35.374  23.090  25.052  1.00  0.00    -0.462 OA
BRANCH   5   6
ATOM      6  C   UNL A   1      34.630  24.221  25.144  1.00  0.00     0.324 C 
ATOM      7  O   UNL A   1      34.958  25.268  24.584  1.00  0.00    -0.251 OA
BRANCH   6   8
ATOM      8  C   UNL A   1      33.426  24.168  26.092  1.00  0.00     0.194 C 
BRANCH   8   9
ATOM      9  S   UNL A   1      32.787  22.619  26.741  1.00  0.00    -0.068 SA
BRANCH   9  10
ATOM     10  C   UNL A   1      32.996  21.219  25.758  1.00  0.00     0.167 A 
ATOM     11  C   UNL A   1      33.797  17.308  23.624  1.00  0.00     0.121 A 
ATOM     12  C   UNL A   1      32.729  17.773  22.859  1.00  0.00     0.049 A 
ATOM     13  C   UNL A   1      34.439  18.138  24.560  1.00  0.00     0.074 A 
ATOM     14  C   UNL A   1      32.196  19.051  23.087  1.00  0.00     0.034 A 
ATOM     15  C   UNL A   1      33.831  19.373  24.835  1.00  0.00     0.070 A 
ATOM     16  C   UNL A   1      32.699  19.810  24.157  1.00  0.00     0.090 A 
ATOM     17  N   UNL A   1      34.075  20.376  25.756  1.00  0.00    -0.333 N 
ATOM     18  N   UNL A   1      32.209  20.956  24.734  1.00  0.00    -0.223 NA
ATOM     19  H   UNL A   1      34.883  20.467  26.311  1.00  0.00     0.169 HD
BRANCH  11  20
ATOM     20  O   UNL A   1      33.993  15.955  23.740  1.00  0.00    -0.494 OA
BRANCH  20  21
ATOM     21  C   UNL A   1      34.027  15.414  25.056  1.00  0.00     0.226 C 
ATOM     22  C   UNL A   1      32.693  14.840  25.491  1.00  0.00     0.049 C 
ENDBRANCH  20  21
ENDBRANCH  11  20
ENDBRANCH   9  10
ENDBRANCH   8   9
BRANCH   8  23
ATOM     23  C   UNL A   1      32.428  25.268  25.752  1.00  0.00    -0.023 A 
ATOM     24  C   UNL A   1      31.569  25.188  24.645  1.00  0.00     0.005 A 
ATOM     25  C   UNL A   1      32.530  26.499  26.427  1.00  0.00     0.005 A 
ATOM     26  C   UNL A   1      30.793  26.287  24.266  1.00  0.00     0.000 A 
ATOM     27  C   UNL A   1      31.789  27.606  26.021  1.00  0.00     0.000 A 
ATOM     28  C   UNL A   1      30.909  27.495  24.949  1.00  0.00     0.000 A 
ENDBRANCH   8  23
ENDBRANCH   6   8
ENDBRANCH   5   6
ENDBRANCH   4   5
ENDBRANCH   3   4
ENDBRANCH   2   3
ENDBRANCH   1   2
BRANCH   1  29
ATOM     29  C   UNL A   1      39.911  21.128  26.720  1.00  0.00     0.188 C 
BRANCH  29  30
ATOM     30  O   UNL A   1      40.755  20.341  25.890  1.00  0.00    -0.376 OA
BRANCH  30  31
ATOM     31  C   UNL A   1      42.002  19.999  26.481  1.00  0.00     0.202 C 
BRANCH  31  32
ATOM     32  C   UNL A   1      43.126  20.813  25.853  1.00  0.00     0.261 C 
BRANCH  32  33
ATOM     33  O   UNL A   1      43.111  22.160  26.368  1.00  0.00    -0.460 OA
BRANCH  33  34
ATOM     34  C   UNL A   1      42.933  23.153  25.475  1.00  0.00     0.338 C 
ATOM     35  O   UNL A   1      43.186  23.118  24.285  1.00  0.00    -0.246 OA
BRANCH  34  36
ATOM     36  C   UNL A   1      42.452  24.363  26.186  1.00  0.00     0.060 A 
ATOM     37  C   UNL A   1      42.653  25.658  25.691  1.00  0.00     0.016 A 
ATOM     38  C   UNL A   1      41.862  24.190  27.437  1.00  0.00     0.016 A 
ATOM     39  C   UNL A   1      42.341  26.775  26.475  1.00  0.00     0.010 A 
ATOM     40  C   UNL A   1      41.513  25.305  28.202  1.00  0.00     0.010 A 
ATOM     41  C   UNL A   1      41.785  26.606  27.748  1.00  0.00    -0.014 A 
BRANCH  41  42
ATOM     42  C   UNL A   1      41.572  27.743  28.681  1.00  0.00     0.031 A 
ATOM     43  C   UNL A   1      42.489  27.894  29.860  1.00  0.00     0.074 A 
ATOM     44  C   UNL A   1      40.564  28.618  28.526  1.00  0.00     0.049 A 
ATOM     45  N   UNL A   1      42.292  28.476  31.013  1.00  0.00    -0.248 NA
ATOM     46  C   UNL A   1      43.821  27.298  29.705  1.00  0.00     0.031 C 
ATOM     47  C   UNL A   1      39.673  28.699  27.374  1.00  0.00     0.029 A 
ATOM     48  N   UNL A   1      40.103  29.585  29.385  1.00  0.00    -0.354 N 
ATOM     49  C   UNL A   1      43.449  28.245  31.751  1.00  0.00     0.074 A 
ATOM     50  C   UNL A   1      44.354  27.501  30.902  1.00  0.00     0.031 C 
ATOM     51  C   UNL A   1      38.746  29.642  27.610  1.00  0.00     0.029 A 
ATOM     52  C   UNL A   1      38.923  30.150  28.969  1.00  0.00     0.049 A 
ATOM     53  H   UNL A   1      40.568  29.847  30.212  1.00  0.00     0.167 HD
ATOM     54  C   UNL A   1      43.711  28.609  33.028  1.00  0.00     0.037 A 
ATOM     55  C   UNL A   1      38.038  30.911  29.640  1.00  0.00     0.037 A 
ATOM     56  C   UNL A   1      42.816  29.397  33.834  1.00  0.00     0.049 A 
ATOM     57  C   UNL A   1      38.295  31.249  31.085  1.00  0.00     0.074 A 
ATOM     58  C   UNL A   1      42.949  29.787  35.154  1.00  0.00     0.029 A 
ATOM     59  N   UNL A   1      41.628  29.942  33.371  1.00  0.00    -0.354 N 
ATOM     60  N   UNL A   1      39.304  30.905  31.850  1.00  0.00    -0.248 NA
ATOM     61  C   UNL A   1      37.277  32.061  31.768  1.00  0.00     0.031 C 
ATOM     62  C   UNL A   1      41.829  30.554  35.496  1.00  0.00     0.029 A 
ATOM     63  C   UNL A   1      41.021  30.673  34.376  1.00  0.00     0.049 A 
ATOM     64  H   UNL A   1      41.270  29.826  32.462  1.00  0.00     0.167 HD
ATOM     65  C   UNL A   1      39.050  31.468  33.094  1.00  0.00     0.074 A 
ATOM     66  C   UNL A   1      37.798  32.186  32.981  1.00  0.00     0.031 C 
ATOM     67  C   UNL A   1      39.785  31.395  34.231  1.00  0.00     0.037 A 
BRANCH  54  68
ATOM     68  C   UNL A   1      44.984  28.121  33.652  1.00  0.00     0.064 A 
ATOM     69  C   UNL A   1      46.187  28.829  33.542  1.00  0.00     0.173 A 
ATOM     70  C   UNL A   1      44.984  26.940  34.414  1.00  0.00     0.173 A 
ATOM     71  F   UNL A   1      46.246  29.950  32.807  1.00  0.00    -0.203 F 
ATOM     72  C   UNL A   1      47.348  28.369  34.161  1.00  0.00     0.198 A 
ATOM     73  C   UNL A   1      46.138  26.496  35.051  1.00  0.00     0.198 A 
ATOM     74  F   UNL A   1      43.857  26.224  34.549  1.00  0.00    -0.203 F 
ATOM     75  F   UNL A   1      48.497  29.041  34.012  1.00  0.00    -0.200 F 
ATOM     76  C   UNL A   1      47.321  27.207  34.921  1.00  0.00     0.200 A 
ATOM     77  F   UNL A   1      46.106  25.379  35.791  1.00  0.00    -0.200 F 
ATOM     78  F   UNL A   1      48.436  26.772  35.523  1.00  0.00    -0.200 F 
ENDBRANCH  54  68
BRANCH  55  79
ATOM     79  C   UNL A   1      36.776  31.323  28.973  1.00  0.00     0.064 A 
ATOM     80  C   UNL A   1      35.733  30.410  28.770  1.00  0.00     0.173 A 
ATOM     81  C   UNL A   1      36.585  32.644  28.538  1.00  0.00     0.173 A 
ATOM     82  F   UNL A   1      35.882  29.131  29.143  1.00  0.00    -0.203 F 
ATOM     83  C   UNL A   1      34.547  30.803  28.152  1.00  0.00     0.198 A 
ATOM     84  C   UNL A   1      35.387  33.042  27.949  1.00  0.00     0.198 A 
ATOM     85  F   UNL A   1      37.556  33.554  28.706  1.00  0.00    -0.203 F 
ATOM     86  F   UNL A   1      33.579  29.902  27.936  1.00  0.00    -0.200 F 
ATOM     87  C   UNL A   1      34.371  32.119  27.751  1.00  0.00     0.200 A 
ATOM     88  F   UNL A   1      35.218  34.318  27.576  1.00  0.00    -0.200 F 
ATOM     89  F   UNL A   1      33.226  32.498  27.169  1.00  0.00    -0.200 F 
ENDBRANCH  55  79
BRANCH  67  90
ATOM     90  C   UNL A   1      39.286  32.151  35.425  1.00  0.00     0.064 A 
ATOM     91  C   UNL A   1      38.444  31.553  36.373  1.00  0.00     0.173 A 
ATOM     92  C   UNL A   1      39.704  33.471  35.648  1.00  0.00     0.173 A 
ATOM     93  F   UNL A   1      38.011  30.297  36.193  1.00  0.00    -0.203 F 
ATOM     94  C   UNL A   1      38.025  32.259  37.497  1.00  0.00     0.198 A 
ATOM     95  C   UNL A   1      39.300  34.165  36.784  1.00  0.00     0.198 A 
ATOM     96  F   UNL A   1      40.515  34.081  34.771  1.00  0.00    -0.203 F 
ATOM     97  F   UNL A   1      37.195  31.681  38.378  1.00  0.00    -0.200 F 
ATOM     98  C   UNL A   1      38.457  33.561  37.706  1.00  0.00     0.200 A 
ATOM     99  F   UNL A   1      39.726  35.419  36.989  1.00  0.00    -0.200 F 
ATOM    100  F   UNL A   1      38.059  34.235  38.792  1.00  0.00    -0.200 F 
ENDBRANCH  67  90
ENDBRANCH  41  42
ENDBRANCH  34  36
ENDBRANCH  33  34
ENDBRANCH  32  33
ENDBRANCH  31  32
ENDBRANCH  30  31
ENDBRANCH  29  30
ENDBRANCH   1  29
TORSDOF 22
ENDMDL
MODEL 3
REMARK VINA RESULT:     -11.5      5.034      8.831
REMARK SMILES CCOc1ccc2nc(S[C@@H](C(=O)OCCOCCOCCOC(=O)c3ccc(-c4c5nc(c(-c6c(F)c(F)c(F)c(F)c6F)c6ccc([nH]6)c(-c6c(F)c(F)c(F)c(F)c6F)c6nc(c(-c7c(F)c(F)c(F)c(F)c7F)c7ccc4[nH]7)C=C6)C=C5)cc3)c3ccccc3)[nH]c2c1
REMARK SMILES IDX 18 1 17 2 16 3 15 4 14 5 12 6 13 7 11 8 10 9 9 10 4 11 5 12
REMARK SMILES IDX 97 13 6 14 96 15 7 16 95 17 8 18 3 20 2 21 1 22 89 23 90 24
REMARK SMILES IDX 94 25 91 26 93 27 92 28 19 29 20 30 21 31 22 32 23 33 24 34
REMARK SMILES IDX 25 35 26 36 27 37 88 38 28 39 87 40 29 41 30 42 31 43 81 44
REMARK SMILES IDX 32 45 86 46 80 47 82 48 33 49 85 50 79 51 78 52 34 54 66 55
REMARK SMILES IDX 46 56 65 57 47 58 50 59 64 60 83 61 48 62 49 63 63 65 84 66
REMARK SMILES IDX 51 67 35 68 36 69 44 70 37 71 38 72 42 73 45 74 39 75 40 76
REMARK SMILES IDX 43 77 41 78 67 79 68 80 76 81 69 82 70 83 74 84 77 85 71 86
REMARK SMILES IDX 72 87 75 88 73 89 52 90 53 91 61 92 54 93 55 94 59 95 62 96
REMARK SMILES IDX 56 97 57 98 60 99 58 100
REMARK H PARENT 95 19 82 53 50 64
REMARK Flexibility Score: inf
ROOT
ATOM      1  C   UNL A   1      40.492  21.615  26.158  1.00  0.00     0.188 C 
ENDROOT
BRANCH   1   2
ATOM      2  O   UNL A   1      39.973  22.601  27.043  1.00  0.00    -0.376 OA
BRANCH   2   3
ATOM      3  C   UNL A   1      39.021  23.532  26.553  1.00  0.00     0.202 C 
BRANCH   3   4
ATOM      4  C   UNL A   1      37.899  22.947  25.691  1.00  0.00     0.261 C 
BRANCH   4   5
ATOM      5  O   UNL A   1      36.886  23.899  25.286  1.00  0.00    -0.462 OA
BRANCH   5   6
ATOM      6  C   UNL A   1      36.202  23.566  24.162  1.00  0.00     0.324 C 
ATOM      7  O   UNL A   1      36.771  23.250  23.117  1.00  0.00    -0.251 OA
BRANCH   6   8
ATOM      8  C   UNL A   1      34.678  23.731  24.220  1.00  0.00     0.194 C 
BRANCH   8   9
ATOM      9  S   UNL A   1      33.881  24.856  25.373  1.00  0.00    -0.068 SA
BRANCH   9  10
ATOM     10  C   UNL A   1      32.649  25.880  24.736  1.00  0.00     0.167 A 
ATOM     11  C   UNL A   1      29.816  28.780  22.724  1.00  0.00     0.121 A 
ATOM     12  C   UNL A   1      28.896  27.836  23.175  1.00  0.00     0.049 A 
ATOM     13  C   UNL A   1      31.156  28.754  23.150  1.00  0.00     0.074 A 
ATOM     14  C   UNL A   1      29.315  26.765  23.980  1.00  0.00     0.034 A 
ATOM     15  C   UNL A   1      31.569  27.625  23.875  1.00  0.00     0.070 A 
ATOM     16  C   UNL A   1      30.688  26.617  24.243  1.00  0.00     0.090 A 
ATOM     17  N   UNL A   1      32.794  27.183  24.339  1.00  0.00    -0.333 N 
ATOM     18  N   UNL A   1      31.373  25.556  24.783  1.00  0.00    -0.223 NA
ATOM     19  H   UNL A   1      33.624  27.711  24.378  1.00  0.00     0.169 HD
BRANCH  11  20
ATOM     20  O   UNL A   1      29.525  29.508  21.598  1.00  0.00    -0.494 OA
BRANCH  20  21
ATOM     21  C   UNL A   1      28.242  30.123  21.535  1.00  0.00     0.226 C 
ATOM     22  C   UNL A   1      28.300  31.557  21.048  1.00  0.00     0.049 C 
ENDBRANCH  20  21
ENDBRANCH  11  20
ENDBRANCH   9  10
ENDBRANCH   8   9
BRANCH   8  23
ATOM     23  C   UNL A   1      33.985  22.411  23.913  1.00  0.00    -0.023 A 
ATOM     24  C   UNL A   1      32.887  22.322  23.043  1.00  0.00     0.005 A 
ATOM     25  C   UNL A   1      34.304  21.286  24.697  1.00  0.00     0.005 A 
ATOM     26  C   UNL A   1      32.172  21.128  22.921  1.00  0.00     0.000 A 
ATOM     27  C   UNL A   1      33.563  20.111  24.606  1.00  0.00     0.000 A 
ATOM     28  C   UNL A   1      32.506  20.027  23.706  1.00  0.00     0.000 A 
ENDBRANCH   8  23
ENDBRANCH   6   8
ENDBRANCH   5   6
ENDBRANCH   4   5
ENDBRANCH   3   4
ENDBRANCH   2   3
ENDBRANCH   1   2
BRANCH   1  29
ATOM     29  C   UNL A   1      41.790  20.874  26.523  1.00  0.00     0.188 C 
BRANCH  29  30
ATOM     30  O   UNL A   1      41.571  19.506  26.839  1.00  0.00    -0.376 OA
BRANCH  30  31
ATOM     31  C   UNL A   1      42.737  18.695  26.765  1.00  0.00     0.202 C 
BRANCH  31  32
ATOM     32  C   UNL A   1      43.220  18.591  25.324  1.00  0.00     0.261 C 
BRANCH  32  33
ATOM     33  O   UNL A   1      44.652  18.430  25.291  1.00  0.00    -0.460 OA
BRANCH  33  34
ATOM     34  C   UNL A   1      45.328  19.166  24.388  1.00  0.00     0.338 C 
ATOM     35  O   UNL A   1      46.079  18.752  23.525  1.00  0.00    -0.246 OA
BRANCH  34  36
ATOM     36  C   UNL A   1      45.089  20.606  24.657  1.00  0.00     0.060 A 
ATOM     37  C   UNL A   1      44.559  21.475  23.696  1.00  0.00     0.016 A 
ATOM     38  C   UNL A   1      45.500  21.112  25.889  1.00  0.00     0.016 A 
ATOM     39  C   UNL A   1      44.515  22.854  23.932  1.00  0.00     0.010 A 
ATOM     40  C   UNL A   1      45.418  22.483  26.141  1.00  0.00     0.010 A 
ATOM     41  C   UNL A   1      44.963  23.372  25.151  1.00  0.00    -0.014 A 
BRANCH  41  42
ATOM     42  C   UNL A   1      45.079  24.833  25.403  1.00  0.00     0.031 A 
ATOM     43  C   UNL A   1      46.415  25.495  25.226  1.00  0.00     0.074 A 
ATOM     44  C   UNL A   1      44.038  25.573  25.818  1.00  0.00     0.049 A 
ATOM     45  N   UNL A   1      46.896  26.582  25.767  1.00  0.00    -0.248 NA
ATOM     46  C   UNL A   1      47.336  24.823  24.302  1.00  0.00     0.031 C 
ATOM     47  C   UNL A   1      42.652  25.124  25.907  1.00  0.00     0.029 A 
ATOM     48  N   UNL A   1      44.010  26.864  26.285  1.00  0.00    -0.354 N 
ATOM     49  C   UNL A   1      48.206  26.680  25.310  1.00  0.00     0.074 A 
ATOM     50  C   UNL A   1      48.431  25.561  24.421  1.00  0.00     0.031 C 
ATOM     51  C   UNL A   1      41.911  26.113  26.433  1.00  0.00     0.029 A 
ATOM     52  C   UNL A   1      42.791  27.217  26.810  1.00  0.00     0.049 A 
ATOM     53  H   UNL A   1      44.782  27.474  26.248  1.00  0.00     0.167 HD
ATOM     54  C   UNL A   1      49.133  27.613  25.627  1.00  0.00     0.037 A 
ATOM     55  C   UNL A   1      42.448  28.261  27.587  1.00  0.00     0.037 A 
ATOM     56  C   UNL A   1      48.869  28.747  26.471  1.00  0.00     0.049 A 
ATOM     57  C   UNL A   1      43.500  29.255  28.002  1.00  0.00     0.074 A 
ATOM     58  C   UNL A   1      49.738  29.733  26.903  1.00  0.00     0.029 A 
ATOM     59  N   UNL A   1      47.620  29.060  26.986  1.00  0.00    -0.354 N 
ATOM     60  N   UNL A   1      44.780  29.277  27.714  1.00  0.00    -0.248 NA
ATOM     61  C   UNL A   1      43.065  30.357  28.873  1.00  0.00     0.031 C 
ATOM     62  C   UNL A   1      49.017  30.633  27.696  1.00  0.00     0.029 A 
ATOM     63  C   UNL A   1      47.691  30.228  27.724  1.00  0.00     0.049 A 
ATOM     64  H   UNL A   1      46.802  28.530  26.846  1.00  0.00     0.167 HD
ATOM     65  C   UNL A   1      45.296  30.397  28.353  1.00  0.00     0.074 A 
ATOM     66  C   UNL A   1      44.192  31.036  29.036  1.00  0.00     0.031 C 
ATOM     67  C   UNL A   1      46.573  30.854  28.376  1.00  0.00     0.037 A 
BRANCH  54  68
ATOM     68  C   UNL A   1      50.527  27.424  25.108  1.00  0.00     0.064 A 
ATOM     69  C   UNL A   1      50.893  27.788  23.806  1.00  0.00     0.173 A 
ATOM     70  C   UNL A   1      51.526  26.909  25.951  1.00  0.00     0.173 A 
ATOM     71  F   UNL A   1      49.973  28.263  22.954  1.00  0.00    -0.203 F 
ATOM     72  C   UNL A   1      52.205  27.633  23.361  1.00  0.00     0.198 A 
ATOM     73  C   UNL A   1      52.841  26.779  25.513  1.00  0.00     0.198 A 
ATOM     74  F   UNL A   1      51.227  26.545  27.207  1.00  0.00    -0.203 F 
ATOM     75  F   UNL A   1      52.526  27.952  22.100  1.00  0.00    -0.200 F 
ATOM     76  C   UNL A   1      53.178  27.136  24.217  1.00  0.00     0.200 A 
ATOM     77  F   UNL A   1      53.779  26.307  26.344  1.00  0.00    -0.200 F 
ATOM     78  F   UNL A   1      54.441  26.996  23.789  1.00  0.00    -0.200 F 
ENDBRANCH  54  68
BRANCH  55  79
ATOM     79  C   UNL A   1      41.058  28.361  28.102  1.00  0.00     0.064 A 
ATOM     80  C   UNL A   1      40.715  27.858  29.363  1.00  0.00     0.173 A 
ATOM     81  C   UNL A   1      40.048  28.975  27.344  1.00  0.00     0.173 A 
ATOM     82  F   UNL A   1      41.639  27.237  30.109  1.00  0.00    -0.203 F 
ATOM     83  C   UNL A   1      39.412  27.962  29.846  1.00  0.00     0.198 A 
ATOM     84  C   UNL A   1      38.754  29.107  27.841  1.00  0.00     0.198 A 
ATOM     85  F   UNL A   1      40.326  29.468  26.128  1.00  0.00    -0.203 F 
ATOM     86  F   UNL A   1      39.100  27.440  31.040  1.00  0.00    -0.200 F 
ATOM     87  C   UNL A   1      38.435  28.594  29.090  1.00  0.00     0.200 A 
ATOM     88  F   UNL A   1      37.819  29.730  27.113  1.00  0.00    -0.200 F 
ATOM     89  F   UNL A   1      37.186  28.705  29.561  1.00  0.00    -0.200 F 
ENDBRANCH  55  79
BRANCH  67  90
ATOM     90  C   UNL A   1      46.835  32.131  29.117  1.00  0.00     0.064 A 
ATOM     91  C   UNL A   1      47.231  32.132  30.461  1.00  0.00     0.173 A 
ATOM     92  C   UNL A   1      46.742  33.362  28.452  1.00  0.00     0.173 A 
ATOM     93  F   UNL A   1      47.322  30.977  31.138  1.00  0.00    -0.203 F 
ATOM     94  C   UNL A   1      47.511  33.326  31.120  1.00  0.00     0.198 A 
ATOM     95  C   UNL A   1      47.043  34.552  29.108  1.00  0.00     0.198 A 
ATOM     96  F   UNL A   1      46.373  33.409  27.163  1.00  0.00    -0.203 F 
ATOM     97  F   UNL A   1      47.859  33.309  32.414  1.00  0.00    -0.200 F 
ATOM     98  C   UNL A   1      47.423  34.534  30.442  1.00  0.00     0.200 A 
ATOM     99  F   UNL A   1      46.966  35.717  28.449  1.00  0.00    -0.200 F 
ATOM    100  F   UNL A   1      47.700  35.680  31.075  1.00  0.00    -0.200 F 
ENDBRANCH  67  90
ENDBRANCH  41  42
ENDBRANCH  34  36
ENDBRANCH  33  34
ENDBRANCH  32  33
ENDBRANCH  31  32
ENDBRANCH  30  31
ENDBRANCH  29  30
ENDBRANCH   1  29
TORSDOF 22
ENDMDL
