MODEL 1
REMARK VINA RESULT:     -10.8      0.000      0.000
REMARK SMILES Nc1cc(C(=O)OCCOCCOCCOC(=O)c2ccc(-c3c4nc(c(-c5c(F)c(F)c(F)c(F)c5F)c5ccc([nH]5)c(-c5c(F)c(F)c(F)c(F)c5F)c5nc(c(-c6c(F)c(F)c(F)c(F)c6F)c6ccc3[nH]6)C=C5)C=C4)cc2)c(O)c([N+](=O)[O-])c1
REMARK SMILES IDX 12 1 11 2 10 3 9 4 8 5 7 6 5 7 6 8 4 9 2 10 3 11 88 12 84 13
REMARK SMILES IDX 82 14 1 15 85 18 86 19 87 20 83 21 13 23 14 24 15 25 16 26
REMARK SMILES IDX 17 27 18 28 19 29 20 30 81 31 21 32 80 33 22 34 23 35 24 36
REMARK SMILES IDX 74 37 25 38 79 39 73 40 75 41 26 42 78 43 72 44 71 45 27 47
REMARK SMILES IDX 59 48 39 49 58 50 40 51 43 52 57 53 76 54 41 55 42 56 56 58
REMARK SMILES IDX 77 59 44 60 28 61 29 62 37 63 30 64 31 65 35 66 38 67 32 68
REMARK SMILES IDX 33 69 36 70 34 71 60 72 61 73 69 74 62 75 63 76 67 77 70 78
REMARK SMILES IDX 64 79 65 80 68 81 66 82 45 83 46 84 54 85 47 86 48 87 52 88
REMARK SMILES IDX 55 89 49 90 50 91 53 92 51 93
REMARK H PARENT 1 16 1 17 83 22 75 46 43 57
REMARK Flexibility Score: inf
ROOT
ATOM      1  C   UNL A   1      32.009  29.582  27.088  1.00  0.00     0.188 C 
ENDROOT
BRANCH   1   2
ATOM      2  C   UNL A   1      31.768  28.370  26.162  1.00  0.00     0.188 C 
BRANCH   2   3
ATOM      3  O   UNL A   1      32.553  27.199  26.276  1.00  0.00    -0.376 OA
BRANCH   3   4
ATOM      4  C   UNL A   1      32.963  26.508  25.104  1.00  0.00     0.202 C 
BRANCH   4   5
ATOM      5  C   UNL A   1      33.642  27.261  23.960  1.00  0.00     0.261 C 
BRANCH   5   6
ATOM      6  O   UNL A   1      32.733  28.095  23.228  1.00  0.00    -0.460 OA
BRANCH   6   7
ATOM      7  C   UNL A   1      31.903  27.441  22.382  1.00  0.00     0.342 C 
ATOM      8  O   UNL A   1      32.186  26.502  21.654  1.00  0.00    -0.246 OA
BRANCH   7   9
ATOM      9  C   UNL A   1      30.505  27.848  22.623  1.00  0.00     0.111 A 
ATOM     10  C   UNL A   1      28.350  27.164  23.540  1.00  0.00     0.039 A 
ATOM     11  C   UNL A   1      29.690  26.900  23.271  1.00  0.00     0.045 A 
ATOM     12  C   UNL A   1      27.832  28.409  23.184  1.00  0.00     0.115 A 
ATOM     13  C   UNL A   1      28.642  29.358  22.531  1.00  0.00     0.313 A 
ATOM     14  C   UNL A   1      29.991  29.094  22.255  1.00  0.00     0.209 A 
BRANCH  10  15
ATOM     15  N   UNL A   1      27.590  26.267  24.270  1.00  0.00    -0.398 N 
ATOM     16  H   UNL A   1      26.936  26.596  24.928  1.00  0.00     0.156 HD
ATOM     17  H   UNL A   1      27.703  25.299  24.130  1.00  0.00     0.156 HD
ENDBRANCH  10  15
BRANCH  13  18
ATOM     18  N   UNL A   1      28.030  30.627  22.136  1.00  0.00     0.066 N 
ATOM     19  O   UNL A   1      27.984  30.880  20.922  1.00  0.00    -0.258 OA
ATOM     20  O   UNL A   1      27.591  31.363  23.030  1.00  0.00    -0.258 OA
ENDBRANCH  13  18
BRANCH  14  21
ATOM     21  O   UNL A   1      30.826  29.978  21.627  1.00  0.00    -0.501 OA
ATOM     22  H   UNL A   1      31.701  30.098  21.936  1.00  0.00     0.293 HD
ENDBRANCH  14  21
ENDBRANCH   7   9
ENDBRANCH   6   7
ENDBRANCH   5   6
ENDBRANCH   4   5
ENDBRANCH   3   4
ENDBRANCH   2   3
ENDBRANCH   1   2
BRANCH   1  23
ATOM     23  O   UNL A   1      32.393  30.843  26.582  1.00  0.00    -0.376 OA
BRANCH  23  24
ATOM     24  C   UNL A   1      31.503  31.947  26.623  1.00  0.00     0.202 C 
BRANCH  24  25
ATOM     25  C   UNL A   1      31.965  33.359  26.992  1.00  0.00     0.261 C 
BRANCH  25  26
ATOM     26  O   UNL A   1      32.746  33.450  28.188  1.00  0.00    -0.460 OA
BRANCH  26  27
ATOM     27  C   UNL A   1      33.893  34.158  28.058  1.00  0.00     0.338 C 
ATOM     28  O   UNL A   1      34.018  35.343  27.809  1.00  0.00    -0.246 OA
BRANCH  27  29
ATOM     29  C   UNL A   1      35.033  33.304  28.426  1.00  0.00     0.060 A 
ATOM     30  C   UNL A   1      34.767  32.003  28.873  1.00  0.00     0.016 A 
ATOM     31  C   UNL A   1      36.336  33.800  28.402  1.00  0.00     0.016 A 
ATOM     32  C   UNL A   1      35.808  31.198  29.326  1.00  0.00     0.010 A 
ATOM     33  C   UNL A   1      37.376  33.000  28.876  1.00  0.00     0.010 A 
ATOM     34  C   UNL A   1      37.112  31.708  29.367  1.00  0.00    -0.014 A 
BRANCH  34  35
ATOM     35  C   UNL A   1      38.171  30.956  30.077  1.00  0.00     0.031 A 
ATOM     36  C   UNL A   1      38.407  31.245  31.533  1.00  0.00     0.074 A 
ATOM     37  C   UNL A   1      38.905  30.026  29.441  1.00  0.00     0.049 A 
ATOM     38  N   UNL A   1      39.309  30.754  32.343  1.00  0.00    -0.248 NA
ATOM     39  C   UNL A   1      37.500  32.222  32.159  1.00  0.00     0.031 C 
ATOM     40  C   UNL A   1      38.744  29.634  28.044  1.00  0.00     0.029 A 
ATOM     41  N   UNL A   1      39.945  29.254  29.894  1.00  0.00    -0.354 N 
ATOM     42  C   UNL A   1      39.085  31.366  33.569  1.00  0.00     0.074 A 
ATOM     43  C   UNL A   1      37.978  32.281  33.394  1.00  0.00     0.031 C 
ATOM     44  C   UNL A   1      39.666  28.701  27.747  1.00  0.00     0.029 A 
ATOM     45  C   UNL A   1      40.499  28.459  28.923  1.00  0.00     0.049 A 
ATOM     46  H   UNL A   1      40.262  29.268  30.826  1.00  0.00     0.167 HD
ATOM     47  C   UNL A   1      39.741  31.176  34.738  1.00  0.00     0.037 A 
ATOM     48  C   UNL A   1      41.575  27.649  28.976  1.00  0.00     0.037 A 
ATOM     49  C   UNL A   1      40.844  30.269  34.910  1.00  0.00     0.049 A 
ATOM     50  C   UNL A   1      42.336  27.514  30.272  1.00  0.00     0.074 A 
ATOM     51  C   UNL A   1      41.561  29.990  36.061  1.00  0.00     0.029 A 
ATOM     52  N   UNL A   1      41.396  29.500  33.897  1.00  0.00    -0.354 N 
ATOM     53  N   UNL A   1      42.098  28.068  31.436  1.00  0.00    -0.248 NA
ATOM     54  C   UNL A   1      43.517  26.638  30.258  1.00  0.00     0.031 C 
ATOM     55  C   UNL A   1      42.580  29.091  35.732  1.00  0.00     0.029 A 
ATOM     56  C   UNL A   1      42.463  28.766  34.390  1.00  0.00     0.049 A 
ATOM     57  H   UNL A   1      41.078  29.478  32.966  1.00  0.00     0.167 HD
ATOM     58  C   UNL A   1      43.075  27.584  32.298  1.00  0.00     0.074 A 
ATOM     59  C   UNL A   1      43.903  26.683  31.526  1.00  0.00     0.031 C 
ATOM     60  C   UNL A   1      43.269  27.861  33.611  1.00  0.00     0.037 A 
BRANCH  47  61
ATOM     61  C   UNL A   1      39.301  31.988  35.920  1.00  0.00     0.064 A 
ATOM     62  C   UNL A   1      39.789  33.283  36.146  1.00  0.00     0.173 A 
ATOM     63  C   UNL A   1      38.350  31.478  36.816  1.00  0.00     0.173 A 
ATOM     64  F   UNL A   1      40.711  33.811  35.326  1.00  0.00    -0.203 F 
ATOM     65  C   UNL A   1      39.355  34.030  37.238  1.00  0.00     0.198 A 
ATOM     66  C   UNL A   1      37.899  32.238  37.891  1.00  0.00     0.198 A 
ATOM     67  F   UNL A   1      37.851  30.244  36.643  1.00  0.00    -0.203 F 
ATOM     68  F   UNL A   1      39.865  35.251  37.458  1.00  0.00    -0.200 F 
ATOM     69  C   UNL A   1      38.405  33.511  38.104  1.00  0.00     0.200 A 
ATOM     70  F   UNL A   1      36.973  31.738  38.721  1.00  0.00    -0.200 F 
ATOM     71  F   UNL A   1      37.982  34.234  39.149  1.00  0.00    -0.200 F 
ENDBRANCH  47  61
BRANCH  48  72
ATOM     72  C   UNL A   1      42.015  26.908  27.765  1.00  0.00     0.064 A 
ATOM     73  C   UNL A   1      41.534  25.620  27.493  1.00  0.00     0.173 A 
ATOM     74  C   UNL A   1      42.950  27.458  26.876  1.00  0.00     0.173 A 
ATOM     75  F   UNL A   1      40.658  25.042  28.328  1.00  0.00    -0.203 F 
ATOM     76  C   UNL A   1      41.990  24.901  26.391  1.00  0.00     0.198 A 
ATOM     77  C   UNL A   1      43.383  26.748  25.759  1.00  0.00     0.198 A 
ATOM     78  F   UNL A   1      43.443  28.685  27.094  1.00  0.00    -0.203 F 
ATOM     79  F   UNL A   1      41.553  23.651  26.184  1.00  0.00    -0.200 F 
ATOM     80  C   UNL A   1      42.910  25.467  25.522  1.00  0.00     0.200 A 
ATOM     81  F   UNL A   1      44.265  27.302  24.916  1.00  0.00    -0.200 F 
ATOM     82  F   UNL A   1      43.349  24.772  24.463  1.00  0.00    -0.200 F 
ENDBRANCH  48  72
BRANCH  60  83
ATOM     83  C   UNL A   1      44.389  27.146  34.313  1.00  0.00     0.064 A 
ATOM     84  C   UNL A   1      45.666  27.713  34.432  1.00  0.00     0.173 A 
ATOM     85  C   UNL A   1      44.165  25.898  34.915  1.00  0.00     0.173 A 
ATOM     86  F   UNL A   1      45.935  28.898  33.861  1.00  0.00    -0.203 F 
ATOM     87  C   UNL A   1      46.685  27.046  35.106  1.00  0.00     0.198 A 
ATOM     88  C   UNL A   1      45.178  25.248  35.616  1.00  0.00     0.198 A 
ATOM     89  F   UNL A   1      42.959  25.317  34.837  1.00  0.00    -0.203 F 
ATOM     90  F   UNL A   1      47.910  27.585  35.170  1.00  0.00    -0.200 F 
ATOM     91  C   UNL A   1      46.437  25.819  35.705  1.00  0.00     0.200 A 
ATOM     92  F   UNL A   1      44.932  24.070  36.204  1.00  0.00    -0.200 F 
ATOM     93  F   UNL A   1      47.416  25.183  36.362  1.00  0.00    -0.200 F 
ENDBRANCH  60  83
ENDBRANCH  34  35
ENDBRANCH  27  29
ENDBRANCH  26  27
ENDBRANCH  25  26
ENDBRANCH  24  25
ENDBRANCH  23  24
ENDBRANCH   1  23
TORSDOF 20
ENDMDL
MODEL 2
REMARK VINA RESULT:     -10.5      1.176      2.436
REMARK SMILES Nc1cc(C(=O)OCCOCCOCCOC(=O)c2ccc(-c3c4nc(c(-c5c(F)c(F)c(F)c(F)c5F)c5ccc([nH]5)c(-c5c(F)c(F)c(F)c(F)c5F)c5nc(c(-c6c(F)c(F)c(F)c(F)c6F)c6ccc3[nH]6)C=C5)C=C4)cc2)c(O)c([N+](=O)[O-])c1
REMARK SMILES IDX 12 1 11 2 10 3 9 4 8 5 7 6 5 7 6 8 4 9 2 10 3 11 88 12 84 13
REMARK SMILES IDX 82 14 1 15 85 18 86 19 87 20 83 21 13 23 14 24 15 25 16 26
REMARK SMILES IDX 17 27 18 28 19 29 20 30 81 31 21 32 80 33 22 34 23 35 24 36
REMARK SMILES IDX 74 37 25 38 79 39 73 40 75 41 26 42 78 43 72 44 71 45 27 47
REMARK SMILES IDX 59 48 39 49 58 50 40 51 43 52 57 53 76 54 41 55 42 56 56 58
REMARK SMILES IDX 77 59 44 60 28 61 29 62 37 63 30 64 31 65 35 66 38 67 32 68
REMARK SMILES IDX 33 69 36 70 34 71 60 72 61 73 69 74 62 75 63 76 67 77 70 78
REMARK SMILES IDX 64 79 65 80 68 81 66 82 45 83 46 84 54 85 47 86 48 87 52 88
REMARK SMILES IDX 55 89 49 90 50 91 53 92 51 93
REMARK H PARENT 1 16 1 17 83 22 75 46 43 57
REMARK Flexibility Score: inf
ROOT
ATOM      1  C   UNL A   1      33.140  27.267  26.533  1.00  0.00     0.188 C 
ENDROOT
BRANCH   1   2
ATOM      2  C   UNL A   1      32.462  26.068  25.834  1.00  0.00     0.188 C 
BRANCH   2   3
ATOM      3  O   UNL A   1      32.762  25.744  24.491  1.00  0.00    -0.376 OA
BRANCH   3   4
ATOM      4  C   UNL A   1      33.697  26.533  23.766  1.00  0.00     0.202 C 
BRANCH   4   5
ATOM      5  C   UNL A   1      33.226  27.746  22.965  1.00  0.00     0.261 C 
BRANCH   5   6
ATOM      6  O   UNL A   1      31.876  28.122  23.268  1.00  0.00    -0.460 OA
BRANCH   6   7
ATOM      7  C   UNL A   1      30.946  27.706  22.376  1.00  0.00     0.342 C 
ATOM      8  O   UNL A   1      30.992  26.704  21.680  1.00  0.00    -0.246 OA
BRANCH   7   9
ATOM      9  C   UNL A   1      29.711  28.502  22.519  1.00  0.00     0.111 A 
ATOM     10  C   UNL A   1      27.380  28.470  23.239  1.00  0.00     0.039 A 
ATOM     11  C   UNL A   1      28.604  27.828  23.068  1.00  0.00     0.045 A 
ATOM     12  C   UNL A   1      27.278  29.814  22.884  1.00  0.00     0.115 A 
ATOM     13  C   UNL A   1      28.382  30.490  22.329  1.00  0.00     0.313 A 
ATOM     14  C   UNL A   1      29.615  29.847  22.153  1.00  0.00     0.209 A 
BRANCH  10  15
ATOM     15  N   UNL A   1      26.333  27.827  23.876  1.00  0.00    -0.398 N 
ATOM     16  H   UNL A   1      26.448  27.490  24.794  1.00  0.00     0.156 HD
ATOM     17  H   UNL A   1      25.473  27.707  23.412  1.00  0.00     0.156 HD
ENDBRANCH  10  15
BRANCH  13  18
ATOM     18  N   UNL A   1      28.201  31.886  21.929  1.00  0.00     0.066 N 
ATOM     19  O   UNL A   1      28.353  32.155  20.727  1.00  0.00    -0.258 OA
ATOM     20  O   UNL A   1      27.901  32.707  22.806  1.00  0.00    -0.258 OA
ENDBRANCH  13  18
BRANCH  14  21
ATOM     21  O   UNL A   1      30.720  30.453  21.622  1.00  0.00    -0.501 OA
ATOM     22  H   UNL A   1      30.736  30.689  20.716  1.00  0.00     0.293 HD
ENDBRANCH  14  21
ENDBRANCH   7   9
ENDBRANCH   6   7
ENDBRANCH   5   6
ENDBRANCH   4   5
ENDBRANCH   3   4
ENDBRANCH   2   3
ENDBRANCH   1   2
BRANCH   1  23
ATOM     23  O   UNL A   1      32.451  28.075  27.464  1.00  0.00    -0.376 OA
BRANCH  23  24
ATOM     24  C   UNL A   1      31.507  29.042  27.032  1.00  0.00     0.202 C 
BRANCH  24  25
ATOM     25  C   UNL A   1      31.868  30.520  26.863  1.00  0.00     0.261 C 
BRANCH  25  26
ATOM     26  O   UNL A   1      33.245  30.781  26.572  1.00  0.00    -0.460 OA
BRANCH  26  27
ATOM     27  C   UNL A   1      33.819  31.720  27.363  1.00  0.00     0.338 C 
ATOM     28  O   UNL A   1      33.336  32.765  27.755  1.00  0.00    -0.246 OA
BRANCH  27  29
ATOM     29  C   UNL A   1      35.117  31.220  27.842  1.00  0.00     0.060 A 
ATOM     30  C   UNL A   1      35.268  29.839  28.023  1.00  0.00     0.016 A 
ATOM     31  C   UNL A   1      36.144  32.103  28.176  1.00  0.00     0.016 A 
ATOM     32  C   UNL A   1      36.446  29.336  28.569  1.00  0.00     0.010 A 
ATOM     33  C   UNL A   1      37.316  31.599  28.743  1.00  0.00     0.010 A 
ATOM     34  C   UNL A   1      37.458  30.218  28.969  1.00  0.00    -0.014 A 
BRANCH  34  35
ATOM     35  C   UNL A   1      38.593  29.714  29.775  1.00  0.00     0.031 A 
ATOM     36  C   UNL A   1      38.783  30.250  31.166  1.00  0.00     0.074 A 
ATOM     37  C   UNL A   1      39.436  28.790  29.282  1.00  0.00     0.049 A 
ATOM     38  N   UNL A   1      39.730  29.999  32.032  1.00  0.00    -0.248 NA
ATOM     39  C   UNL A   1      37.763  31.198  31.644  1.00  0.00     0.031 C 
ATOM     40  C   UNL A   1      39.332  28.170  27.964  1.00  0.00     0.029 A 
ATOM     41  N   UNL A   1      40.556  28.224  29.837  1.00  0.00    -0.354 N 
ATOM     42  C   UNL A   1      39.427  30.762  33.152  1.00  0.00     0.074 A 
ATOM     43  C   UNL A   1      38.221  31.502  32.849  1.00  0.00     0.031 C 
ATOM     44  C   UNL A   1      40.360  27.318  27.803  1.00  0.00     0.029 A 
ATOM     45  C   UNL A   1      41.208  27.360  28.993  1.00  0.00     0.049 A 
ATOM     46  H   UNL A   1      40.863  28.419  30.752  1.00  0.00     0.167 HD
ATOM     47  C   UNL A   1      40.092  30.833  34.329  1.00  0.00     0.037 A 
ATOM     48  C   UNL A   1      42.371  26.700  29.159  1.00  0.00     0.037 A 
ATOM     49  C   UNL A   1      41.293  30.100  34.626  1.00  0.00     0.049 A 
ATOM     50  C   UNL A   1      43.133  26.857  30.452  1.00  0.00     0.074 A 
ATOM     51  C   UNL A   1      42.029  30.087  35.798  1.00  0.00     0.029 A 
ATOM     52  N   UNL A   1      41.939  29.253  33.737  1.00  0.00    -0.354 N 
ATOM     53  N   UNL A   1      42.823  27.552  31.519  1.00  0.00    -0.248 NA
ATOM     54  C   UNL A   1      44.409  26.134  30.560  1.00  0.00     0.031 C 
ATOM     55  C   UNL A   1      43.149  29.274  35.601  1.00  0.00     0.029 A 
ATOM     56  C   UNL A   1      43.082  28.735  34.326  1.00  0.00     0.049 A 
ATOM     57  H   UNL A   1      41.633  29.051  32.824  1.00  0.00     0.167 HD
ATOM     58  C   UNL A   1      43.844  27.325  32.435  1.00  0.00     0.074 A 
ATOM     59  C   UNL A   1      44.778  26.419  31.801  1.00  0.00     0.031 C 
ATOM     60  C   UNL A   1      43.994  27.821  33.687  1.00  0.00     0.037 A 
BRANCH  47  61
ATOM     61  C   UNL A   1      39.551  31.760  35.376  1.00  0.00     0.064 A 
ATOM     62  C   UNL A   1      38.611  31.330  36.325  1.00  0.00     0.173 A 
ATOM     63  C   UNL A   1      40.006  33.084  35.455  1.00  0.00     0.173 A 
ATOM     64  F   UNL A   1      38.133  30.078  36.283  1.00  0.00    -0.203 F 
ATOM     65  C   UNL A   1      38.133  32.200  37.302  1.00  0.00     0.198 A 
ATOM     66  C   UNL A   1      39.546  33.942  36.449  1.00  0.00     0.198 A 
ATOM     67  F   UNL A   1      40.905  33.543  34.571  1.00  0.00    -0.203 F 
ATOM     68  F   UNL A   1      37.205  31.780  38.174  1.00  0.00    -0.200 F 
ATOM     69  C   UNL A   1      38.606  33.502  37.368  1.00  0.00     0.200 A 
ATOM     70  F   UNL A   1      40.013  35.197  36.517  1.00  0.00    -0.200 F 
ATOM     71  F   UNL A   1      38.152  34.334  38.314  1.00  0.00    -0.200 F 
ENDBRANCH  47  61
BRANCH  48  72
ATOM     72  C   UNL A   1      42.904  25.838  28.072  1.00  0.00     0.064 A 
ATOM     73  C   UNL A   1      43.693  26.376  27.045  1.00  0.00     0.173 A 
ATOM     74  C   UNL A   1      42.607  24.469  28.018  1.00  0.00     0.173 A 
ATOM     75  F   UNL A   1      43.982  27.686  27.040  1.00  0.00    -0.203 F 
ATOM     76  C   UNL A   1      44.143  25.582  25.994  1.00  0.00     0.198 A 
ATOM     77  C   UNL A   1      43.082  23.670  26.980  1.00  0.00     0.198 A 
ATOM     78  F   UNL A   1      41.853  23.907  28.974  1.00  0.00    -0.203 F 
ATOM     79  F   UNL A   1      44.851  26.132  24.998  1.00  0.00    -0.200 F 
ATOM     80  C   UNL A   1      43.842  24.229  25.964  1.00  0.00     0.200 A 
ATOM     81  F   UNL A   1      42.797  22.361  26.961  1.00  0.00    -0.200 F 
ATOM     82  F   UNL A   1      44.275  23.466  24.950  1.00  0.00    -0.200 F 
ENDBRANCH  48  72
BRANCH  60  83
ATOM     83  C   UNL A   1      45.185  27.360  34.478  1.00  0.00     0.064 A 
ATOM     84  C   UNL A   1      45.127  26.233  35.311  1.00  0.00     0.173 A 
ATOM     85  C   UNL A   1      46.414  28.028  34.361  1.00  0.00     0.173 A 
ATOM     86  F   UNL A   1      43.972  25.568  35.468  1.00  0.00    -0.203 F 
ATOM     87  C   UNL A   1      46.249  25.807  36.018  1.00  0.00     0.198 A 
ATOM     88  C   UNL A   1      47.541  27.580  35.045  1.00  0.00     0.198 A 
ATOM     89  F   UNL A   1      46.524  29.107  33.571  1.00  0.00    -0.203 F 
ATOM     90  F   UNL A   1      46.159  24.755  36.843  1.00  0.00    -0.200 F 
ATOM     91  C   UNL A   1      47.455  26.476  35.877  1.00  0.00     0.200 A 
ATOM     92  F   UNL A   1      48.710  28.220  34.897  1.00  0.00    -0.200 F 
ATOM     93  F   UNL A   1      48.537  26.059  36.550  1.00  0.00    -0.200 F 
ENDBRANCH  60  83
ENDBRANCH  34  35
ENDBRANCH  27  29
ENDBRANCH  26  27
ENDBRANCH  25  26
ENDBRANCH  24  25
ENDBRANCH  23  24
ENDBRANCH   1  23
TORSDOF 20
ENDMDL
MODEL 3
REMARK VINA RESULT:     -10.5      4.634      9.465
REMARK SMILES Nc1cc(C(=O)OCCOCCOCCOC(=O)c2ccc(-c3c4nc(c(-c5c(F)c(F)c(F)c(F)c5F)c5ccc([nH]5)c(-c5c(F)c(F)c(F)c(F)c5F)c5nc(c(-c6c(F)c(F)c(F)c(F)c6F)c6ccc3[nH]6)C=C5)C=C4)cc2)c(O)c([N+](=O)[O-])c1
REMARK SMILES IDX 12 1 11 2 10 3 9 4 8 5 7 6 5 7 6 8 4 9 2 10 3 11 88 12 84 13
REMARK SMILES IDX 82 14 1 15 85 18 86 19 87 20 83 21 13 23 14 24 15 25 16 26
REMARK SMILES IDX 17 27 18 28 19 29 20 30 81 31 21 32 80 33 22 34 23 35 24 36
REMARK SMILES IDX 74 37 25 38 79 39 73 40 75 41 26 42 78 43 72 44 71 45 27 47
REMARK SMILES IDX 59 48 39 49 58 50 40 51 43 52 57 53 76 54 41 55 42 56 56 58
REMARK SMILES IDX 77 59 44 60 28 61 29 62 37 63 30 64 31 65 35 66 38 67 32 68
REMARK SMILES IDX 33 69 36 70 34 71 60 72 61 73 69 74 62 75 63 76 67 77 70 78
REMARK SMILES IDX 64 79 65 80 68 81 66 82 45 83 46 84 54 85 47 86 48 87 52 88
REMARK SMILES IDX 55 89 49 90 50 91 53 92 51 93
REMARK H PARENT 1 16 1 17 83 22 75 46 43 57
REMARK Flexibility Score: inf
ROOT
ATOM      1  C   UNL A   1      41.534  20.300  26.143  1.00  0.00     0.188 C 
ENDROOT
BRANCH   1   2
ATOM      2  C   UNL A   1      40.105  20.809  26.431  1.00  0.00     0.188 C 
BRANCH   2   3
ATOM      3  O   UNL A   1      39.582  21.935  25.753  1.00  0.00    -0.376 OA
BRANCH   3   4
ATOM      4  C   UNL A   1      38.217  22.289  25.923  1.00  0.00     0.202 C 
BRANCH   4   5
ATOM      5  C   UNL A   1      37.155  21.763  24.957  1.00  0.00     0.261 C 
BRANCH   5   6
ATOM      6  O   UNL A   1      36.286  20.796  25.561  1.00  0.00    -0.460 OA
BRANCH   6   7
ATOM      7  C   UNL A   1      35.050  21.247  25.878  1.00  0.00     0.342 C 
ATOM      8  O   UNL A   1      34.763  22.056  26.747  1.00  0.00    -0.246 OA
BRANCH   7   9
ATOM      9  C   UNL A   1      34.074  20.820  24.856  1.00  0.00     0.111 A 
ATOM     10  C   UNL A   1      32.297  21.553  23.353  1.00  0.00     0.039 A 
ATOM     11  C   UNL A   1      33.264  21.836  24.314  1.00  0.00     0.045 A 
ATOM     12  C   UNL A   1      32.166  20.238  22.908  1.00  0.00     0.115 A 
ATOM     13  C   UNL A   1      32.971  19.218  23.452  1.00  0.00     0.313 A 
ATOM     14  C   UNL A   1      33.943  19.498  24.422  1.00  0.00     0.209 A 
BRANCH  10  15
ATOM     15  N   UNL A   1      31.583  22.575  22.754  1.00  0.00    -0.398 N 
ATOM     16  H   UNL A   1      31.229  23.314  23.300  1.00  0.00     0.156 HD
ATOM     17  H   UNL A   1      31.430  22.565  21.782  1.00  0.00     0.156 HD
ENDBRANCH  10  15
BRANCH  13  18
ATOM     18  N   UNL A   1      32.753  17.849  22.983  1.00  0.00     0.066 N 
ATOM     19  O   UNL A   1      32.146  17.708  21.910  1.00  0.00    -0.258 OA
ATOM     20  O   UNL A   1      33.191  16.921  23.676  1.00  0.00    -0.258 OA
ENDBRANCH  13  18
BRANCH  14  21
ATOM     21  O   UNL A   1      34.753  18.550  24.983  1.00  0.00    -0.501 OA
ATOM     22  H   UNL A   1      34.890  17.732  24.547  1.00  0.00     0.293 HD
ENDBRANCH  14  21
ENDBRANCH   7   9
ENDBRANCH   6   7
ENDBRANCH   5   6
ENDBRANCH   4   5
ENDBRANCH   3   4
ENDBRANCH   2   3
ENDBRANCH   1   2
BRANCH   1  23
ATOM     23  O   UNL A   1      42.642  20.712  26.915  1.00  0.00    -0.376 OA
BRANCH  23  24
ATOM     24  C   UNL A   1      43.694  21.467  26.336  1.00  0.00     0.202 C 
BRANCH  24  25
ATOM     25  C   UNL A   1      43.637  21.979  24.894  1.00  0.00     0.261 C 
BRANCH  25  26
ATOM     26  O   UNL A   1      43.033  23.266  24.729  1.00  0.00    -0.460 OA
BRANCH  26  27
ATOM     27  C   UNL A   1      43.839  24.309  25.038  1.00  0.00     0.338 C 
ATOM     28  O   UNL A   1      44.931  24.576  24.571  1.00  0.00    -0.246 OA
BRANCH  27  29
ATOM     29  C   UNL A   1      43.126  25.218  25.949  1.00  0.00     0.060 A 
ATOM     30  C   UNL A   1      43.593  26.533  26.071  1.00  0.00     0.016 A 
ATOM     31  C   UNL A   1      42.060  24.761  26.724  1.00  0.00     0.016 A 
ATOM     32  C   UNL A   1      43.009  27.393  26.996  1.00  0.00     0.010 A 
ATOM     33  C   UNL A   1      41.489  25.619  27.666  1.00  0.00     0.010 A 
ATOM     34  C   UNL A   1      41.981  26.928  27.826  1.00  0.00    -0.014 A 
BRANCH  34  35
ATOM     35  C   UNL A   1      41.534  27.751  28.972  1.00  0.00     0.031 A 
ATOM     36  C   UNL A   1      42.282  27.642  30.272  1.00  0.00     0.074 A 
ATOM     37  C   UNL A   1      40.487  28.586  28.858  1.00  0.00     0.049 A 
ATOM     38  N   UNL A   1      42.042  28.220  31.420  1.00  0.00    -0.248 NA
ATOM     39  C   UNL A   1      43.461  26.761  30.274  1.00  0.00     0.031 C 
ATOM     40  C   UNL A   1      39.709  28.803  27.642  1.00  0.00     0.029 A 
ATOM     41  N   UNL A   1      39.893  29.397  29.792  1.00  0.00    -0.354 N 
ATOM     42  C   UNL A   1      43.032  27.768  32.282  1.00  0.00     0.074 A 
ATOM     43  C   UNL A   1      43.862  26.851  31.533  1.00  0.00     0.031 C 
ATOM     44  C   UNL A   1      38.726  29.681  27.907  1.00  0.00     0.029 A 
ATOM     45  C   UNL A   1      38.788  30.059  29.318  1.00  0.00     0.049 A 
ATOM     46  H   UNL A   1      40.228  29.495  30.712  1.00  0.00     0.167 HD
ATOM     47  C   UNL A   1      43.232  28.095  33.580  1.00  0.00     0.037 A 
ATOM     48  C   UNL A   1      37.915  30.857  29.962  1.00  0.00     0.037 A 
ATOM     49  C   UNL A   1      42.403  29.004  34.324  1.00  0.00     0.049 A 
ATOM     50  C   UNL A   1      38.117  31.144  31.429  1.00  0.00     0.074 A 
ATOM     51  C   UNL A   1      42.537  29.416  35.639  1.00  0.00     0.029 A 
ATOM     52  N   UNL A   1      41.276  29.635  33.819  1.00  0.00    -0.354 N 
ATOM     53  N   UNL A   1      39.075  30.742  32.229  1.00  0.00    -0.248 NA
ATOM     54  C   UNL A   1      37.114  31.998  32.082  1.00  0.00     0.031 C 
ATOM     55  C   UNL A   1      41.462  30.256  35.944  1.00  0.00     0.029 A 
ATOM     56  C   UNL A   1      40.689  30.413  34.804  1.00  0.00     0.049 A 
ATOM     57  H   UNL A   1      40.942  29.545  32.898  1.00  0.00     0.167 HD
ATOM     58  C   UNL A   1      38.809  31.319  33.466  1.00  0.00     0.074 A 
ATOM     59  C   UNL A   1      37.606  32.107  33.308  1.00  0.00     0.031 C 
ATOM     60  C   UNL A   1      39.499  31.205  34.627  1.00  0.00     0.037 A 
BRANCH  47  61
ATOM     61  C   UNL A   1      44.380  27.441  34.290  1.00  0.00     0.064 A 
ATOM     62  C   UNL A   1      45.645  28.045  34.357  1.00  0.00     0.173 A 
ATOM     63  C   UNL A   1      44.203  26.213  34.944  1.00  0.00     0.173 A 
ATOM     64  F   UNL A   1      45.870  29.212  33.735  1.00  0.00    -0.203 F 
ATOM     65  C   UNL A   1      46.694  27.432  35.036  1.00  0.00     0.198 A 
ATOM     66  C   UNL A   1      45.247  25.617  35.644  1.00  0.00     0.198 A 
ATOM     67  F   UNL A   1      43.012  25.595  34.911  1.00  0.00    -0.203 F 
ATOM     68  F   UNL A   1      47.906  28.007  35.053  1.00  0.00    -0.200 F 
ATOM     69  C   UNL A   1      46.493  26.224  35.686  1.00  0.00     0.200 A 
ATOM     70  F   UNL A   1      45.047  24.454  36.280  1.00  0.00    -0.200 F 
ATOM     71  F   UNL A   1      47.501  25.640  36.347  1.00  0.00    -0.200 F 
ENDBRANCH  47  61
BRANCH  48  72
ATOM     72  C   UNL A   1      36.755  31.437  29.236  1.00  0.00     0.064 A 
ATOM     73  C   UNL A   1      36.717  32.799  28.907  1.00  0.00     0.173 A 
ATOM     74  C   UNL A   1      35.648  30.650  28.887  1.00  0.00     0.173 A 
ATOM     75  F   UNL A   1      37.741  33.598  29.243  1.00  0.00    -0.203 F 
ATOM     76  C   UNL A   1      35.605  33.356  28.280  1.00  0.00     0.198 A 
ATOM     77  C   UNL A   1      34.549  31.203  28.234  1.00  0.00     0.198 A 
ATOM     78  F   UNL A   1      35.633  29.342  29.182  1.00  0.00    -0.203 F 
ATOM     79  F   UNL A   1      35.573  34.671  28.024  1.00  0.00    -0.200 F 
ATOM     80  C   UNL A   1      34.524  32.558  27.939  1.00  0.00     0.200 A 
ATOM     81  F   UNL A   1      33.511  30.426  27.898  1.00  0.00    -0.200 F 
ATOM     82  F   UNL A   1      33.454  33.096  27.337  1.00  0.00    -0.200 F 
ENDBRANCH  48  72
BRANCH  60  83
ATOM     83  C   UNL A   1      39.003  31.989  35.808  1.00  0.00     0.064 A 
ATOM     84  C   UNL A   1      38.199  31.404  36.798  1.00  0.00     0.173 A 
ATOM     85  C   UNL A   1      39.378  33.332  35.976  1.00  0.00     0.173 A 
ATOM     86  F   UNL A   1      37.801  30.128  36.677  1.00  0.00    -0.203 F 
ATOM     87  C   UNL A   1      37.768  32.141  37.898  1.00  0.00     0.198 A 
ATOM     88  C   UNL A   1      38.971  34.056  37.093  1.00  0.00     0.198 A 
ATOM     89  F   UNL A   1      40.152  33.936  35.062  1.00  0.00    -0.203 F 
ATOM     90  F   UNL A   1      36.963  31.575  38.808  1.00  0.00    -0.200 F 
ATOM     91  C   UNL A   1      38.161  33.462  38.048  1.00  0.00     0.200 A 
ATOM     92  F   UNL A   1      39.363  35.328  37.243  1.00  0.00    -0.200 F 
ATOM     93  F   UNL A   1      37.754  34.167  39.113  1.00  0.00    -0.200 F 
ENDBRANCH  60  83
ENDBRANCH  34  35
ENDBRANCH  27  29
ENDBRANCH  26  27
ENDBRANCH  25  26
ENDBRANCH  24  25
ENDBRANCH  23  24
ENDBRANCH   1  23
TORSDOF 20
ENDMDL
