MODEL 1
REMARK VINA RESULT:     -11.2      0.000      0.000
REMARK SMILES CCOc1cc2c(cc1OCC)[C@@H](C(=O)OCCOCCOCCOC(=O)c1ccc(-c3c4nc(c(-c5c(F)c(F)c(F)c(F)c5F)c5ccc([nH]5)c(-c5c(F)c(F)c(F)c(F)c5F)c5nc(c(-c6c(F)c(F)c(F)c(F)c6F)c6ccc3[nH]6)C=C5)C=C4)cc1)[C@H](c1ccc(F)cc1Cl)N(C)C2=O
REMARK SMILES IDX 20 1 19 2 18 3 17 4 16 5 14 6 15 7 13 8 4 9 5 10 9 11 6 12
REMARK SMILES IDX 8 13 7 14 102 15 100 16 103 17 91 18 101 19 3 20 2 21 1 22
REMARK SMILES IDX 10 23 11 24 12 25 92 26 93 27 98 28 94 29 97 30 99 31 95 32
REMARK SMILES IDX 96 33 21 34 22 35 23 36 24 37 25 38 26 39 27 40 28 41 29 42
REMARK SMILES IDX 90 43 30 44 89 45 31 46 32 47 33 48 83 49 34 50 88 51 82 52
REMARK SMILES IDX 84 53 35 54 87 55 81 56 80 57 36 59 68 60 48 61 67 62 49 63
REMARK SMILES IDX 52 64 66 65 85 66 50 67 51 68 65 70 86 71 53 72 37 73 38 74
REMARK SMILES IDX 46 75 39 76 40 77 44 78 47 79 41 80 42 81 45 82 43 83 69 84
REMARK SMILES IDX 70 85 78 86 71 87 72 88 76 89 79 90 73 91 74 92 77 93 75 94
REMARK SMILES IDX 54 95 55 96 63 97 56 98 57 99 61 100 64 101 58 102 59 103
REMARK SMILES IDX 62 104 60 105
REMARK H PARENT 84 58 52 69
REMARK Flexibility Score: inf
ROOT
ATOM      1  C   UNL A   1      31.691  28.552  27.278  1.00  0.00     0.188 C 
ENDROOT
BRANCH   1   2
ATOM      2  O   UNL A   1      31.390  27.175  27.140  1.00  0.00    -0.376 OA
BRANCH   2   3
ATOM      3  C   UNL A   1      30.642  26.774  25.993  1.00  0.00     0.202 C 
BRANCH   3   4
ATOM      4  C   UNL A   1      29.989  25.380  26.009  1.00  0.00     0.261 C 
BRANCH   4   5
ATOM      5  O   UNL A   1      30.801  24.293  25.498  1.00  0.00    -0.463 OA
BRANCH   5   6
ATOM      6  C   UNL A   1      31.509  23.611  26.428  1.00  0.00     0.316 C 
ATOM      7  O   UNL A   1      31.048  23.281  27.523  1.00  0.00    -0.251 OA
BRANCH   6   8
ATOM      8  C   UNL A   1      32.977  23.321  26.100  1.00  0.00     0.157 C 
ATOM      9  C   UNL A   1      33.346  25.024  22.201  1.00  0.00     0.161 A 
ATOM     10  C   UNL A   1      33.109  23.650  22.366  1.00  0.00     0.064 A 
ATOM     11  C   UNL A   1      33.534  25.848  23.322  1.00  0.00     0.161 A 
ATOM     12  C   UNL A   1      32.973  23.105  23.629  1.00  0.00     0.048 A 
ATOM     13  C   UNL A   1      33.472  25.274  24.590  1.00  0.00     0.056 A 
ATOM     14  C   UNL A   1      33.190  23.916  24.740  1.00  0.00    -0.015 A 
ATOM     15  C   UNL A   1      32.568  21.676  23.804  1.00  0.00     0.254 C 
ATOM     16  N   UNL A   1      32.867  21.106  25.041  1.00  0.00    -0.333 N 
ATOM     17  O   UNL A   1      32.003  21.081  22.894  1.00  0.00    -0.269 OA
ATOM     18  C   UNL A   1      33.565  21.877  26.064  1.00  0.00     0.135 C 
ATOM     19  C   UNL A   1      32.524  19.718  25.299  1.00  0.00     0.147 C 
BRANCH   9  20
ATOM     20  O   UNL A   1      33.469  25.510  20.927  1.00  0.00    -0.490 OA
BRANCH  20  21
ATOM     21  C   UNL A   1      32.734  24.758  19.949  1.00  0.00     0.226 C 
ATOM     22  C   UNL A   1      32.307  25.611  18.764  1.00  0.00     0.049 C 
ENDBRANCH  20  21
ENDBRANCH   9  20
BRANCH  11  23
ATOM     23  O   UNL A   1      33.761  27.190  23.414  1.00  0.00    -0.490 OA
BRANCH  23  24
ATOM     24  C   UNL A   1      33.051  28.101  22.593  1.00  0.00     0.226 C 
ATOM     25  C   UNL A   1      31.561  27.832  22.683  1.00  0.00     0.049 C 
ENDBRANCH  23  24
ENDBRANCH  11  23
BRANCH  18  26
ATOM     26  C   UNL A   1      35.130  21.901  25.901  1.00  0.00    -0.005 A 
ATOM     27  C   UNL A   1      35.787  23.083  26.338  1.00  0.00     0.010 A 
ATOM     28  C   UNL A   1      35.968  20.908  25.324  1.00  0.00     0.049 A 
ATOM     29  C   UNL A   1      37.160  23.292  26.148  1.00  0.00     0.040 A 
ATOM     30  C   UNL A   1      37.345  21.127  25.142  1.00  0.00     0.060 A 
ATOM     31  Cl  UNL A   1      35.485  19.339  24.789  1.00  0.00    -0.084 Cl
ATOM     32  C   UNL A   1      37.925  22.314  25.541  1.00  0.00     0.124 A 
ATOM     33  F   UNL A   1      39.235  22.511  25.348  1.00  0.00    -0.207 F 
ENDBRANCH  18  26
ENDBRANCH   6   8
ENDBRANCH   5   6
ENDBRANCH   4   5
ENDBRANCH   3   4
ENDBRANCH   2   3
ENDBRANCH   1   2
BRANCH   1  34
ATOM     34  C   UNL A   1      31.962  29.347  26.000  1.00  0.00     0.188 C 
BRANCH  34  35
ATOM     35  O   UNL A   1      31.719  30.738  26.063  1.00  0.00    -0.376 OA
BRANCH  35  36
ATOM     36  C   UNL A   1      32.432  31.502  27.035  1.00  0.00     0.202 C 
BRANCH  36  37
ATOM     37  C   UNL A   1      32.217  33.029  27.038  1.00  0.00     0.261 C 
BRANCH  37  38
ATOM     38  O   UNL A   1      32.164  33.682  28.330  1.00  0.00    -0.460 OA
BRANCH  38  39
ATOM     39  C   UNL A   1      33.034  34.691  28.591  1.00  0.00     0.338 C 
ATOM     40  O   UNL A   1      32.783  35.875  28.600  1.00  0.00    -0.246 OA
BRANCH  39  41
ATOM     41  C   UNL A   1      34.279  34.099  29.183  1.00  0.00     0.060 A 
ATOM     42  C   UNL A   1      34.139  32.976  30.016  1.00  0.00     0.016 A 
ATOM     43  C   UNL A   1      35.561  34.542  28.843  1.00  0.00     0.016 A 
ATOM     44  C   UNL A   1      35.266  32.315  30.523  1.00  0.00     0.010 A 
ATOM     45  C   UNL A   1      36.688  33.892  29.368  1.00  0.00     0.010 A 
ATOM     46  C   UNL A   1      36.551  32.788  30.229  1.00  0.00    -0.014 A 
BRANCH  46  47
ATOM     47  C   UNL A   1      37.737  32.265  30.963  1.00  0.00     0.031 A 
ATOM     48  C   UNL A   1      38.549  31.173  30.318  1.00  0.00     0.074 A 
ATOM     49  C   UNL A   1      38.107  32.733  32.169  1.00  0.00     0.049 A 
ATOM     50  N   UNL A   1      39.562  30.492  30.789  1.00  0.00    -0.248 NA
ATOM     51  C   UNL A   1      38.156  30.802  28.950  1.00  0.00     0.031 C 
ATOM     52  C   UNL A   1      37.461  33.824  32.891  1.00  0.00     0.029 A 
ATOM     53  N   UNL A   1      39.122  32.329  33.008  1.00  0.00    -0.354 N 
ATOM     54  C   UNL A   1      39.922  29.605  29.781  1.00  0.00     0.074 A 
ATOM     55  C   UNL A   1      38.998  29.815  28.687  1.00  0.00     0.031 C 
ATOM     56  C   UNL A   1      38.085  33.995  34.072  1.00  0.00     0.029 A 
ATOM     57  C   UNL A   1      39.146  32.996  34.209  1.00  0.00     0.049 A 
ATOM     58  H   UNL A   1      39.769  31.627  32.769  1.00  0.00     0.167 HD
ATOM     59  C   UNL A   1      40.931  28.701  29.763  1.00  0.00     0.037 A 
ATOM     60  C   UNL A   1      39.913  32.803  35.302  1.00  0.00     0.037 A 
ATOM     61  C   UNL A   1      41.845  28.477  30.853  1.00  0.00     0.049 A 
ATOM     62  C   UNL A   1      40.952  31.706  35.309  1.00  0.00     0.074 A 
ATOM     63  C   UNL A   1      42.908  27.594  30.918  1.00  0.00     0.029 A 
ATOM     64  N   UNL A   1      41.793  29.130  32.076  1.00  0.00    -0.354 N 
ATOM     65  N   UNL A   1      41.301  30.887  34.347  1.00  0.00    -0.248 NA
ATOM     66  C   UNL A   1      41.697  31.502  36.561  1.00  0.00     0.031 C 
ATOM     67  C   UNL A   1      43.457  27.662  32.204  1.00  0.00     0.029 A 
ATOM     68  C   UNL A   1      42.778  28.637  32.917  1.00  0.00     0.049 A 
ATOM     69  H   UNL A   1      41.152  29.838  32.311  1.00  0.00     0.167 HD
ATOM     70  C   UNL A   1      42.317  30.092  34.867  1.00  0.00     0.074 A 
ATOM     71  C   UNL A   1      42.543  30.537  36.224  1.00  0.00     0.031 C 
ATOM     72  C   UNL A   1      42.999  29.081  34.271  1.00  0.00     0.037 A 
BRANCH  59  73
ATOM     73  C   UNL A   1      41.069  27.851  28.532  1.00  0.00     0.064 A 
ATOM     74  C   UNL A   1      41.845  28.257  27.436  1.00  0.00     0.173 A 
ATOM     75  C   UNL A   1      40.418  26.610  28.451  1.00  0.00     0.173 A 
ATOM     76  F   UNL A   1      42.476  29.441  27.454  1.00  0.00    -0.203 F 
ATOM     77  C   UNL A   1      41.931  27.470  26.289  1.00  0.00     0.198 A 
ATOM     78  C   UNL A   1      40.537  25.811  27.318  1.00  0.00     0.198 A 
ATOM     79  F   UNL A   1      39.668  26.171  29.473  1.00  0.00    -0.203 F 
ATOM     80  F   UNL A   1      42.624  27.910  25.229  1.00  0.00    -0.200 F 
ATOM     81  C   UNL A   1      41.282  26.247  26.234  1.00  0.00     0.200 A 
ATOM     82  F   UNL A   1      39.920  24.621  27.272  1.00  0.00    -0.200 F 
ATOM     83  F   UNL A   1      41.365  25.491  25.129  1.00  0.00    -0.200 F 
ENDBRANCH  59  73
BRANCH  60  84
ATOM     84  C   UNL A   1      39.716  33.650  36.512  1.00  0.00     0.064 A 
ATOM     85  C   UNL A   1      38.892  33.227  37.564  1.00  0.00     0.173 A 
ATOM     86  C   UNL A   1      40.320  34.912  36.626  1.00  0.00     0.173 A 
ATOM     87  F   UNL A   1      38.261  32.046  37.486  1.00  0.00    -0.203 F 
ATOM     88  C   UNL A   1      38.673  34.034  38.679  1.00  0.00     0.198 A 
ATOM     89  C   UNL A   1      40.123  35.706  37.755  1.00  0.00     0.198 A 
ATOM     90  F   UNL A   1      41.103  35.373  35.641  1.00  0.00    -0.203 F 
ATOM     91  F   UNL A   1      37.842  33.625  39.647  1.00  0.00    -0.200 F 
ATOM     92  C   UNL A   1      39.296  35.270  38.778  1.00  0.00     0.200 A 
ATOM     93  F   UNL A   1      40.732  36.896  37.849  1.00  0.00    -0.200 F 
ATOM     94  F   UNL A   1      39.089  36.044  39.851  1.00  0.00    -0.200 F 
ENDBRANCH  60  84
BRANCH  72  95
ATOM     95  C   UNL A   1      44.073  28.393  35.069  1.00  0.00     0.064 A 
ATOM     96  C   UNL A   1      43.804  27.248  35.835  1.00  0.00     0.173 A 
ATOM     97  C   UNL A   1      45.400  28.849  35.021  1.00  0.00     0.173 A 
ATOM     98  F   UNL A   1      42.552  26.776  35.926  1.00  0.00    -0.203 F 
ATOM     99  C   UNL A   1      44.818  26.599  36.537  1.00  0.00     0.198 A 
ATOM    100  C   UNL A   1      46.417  28.178  35.699  1.00  0.00     0.198 A 
ATOM    101  F   UNL A   1      45.718  29.934  34.299  1.00  0.00    -0.203 F 
ATOM    102  F   UNL A   1      44.528  25.533  37.296  1.00  0.00    -0.200 F 
ATOM    103  C   UNL A   1      46.124  27.059  36.461  1.00  0.00     0.200 A 
ATOM    104  F   UNL A   1      47.681  28.615  35.608  1.00  0.00    -0.200 F 
ATOM    105  F   UNL A   1      47.099  26.426  37.127  1.00  0.00    -0.200 F 
ENDBRANCH  72  95
ENDBRANCH  46  47
ENDBRANCH  39  41
ENDBRANCH  38  39
ENDBRANCH  37  38
ENDBRANCH  36  37
ENDBRANCH  35  36
ENDBRANCH  34  35
ENDBRANCH   1  34
TORSDOF 22
ENDMDL
MODEL 2
REMARK VINA RESULT:     -10.8      1.086      6.794
REMARK SMILES CCOc1cc2c(cc1OCC)[C@@H](C(=O)OCCOCCOCCOC(=O)c1ccc(-c3c4nc(c(-c5c(F)c(F)c(F)c(F)c5F)c5ccc([nH]5)c(-c5c(F)c(F)c(F)c(F)c5F)c5nc(c(-c6c(F)c(F)c(F)c(F)c6F)c6ccc3[nH]6)C=C5)C=C4)cc1)[C@H](c1ccc(F)cc1Cl)N(C)C2=O
REMARK SMILES IDX 20 1 19 2 18 3 17 4 16 5 14 6 15 7 13 8 4 9 5 10 9 11 6 12
REMARK SMILES IDX 8 13 7 14 102 15 100 16 103 17 91 18 101 19 3 20 2 21 1 22
REMARK SMILES IDX 10 23 11 24 12 25 92 26 93 27 98 28 94 29 97 30 99 31 95 32
REMARK SMILES IDX 96 33 21 34 22 35 23 36 24 37 25 38 26 39 27 40 28 41 29 42
REMARK SMILES IDX 90 43 30 44 89 45 31 46 32 47 33 48 83 49 34 50 88 51 82 52
REMARK SMILES IDX 84 53 35 54 87 55 81 56 80 57 36 59 68 60 48 61 67 62 49 63
REMARK SMILES IDX 52 64 66 65 85 66 50 67 51 68 65 70 86 71 53 72 37 73 38 74
REMARK SMILES IDX 46 75 39 76 40 77 44 78 47 79 41 80 42 81 45 82 43 83 69 84
REMARK SMILES IDX 70 85 78 86 71 87 72 88 76 89 79 90 73 91 74 92 77 93 75 94
REMARK SMILES IDX 54 95 55 96 63 97 56 98 57 99 61 100 64 101 58 102 59 103
REMARK SMILES IDX 62 104 60 105
REMARK H PARENT 84 58 52 69
REMARK Flexibility Score: inf
ROOT
ATOM      1  C   UNL A   1      31.796  28.574  27.133  1.00  0.00     0.188 C 
ENDROOT
BRANCH   1   2
ATOM      2  O   UNL A   1      31.335  27.239  27.036  1.00  0.00    -0.376 OA
BRANCH   2   3
ATOM      3  C   UNL A   1      30.638  26.865  25.848  1.00  0.00     0.202 C 
BRANCH   3   4
ATOM      4  C   UNL A   1      29.994  25.468  25.800  1.00  0.00     0.261 C 
BRANCH   4   5
ATOM      5  O   UNL A   1      30.822  24.405  25.265  1.00  0.00    -0.463 OA
BRANCH   5   6
ATOM      6  C   UNL A   1      31.545  23.717  26.180  1.00  0.00     0.316 C 
ATOM      7  O   UNL A   1      31.106  23.388  27.284  1.00  0.00    -0.251 OA
BRANCH   6   8
ATOM      8  C   UNL A   1      33.005  23.420  25.821  1.00  0.00     0.157 C 
ATOM      9  C   UNL A   1      33.261  24.995  21.860  1.00  0.00     0.161 A 
ATOM     10  C   UNL A   1      33.033  23.626  22.076  1.00  0.00     0.064 A 
ATOM     11  C   UNL A   1      33.478  25.856  22.948  1.00  0.00     0.161 A 
ATOM     12  C   UNL A   1      32.934  23.123  23.359  1.00  0.00     0.048 A 
ATOM     13  C   UNL A   1      33.452  25.323  24.235  1.00  0.00     0.056 A 
ATOM     14  C   UNL A   1      33.178  23.971  24.437  1.00  0.00    -0.015 A 
ATOM     15  C   UNL A   1      32.538  21.700  23.592  1.00  0.00     0.254 C 
ATOM     16  N   UNL A   1      32.873  21.171  24.838  1.00  0.00    -0.333 N 
ATOM     17  O   UNL A   1      31.951  21.074  22.719  1.00  0.00    -0.269 OA
ATOM     18  C   UNL A   1      33.597  21.978  25.816  1.00  0.00     0.135 C 
ATOM     19  C   UNL A   1      32.542  19.792  25.151  1.00  0.00     0.147 C 
BRANCH   9  20
ATOM     20  O   UNL A   1      33.348  25.439  20.568  1.00  0.00    -0.490 OA
BRANCH  20  21
ATOM     21  C   UNL A   1      32.579  24.661  19.637  1.00  0.00     0.226 C 
ATOM     22  C   UNL A   1      31.990  25.511  18.521  1.00  0.00     0.049 C 
ENDBRANCH  20  21
ENDBRANCH   9  20
BRANCH  11  23
ATOM     23  O   UNL A   1      33.703  27.201  22.989  1.00  0.00    -0.490 OA
BRANCH  23  24
ATOM     24  C   UNL A   1      32.669  28.117  22.673  1.00  0.00     0.226 C 
ATOM     25  C   UNL A   1      31.362  27.377  22.462  1.00  0.00     0.049 C 
ENDBRANCH  23  24
ENDBRANCH  11  23
BRANCH  18  26
ATOM     26  C   UNL A   1      35.156  22.000  25.610  1.00  0.00    -0.005 A 
ATOM     27  C   UNL A   1      35.731  20.825  25.055  1.00  0.00     0.010 A 
ATOM     28  C   UNL A   1      36.074  23.029  25.957  1.00  0.00     0.049 A 
ATOM     29  C   UNL A   1      37.117  20.656  24.924  1.00  0.00     0.040 A 
ATOM     30  C   UNL A   1      37.462  22.851  25.818  1.00  0.00     0.060 A 
ATOM     31  Cl  UNL A   1      35.679  24.598  26.560  1.00  0.00    -0.084 Cl
ATOM     32  C   UNL A   1      37.970  21.670  25.317  1.00  0.00     0.124 A 
ATOM     33  F   UNL A   1      39.295  21.513  25.203  1.00  0.00    -0.207 F 
ENDBRANCH  18  26
ENDBRANCH   6   8
ENDBRANCH   5   6
ENDBRANCH   4   5
ENDBRANCH   3   4
ENDBRANCH   2   3
ENDBRANCH   1   2
BRANCH   1  34
ATOM     34  C   UNL A   1      31.704  29.446  25.879  1.00  0.00     0.188 C 
BRANCH  34  35
ATOM     35  O   UNL A   1      31.464  30.823  26.089  1.00  0.00    -0.376 OA
BRANCH  35  36
ATOM     36  C   UNL A   1      32.357  31.539  26.942  1.00  0.00     0.202 C 
BRANCH  36  37
ATOM     37  C   UNL A   1      32.234  33.077  26.970  1.00  0.00     0.261 C 
BRANCH  37  38
ATOM     38  O   UNL A   1      32.454  33.728  28.245  1.00  0.00    -0.460 OA
BRANCH  38  39
ATOM     39  C   UNL A   1      33.531  34.542  28.388  1.00  0.00     0.338 C 
ATOM     40  O   UNL A   1      33.526  35.753  28.377  1.00  0.00    -0.246 OA
BRANCH  39  41
ATOM     41  C   UNL A   1      34.682  33.719  28.885  1.00  0.00     0.060 A 
ATOM     42  C   UNL A   1      34.391  32.508  29.534  1.00  0.00     0.016 A 
ATOM     43  C   UNL A   1      36.016  34.049  28.621  1.00  0.00     0.016 A 
ATOM     44  C   UNL A   1      35.419  31.644  29.935  1.00  0.00     0.010 A 
ATOM     45  C   UNL A   1      37.045  33.193  29.041  1.00  0.00     0.010 A 
ATOM     46  C   UNL A   1      36.757  31.996  29.721  1.00  0.00    -0.014 A 
BRANCH  46  47
ATOM     47  C   UNL A   1      37.856  31.225  30.368  1.00  0.00     0.031 A 
ATOM     48  C   UNL A   1      38.190  31.530  31.804  1.00  0.00     0.074 A 
ATOM     49  C   UNL A   1      38.550  30.271  29.720  1.00  0.00     0.049 A 
ATOM     50  N   UNL A   1      39.155  31.067  32.557  1.00  0.00    -0.248 NA
ATOM     51  C   UNL A   1      37.308  32.494  32.479  1.00  0.00     0.031 C 
ATOM     52  C   UNL A   1      38.305  29.822  28.354  1.00  0.00     0.029 A 
ATOM     53  N   UNL A   1      39.623  29.515  30.135  1.00  0.00    -0.354 N 
ATOM     54  C   UNL A   1      39.004  31.690  33.790  1.00  0.00     0.074 A 
ATOM     55  C   UNL A   1      37.873  32.586  33.672  1.00  0.00     0.031 C 
ATOM     56  C   UNL A   1      39.211  28.878  28.036  1.00  0.00     0.029 A 
ATOM     57  C   UNL A   1      40.128  28.688  29.161  1.00  0.00     0.049 A 
ATOM     58  H   UNL A   1      39.995  29.563  31.046  1.00  0.00     0.167 HD
ATOM     59  C   UNL A   1      39.735  31.531  34.919  1.00  0.00     0.037 A 
ATOM     60  C   UNL A   1      41.220  27.894  29.165  1.00  0.00     0.037 A 
ATOM     61  C   UNL A   1      40.869  30.651  35.040  1.00  0.00     0.049 A 
ATOM     62  C   UNL A   1      42.094  27.823  30.395  1.00  0.00     0.074 A 
ATOM     63  C   UNL A   1      41.660  30.413  36.149  1.00  0.00     0.029 A 
ATOM     64  N   UNL A   1      41.385  29.881  34.009  1.00  0.00    -0.354 N 
ATOM     65  N   UNL A   1      41.934  28.397  31.562  1.00  0.00    -0.248 NA
ATOM     66  C   UNL A   1      43.310  26.998  30.301  1.00  0.00     0.031 C 
ATOM     67  C   UNL A   1      42.695  29.550  35.773  1.00  0.00     0.029 A 
ATOM     68  C   UNL A   1      42.511  29.199  34.445  1.00  0.00     0.049 A 
ATOM     69  H   UNL A   1      41.008  29.825  33.101  1.00  0.00     0.167 HD
ATOM     70  C   UNL A   1      43.008  27.986  32.345  1.00  0.00     0.074 A 
ATOM     71  C   UNL A   1      43.805  27.099  31.527  1.00  0.00     0.031 C 
ATOM     72  C   UNL A   1      43.305  28.318  33.627  1.00  0.00     0.037 A 
BRANCH  59  73
ATOM     73  C   UNL A   1      39.350  32.363  36.109  1.00  0.00     0.064 A 
ATOM     74  C   UNL A   1      39.911  33.628  36.341  1.00  0.00     0.173 A 
ATOM     75  C   UNL A   1      38.403  31.888  37.030  1.00  0.00     0.173 A 
ATOM     76  F   UNL A   1      40.833  34.123  35.500  1.00  0.00    -0.203 F 
ATOM     77  C   UNL A   1      39.568  34.369  37.470  1.00  0.00     0.198 A 
ATOM     78  C   UNL A   1      38.035  32.648  38.136  1.00  0.00     0.198 A 
ATOM     79  F   UNL A   1      37.830  30.688  36.854  1.00  0.00    -0.203 F 
ATOM     80  F   UNL A   1      40.167  35.544  37.704  1.00  0.00    -0.200 F 
ATOM     81  C   UNL A   1      38.627  33.881  38.362  1.00  0.00     0.200 A 
ATOM     82  F   UNL A   1      37.114  32.180  38.991  1.00  0.00    -0.200 F 
ATOM     83  F   UNL A   1      38.298  34.594  39.449  1.00  0.00    -0.200 F 
ENDBRANCH  59  73
BRANCH  60  84
ATOM     84  C   UNL A   1      41.578  27.112  27.948  1.00  0.00     0.064 A 
ATOM     85  C   UNL A   1      41.093  25.811  27.757  1.00  0.00     0.173 A 
ATOM     86  C   UNL A   1      42.438  27.636  26.970  1.00  0.00     0.173 A 
ATOM     87  F   UNL A   1      40.300  25.250  28.681  1.00  0.00    -0.203 F 
ATOM     88  C   UNL A   1      41.459  25.061  26.640  1.00  0.00     0.198 A 
ATOM     89  C   UNL A   1      42.780  26.896  25.839  1.00  0.00     0.198 A 
ATOM     90  F   UNL A   1      42.945  28.869  27.113  1.00  0.00    -0.203 F 
ATOM     91  F   UNL A   1      41.019  23.803  26.507  1.00  0.00    -0.200 F 
ATOM     92  C   UNL A   1      42.295  25.608  25.677  1.00  0.00     0.200 A 
ATOM     93  F   UNL A   1      43.583  27.431  24.909  1.00  0.00    -0.200 F 
ATOM     94  F   UNL A   1      42.643  24.889  24.602  1.00  0.00    -0.200 F 
ENDBRANCH  60  84
BRANCH  72  95
ATOM     95  C   UNL A   1      44.535  27.707  34.242  1.00  0.00     0.064 A 
ATOM     96  C   UNL A   1      44.512  26.431  34.825  1.00  0.00     0.173 A 
ATOM     97  C   UNL A   1      45.765  28.382  34.198  1.00  0.00     0.173 A 
ATOM     98  F   UNL A   1      43.361  25.746  34.905  1.00  0.00    -0.203 F 
ATOM     99  C   UNL A   1      45.669  25.863  35.355  1.00  0.00     0.198 A 
ATOM    100  C   UNL A   1      46.926  27.797  34.701  1.00  0.00     0.198 A 
ATOM    101  F   UNL A   1      45.849  29.602  33.646  1.00  0.00    -0.203 F 
ATOM    102  F   UNL A   1      45.613  24.660  35.945  1.00  0.00    -0.200 F 
ATOM    103  C   UNL A   1      46.876  26.542  35.285  1.00  0.00     0.200 A 
ATOM    104  F   UNL A   1      48.094  28.449  34.614  1.00  0.00    -0.200 F 
ATOM    105  F   UNL A   1      47.989  25.988  35.784  1.00  0.00    -0.200 F 
ENDBRANCH  72  95
ENDBRANCH  46  47
ENDBRANCH  39  41
ENDBRANCH  38  39
ENDBRANCH  37  38
ENDBRANCH  36  37
ENDBRANCH  35  36
ENDBRANCH  34  35
ENDBRANCH   1  34
TORSDOF 22
ENDMDL
MODEL 3
REMARK VINA RESULT:     -10.6      1.542      3.295
REMARK SMILES CCOc1cc2c(cc1OCC)[C@@H](C(=O)OCCOCCOCCOC(=O)c1ccc(-c3c4nc(c(-c5c(F)c(F)c(F)c(F)c5F)c5ccc([nH]5)c(-c5c(F)c(F)c(F)c(F)c5F)c5nc(c(-c6c(F)c(F)c(F)c(F)c6F)c6ccc3[nH]6)C=C5)C=C4)cc1)[C@H](c1ccc(F)cc1Cl)N(C)C2=O
REMARK SMILES IDX 20 1 19 2 18 3 17 4 16 5 14 6 15 7 13 8 4 9 5 10 9 11 6 12
REMARK SMILES IDX 8 13 7 14 102 15 100 16 103 17 91 18 101 19 3 20 2 21 1 22
REMARK SMILES IDX 10 23 11 24 12 25 92 26 93 27 98 28 94 29 97 30 99 31 95 32
REMARK SMILES IDX 96 33 21 34 22 35 23 36 24 37 25 38 26 39 27 40 28 41 29 42
REMARK SMILES IDX 90 43 30 44 89 45 31 46 32 47 33 48 83 49 34 50 88 51 82 52
REMARK SMILES IDX 84 53 35 54 87 55 81 56 80 57 36 59 68 60 48 61 67 62 49 63
REMARK SMILES IDX 52 64 66 65 85 66 50 67 51 68 65 70 86 71 53 72 37 73 38 74
REMARK SMILES IDX 46 75 39 76 40 77 44 78 47 79 41 80 42 81 45 82 43 83 69 84
REMARK SMILES IDX 70 85 78 86 71 87 72 88 76 89 79 90 73 91 74 92 77 93 75 94
REMARK SMILES IDX 54 95 55 96 63 97 56 98 57 99 61 100 64 101 58 102 59 103
REMARK SMILES IDX 62 104 60 105
REMARK H PARENT 84 58 52 69
REMARK Flexibility Score: inf
ROOT
ATOM      1  C   UNL A   1      34.374  28.617  25.293  1.00  0.00     0.188 C 
ENDROOT
BRANCH   1   2
ATOM      2  O   UNL A   1      33.665  29.020  24.135  1.00  0.00    -0.376 OA
BRANCH   2   3
ATOM      3  C   UNL A   1      32.941  28.020  23.421  1.00  0.00     0.202 C 
BRANCH   3   4
ATOM      4  C   UNL A   1      33.580  27.438  22.148  1.00  0.00     0.261 C 
BRANCH   4   5
ATOM      5  O   UNL A   1      34.135  26.104  22.269  1.00  0.00    -0.463 OA
BRANCH   5   6
ATOM      6  C   UNL A   1      33.407  25.118  21.694  1.00  0.00     0.316 C 
ATOM      7  O   UNL A   1      32.952  25.189  20.551  1.00  0.00    -0.251 OA
BRANCH   6   8
ATOM      8  C   UNL A   1      33.086  23.901  22.568  1.00  0.00     0.157 C 
ATOM      9  C   UNL A   1      31.524  25.750  26.087  1.00  0.00     0.161 A 
ATOM     10  C   UNL A   1      32.869  25.350  26.021  1.00  0.00     0.064 A 
ATOM     11  C   UNL A   1      30.655  25.483  25.018  1.00  0.00     0.161 A 
ATOM     12  C   UNL A   1      33.375  24.768  24.874  1.00  0.00     0.048 A 
ATOM     13  C   UNL A   1      31.157  24.826  23.897  1.00  0.00     0.056 A 
ATOM     14  C   UNL A   1      32.505  24.477  23.827  1.00  0.00    -0.015 A 
ATOM     15  C   UNL A   1      34.837  24.484  24.745  1.00  0.00     0.254 C 
ATOM     16  N   UNL A   1      35.190  23.537  23.784  1.00  0.00    -0.333 N 
ATOM     17  O   UNL A   1      35.644  25.073  25.453  1.00  0.00    -0.269 OA
ATOM     18  C   UNL A   1      34.164  22.860  22.997  1.00  0.00     0.135 C 
ATOM     19  C   UNL A   1      36.587  23.185  23.595  1.00  0.00     0.147 C 
BRANCH   9  20
ATOM     20  O   UNL A   1      31.078  26.325  27.246  1.00  0.00    -0.490 OA
BRANCH  20  21
ATOM     21  C   UNL A   1      31.639  27.622  27.501  1.00  0.00     0.226 C 
ATOM     22  C   UNL A   1      31.054  28.695  26.594  1.00  0.00     0.049 C 
ENDBRANCH  20  21
ENDBRANCH   9  20
BRANCH  11  23
ATOM     23  O   UNL A   1      29.334  25.781  24.848  1.00  0.00    -0.490 OA
BRANCH  23  24
ATOM     24  C   UNL A   1      28.865  26.315  23.622  1.00  0.00     0.226 C 
ATOM     25  C   UNL A   1      29.276  27.769  23.494  1.00  0.00     0.049 C 
ENDBRANCH  23  24
ENDBRANCH  11  23
BRANCH  18  26
ATOM     26  C   UNL A   1      33.511  21.621  23.714  1.00  0.00    -0.005 A 
ATOM     27  C   UNL A   1      33.942  21.368  25.044  1.00  0.00     0.010 A 
ATOM     28  C   UNL A   1      32.579  20.689  23.181  1.00  0.00     0.049 A 
ATOM     29  C   UNL A   1      33.535  20.235  25.763  1.00  0.00     0.040 A 
ATOM     30  C   UNL A   1      32.175  19.557  23.912  1.00  0.00     0.060 A 
ATOM     31  Cl  UNL A   1      31.805  20.775  21.640  1.00  0.00    -0.084 Cl
ATOM     32  C   UNL A   1      32.662  19.334  25.184  1.00  0.00     0.124 A 
ATOM     33  F   UNL A   1      32.277  18.245  25.861  1.00  0.00    -0.207 F 
ENDBRANCH  18  26
ENDBRANCH   6   8
ENDBRANCH   5   6
ENDBRANCH   4   5
ENDBRANCH   3   4
ENDBRANCH   2   3
ENDBRANCH   1   2
BRANCH   1  34
ATOM     34  C   UNL A   1      34.332  29.546  26.507  1.00  0.00     0.188 C 
BRANCH  34  35
ATOM     35  O   UNL A   1      33.411  30.616  26.447  1.00  0.00    -0.376 OA
BRANCH  35  36
ATOM     36  C   UNL A   1      33.339  31.505  27.562  1.00  0.00     0.202 C 
BRANCH  36  37
ATOM     37  C   UNL A   1      33.213  33.013  27.262  1.00  0.00     0.261 C 
BRANCH  37  38
ATOM     38  O   UNL A   1      32.506  33.818  28.237  1.00  0.00    -0.460 OA
BRANCH  38  39
ATOM     39  C   UNL A   1      33.149  34.866  28.813  1.00  0.00     0.338 C 
ATOM     40  O   UNL A   1      32.735  35.999  28.914  1.00  0.00    -0.246 OA
BRANCH  39  41
ATOM     41  C   UNL A   1      34.315  34.333  29.591  1.00  0.00     0.060 A 
ATOM     42  C   UNL A   1      35.603  34.548  29.072  1.00  0.00     0.016 A 
ATOM     43  C   UNL A   1      34.176  33.750  30.854  1.00  0.00     0.016 A 
ATOM     44  C   UNL A   1      36.741  34.164  29.795  1.00  0.00     0.010 A 
ATOM     45  C   UNL A   1      35.315  33.348  31.569  1.00  0.00     0.010 A 
ATOM     46  C   UNL A   1      36.605  33.531  31.037  1.00  0.00    -0.014 A 
BRANCH  46  47
ATOM     47  C   UNL A   1      37.778  32.886  31.691  1.00  0.00     0.031 A 
ATOM     48  C   UNL A   1      38.404  31.695  31.017  1.00  0.00     0.074 A 
ATOM     49  C   UNL A   1      38.296  33.333  32.851  1.00  0.00     0.049 A 
ATOM     50  N   UNL A   1      39.366  30.908  31.428  1.00  0.00    -0.248 NA
ATOM     51  C   UNL A   1      37.862  31.344  29.695  1.00  0.00     0.031 C 
ATOM     52  C   UNL A   1      37.840  34.507  33.588  1.00  0.00     0.029 A 
ATOM     53  N   UNL A   1      39.321  32.829  33.619  1.00  0.00    -0.354 N 
ATOM     54  C   UNL A   1      39.539  29.966  30.422  1.00  0.00     0.074 A 
ATOM     55  C   UNL A   1      38.559  30.260  29.397  1.00  0.00     0.031 C 
ATOM     56  C   UNL A   1      38.573  34.627  34.711  1.00  0.00     0.029 A 
ATOM     57  C   UNL A   1      39.519  33.513  34.795  1.00  0.00     0.049 A 
ATOM     58  H   UNL A   1      39.862  32.051  33.351  1.00  0.00     0.167 HD
ATOM     59  C   UNL A   1      40.432  28.949  30.352  1.00  0.00     0.037 A 
ATOM     60  C   UNL A   1      40.345  33.253  35.830  1.00  0.00     0.037 A 
ATOM     61  C   UNL A   1      41.399  28.642  31.373  1.00  0.00     0.049 A 
ATOM     62  C   UNL A   1      41.248  32.043  35.788  1.00  0.00     0.074 A 
ATOM     63  C   UNL A   1      42.355  27.641  31.381  1.00  0.00     0.029 A 
ATOM     64  N   UNL A   1      41.522  29.320  32.576  1.00  0.00    -0.354 N 
ATOM     65  N   UNL A   1      41.421  31.168  34.826  1.00  0.00    -0.248 NA
ATOM     66  C   UNL A   1      42.064  31.778  36.984  1.00  0.00     0.031 C 
ATOM     67  C   UNL A   1      43.010  27.671  32.617  1.00  0.00     0.029 A 
ATOM     68  C   UNL A   1      42.509  28.732  33.353  1.00  0.00     0.049 A 
ATOM     69  H   UNL A   1      40.988  30.104  32.840  1.00  0.00     0.167 HD
ATOM     70  C   UNL A   1      42.377  30.270  35.288  1.00  0.00     0.074 A 
ATOM     71  C   UNL A   1      42.762  30.714  36.611  1.00  0.00     0.031 C 
ATOM     72  C   UNL A   1      42.888  29.175  34.671  1.00  0.00     0.037 A 
BRANCH  59  73
ATOM     73  C   UNL A   1      40.371  28.065  29.139  1.00  0.00     0.064 A 
ATOM     74  C   UNL A   1      39.605  26.889  29.116  1.00  0.00     0.173 A 
ATOM     75  C   UNL A   1      41.089  28.401  27.980  1.00  0.00     0.173 A 
ATOM     76  F   UNL A   1      38.913  26.513  30.203  1.00  0.00    -0.203 F 
ATOM     77  C   UNL A   1      39.592  26.064  27.994  1.00  0.00     0.198 A 
ATOM     78  C   UNL A   1      41.043  27.593  26.848  1.00  0.00     0.198 A 
ATOM     79  F   UNL A   1      41.833  29.517  27.945  1.00  0.00    -0.203 F 
ATOM     80  F   UNL A   1      38.906  24.913  28.021  1.00  0.00    -0.200 F 
ATOM     81  C   UNL A   1      40.305  26.419  26.860  1.00  0.00     0.200 A 
ATOM     82  F   UNL A   1      41.722  27.946  25.748  1.00  0.00    -0.200 F 
ATOM     83  F   UNL A   1      40.293  25.623  25.781  1.00  0.00    -0.200 F 
ENDBRANCH  59  73
BRANCH  60  84
ATOM     84  C   UNL A   1      40.345  34.142  37.026  1.00  0.00     0.064 A 
ATOM     85  C   UNL A   1      39.451  33.930  38.084  1.00  0.00     0.173 A 
ATOM     86  C   UNL A   1      41.217  35.239  37.121  1.00  0.00     0.173 A 
ATOM     87  F   UNL A   1      38.571  32.919  38.024  1.00  0.00    -0.203 F 
ATOM     88  C   UNL A   1      39.421  34.783  39.186  1.00  0.00     0.198 A 
ATOM     89  C   UNL A   1      41.206  36.074  38.237  1.00  0.00     0.198 A 
ATOM     90  F   UNL A   1      42.081  35.497  36.129  1.00  0.00    -0.203 F 
ATOM     91  F   UNL A   1      38.522  34.586  40.159  1.00  0.00    -0.200 F 
ATOM     92  C   UNL A   1      40.304  35.850  39.266  1.00  0.00     0.200 A 
ATOM     93  F   UNL A   1      42.066  37.099  38.312  1.00  0.00    -0.200 F 
ATOM     94  F   UNL A   1      40.278  36.667  40.326  1.00  0.00    -0.200 F 
ENDBRANCH  60  84
BRANCH  72  95
ATOM     95  C   UNL A   1      43.936  28.382  35.403  1.00  0.00     0.064 A 
ATOM     96  C   UNL A   1      45.305  28.653  35.252  1.00  0.00     0.173 A 
ATOM     97  C   UNL A   1      43.566  27.376  36.310  1.00  0.00     0.173 A 
ATOM     98  F   UNL A   1      45.715  29.595  34.390  1.00  0.00    -0.203 F 
ATOM     99  C   UNL A   1      46.262  27.935  35.967  1.00  0.00     0.198 A 
ATOM    100  C   UNL A   1      44.524  26.683  37.047  1.00  0.00     0.198 A 
ATOM    101  F   UNL A   1      42.272  27.079  36.501  1.00  0.00    -0.203 F 
ATOM    102  F   UNL A   1      47.565  28.183  35.775  1.00  0.00    -0.200 F 
ATOM    103  C   UNL A   1      45.871  26.958  36.870  1.00  0.00     0.200 A 
ATOM    104  F   UNL A   1      44.142  25.752  37.932  1.00  0.00    -0.200 F 
ATOM    105  F   UNL A   1      46.793  26.278  37.566  1.00  0.00    -0.200 F 
ENDBRANCH  72  95
ENDBRANCH  46  47
ENDBRANCH  39  41
ENDBRANCH  38  39
ENDBRANCH  37  38
ENDBRANCH  36  37
ENDBRANCH  35  36
ENDBRANCH  34  35
ENDBRANCH   1  34
TORSDOF 22
ENDMDL
