MODEL 1
REMARK VINA RESULT:     -11.8      0.000      0.000
REMARK SMILES Cc1ccc(F)c(-c2ncccc2C(=O)OCCOCCOCCOC(=O)c2ccc(-c3c4nc(c(-c5c(F)c(F)c(F)c(F)c5F)c5ccc([nH]5)c(-c5c(F)c(F)c(F)c(F)c5F)c5nc(c(-c6c(F)c(F)c(F)c(F)c6F)c6ccc3[nH]6)C=C5)C=C4)cc2)c1
REMARK SMILES IDX 21 1 20 2 19 3 18 4 17 5 16 6 14 7 15 8 13 9 8 10 9 11 10 12
REMARK SMILES IDX 12 13 11 14 7 15 1 16 2 17 3 18 91 19 4 20 5 21 6 22 22 23
REMARK SMILES IDX 23 24 24 25 25 26 26 27 27 28 28 29 29 30 90 31 30 32 89 33
REMARK SMILES IDX 31 34 32 35 33 36 83 37 34 38 88 39 82 40 84 41 35 42 87 43
REMARK SMILES IDX 81 44 80 45 36 47 68 48 48 49 67 50 49 51 52 52 66 53 85 54
REMARK SMILES IDX 50 55 51 56 65 58 86 59 53 60 37 61 38 62 46 63 39 64 40 65
REMARK SMILES IDX 44 66 47 67 41 68 42 69 45 70 43 71 69 72 70 73 78 74 71 75
REMARK SMILES IDX 72 76 76 77 79 78 73 79 74 80 77 81 75 82 54 83 55 84 63 85
REMARK SMILES IDX 56 86 57 87 61 88 64 89 58 90 59 91 62 92 60 93
REMARK H PARENT 84 46 52 57
REMARK Flexibility Score: inf
ROOT
ATOM      1  C   UNL A   1      34.475  29.682  27.269  1.00  0.00     0.188 C 
ENDROOT
BRANCH   1   2
ATOM      2  C   UNL A   1      33.996  28.800  26.098  1.00  0.00     0.188 C 
BRANCH   2   3
ATOM      3  O   UNL A   1      32.589  28.665  26.039  1.00  0.00    -0.376 OA
BRANCH   3   4
ATOM      4  C   UNL A   1      32.010  27.764  26.969  1.00  0.00     0.202 C 
BRANCH   4   5
ATOM      5  C   UNL A   1      31.227  26.572  26.397  1.00  0.00     0.261 C 
BRANCH   5   6
ATOM      6  O   UNL A   1      32.002  25.434  25.981  1.00  0.00    -0.460 OA
BRANCH   6   7
ATOM      7  C   UNL A   1      31.487  24.582  25.062  1.00  0.00     0.340 C 
ATOM      8  O   UNL A   1      30.691  23.687  25.290  1.00  0.00    -0.246 OA
BRANCH   7   9
ATOM      9  C   UNL A   1      31.995  24.985  23.721  1.00  0.00     0.086 A 
ATOM     10  C   UNL A   1      33.218  24.527  23.218  1.00  0.00     0.088 A 
ATOM     11  N   UNL A   1      33.653  24.842  21.964  1.00  0.00    -0.255 NA
ATOM     12  C   UNL A   1      32.871  25.632  21.198  1.00  0.00     0.112 A 
ATOM     13  C   UNL A   1      31.201  25.790  22.887  1.00  0.00     0.019 A 
ATOM     14  C   UNL A   1      31.644  26.118  21.608  1.00  0.00     0.021 A 
BRANCH  10  15
ATOM     15  C   UNL A   1      34.090  23.576  23.907  1.00  0.00     0.037 A 
ATOM     16  C   UNL A   1      37.335  23.609  25.925  1.00  0.00     0.044 C 
ATOM     17  C   UNL A   1      36.100  23.121  25.228  1.00  0.00    -0.050 A 
ATOM     18  C   UNL A   1      35.795  21.756  25.205  1.00  0.00     0.006 A 
ATOM     19  C   UNL A   1      35.220  24.023  24.614  1.00  0.00     0.016 A 
ATOM     20  C   UNL A   1      34.649  21.301  24.551  1.00  0.00     0.040 A 
ATOM     21  C   UNL A   1      33.814  22.208  23.902  1.00  0.00     0.132 A 
ATOM     22  F   UNL A   1      32.729  21.740  23.267  1.00  0.00    -0.206 F 
ENDBRANCH  10  15
ENDBRANCH   7   9
ENDBRANCH   6   7
ENDBRANCH   5   6
ENDBRANCH   4   5
ENDBRANCH   3   4
ENDBRANCH   2   3
ENDBRANCH   1   2
BRANCH   1  23
ATOM     23  O   UNL A   1      33.656  30.666  27.895  1.00  0.00    -0.376 OA
BRANCH  23  24
ATOM     24  C   UNL A   1      33.932  32.051  27.776  1.00  0.00     0.202 C 
BRANCH  24  25
ATOM     25  C   UNL A   1      34.917  32.660  28.779  1.00  0.00     0.261 C 
BRANCH  25  26
ATOM     26  O   UNL A   1      36.282  32.499  28.416  1.00  0.00    -0.460 OA
BRANCH  26  27
ATOM     27  C   UNL A   1      37.040  31.972  29.400  1.00  0.00     0.338 C 
ATOM     28  O   UNL A   1      37.382  32.474  30.454  1.00  0.00    -0.246 OA
BRANCH  27  29
ATOM     29  C   UNL A   1      37.415  30.612  29.014  1.00  0.00     0.060 A 
ATOM     30  C   UNL A   1      37.255  29.586  29.960  1.00  0.00     0.016 A 
ATOM     31  C   UNL A   1      38.142  30.440  27.838  1.00  0.00     0.016 A 
ATOM     32  C   UNL A   1      38.028  28.449  29.849  1.00  0.00     0.010 A 
ATOM     33  C   UNL A   1      38.923  29.317  27.734  1.00  0.00     0.010 A 
ATOM     34  C   UNL A   1      38.960  28.423  28.818  1.00  0.00    -0.014 A 
BRANCH  34  35
ATOM     35  C   UNL A   1      40.279  27.856  29.041  1.00  0.00     0.031 A 
ATOM     36  C   UNL A   1      40.639  26.536  28.527  1.00  0.00     0.074 A 
ATOM     37  C   UNL A   1      41.191  28.729  29.530  1.00  0.00     0.049 A 
ATOM     38  N   UNL A   1      41.703  25.902  28.873  1.00  0.00    -0.248 NA
ATOM     39  C   UNL A   1      39.792  25.793  27.603  1.00  0.00     0.031 C 
ATOM     40  C   UNL A   1      42.641  28.684  29.407  1.00  0.00     0.029 A 
ATOM     41  N   UNL A   1      40.947  29.832  30.371  1.00  0.00    -0.354 N 
ATOM     42  C   UNL A   1      41.834  24.825  28.030  1.00  0.00     0.074 A 
ATOM     43  C   UNL A   1      40.579  24.749  27.317  1.00  0.00     0.031 C 
ATOM     44  C   UNL A   1      43.179  29.529  30.305  1.00  0.00     0.029 A 
ATOM     45  C   UNL A   1      42.098  29.981  31.168  1.00  0.00     0.049 A 
ATOM     46  H   UNL A   1      40.135  30.388  30.396  1.00  0.00     0.167 HD
ATOM     47  C   UNL A   1      43.051  24.218  27.930  1.00  0.00     0.037 A 
ATOM     48  C   UNL A   1      42.048  29.758  32.516  1.00  0.00     0.037 A 
ATOM     49  C   UNL A   1      44.016  24.851  28.823  1.00  0.00     0.049 A 
ATOM     50  C   UNL A   1      42.951  28.633  32.966  1.00  0.00     0.074 A 
ATOM     51  C   UNL A   1      44.925  25.878  28.622  1.00  0.00     0.029 A 
ATOM     52  N   UNL A   1      43.876  24.709  30.197  1.00  0.00    -0.354 N 
ATOM     53  N   UNL A   1      43.339  27.663  32.186  1.00  0.00    -0.248 NA
ATOM     54  C   UNL A   1      43.467  28.500  34.325  1.00  0.00     0.031 C 
ATOM     55  C   UNL A   1      45.293  26.392  29.889  1.00  0.00     0.029 A 
ATOM     56  C   UNL A   1      44.631  25.658  30.858  1.00  0.00     0.049 A 
ATOM     57  H   UNL A   1      43.318  24.029  30.637  1.00  0.00     0.167 HD
ATOM     58  C   UNL A   1      44.137  26.803  32.889  1.00  0.00     0.074 A 
ATOM     59  C   UNL A   1      44.192  27.371  34.223  1.00  0.00     0.031 C 
ATOM     60  C   UNL A   1      44.672  25.690  32.310  1.00  0.00     0.037 A 
BRANCH  47  61
ATOM     61  C   UNL A   1      43.436  23.285  26.811  1.00  0.00     0.064 A 
ATOM     62  C   UNL A   1      43.069  21.922  26.853  1.00  0.00     0.173 A 
ATOM     63  C   UNL A   1      44.199  23.660  25.692  1.00  0.00     0.173 A 
ATOM     64  F   UNL A   1      42.268  21.439  27.812  1.00  0.00    -0.203 F 
ATOM     65  C   UNL A   1      43.520  20.994  25.912  1.00  0.00     0.198 A 
ATOM     66  C   UNL A   1      44.694  22.724  24.779  1.00  0.00     0.198 A 
ATOM     67  F   UNL A   1      44.452  24.948  25.425  1.00  0.00    -0.203 F 
ATOM     68  F   UNL A   1      43.144  19.712  26.011  1.00  0.00    -0.200 F 
ATOM     69  C   UNL A   1      44.363  21.389  24.894  1.00  0.00     0.200 A 
ATOM     70  F   UNL A   1      45.498  23.126  23.784  1.00  0.00    -0.200 F 
ATOM     71  F   UNL A   1      44.831  20.492  24.017  1.00  0.00    -0.200 F 
ENDBRANCH  47  61
BRANCH  48  72
ATOM     72  C   UNL A   1      40.722  30.060  33.124  1.00  0.00     0.064 A 
ATOM     73  C   UNL A   1      40.383  31.401  33.392  1.00  0.00     0.173 A 
ATOM     74  C   UNL A   1      39.683  29.122  33.108  1.00  0.00     0.173 A 
ATOM     75  F   UNL A   1      41.344  32.338  33.423  1.00  0.00    -0.203 F 
ATOM     76  C   UNL A   1      39.055  31.799  33.542  1.00  0.00     0.198 A 
ATOM     77  C   UNL A   1      38.354  29.525  33.257  1.00  0.00     0.198 A 
ATOM     78  F   UNL A   1      39.935  27.832  32.849  1.00  0.00    -0.203 F 
ATOM     79  F   UNL A   1      38.761  33.093  33.728  1.00  0.00    -0.200 F 
ATOM     80  C   UNL A   1      38.040  30.864  33.445  1.00  0.00     0.200 A 
ATOM     81  F   UNL A   1      37.367  28.626  33.129  1.00  0.00    -0.200 F 
ATOM     82  F   UNL A   1      36.757  31.250  33.490  1.00  0.00    -0.200 F 
ENDBRANCH  48  72
BRANCH  60  83
ATOM     83  C   UNL A   1      45.339  24.542  33.021  1.00  0.00     0.064 A 
ATOM     84  C   UNL A   1      46.651  24.591  33.514  1.00  0.00     0.173 A 
ATOM     85  C   UNL A   1      44.579  23.408  33.403  1.00  0.00     0.173 A 
ATOM     86  F   UNL A   1      47.438  25.653  33.300  1.00  0.00    -0.203 F 
ATOM     87  C   UNL A   1      47.174  23.568  34.310  1.00  0.00     0.198 A 
ATOM     88  C   UNL A   1      45.083  22.424  34.248  1.00  0.00     0.198 A 
ATOM     89  F   UNL A   1      43.312  23.243  32.997  1.00  0.00    -0.203 F 
ATOM     90  F   UNL A   1      48.442  23.646  34.736  1.00  0.00    -0.200 F 
ATOM     91  C   UNL A   1      46.385  22.499  34.693  1.00  0.00     0.200 A 
ATOM     92  F   UNL A   1      44.289  21.422  34.650  1.00  0.00    -0.200 F 
ATOM     93  F   UNL A   1      46.873  21.554  35.509  1.00  0.00    -0.200 F 
ENDBRANCH  60  83
ENDBRANCH  34  35
ENDBRANCH  27  29
ENDBRANCH  26  27
ENDBRANCH  25  26
ENDBRANCH  24  25
ENDBRANCH  23  24
ENDBRANCH   1  23
TORSDOF 18
ENDMDL
MODEL 2
REMARK VINA RESULT:     -11.7      3.975     10.066
REMARK SMILES Cc1ccc(F)c(-c2ncccc2C(=O)OCCOCCOCCOC(=O)c2ccc(-c3c4nc(c(-c5c(F)c(F)c(F)c(F)c5F)c5ccc([nH]5)c(-c5c(F)c(F)c(F)c(F)c5F)c5nc(c(-c6c(F)c(F)c(F)c(F)c6F)c6ccc3[nH]6)C=C5)C=C4)cc2)c1
REMARK SMILES IDX 21 1 20 2 19 3 18 4 17 5 16 6 14 7 15 8 13 9 8 10 9 11 10 12
REMARK SMILES IDX 12 13 11 14 7 15 1 16 2 17 3 18 91 19 4 20 5 21 6 22 22 23
REMARK SMILES IDX 23 24 24 25 25 26 26 27 27 28 28 29 29 30 90 31 30 32 89 33
REMARK SMILES IDX 31 34 32 35 33 36 83 37 34 38 88 39 82 40 84 41 35 42 87 43
REMARK SMILES IDX 81 44 80 45 36 47 68 48 48 49 67 50 49 51 52 52 66 53 85 54
REMARK SMILES IDX 50 55 51 56 65 58 86 59 53 60 37 61 38 62 46 63 39 64 40 65
REMARK SMILES IDX 44 66 47 67 41 68 42 69 45 70 43 71 69 72 70 73 78 74 71 75
REMARK SMILES IDX 72 76 76 77 79 78 73 79 74 80 77 81 75 82 54 83 55 84 63 85
REMARK SMILES IDX 56 86 57 87 61 88 64 89 58 90 59 91 62 92 60 93
REMARK H PARENT 84 46 52 57
REMARK Flexibility Score: inf
ROOT
ATOM      1  C   UNL A   1      37.907  21.137  25.383  1.00  0.00     0.188 C 
ENDROOT
BRANCH   1   2
ATOM      2  C   UNL A   1      36.485  21.735  25.373  1.00  0.00     0.188 C 
BRANCH   2   3
ATOM      3  O   UNL A   1      35.954  21.891  24.070  1.00  0.00    -0.376 OA
BRANCH   3   4
ATOM      4  C   UNL A   1      35.736  23.223  23.640  1.00  0.00     0.202 C 
BRANCH   4   5
ATOM      5  C   UNL A   1      34.319  23.586  23.168  1.00  0.00     0.261 C 
BRANCH   5   6
ATOM      6  O   UNL A   1      33.737  24.775  23.731  1.00  0.00    -0.460 OA
BRANCH   6   7
ATOM      7  C   UNL A   1      33.815  24.983  25.067  1.00  0.00     0.340 C 
ATOM      8  O   UNL A   1      34.728  25.545  25.646  1.00  0.00    -0.246 OA
BRANCH   7   9
ATOM      9  C   UNL A   1      32.554  24.487  25.687  1.00  0.00     0.086 A 
ATOM     10  C   UNL A   1      31.459  25.327  25.922  1.00  0.00     0.088 A 
ATOM     11  N   UNL A   1      30.281  24.861  26.428  1.00  0.00    -0.255 NA
ATOM     12  C   UNL A   1      30.187  23.545  26.715  1.00  0.00     0.112 A 
ATOM     13  C   UNL A   1      32.411  23.122  25.981  1.00  0.00     0.019 A 
ATOM     14  C   UNL A   1      31.211  22.643  26.502  1.00  0.00     0.021 A 
BRANCH  10  15
ATOM     15  C   UNL A   1      31.404  26.738  25.544  1.00  0.00     0.037 A 
ATOM     16  C   UNL A   1      32.280  30.142  27.044  1.00  0.00     0.044 C 
ATOM     17  C   UNL A   1      31.802  29.093  26.086  1.00  0.00    -0.050 A 
ATOM     18  C   UNL A   1      31.271  29.459  24.844  1.00  0.00     0.006 A 
ATOM     19  C   UNL A   1      31.902  27.731  26.407  1.00  0.00     0.016 A 
ATOM     20  C   UNL A   1      30.820  28.482  23.956  1.00  0.00     0.040 A 
ATOM     21  C   UNL A   1      30.881  27.137  24.313  1.00  0.00     0.132 A 
ATOM     22  F   UNL A   1      30.424  26.221  23.445  1.00  0.00    -0.206 F 
ENDBRANCH  10  15
ENDBRANCH   7   9
ENDBRANCH   6   7
ENDBRANCH   5   6
ENDBRANCH   4   5
ENDBRANCH   3   4
ENDBRANCH   2   3
ENDBRANCH   1   2
BRANCH   1  23
ATOM     23  O   UNL A   1      39.069  21.883  25.736  1.00  0.00    -0.376 OA
BRANCH  23  24
ATOM     24  C   UNL A   1      40.154  21.290  26.429  1.00  0.00     0.202 C 
BRANCH  24  25
ATOM     25  C   UNL A   1      41.531  21.941  26.265  1.00  0.00     0.261 C 
BRANCH  25  26
ATOM     26  O   UNL A   1      41.503  23.362  26.285  1.00  0.00    -0.460 OA
BRANCH  26  27
ATOM     27  C   UNL A   1      41.486  23.880  27.530  1.00  0.00     0.338 C 
ATOM     28  O   UNL A   1      42.127  23.543  28.509  1.00  0.00    -0.246 OA
BRANCH  27  29
ATOM     29  C   UNL A   1      40.537  24.994  27.554  1.00  0.00     0.060 A 
ATOM     30  C   UNL A   1      40.669  25.998  26.582  1.00  0.00     0.016 A 
ATOM     31  C   UNL A   1      39.722  25.138  28.675  1.00  0.00     0.016 A 
ATOM     32  C   UNL A   1      40.171  27.256  26.849  1.00  0.00     0.010 A 
ATOM     33  C   UNL A   1      39.239  26.392  28.950  1.00  0.00     0.010 A 
ATOM     34  C   UNL A   1      39.608  27.453  28.105  1.00  0.00    -0.014 A 
BRANCH  34  35
ATOM     35  C   UNL A   1      39.840  28.696  28.822  1.00  0.00     0.031 A 
ATOM     36  C   UNL A   1      38.802  29.719  28.932  1.00  0.00     0.074 A 
ATOM     37  C   UNL A   1      40.972  28.713  29.565  1.00  0.00     0.049 A 
ATOM     38  N   UNL A   1      39.018  30.911  29.362  1.00  0.00    -0.248 NA
ATOM     39  C   UNL A   1      37.425  29.491  28.513  1.00  0.00     0.031 C 
ATOM     40  C   UNL A   1      41.267  29.516  30.743  1.00  0.00     0.029 A 
ATOM     41  N   UNL A   1      42.174  28.031  29.299  1.00  0.00    -0.354 N 
ATOM     42  C   UNL A   1      37.796  31.510  29.549  1.00  0.00     0.074 A 
ATOM     43  C   UNL A   1      36.841  30.622  28.926  1.00  0.00     0.031 C 
ATOM     44  C   UNL A   1      42.592  29.486  30.969  1.00  0.00     0.029 A 
ATOM     45  C   UNL A   1      43.206  28.834  29.821  1.00  0.00     0.049 A 
ATOM     46  H   UNL A   1      42.274  27.165  28.841  1.00  0.00     0.167 HD
ATOM     47  C   UNL A   1      37.726  32.614  30.345  1.00  0.00     0.037 A 
ATOM     48  C   UNL A   1      44.111  29.434  28.992  1.00  0.00     0.037 A 
ATOM     49  C   UNL A   1      39.051  32.982  30.834  1.00  0.00     0.049 A 
ATOM     50  C   UNL A   1      44.087  30.943  29.077  1.00  0.00     0.074 A 
ATOM     51  C   UNL A   1      39.733  32.646  31.993  1.00  0.00     0.029 A 
ATOM     52  N   UNL A   1      39.996  33.479  29.948  1.00  0.00    -0.354 N 
ATOM     53  N   UNL A   1      43.047  31.626  29.467  1.00  0.00    -0.248 NA
ATOM     54  C   UNL A   1      45.213  31.796  28.712  1.00  0.00     0.031 C 
ATOM     55  C   UNL A   1      41.110  32.896  31.779  1.00  0.00     0.029 A 
ATOM     56  C   UNL A   1      41.259  33.411  30.503  1.00  0.00     0.049 A 
ATOM     57  H   UNL A   1      39.795  33.831  29.051  1.00  0.00     0.167 HD
ATOM     58  C   UNL A   1      43.337  32.962  29.425  1.00  0.00     0.074 A 
ATOM     59  C   UNL A   1      44.707  33.020  28.950  1.00  0.00     0.031 C 
ATOM     60  C   UNL A   1      42.415  33.905  29.775  1.00  0.00     0.037 A 
BRANCH  47  61
ATOM     61  C   UNL A   1      36.443  33.153  30.925  1.00  0.00     0.064 A 
ATOM     62  C   UNL A   1      35.599  33.985  30.156  1.00  0.00     0.173 A 
ATOM     63  C   UNL A   1      36.009  32.923  32.242  1.00  0.00     0.173 A 
ATOM     64  F   UNL A   1      35.838  34.221  28.859  1.00  0.00    -0.203 F 
ATOM     65  C   UNL A   1      34.476  34.617  30.693  1.00  0.00     0.198 A 
ATOM     66  C   UNL A   1      34.915  33.596  32.795  1.00  0.00     0.198 A 
ATOM     67  F   UNL A   1      36.604  32.007  33.017  1.00  0.00    -0.203 F 
ATOM     68  F   UNL A   1      33.719  35.401  29.914  1.00  0.00    -0.200 F 
ATOM     69  C   UNL A   1      34.154  34.450  32.024  1.00  0.00     0.200 A 
ATOM     70  F   UNL A   1      34.604  33.410  34.086  1.00  0.00    -0.200 F 
ATOM     71  F   UNL A   1      33.103  35.091  32.552  1.00  0.00    -0.200 F 
ENDBRANCH  47  61
BRANCH  48  72
ATOM     72  C   UNL A   1      44.373  28.672  27.739  1.00  0.00     0.064 A 
ATOM     73  C   UNL A   1      45.230  27.555  27.786  1.00  0.00     0.173 A 
ATOM     74  C   UNL A   1      43.542  28.802  26.620  1.00  0.00     0.173 A 
ATOM     75  F   UNL A   1      46.051  27.387  28.836  1.00  0.00    -0.203 F 
ATOM     76  C   UNL A   1      45.187  26.564  26.806  1.00  0.00     0.198 A 
ATOM     77  C   UNL A   1      43.500  27.806  25.641  1.00  0.00     0.198 A 
ATOM     78  F   UNL A   1      42.695  29.836  26.518  1.00  0.00    -0.203 F 
ATOM     79  F   UNL A   1      45.967  25.480  26.915  1.00  0.00    -0.200 F 
ATOM     80  C   UNL A   1      44.301  26.677  25.749  1.00  0.00     0.200 A 
ATOM     81  F   UNL A   1      42.618  27.897  24.635  1.00  0.00    -0.200 F 
ATOM     82  F   UNL A   1      44.182  25.685  24.855  1.00  0.00    -0.200 F 
ENDBRANCH  48  72
BRANCH  60  83
ATOM     83  C   UNL A   1      42.512  35.388  29.530  1.00  0.00     0.064 A 
ATOM     84  C   UNL A   1      43.320  36.248  30.286  1.00  0.00     0.173 A 
ATOM     85  C   UNL A   1      41.926  35.954  28.370  1.00  0.00     0.173 A 
ATOM     86  F   UNL A   1      44.001  35.809  31.352  1.00  0.00    -0.203 F 
ATOM     87  C   UNL A   1      43.508  37.585  29.924  1.00  0.00     0.198 A 
ATOM     88  C   UNL A   1      42.168  37.267  27.978  1.00  0.00     0.198 A 
ATOM     89  F   UNL A   1      41.132  35.235  27.562  1.00  0.00    -0.203 F 
ATOM     90  F   UNL A   1      44.268  38.377  30.693  1.00  0.00    -0.200 F 
ATOM     91  C   UNL A   1      42.951  38.087  28.762  1.00  0.00     0.200 A 
ATOM     92  F   UNL A   1      41.662  37.721  26.823  1.00  0.00    -0.200 F 
ATOM     93  F   UNL A   1      43.187  39.351  28.387  1.00  0.00    -0.200 F 
ENDBRANCH  60  83
ENDBRANCH  34  35
ENDBRANCH  27  29
ENDBRANCH  26  27
ENDBRANCH  25  26
ENDBRANCH  24  25
ENDBRANCH  23  24
ENDBRANCH   1  23
TORSDOF 18
ENDMDL
MODEL 3
REMARK VINA RESULT:     -11.2      3.656      9.611
REMARK SMILES Cc1ccc(F)c(-c2ncccc2C(=O)OCCOCCOCCOC(=O)c2ccc(-c3c4nc(c(-c5c(F)c(F)c(F)c(F)c5F)c5ccc([nH]5)c(-c5c(F)c(F)c(F)c(F)c5F)c5nc(c(-c6c(F)c(F)c(F)c(F)c6F)c6ccc3[nH]6)C=C5)C=C4)cc2)c1
REMARK SMILES IDX 21 1 20 2 19 3 18 4 17 5 16 6 14 7 15 8 13 9 8 10 9 11 10 12
REMARK SMILES IDX 12 13 11 14 7 15 1 16 2 17 3 18 91 19 4 20 5 21 6 22 22 23
REMARK SMILES IDX 23 24 24 25 25 26 26 27 27 28 28 29 29 30 90 31 30 32 89 33
REMARK SMILES IDX 31 34 32 35 33 36 83 37 34 38 88 39 82 40 84 41 35 42 87 43
REMARK SMILES IDX 81 44 80 45 36 47 68 48 48 49 67 50 49 51 52 52 66 53 85 54
REMARK SMILES IDX 50 55 51 56 65 58 86 59 53 60 37 61 38 62 46 63 39 64 40 65
REMARK SMILES IDX 44 66 47 67 41 68 42 69 45 70 43 71 69 72 70 73 78 74 71 75
REMARK SMILES IDX 72 76 76 77 79 78 73 79 74 80 77 81 75 82 54 83 55 84 63 85
REMARK SMILES IDX 56 86 57 87 61 88 64 89 58 90 59 91 62 92 60 93
REMARK H PARENT 84 46 52 57
REMARK Flexibility Score: inf
ROOT
ATOM      1  C   UNL A   1      39.883  19.673  25.904  1.00  0.00     0.188 C 
ENDROOT
BRANCH   1   2
ATOM      2  C   UNL A   1      38.867  20.809  25.668  1.00  0.00     0.188 C 
BRANCH   2   3
ATOM      3  O   UNL A   1      37.792  20.432  24.829  1.00  0.00    -0.376 OA
BRANCH   3   4
ATOM      4  C   UNL A   1      36.664  21.290  24.835  1.00  0.00     0.202 C 
BRANCH   4   5
ATOM      5  C   UNL A   1      36.930  22.800  24.724  1.00  0.00     0.261 C 
BRANCH   5   6
ATOM      6  O   UNL A   1      35.780  23.662  24.790  1.00  0.00    -0.460 OA
BRANCH   6   7
ATOM      7  C   UNL A   1      34.800  23.533  23.864  1.00  0.00     0.340 C 
ATOM      8  O   UNL A   1      34.963  23.520  22.656  1.00  0.00    -0.246 OA
BRANCH   7   9
ATOM      9  C   UNL A   1      33.512  23.320  24.580  1.00  0.00     0.086 A 
ATOM     10  C   UNL A   1      32.740  24.386  25.056  1.00  0.00     0.088 A 
ATOM     11  N   UNL A   1      31.527  24.196  25.652  1.00  0.00    -0.255 NA
ATOM     12  C   UNL A   1      31.076  22.931  25.790  1.00  0.00     0.112 A 
ATOM     13  C   UNL A   1      32.999  22.021  24.724  1.00  0.00     0.019 A 
ATOM     14  C   UNL A   1      31.764  21.823  25.337  1.00  0.00     0.021 A 
BRANCH  10  15
ATOM     15  C   UNL A   1      33.069  25.797  24.861  1.00  0.00     0.037 A 
ATOM     16  C   UNL A   1      34.350  28.752  26.918  1.00  0.00     0.044 C 
ATOM     17  C   UNL A   1      33.854  27.933  25.764  1.00  0.00    -0.050 A 
ATOM     18  C   UNL A   1      33.673  28.521  24.508  1.00  0.00     0.006 A 
ATOM     19  C   UNL A   1      33.590  26.564  25.918  1.00  0.00     0.016 A 
ATOM     20  C   UNL A   1      33.206  27.760  23.435  1.00  0.00     0.040 A 
ATOM     21  C   UNL A   1      32.900  26.414  23.620  1.00  0.00     0.132 A 
ATOM     22  F   UNL A   1      32.436  25.712  22.574  1.00  0.00    -0.206 F 
ENDBRANCH  10  15
ENDBRANCH   7   9
ENDBRANCH   6   7
ENDBRANCH   5   6
ENDBRANCH   4   5
ENDBRANCH   3   4
ENDBRANCH   2   3
ENDBRANCH   1   2
BRANCH   1  23
ATOM     23  O   UNL A   1      41.174  19.638  25.302  1.00  0.00    -0.376 OA
BRANCH  23  24
ATOM     24  C   UNL A   1      42.352  19.898  26.046  1.00  0.00     0.202 C 
BRANCH  24  25
ATOM     25  C   UNL A   1      42.973  21.291  25.913  1.00  0.00     0.261 C 
BRANCH  25  26
ATOM     26  O   UNL A   1      42.023  22.349  25.909  1.00  0.00    -0.460 OA
BRANCH  26  27
ATOM     27  C   UNL A   1      41.645  22.734  27.146  1.00  0.00     0.338 C 
ATOM     28  O   UNL A   1      41.873  22.202  28.216  1.00  0.00    -0.246 OA
BRANCH  27  29
ATOM     29  C   UNL A   1      40.881  23.976  27.028  1.00  0.00     0.060 A 
ATOM     30  C   UNL A   1      41.418  25.014  26.249  1.00  0.00     0.016 A 
ATOM     31  C   UNL A   1      39.801  24.166  27.887  1.00  0.00     0.016 A 
ATOM     32  C   UNL A   1      41.028  26.312  26.505  1.00  0.00     0.010 A 
ATOM     33  C   UNL A   1      39.423  25.457  28.155  1.00  0.00     0.010 A 
ATOM     34  C   UNL A   1      40.154  26.505  27.569  1.00  0.00    -0.014 A 
BRANCH  34  35
ATOM     35  C   UNL A   1      40.324  27.644  28.456  1.00  0.00     0.031 A 
ATOM     36  C   UNL A   1      39.412  28.785  28.415  1.00  0.00     0.074 A 
ATOM     37  C   UNL A   1      41.215  27.449  29.457  1.00  0.00     0.049 A 
ATOM     38  N   UNL A   1      39.637  29.899  29.017  1.00  0.00    -0.248 NA
ATOM     39  C   UNL A   1      38.177  28.779  27.642  1.00  0.00     0.031 C 
ATOM     40  C   UNL A   1      41.276  28.108  30.753  1.00  0.00     0.029 A 
ATOM     41  N   UNL A   1      42.363  26.634  29.426  1.00  0.00    -0.354 N 
ATOM     42  C   UNL A   1      38.482  30.641  28.957  1.00  0.00     0.074 A 
ATOM     43  C   UNL A   1      37.633  29.942  28.019  1.00  0.00     0.031 C 
ATOM     44  C   UNL A   1      42.483  27.882  31.299  1.00  0.00     0.029 A 
ATOM     45  C   UNL A   1      43.302  27.247  30.277  1.00  0.00     0.049 A 
ATOM     46  H   UNL A   1      42.484  25.802  28.914  1.00  0.00     0.167 HD
ATOM     47  C   UNL A   1      38.326  31.678  29.828  1.00  0.00     0.037 A 
ATOM     48  C   UNL A   1      44.455  27.783  29.774  1.00  0.00     0.037 A 
ATOM     49  C   UNL A   1      39.508  31.823  30.672  1.00  0.00     0.049 A 
ATOM     50  C   UNL A   1      44.574  29.270  30.018  1.00  0.00     0.074 A 
ATOM     51  C   UNL A   1      39.821  31.307  31.920  1.00  0.00     0.029 A 
ATOM     52  N   UNL A   1      40.702  32.257  30.113  1.00  0.00    -0.354 N 
ATOM     53  N   UNL A   1      43.550  30.054  30.209  1.00  0.00    -0.248 NA
ATOM     54  C   UNL A   1      45.843  29.990  30.046  1.00  0.00     0.031 C 
ATOM     55  C   UNL A   1      41.224  31.385  32.088  1.00  0.00     0.029 A 
ATOM     56  C   UNL A   1      41.759  31.975  30.956  1.00  0.00     0.049 A 
ATOM     57  H   UNL A   1      40.784  32.704  29.239  1.00  0.00     0.167 HD
ATOM     58  C   UNL A   1      43.985  31.338  30.391  1.00  0.00     0.074 A 
ATOM     59  C   UNL A   1      45.430  31.248  30.284  1.00  0.00     0.031 C 
ATOM     60  C   UNL A   1      43.113  32.366  30.601  1.00  0.00     0.037 A 
BRANCH  47  61
ATOM     61  C   UNL A   1      37.004  32.336  30.124  1.00  0.00     0.064 A 
ATOM     62  C   UNL A   1      36.489  33.335  29.267  1.00  0.00     0.173 A 
ATOM     63  C   UNL A   1      36.215  32.060  31.254  1.00  0.00     0.173 A 
ATOM     64  F   UNL A   1      37.086  33.642  28.108  1.00  0.00    -0.203 F 
ATOM     65  C   UNL A   1      35.341  34.068  29.574  1.00  0.00     0.198 A 
ATOM     66  C   UNL A   1      35.094  32.828  31.588  1.00  0.00     0.198 A 
ATOM     67  F   UNL A   1      36.479  31.012  32.045  1.00  0.00    -0.203 F 
ATOM     68  F   UNL A   1      34.908  35.009  28.724  1.00  0.00    -0.200 F 
ATOM     69  C   UNL A   1      34.663  33.838  30.752  1.00  0.00     0.200 A 
ATOM     70  F   UNL A   1      34.435  32.581  32.729  1.00  0.00    -0.200 F 
ATOM     71  F   UNL A   1      33.586  34.571  31.068  1.00  0.00    -0.200 F 
ENDBRANCH  47  61
BRANCH  48  72
ATOM     72  C   UNL A   1      44.951  27.096  28.550  1.00  0.00     0.064 A 
ATOM     73  C   UNL A   1      44.629  27.631  27.287  1.00  0.00     0.173 A 
ATOM     74  C   UNL A   1      45.998  26.168  28.609  1.00  0.00     0.173 A 
ATOM     75  F   UNL A   1      43.630  28.521  27.175  1.00  0.00    -0.203 F 
ATOM     76  C   UNL A   1      45.382  27.325  26.154  1.00  0.00     0.198 A 
ATOM     77  C   UNL A   1      46.751  25.866  27.472  1.00  0.00     0.198 A 
ATOM     78  F   UNL A   1      46.363  25.629  29.781  1.00  0.00    -0.203 F 
ATOM     79  F   UNL A   1      45.091  27.904  24.981  1.00  0.00    -0.200 F 
ATOM     80  C   UNL A   1      46.461  26.464  26.254  1.00  0.00     0.200 A 
ATOM     81  F   UNL A   1      47.818  25.059  27.575  1.00  0.00    -0.200 F 
ATOM     82  F   UNL A   1      47.249  26.239  25.194  1.00  0.00    -0.200 F 
ENDBRANCH  48  72
BRANCH  60  83
ATOM     83  C   UNL A   1      43.433  33.836  30.556  1.00  0.00     0.064 A 
ATOM     84  C   UNL A   1      43.464  34.589  29.374  1.00  0.00     0.173 A 
ATOM     85  C   UNL A   1      43.524  34.578  31.761  1.00  0.00     0.173 A 
ATOM     86  F   UNL A   1      43.294  34.014  28.177  1.00  0.00    -0.203 F 
ATOM     87  C   UNL A   1      43.602  35.980  29.393  1.00  0.00     0.198 A 
ATOM     88  C   UNL A   1      43.597  35.967  31.776  1.00  0.00     0.198 A 
ATOM     89  F   UNL A   1      43.506  33.976  32.959  1.00  0.00    -0.203 F 
ATOM     90  F   UNL A   1      43.653  36.654  28.236  1.00  0.00    -0.200 F 
ATOM     91  C   UNL A   1      43.647  36.668  30.591  1.00  0.00     0.200 A 
ATOM     92  F   UNL A   1      43.589  36.621  32.947  1.00  0.00    -0.200 F 
ATOM     93  F   UNL A   1      43.716  38.006  30.602  1.00  0.00    -0.200 F 
ENDBRANCH  60  83
ENDBRANCH  34  35
ENDBRANCH  27  29
ENDBRANCH  26  27
ENDBRANCH  25  26
ENDBRANCH  24  25
ENDBRANCH  23  24
ENDBRANCH   1  23
TORSDOF 18
ENDMDL
