MODEL 1
REMARK VINA RESULT:     -12.4      0.000      0.000
REMARK SMILES O=C(OCCOCCOCCOC(=O)c1nn(Cc2ccc(F)cc2)c2c1CN(C(=O)[C@H]1CC1(F)F)CC2)c1ccc(-c2c3nc(c(-c4c(F)c(F)c(F)c(F)c4F)c4ccc([nH]4)c(-c4c(F)c(F)c(F)c(F)c4F)c4nc(c(-c5c(F)c(F)c(F)c(F)c5F)c5ccc2[nH]5)C=C4)C=C3)cc1
REMARK SMILES IDX 7 1 6 2 5 3 4 4 3 5 2 6 1 7 39 8 40 9 101 10 41 11 100 12
REMARK SMILES IDX 42 13 43 14 44 15 94 16 45 17 99 18 93 19 95 20 46 21 98 22
REMARK SMILES IDX 92 23 91 24 47 26 79 27 59 28 78 29 60 30 63 31 77 32 96 33
REMARK SMILES IDX 61 34 62 35 76 37 97 38 64 39 48 40 49 41 57 42 50 43 51 44
REMARK SMILES IDX 55 45 58 46 52 47 53 48 56 49 54 50 80 51 81 52 89 53 82 54
REMARK SMILES IDX 83 55 87 56 90 57 84 58 85 59 88 60 86 61 65 62 66 63 74 64
REMARK SMILES IDX 67 65 68 66 72 67 75 68 69 69 70 70 73 71 71 72 8 73 9 74
REMARK SMILES IDX 10 75 11 76 12 77 13 78 14 79 15 80 16 81 27 82 17 83 26 84
REMARK SMILES IDX 28 85 38 86 29 87 37 88 18 89 19 90 20 91 25 92 21 93 24 94
REMARK SMILES IDX 22 95 23 96 30 97 31 98 32 99 33 100 34 101 35 102 36 103
REMARK H PARENT 95 25 63 36
REMARK Flexibility Score: inf
ROOT
ATOM      1  C   UNL A   1      41.791  20.457  26.127  1.00  0.00     0.188 C 
ENDROOT
BRANCH   1   2
ATOM      2  O   UNL A   1      42.202  19.317  25.402  1.00  0.00    -0.376 OA
BRANCH   2   3
ATOM      3  C   UNL A   1      43.487  18.734  25.464  1.00  0.00     0.202 C 
BRANCH   3   4
ATOM      4  C   UNL A   1      44.564  18.955  24.404  1.00  0.00     0.261 C 
BRANCH   4   5
ATOM      5  O   UNL A   1      44.703  20.302  23.964  1.00  0.00    -0.460 OA
BRANCH   5   6
ATOM      6  C   UNL A   1      45.392  21.326  24.502  1.00  0.00     0.338 C 
ATOM      7  O   UNL A   1      46.622  21.268  24.482  1.00  0.00    -0.246 OA
BRANCH   6   8
ATOM      8  C   UNL A   1      44.776  22.480  25.222  1.00  0.00     0.060 A 
ATOM      9  C   UNL A   1      43.896  23.426  24.691  1.00  0.00     0.016 A 
ATOM     10  C   UNL A   1      45.164  22.615  26.571  1.00  0.00     0.016 A 
ATOM     11  C   UNL A   1      43.588  24.575  25.405  1.00  0.00     0.010 A 
ATOM     12  C   UNL A   1      44.817  23.736  27.308  1.00  0.00     0.010 A 
ATOM     13  C   UNL A   1      44.103  24.752  26.685  1.00  0.00    -0.014 A 
BRANCH  13  14
ATOM     14  C   UNL A   1      43.863  26.032  27.334  1.00  0.00     0.031 A 
ATOM     15  C   UNL A   1      44.820  27.121  27.011  1.00  0.00     0.074 A 
ATOM     16  C   UNL A   1      42.785  26.230  28.118  1.00  0.00     0.049 A 
ATOM     17  N   UNL A   1      45.508  27.854  27.825  1.00  0.00    -0.248 NA
ATOM     18  C   UNL A   1      45.089  27.388  25.589  1.00  0.00     0.031 C 
ATOM     19  C   UNL A   1      41.648  25.323  28.303  1.00  0.00     0.029 A 
ATOM     20  N   UNL A   1      42.420  27.337  28.823  1.00  0.00    -0.354 N 
ATOM     21  C   UNL A   1      46.163  28.793  27.032  1.00  0.00     0.074 A 
ATOM     22  C   UNL A   1      45.967  28.388  25.664  1.00  0.00     0.031 C 
ATOM     23  C   UNL A   1      40.629  26.003  28.867  1.00  0.00     0.029 A 
ATOM     24  C   UNL A   1      41.082  27.345  29.190  1.00  0.00     0.049 A 
ATOM     25  H   UNL A   1      43.045  28.063  29.049  1.00  0.00     0.167 HD
ATOM     26  C   UNL A   1      46.617  29.965  27.550  1.00  0.00     0.037 A 
ATOM     27  C   UNL A   1      40.373  28.407  29.638  1.00  0.00     0.037 A 
ATOM     28  C   UNL A   1      46.841  29.871  28.968  1.00  0.00     0.049 A 
ATOM     29  C   UNL A   1      41.335  29.414  30.144  1.00  0.00     0.074 A 
ATOM     30  C   UNL A   1      47.641  29.090  29.780  1.00  0.00     0.029 A 
ATOM     31  N   UNL A   1      45.954  30.488  29.811  1.00  0.00    -0.354 N 
ATOM     32  N   UNL A   1      42.054  29.275  31.222  1.00  0.00    -0.248 NA
ATOM     33  C   UNL A   1      41.767  30.470  29.241  1.00  0.00     0.031 C 
ATOM     34  C   UNL A   1      46.904  28.923  30.988  1.00  0.00     0.029 A 
ATOM     35  C   UNL A   1      45.711  29.632  30.852  1.00  0.00     0.049 A 
ATOM     36  H   UNL A   1      45.561  31.383  29.690  1.00  0.00     0.167 HD
ATOM     37  C   UNL A   1      43.248  29.915  30.931  1.00  0.00     0.074 A 
ATOM     38  C   UNL A   1      42.961  30.746  29.770  1.00  0.00     0.031 C 
ATOM     39  C   UNL A   1      44.421  29.490  31.483  1.00  0.00     0.037 A 
BRANCH  26  40
ATOM     40  C   UNL A   1      46.480  31.292  26.840  1.00  0.00     0.064 A 
ATOM     41  C   UNL A   1      45.234  31.872  26.511  1.00  0.00     0.173 A 
ATOM     42  C   UNL A   1      47.587  32.161  26.777  1.00  0.00     0.173 A 
ATOM     43  F   UNL A   1      44.083  31.196  26.605  1.00  0.00    -0.203 F 
ATOM     44  C   UNL A   1      45.103  33.219  26.177  1.00  0.00     0.198 A 
ATOM     45  C   UNL A   1      47.444  33.522  26.495  1.00  0.00     0.198 A 
ATOM     46  F   UNL A   1      48.817  31.722  27.089  1.00  0.00    -0.203 F 
ATOM     47  F   UNL A   1      43.885  33.715  25.912  1.00  0.00    -0.200 F 
ATOM     48  C   UNL A   1      46.201  34.051  26.203  1.00  0.00     0.200 A 
ATOM     49  F   UNL A   1      48.506  34.334  26.580  1.00  0.00    -0.200 F 
ATOM     50  F   UNL A   1      46.050  35.366  25.998  1.00  0.00    -0.200 F 
ENDBRANCH  26  40
BRANCH  27  51
ATOM     51  C   UNL A   1      38.943  28.723  29.395  1.00  0.00     0.064 A 
ATOM     52  C   UNL A   1      38.475  29.131  28.129  1.00  0.00     0.173 A 
ATOM     53  C   UNL A   1      38.053  28.889  30.468  1.00  0.00     0.173 A 
ATOM     54  F   UNL A   1      39.272  29.101  27.051  1.00  0.00    -0.203 F 
ATOM     55  C   UNL A   1      37.206  29.681  27.952  1.00  0.00     0.198 A 
ATOM     56  C   UNL A   1      36.788  29.458  30.292  1.00  0.00     0.198 A 
ATOM     57  F   UNL A   1      38.432  28.569  31.714  1.00  0.00    -0.203 F 
ATOM     58  F   UNL A   1      36.827  30.095  26.734  1.00  0.00    -0.200 F 
ATOM     59  C   UNL A   1      36.369  29.861  29.036  1.00  0.00     0.200 A 
ATOM     60  F   UNL A   1      35.999  29.671  31.354  1.00  0.00    -0.200 F 
ATOM     61  F   UNL A   1      35.183  30.461  28.875  1.00  0.00    -0.200 F 
ENDBRANCH  27  51
BRANCH  39  62
ATOM     62  C   UNL A   1      44.345  28.582  32.676  1.00  0.00     0.064 A 
ATOM     63  C   UNL A   1      44.544  29.141  33.946  1.00  0.00     0.173 A 
ATOM     64  C   UNL A   1      44.213  27.185  32.595  1.00  0.00     0.173 A 
ATOM     65  F   UNL A   1      44.736  30.464  34.076  1.00  0.00    -0.203 F 
ATOM     66  C   UNL A   1      44.595  28.344  35.085  1.00  0.00     0.198 A 
ATOM     67  C   UNL A   1      44.224  26.394  33.742  1.00  0.00     0.198 A 
ATOM     68  F   UNL A   1      44.127  26.567  31.410  1.00  0.00    -0.203 F 
ATOM     69  F   UNL A   1      44.840  28.903  36.279  1.00  0.00    -0.200 F 
ATOM     70  C   UNL A   1      44.422  26.974  34.985  1.00  0.00     0.200 A 
ATOM     71  F   UNL A   1      44.076  25.065  33.643  1.00  0.00    -0.200 F 
ATOM     72  F   UNL A   1      44.475  26.208  36.084  1.00  0.00    -0.200 F 
ENDBRANCH  39  62
ENDBRANCH  13  14
ENDBRANCH   6   8
ENDBRANCH   5   6
ENDBRANCH   4   5
ENDBRANCH   3   4
ENDBRANCH   2   3
ENDBRANCH   1   2
BRANCH   1  73
ATOM     73  C   UNL A   1      40.360  20.717  26.647  1.00  0.00     0.188 C 
BRANCH  73  74
ATOM     74  O   UNL A   1      39.626  21.878  26.320  1.00  0.00    -0.376 OA
BRANCH  74  75
ATOM     75  C   UNL A   1      38.371  21.779  25.686  1.00  0.00     0.202 C 
BRANCH  75  76
ATOM     76  C   UNL A   1      37.414  22.965  25.783  1.00  0.00     0.261 C 
BRANCH  76  77
ATOM     77  O   UNL A   1      37.321  23.750  24.589  1.00  0.00    -0.458 OA
BRANCH  77  78
ATOM     78  C   UNL A   1      36.519  23.248  23.599  1.00  0.00     0.359 C 
ATOM     79  O   UNL A   1      36.919  22.687  22.590  1.00  0.00    -0.244 OA
BRANCH  78  80
ATOM     80  C   UNL A   1      35.096  23.392  23.919  1.00  0.00     0.175 A 
ATOM     81  N   UNL A   1      34.455  24.560  23.718  1.00  0.00    -0.165 NA
ATOM     82  C   UNL A   1      34.201  22.405  24.421  1.00  0.00     0.028 A 
ATOM     83  N   UNL A   1      33.166  24.312  24.035  1.00  0.00    -0.264 N 
ATOM     84  C   UNL A   1      32.983  23.050  24.512  1.00  0.00     0.046 A 
ATOM     85  C   UNL A   1      34.418  20.980  24.816  1.00  0.00     0.159 C 
ATOM     86  C   UNL A   1      31.726  22.417  24.982  1.00  0.00     0.078 C 
ATOM     87  N   UNL A   1      33.113  20.342  25.100  1.00  0.00    -0.337 N 
ATOM     88  C   UNL A   1      32.099  21.161  25.797  1.00  0.00     0.126 C 
BRANCH  83  89
ATOM     89  C   UNL A   1      32.147  25.299  23.698  1.00  0.00     0.180 C 
BRANCH  89  90
ATOM     90  C   UNL A   1      32.074  26.425  24.700  1.00  0.00    -0.026 A 
ATOM     91  C   UNL A   1      31.221  26.326  25.815  1.00  0.00     0.008 A 
ATOM     92  C   UNL A   1      32.877  27.566  24.557  1.00  0.00     0.008 A 
ATOM     93  C   UNL A   1      31.178  27.343  26.768  1.00  0.00     0.039 A 
ATOM     94  C   UNL A   1      32.835  28.580  25.515  1.00  0.00     0.039 A 
ATOM     95  C   UNL A   1      31.989  28.459  26.611  1.00  0.00     0.123 A 
ATOM     96  F   UNL A   1      31.958  29.431  27.531  1.00  0.00    -0.207 F 
ENDBRANCH  89  90
ENDBRANCH  83  89
BRANCH  87  97
ATOM     97  C   UNL A   1      32.974  18.993  24.802  1.00  0.00     0.232 C 
ATOM     98  O   UNL A   1      31.990  18.337  25.116  1.00  0.00    -0.274 OA
BRANCH  97  99
ATOM     99  C   UNL A   1      34.040  18.347  24.009  1.00  0.00     0.154 C 
ATOM    100  C   UNL A   1      34.996  17.339  24.625  1.00  0.00     0.097 C 
ATOM    101  C   UNL A   1      33.929  16.901  23.696  1.00  0.00     0.260 C 
ATOM    102  F   UNL A   1      32.931  16.091  24.182  1.00  0.00    -0.206 F 
ATOM    103  F   UNL A   1      34.286  16.416  22.458  1.00  0.00    -0.206 F 
ENDBRANCH  97  99
ENDBRANCH  87  97
ENDBRANCH  78  80
ENDBRANCH  77  78
ENDBRANCH  76  77
ENDBRANCH  75  76
ENDBRANCH  74  75
ENDBRANCH  73  74
ENDBRANCH   1  73
TORSDOF 21
ENDMDL
MODEL 2
REMARK VINA RESULT:     -12.3      1.011      4.103
REMARK SMILES O=C(OCCOCCOCCOC(=O)c1nn(Cc2ccc(F)cc2)c2c1CN(C(=O)[C@H]1CC1(F)F)CC2)c1ccc(-c2c3nc(c(-c4c(F)c(F)c(F)c(F)c4F)c4ccc([nH]4)c(-c4c(F)c(F)c(F)c(F)c4F)c4nc(c(-c5c(F)c(F)c(F)c(F)c5F)c5ccc2[nH]5)C=C4)C=C3)cc1
REMARK SMILES IDX 7 1 6 2 5 3 4 4 3 5 2 6 1 7 39 8 40 9 101 10 41 11 100 12
REMARK SMILES IDX 42 13 43 14 44 15 94 16 45 17 99 18 93 19 95 20 46 21 98 22
REMARK SMILES IDX 92 23 91 24 47 26 79 27 59 28 78 29 60 30 63 31 77 32 96 33
REMARK SMILES IDX 61 34 62 35 76 37 97 38 64 39 48 40 49 41 57 42 50 43 51 44
REMARK SMILES IDX 55 45 58 46 52 47 53 48 56 49 54 50 80 51 81 52 89 53 82 54
REMARK SMILES IDX 83 55 87 56 90 57 84 58 85 59 88 60 86 61 65 62 66 63 74 64
REMARK SMILES IDX 67 65 68 66 72 67 75 68 69 69 70 70 73 71 71 72 8 73 9 74
REMARK SMILES IDX 10 75 11 76 12 77 13 78 14 79 15 80 16 81 27 82 17 83 26 84
REMARK SMILES IDX 28 85 38 86 29 87 37 88 18 89 19 90 20 91 25 92 21 93 24 94
REMARK SMILES IDX 22 95 23 96 30 97 31 98 32 99 33 100 34 101 35 102 36 103
REMARK H PARENT 95 25 63 36
REMARK Flexibility Score: inf
ROOT
ATOM      1  C   UNL A   1      41.688  20.467  26.382  1.00  0.00     0.188 C 
ENDROOT
BRANCH   1   2
ATOM      2  O   UNL A   1      42.143  19.570  25.391  1.00  0.00    -0.376 OA
BRANCH   2   3
ATOM      3  C   UNL A   1      43.297  18.763  25.494  1.00  0.00     0.202 C 
BRANCH   3   4
ATOM      4  C   UNL A   1      44.499  18.891  24.561  1.00  0.00     0.261 C 
BRANCH   4   5
ATOM      5  O   UNL A   1      44.647  20.167  23.948  1.00  0.00    -0.460 OA
BRANCH   5   6
ATOM      6  C   UNL A   1      45.328  21.255  24.357  1.00  0.00     0.338 C 
ATOM      7  O   UNL A   1      46.544  21.280  24.166  1.00  0.00    -0.246 OA
BRANCH   6   8
ATOM      8  C   UNL A   1      44.735  22.390  25.123  1.00  0.00     0.060 A 
ATOM      9  C   UNL A   1      43.768  23.292  24.673  1.00  0.00     0.016 A 
ATOM     10  C   UNL A   1      45.244  22.557  26.428  1.00  0.00     0.016 A 
ATOM     11  C   UNL A   1      43.480  24.435  25.404  1.00  0.00     0.010 A 
ATOM     12  C   UNL A   1      44.920  23.671  27.187  1.00  0.00     0.010 A 
ATOM     13  C   UNL A   1      44.107  24.649  26.627  1.00  0.00    -0.014 A 
BRANCH  13  14
ATOM     14  C   UNL A   1      43.876  25.925  27.287  1.00  0.00     0.031 A 
ATOM     15  C   UNL A   1      44.842  27.010  26.975  1.00  0.00     0.074 A 
ATOM     16  C   UNL A   1      42.797  26.124  28.070  1.00  0.00     0.049 A 
ATOM     17  N   UNL A   1      45.533  27.730  27.796  1.00  0.00    -0.248 NA
ATOM     18  C   UNL A   1      45.115  27.286  25.555  1.00  0.00     0.031 C 
ATOM     19  C   UNL A   1      41.653  25.224  28.246  1.00  0.00     0.029 A 
ATOM     20  N   UNL A   1      42.439  27.228  28.784  1.00  0.00    -0.354 N 
ATOM     21  C   UNL A   1      46.196  28.671  27.012  1.00  0.00     0.074 A 
ATOM     22  C   UNL A   1      46.000  28.279  25.641  1.00  0.00     0.031 C 
ATOM     23  C   UNL A   1      40.639  25.907  28.814  1.00  0.00     0.029 A 
ATOM     24  C   UNL A   1      41.101  27.243  29.149  1.00  0.00     0.049 A 
ATOM     25  H   UNL A   1      43.069  27.947  29.018  1.00  0.00     0.167 HD
ATOM     26  C   UNL A   1      46.658  29.835  27.541  1.00  0.00     0.037 A 
ATOM     27  C   UNL A   1      40.399  28.306  29.605  1.00  0.00     0.037 A 
ATOM     28  C   UNL A   1      46.879  29.728  28.958  1.00  0.00     0.049 A 
ATOM     29  C   UNL A   1      41.367  29.301  30.121  1.00  0.00     0.074 A 
ATOM     30  C   UNL A   1      47.672  28.934  29.765  1.00  0.00     0.029 A 
ATOM     31  N   UNL A   1      45.995  30.344  29.806  1.00  0.00    -0.354 N 
ATOM     32  N   UNL A   1      42.084  29.148  31.199  1.00  0.00    -0.248 NA
ATOM     33  C   UNL A   1      41.809  30.362  29.227  1.00  0.00     0.031 C 
ATOM     34  C   UNL A   1      46.931  28.762  30.970  1.00  0.00     0.029 A 
ATOM     35  C   UNL A   1      45.743  29.481  30.838  1.00  0.00     0.049 A 
ATOM     36  H   UNL A   1      45.609  31.242  29.691  1.00  0.00     0.167 HD
ATOM     37  C   UNL A   1      43.283  29.782  30.916  1.00  0.00     0.074 A 
ATOM     38  C   UNL A   1      43.004  30.624  29.761  1.00  0.00     0.031 C 
ATOM     39  C   UNL A   1      44.452  29.343  31.466  1.00  0.00     0.037 A 
BRANCH  26  40
ATOM     40  C   UNL A   1      46.532  31.170  26.842  1.00  0.00     0.064 A 
ATOM     41  C   UNL A   1      45.291  31.774  26.540  1.00  0.00     0.173 A 
ATOM     42  C   UNL A   1      47.654  32.018  26.764  1.00  0.00     0.173 A 
ATOM     43  F   UNL A   1      44.130  31.118  26.650  1.00  0.00    -0.203 F 
ATOM     44  C   UNL A   1      45.179  33.125  26.216  1.00  0.00     0.198 A 
ATOM     45  C   UNL A   1      47.530  33.383  26.494  1.00  0.00     0.198 A 
ATOM     46  F   UNL A   1      48.880  31.556  27.051  1.00  0.00    -0.203 F 
ATOM     47  F   UNL A   1      43.965  33.644  25.977  1.00  0.00    -0.200 F 
ATOM     48  C   UNL A   1      46.291  33.937  26.228  1.00  0.00     0.200 A 
ATOM     49  F   UNL A   1      48.608  34.176  26.564  1.00  0.00    -0.200 F 
ATOM     50  F   UNL A   1      46.161  35.256  26.034  1.00  0.00    -0.200 F 
ENDBRANCH  26  40
BRANCH  27  51
ATOM     51  C   UNL A   1      38.972  28.634  29.362  1.00  0.00     0.064 A 
ATOM     52  C   UNL A   1      38.510  29.057  28.099  1.00  0.00     0.173 A 
ATOM     53  C   UNL A   1      38.081  28.797  30.435  1.00  0.00     0.173 A 
ATOM     54  F   UNL A   1      39.308  29.031  27.022  1.00  0.00    -0.203 F 
ATOM     55  C   UNL A   1      37.244  29.618  27.924  1.00  0.00     0.198 A 
ATOM     56  C   UNL A   1      36.821  29.377  30.262  1.00  0.00     0.198 A 
ATOM     57  F   UNL A   1      38.455  28.464  31.678  1.00  0.00    -0.203 F 
ATOM     58  F   UNL A   1      36.871  30.046  26.710  1.00  0.00    -0.200 F 
ATOM     59  C   UNL A   1      36.407  29.794  29.008  1.00  0.00     0.200 A 
ATOM     60  F   UNL A   1      36.031  29.587  31.324  1.00  0.00    -0.200 F 
ATOM     61  F   UNL A   1      35.225  30.405  28.851  1.00  0.00    -0.200 F 
ENDBRANCH  27  51
BRANCH  39  62
ATOM     62  C   UNL A   1      44.367  28.426  32.651  1.00  0.00     0.064 A 
ATOM     63  C   UNL A   1      44.574  28.971  33.926  1.00  0.00     0.173 A 
ATOM     64  C   UNL A   1      44.218  27.031  32.558  1.00  0.00     0.173 A 
ATOM     65  F   UNL A   1      44.782  30.291  34.067  1.00  0.00    -0.203 F 
ATOM     66  C   UNL A   1      44.618  28.164  35.058  1.00  0.00     0.198 A 
ATOM     67  C   UNL A   1      44.222  26.230  33.698  1.00  0.00     0.198 A 
ATOM     68  F   UNL A   1      44.124  26.425  31.368  1.00  0.00    -0.203 F 
ATOM     69  F   UNL A   1      44.871  28.709  36.256  1.00  0.00    -0.200 F 
ATOM     70  C   UNL A   1      44.428  26.796  34.945  1.00  0.00     0.200 A 
ATOM     71  F   UNL A   1      44.058  24.903  33.587  1.00  0.00    -0.200 F 
ATOM     72  F   UNL A   1      44.474  26.020  36.038  1.00  0.00    -0.200 F 
ENDBRANCH  39  62
ENDBRANCH  13  14
ENDBRANCH   6   8
ENDBRANCH   5   6
ENDBRANCH   4   5
ENDBRANCH   3   4
ENDBRANCH   2   3
ENDBRANCH   1   2
BRANCH   1  73
ATOM     73  C   UNL A   1      40.242  20.997  26.513  1.00  0.00     0.188 C 
BRANCH  73  74
ATOM     74  O   UNL A   1      39.836  22.247  25.998  1.00  0.00    -0.376 OA
BRANCH  74  75
ATOM     75  C   UNL A   1      38.976  23.083  26.739  1.00  0.00     0.202 C 
BRANCH  75  76
ATOM     76  C   UNL A   1      38.072  24.050  25.978  1.00  0.00     0.261 C 
BRANCH  76  77
ATOM     77  O   UNL A   1      36.714  23.614  25.848  1.00  0.00    -0.458 OA
BRANCH  77  78
ATOM     78  C   UNL A   1      36.271  23.395  24.572  1.00  0.00     0.359 C 
ATOM     79  O   UNL A   1      36.985  23.328  23.583  1.00  0.00    -0.244 OA
BRANCH  78  80
ATOM     80  C   UNL A   1      34.823  23.171  24.525  1.00  0.00     0.175 A 
ATOM     81  N   UNL A   1      34.298  21.967  24.826  1.00  0.00    -0.165 NA
ATOM     82  C   UNL A   1      33.795  24.106  24.215  1.00  0.00     0.028 A 
ATOM     83  N   UNL A   1      32.960  22.142  24.762  1.00  0.00    -0.264 N 
ATOM     84  C   UNL A   1      32.620  23.393  24.346  1.00  0.00     0.046 A 
ATOM     85  C   UNL A   1      33.854  25.543  23.807  1.00  0.00     0.159 C 
ATOM     86  C   UNL A   1      31.263  23.954  24.131  1.00  0.00     0.078 C 
ATOM     87  N   UNL A   1      32.485  26.106  23.783  1.00  0.00    -0.337 N 
ATOM     88  C   UNL A   1      31.405  25.233  23.279  1.00  0.00     0.126 C 
BRANCH  83  89
ATOM     89  C   UNL A   1      32.080  21.097  25.270  1.00  0.00     0.180 C 
BRANCH  89  90
ATOM     90  C   UNL A   1      32.432  19.729  24.740  1.00  0.00    -0.026 A 
ATOM     91  C   UNL A   1      32.361  19.465  23.359  1.00  0.00     0.008 A 
ATOM     92  C   UNL A   1      32.871  18.715  25.604  1.00  0.00     0.008 A 
ATOM     93  C   UNL A   1      32.726  18.217  22.855  1.00  0.00     0.039 A 
ATOM     94  C   UNL A   1      33.238  17.468  25.096  1.00  0.00     0.039 A 
ATOM     95  C   UNL A   1      33.165  17.231  23.729  1.00  0.00     0.123 A 
ATOM     96  F   UNL A   1      33.527  16.036  23.246  1.00  0.00    -0.207 F 
ENDBRANCH  89  90
ENDBRANCH  83  89
BRANCH  87  97
ATOM     97  C   UNL A   1      32.330  27.444  24.122  1.00  0.00     0.232 C 
ATOM     98  O   UNL A   1      32.533  28.360  23.337  1.00  0.00    -0.274 OA
BRANCH  97  99
ATOM     99  C   UNL A   1      31.830  27.761  25.475  1.00  0.00     0.154 C 
ATOM    100  C   UNL A   1      31.864  26.739  26.601  1.00  0.00     0.097 C 
ATOM    101  C   UNL A   1      32.801  27.886  26.590  1.00  0.00     0.260 C 
ATOM    102  F   UNL A   1      34.145  27.633  26.462  1.00  0.00    -0.206 F 
ATOM    103  F   UNL A   1      32.656  28.868  27.546  1.00  0.00    -0.206 F 
ENDBRANCH  97  99
ENDBRANCH  87  97
ENDBRANCH  78  80
ENDBRANCH  77  78
ENDBRANCH  76  77
ENDBRANCH  75  76
ENDBRANCH  74  75
ENDBRANCH  73  74
ENDBRANCH   1  73
TORSDOF 21
ENDMDL
MODEL 3
REMARK VINA RESULT:     -11.6      3.342      5.533
REMARK SMILES O=C(OCCOCCOCCOC(=O)c1nn(Cc2ccc(F)cc2)c2c1CN(C(=O)[C@H]1CC1(F)F)CC2)c1ccc(-c2c3nc(c(-c4c(F)c(F)c(F)c(F)c4F)c4ccc([nH]4)c(-c4c(F)c(F)c(F)c(F)c4F)c4nc(c(-c5c(F)c(F)c(F)c(F)c5F)c5ccc2[nH]5)C=C4)C=C3)cc1
REMARK SMILES IDX 7 1 6 2 5 3 4 4 3 5 2 6 1 7 39 8 40 9 101 10 41 11 100 12
REMARK SMILES IDX 42 13 43 14 44 15 94 16 45 17 99 18 93 19 95 20 46 21 98 22
REMARK SMILES IDX 92 23 91 24 47 26 79 27 59 28 78 29 60 30 63 31 77 32 96 33
REMARK SMILES IDX 61 34 62 35 76 37 97 38 64 39 48 40 49 41 57 42 50 43 51 44
REMARK SMILES IDX 55 45 58 46 52 47 53 48 56 49 54 50 80 51 81 52 89 53 82 54
REMARK SMILES IDX 83 55 87 56 90 57 84 58 85 59 88 60 86 61 65 62 66 63 74 64
REMARK SMILES IDX 67 65 68 66 72 67 75 68 69 69 70 70 73 71 71 72 8 73 9 74
REMARK SMILES IDX 10 75 11 76 12 77 13 78 14 79 15 80 16 81 27 82 17 83 26 84
REMARK SMILES IDX 28 85 38 86 29 87 37 88 18 89 19 90 20 91 25 92 21 93 24 94
REMARK SMILES IDX 22 95 23 96 30 97 31 98 32 99 33 100 34 101 35 102 36 103
REMARK H PARENT 95 25 63 36
REMARK Flexibility Score: inf
ROOT
ATOM      1  C   UNL A   1      35.579  23.321  23.539  1.00  0.00     0.188 C 
ENDROOT
BRANCH   1   2
ATOM      2  O   UNL A   1      36.815  22.647  23.657  1.00  0.00    -0.376 OA
BRANCH   2   3
ATOM      3  C   UNL A   1      36.999  21.389  24.271  1.00  0.00     0.202 C 
BRANCH   3   4
ATOM      4  C   UNL A   1      37.974  21.148  25.421  1.00  0.00     0.261 C 
BRANCH   4   5
ATOM      5  O   UNL A   1      38.823  22.248  25.725  1.00  0.00    -0.460 OA
BRANCH   5   6
ATOM      6  C   UNL A   1      39.778  22.376  26.667  1.00  0.00     0.338 C 
ATOM      7  O   UNL A   1      40.119  21.367  27.284  1.00  0.00    -0.246 OA
BRANCH   6   8
ATOM      8  C   UNL A   1      40.379  23.674  27.097  1.00  0.00     0.060 A 
ATOM      9  C   UNL A   1      41.521  23.850  27.881  1.00  0.00     0.016 A 
ATOM     10  C   UNL A   1      39.682  24.822  26.669  1.00  0.00     0.016 A 
ATOM     11  C   UNL A   1      41.831  25.099  28.398  1.00  0.00     0.010 A 
ATOM     12  C   UNL A   1      40.018  26.082  27.139  1.00  0.00     0.010 A 
ATOM     13  C   UNL A   1      41.039  26.197  28.075  1.00  0.00    -0.014 A 
BRANCH  13  14
ATOM     14  C   UNL A   1      41.323  27.453  28.751  1.00  0.00     0.031 A 
ATOM     15  C   UNL A   1      42.588  28.133  28.368  1.00  0.00     0.074 A 
ATOM     16  C   UNL A   1      40.443  28.000  29.613  1.00  0.00     0.049 A 
ATOM     17  N   UNL A   1      43.546  28.539  29.137  1.00  0.00    -0.248 NA
ATOM     18  C   UNL A   1      42.842  28.333  26.933  1.00  0.00     0.031 C 
ATOM     19  C   UNL A   1      39.069  27.560  29.872  1.00  0.00     0.029 A 
ATOM     20  N   UNL A   1      40.552  29.139  30.352  1.00  0.00    -0.354 N 
ATOM     21  C   UNL A   1      44.444  29.203  28.307  1.00  0.00     0.074 A 
ATOM     22  C   UNL A   1      44.026  28.945  26.953  1.00  0.00     0.031 C 
ATOM     23  C   UNL A   1      38.406  28.542  30.516  1.00  0.00     0.029 A 
ATOM     24  C   UNL A   1      39.335  29.618  30.816  1.00  0.00     0.049 A 
ATOM     25  H   UNL A   1      41.411  29.581  30.539  1.00  0.00     0.167 HD
ATOM     26  C   UNL A   1      45.325  30.113  28.801  1.00  0.00     0.037 A 
ATOM     27  C   UNL A   1      39.091  30.848  31.324  1.00  0.00     0.037 A 
ATOM     28  C   UNL A   1      45.592  29.896  30.197  1.00  0.00     0.049 A 
ATOM     29  C   UNL A   1      40.384  31.420  31.768  1.00  0.00     0.074 A 
ATOM     30  C   UNL A   1      46.104  28.850  30.941  1.00  0.00     0.029 A 
ATOM     31  N   UNL A   1      45.045  30.761  31.109  1.00  0.00    -0.354 N 
ATOM     32  N   UNL A   1      41.071  30.993  32.789  1.00  0.00    -0.248 NA
ATOM     33  C   UNL A   1      41.111  32.279  30.845  1.00  0.00     0.031 C 
ATOM     34  C   UNL A   1      45.436  28.919  32.199  1.00  0.00     0.029 A 
ATOM     35  C   UNL A   1      44.576  30.016  32.156  1.00  0.00     0.049 A 
ATOM     36  H   UNL A   1      44.998  31.741  31.024  1.00  0.00     0.167 HD
ATOM     37  C   UNL A   1      42.395  31.168  32.418  1.00  0.00     0.074 A 
ATOM     38  C   UNL A   1      42.355  32.086  31.288  1.00  0.00     0.031 C 
ATOM     39  C   UNL A   1      43.366  30.328  32.879  1.00  0.00     0.037 A 
BRANCH  26  40
ATOM     40  C   UNL A   1      45.634  31.424  28.115  1.00  0.00     0.064 A 
ATOM     41  C   UNL A   1      46.896  31.732  27.559  1.00  0.00     0.173 A 
ATOM     42  C   UNL A   1      44.574  32.259  27.709  1.00  0.00     0.173 A 
ATOM     43  F   UNL A   1      47.980  30.980  27.785  1.00  0.00    -0.203 F 
ATOM     44  C   UNL A   1      47.076  32.771  26.647  1.00  0.00     0.198 A 
ATOM     45  C   UNL A   1      44.748  33.264  26.754  1.00  0.00     0.198 A 
ATOM     46  F   UNL A   1      43.327  32.046  28.158  1.00  0.00    -0.203 F 
ATOM     47  F   UNL A   1      48.294  32.986  26.129  1.00  0.00    -0.200 F 
ATOM     48  C   UNL A   1      45.998  33.514  26.218  1.00  0.00     0.200 A 
ATOM     49  F   UNL A   1      43.685  33.941  26.300  1.00  0.00    -0.200 F 
ATOM     50  F   UNL A   1      46.157  34.430  25.254  1.00  0.00    -0.200 F 
ENDBRANCH  26  40
BRANCH  27  51
ATOM     51  C   UNL A   1      37.861  31.668  31.189  1.00  0.00     0.064 A 
ATOM     52  C   UNL A   1      36.906  31.755  32.222  1.00  0.00     0.173 A 
ATOM     53  C   UNL A   1      37.467  32.167  29.936  1.00  0.00     0.173 A 
ATOM     54  F   UNL A   1      37.142  31.229  33.432  1.00  0.00    -0.203 F 
ATOM     55  C   UNL A   1      35.637  32.295  32.013  1.00  0.00     0.198 A 
ATOM     56  C   UNL A   1      36.188  32.689  29.723  1.00  0.00     0.198 A 
ATOM     57  F   UNL A   1      38.296  32.082  28.886  1.00  0.00    -0.203 F 
ATOM     58  F   UNL A   1      34.750  32.312  33.018  1.00  0.00    -0.200 F 
ATOM     59  C   UNL A   1      35.272  32.746  30.759  1.00  0.00     0.200 A 
ATOM     60  F   UNL A   1      35.824  33.083  28.495  1.00  0.00    -0.200 F 
ATOM     61  F   UNL A   1      34.027  33.189  30.542  1.00  0.00    -0.200 F 
ENDBRANCH  27  51
BRANCH  39  62
ATOM     62  C   UNL A   1      43.043  29.468  34.066  1.00  0.00     0.064 A 
ATOM     63  C   UNL A   1      43.604  29.812  35.304  1.00  0.00     0.173 A 
ATOM     64  C   UNL A   1      42.316  28.268  33.994  1.00  0.00     0.173 A 
ATOM     65  F   UNL A   1      44.358  30.918  35.416  1.00  0.00    -0.203 F 
ATOM     66  C   UNL A   1      43.437  29.002  36.422  1.00  0.00     0.198 A 
ATOM     67  C   UNL A   1      42.116  27.479  35.125  1.00  0.00     0.198 A 
ATOM     68  F   UNL A   1      41.841  27.817  32.825  1.00  0.00    -0.203 F 
ATOM     69  F   UNL A   1      44.029  29.331  37.578  1.00  0.00    -0.200 F 
ATOM     70  C   UNL A   1      42.682  27.844  36.336  1.00  0.00     0.200 A 
ATOM     71  F   UNL A   1      41.403  26.347  35.037  1.00  0.00    -0.200 F 
ATOM     72  F   UNL A   1      42.524  27.063  37.414  1.00  0.00    -0.200 F 
ENDBRANCH  39  62
ENDBRANCH  13  14
ENDBRANCH   6   8
ENDBRANCH   5   6
ENDBRANCH   4   5
ENDBRANCH   3   4
ENDBRANCH   2   3
ENDBRANCH   1   2
BRANCH   1  73
ATOM     73  C   UNL A   1      34.450  23.306  24.593  1.00  0.00     0.188 C 
BRANCH  73  74
ATOM     74  O   UNL A   1      33.435  22.324  24.614  1.00  0.00    -0.376 OA
BRANCH  74  75
ATOM     75  C   UNL A   1      32.819  21.955  25.827  1.00  0.00     0.202 C 
BRANCH  75  76
ATOM     76  C   UNL A   1      31.316  22.178  25.973  1.00  0.00     0.261 C 
BRANCH  76  77
ATOM     77  O   UNL A   1      30.820  23.338  25.296  1.00  0.00    -0.458 OA
BRANCH  77  78
ATOM     78  C   UNL A   1      31.049  24.539  25.910  1.00  0.00     0.359 C 
ATOM     79  O   UNL A   1      31.047  24.721  27.118  1.00  0.00    -0.244 OA
BRANCH  78  80
ATOM     80  C   UNL A   1      31.378  25.595  24.947  1.00  0.00     0.175 A 
ATOM     81  N   UNL A   1      30.696  25.716  23.792  1.00  0.00    -0.165 NA
ATOM     82  C   UNL A   1      32.364  26.615  25.061  1.00  0.00     0.028 A 
ATOM     83  N   UNL A   1      31.199  26.821  23.202  1.00  0.00    -0.264 N 
ATOM     84  C   UNL A   1      32.236  27.357  23.903  1.00  0.00     0.046 A 
ATOM     85  C   UNL A   1      33.374  26.903  26.125  1.00  0.00     0.159 C 
ATOM     86  C   UNL A   1      33.055  28.549  23.569  1.00  0.00     0.078 C 
ATOM     87  N   UNL A   1      34.036  28.195  25.840  1.00  0.00    -0.337 N 
ATOM     88  C   UNL A   1      34.337  28.502  24.427  1.00  0.00     0.126 C 
BRANCH  83  89
ATOM     89  C   UNL A   1      30.518  27.383  22.042  1.00  0.00     0.180 C 
BRANCH  89  90
ATOM     90  C   UNL A   1      29.646  28.562  22.393  1.00  0.00    -0.026 A 
ATOM     91  C   UNL A   1      29.992  29.855  21.958  1.00  0.00     0.008 A 
ATOM     92  C   UNL A   1      28.461  28.387  23.125  1.00  0.00     0.008 A 
ATOM     93  C   UNL A   1      29.170  30.944  22.241  1.00  0.00     0.039 A 
ATOM     94  C   UNL A   1      27.638  29.479  23.404  1.00  0.00     0.039 A 
ATOM     95  C   UNL A   1      27.998  30.745  22.959  1.00  0.00     0.123 A 
ATOM     96  F   UNL A   1      27.201  31.788  23.222  1.00  0.00    -0.207 F 
ENDBRANCH  89  90
ENDBRANCH  83  89
BRANCH  87  97
ATOM     97  C   UNL A   1      34.434  28.971  26.922  1.00  0.00     0.232 C 
ATOM     98  O   UNL A   1      35.600  29.072  27.280  1.00  0.00    -0.274 OA
BRANCH  97  99
ATOM     99  C   UNL A   1      33.400  29.760  27.623  1.00  0.00     0.154 C 
ATOM    100  C   UNL A   1      33.371  31.279  27.558  1.00  0.00     0.097 C 
ATOM    101  C   UNL A   1      32.371  30.470  26.824  1.00  0.00     0.260 C 
ATOM    102  F   UNL A   1      32.371  30.517  25.451  1.00  0.00    -0.206 F 
ATOM    103  F   UNL A   1      31.057  30.507  27.237  1.00  0.00    -0.206 F 
ENDBRANCH  97  99
ENDBRANCH  87  97
ENDBRANCH  78  80
ENDBRANCH  77  78
ENDBRANCH  76  77
ENDBRANCH  75  76
ENDBRANCH  74  75
ENDBRANCH  73  74
ENDBRANCH   1  73
TORSDOF 21
ENDMDL
