MODEL 1
REMARK VINA RESULT:      -9.7      0.000      0.000
REMARK SMILES O=C(CS(=O)(=O)N1CCC1)OCCOCCOCCOC(=O)c1ccc(-c2c3nc(c(-c4c(F)c(F)c(F)c(F)c4F)c4ccc([nH]4)c(-c4c(F)c(F)c(F)c(F)c4F)c4nc(c(-c5c(F)c(F)c(F)c(F)c5F)c5ccc2[nH]5)C=C4)C=C3)cc1
REMARK SMILES IDX 15 1 14 2 13 3 12 4 11 5 2 6 1 7 3 8 4 9 5 10 6 11 7 12 8 13
REMARK SMILES IDX 10 14 9 15 16 16 17 17 18 18 19 19 20 20 21 21 22 22 23 23
REMARK SMILES IDX 24 24 85 25 25 26 84 27 26 28 27 29 28 30 78 31 29 32 83 33
REMARK SMILES IDX 77 34 79 35 30 36 82 37 76 38 75 39 31 41 63 42 43 43 62 44
REMARK SMILES IDX 44 45 47 46 61 47 80 48 45 49 46 50 60 52 81 53 48 54 32 55
REMARK SMILES IDX 33 56 41 57 34 58 35 59 39 60 42 61 36 62 37 63 40 64 38 65
REMARK SMILES IDX 64 66 65 67 73 68 66 69 67 70 71 71 74 72 68 73 69 74 72 75
REMARK SMILES IDX 70 76 49 77 50 78 58 79 51 80 52 81 56 82 59 83 53 84 54 85
REMARK SMILES IDX 57 86 55 87
REMARK H PARENT 79 40 47 51
REMARK Flexibility Score: inf
ROOT
ATOM      1  C   UNL A   1      32.150  25.177  26.137  1.00  0.00     0.188 C 
ENDROOT
BRANCH   1   2
ATOM      2  O   UNL A   1      31.494  24.531  27.208  1.00  0.00    -0.376 OA
BRANCH   2   3
ATOM      3  C   UNL A   1      31.404  23.112  27.243  1.00  0.00     0.202 C 
BRANCH   3   4
ATOM      4  C   UNL A   1      31.283  22.387  25.904  1.00  0.00     0.261 C 
BRANCH   4   5
ATOM      5  O   UNL A   1      32.418  21.636  25.378  1.00  0.00    -0.462 OA
BRANCH   5   6
ATOM      6  C   UNL A   1      33.405  21.958  24.522  1.00  0.00     0.322 C 
ATOM      7  O   UNL A   1      33.332  21.548  23.361  1.00  0.00    -0.251 OA
BRANCH   6   8
ATOM      8  C   UNL A   1      34.586  22.741  24.942  1.00  0.00     0.276 C 
BRANCH   8   9
ATOM      9  S   UNL A   1      36.068  21.837  24.680  1.00  0.00     0.224 S 
ATOM     10  O   UNL A   1      35.842  20.448  25.008  1.00  0.00    -0.212 OA
ATOM     11  O   UNL A   1      36.561  22.204  23.366  1.00  0.00    -0.212 OA
BRANCH   9  12
ATOM     12  N   UNL A   1      37.122  22.486  25.814  1.00  0.00    -0.201 NA
ATOM     13  C   UNL A   1      38.602  22.266  25.921  1.00  0.00     0.103 C 
ATOM     14  C   UNL A   1      37.384  23.952  25.943  1.00  0.00     0.103 C 
ATOM     15  C   UNL A   1      38.730  23.626  26.614  1.00  0.00     0.033 C 
ENDBRANCH   9  12
ENDBRANCH   8   9
ENDBRANCH   6   8
ENDBRANCH   5   6
ENDBRANCH   4   5
ENDBRANCH   3   4
ENDBRANCH   2   3
ENDBRANCH   1   2
BRANCH   1  16
ATOM     16  C   UNL A   1      31.870  26.680  25.996  1.00  0.00     0.188 C 
BRANCH  16  17
ATOM     17  O   UNL A   1      31.144  27.326  27.026  1.00  0.00    -0.376 OA
BRANCH  17  18
ATOM     18  C   UNL A   1      31.741  28.459  27.648  1.00  0.00     0.202 C 
BRANCH  18  19
ATOM     19  C   UNL A   1      31.753  29.809  26.899  1.00  0.00     0.261 C 
BRANCH  19  20
ATOM     20  O   UNL A   1      33.049  30.288  26.467  1.00  0.00    -0.460 OA
BRANCH  20  21
ATOM     21  C   UNL A   1      33.584  31.302  27.193  1.00  0.00     0.338 C 
ATOM     22  O   UNL A   1      33.020  32.320  27.563  1.00  0.00    -0.246 OA
BRANCH  21  23
ATOM     23  C   UNL A   1      34.960  30.981  27.626  1.00  0.00     0.060 A 
ATOM     24  C   UNL A   1      35.332  29.638  27.794  1.00  0.00     0.016 A 
ATOM     25  C   UNL A   1      35.827  31.998  28.023  1.00  0.00     0.016 A 
ATOM     26  C   UNL A   1      36.558  29.309  28.380  1.00  0.00     0.010 A 
ATOM     27  C   UNL A   1      37.047  31.667  28.629  1.00  0.00     0.010 A 
ATOM     28  C   UNL A   1      37.406  30.323  28.844  1.00  0.00    -0.014 A 
BRANCH  28  29
ATOM     29  C   UNL A   1      38.576  29.996  29.706  1.00  0.00     0.031 A 
ATOM     30  C   UNL A   1      39.597  29.010  29.203  1.00  0.00     0.074 A 
ATOM     31  C   UNL A   1      38.734  30.552  30.921  1.00  0.00     0.049 A 
ATOM     32  N   UNL A   1      40.634  28.494  29.813  1.00  0.00    -0.248 NA
ATOM     33  C   UNL A   1      39.416  28.535  27.822  1.00  0.00     0.031 C 
ATOM     34  C   UNL A   1      37.851  31.552  31.514  1.00  0.00     0.029 A 
ATOM     35  N   UNL A   1      39.691  30.331  31.884  1.00  0.00    -0.354 N 
ATOM     36  C   UNL A   1      41.220  27.626  28.900  1.00  0.00     0.074 A 
ATOM     37  C   UNL A   1      40.407  27.663  27.703  1.00  0.00     0.031 C 
ATOM     38  C   UNL A   1      38.293  31.843  32.749  1.00  0.00     0.029 A 
ATOM     39  C   UNL A   1      39.466  31.023  33.049  1.00  0.00     0.049 A 
ATOM     40  H   UNL A   1      40.463  29.736  31.750  1.00  0.00     0.167 HD
ATOM     41  C   UNL A   1      42.334  26.869  29.043  1.00  0.00     0.037 A 
ATOM     42  C   UNL A   1      40.112  30.973  34.232  1.00  0.00     0.037 A 
ATOM     43  C   UNL A   1      43.144  26.829  30.234  1.00  0.00     0.049 A 
ATOM     44  C   UNL A   1      41.304  30.060  34.396  1.00  0.00     0.074 A 
ATOM     45  C   UNL A   1      44.306  26.111  30.463  1.00  0.00     0.029 A 
ATOM     46  N   UNL A   1      42.870  27.526  31.400  1.00  0.00    -0.354 N 
ATOM     47  N   UNL A   1      41.868  29.264  33.520  1.00  0.00    -0.248 NA
ATOM     48  C   UNL A   1      41.952  30.044  35.717  1.00  0.00     0.031 C 
ATOM     49  C   UNL A   1      44.698  26.322  31.788  1.00  0.00     0.029 A 
ATOM     50  C   UNL A   1      43.821  27.228  32.364  1.00  0.00     0.049 A 
ATOM     51  H   UNL A   1      42.111  28.140  31.527  1.00  0.00     0.167 HD
ATOM     52  C   UNL A   1      42.950  28.682  34.169  1.00  0.00     0.074 A 
ATOM     53  C   UNL A   1      42.973  29.225  35.510  1.00  0.00     0.031 C 
ATOM     54  C   UNL A   1      43.846  27.781  33.695  1.00  0.00     0.037 A 
BRANCH  41  55
ATOM     55  C   UNL A   1      42.731  25.989  27.890  1.00  0.00     0.064 A 
ATOM     56  C   UNL A   1      43.605  26.432  26.885  1.00  0.00     0.173 A 
ATOM     57  C   UNL A   1      42.256  24.671  27.810  1.00  0.00     0.173 A 
ATOM     58  F   UNL A   1      44.080  27.687  26.907  1.00  0.00    -0.203 F 
ATOM     59  C   UNL A   1      43.963  25.598  25.828  1.00  0.00     0.198 A 
ATOM     60  C   UNL A   1      42.644  23.829  26.770  1.00  0.00     0.198 A 
ATOM     61  F   UNL A   1      41.425  24.193  28.748  1.00  0.00    -0.203 F 
ATOM     62  F   UNL A   1      44.757  26.060  24.852  1.00  0.00    -0.200 F 
ATOM     63  C   UNL A   1      43.489  24.297  25.776  1.00  0.00     0.200 A 
ATOM     64  F   UNL A   1      42.198  22.566  26.732  1.00  0.00    -0.200 F 
ATOM     65  F   UNL A   1      43.842  23.493  24.763  1.00  0.00    -0.200 F 
ENDBRANCH  41  55
BRANCH  42  66
ATOM     66  C   UNL A   1      39.635  31.798  35.376  1.00  0.00     0.064 A 
ATOM     67  C   UNL A   1      38.676  31.307  36.272  1.00  0.00     0.173 A 
ATOM     68  C   UNL A   1      40.104  33.104  35.577  1.00  0.00     0.173 A 
ATOM     69  F   UNL A   1      38.170  30.076  36.105  1.00  0.00    -0.203 F 
ATOM     70  C   UNL A   1      38.189  32.098  37.313  1.00  0.00     0.198 A 
ATOM     71  C   UNL A   1      39.643  33.882  36.637  1.00  0.00     0.198 A 
ATOM     72  F   UNL A   1      41.017  33.627  34.743  1.00  0.00    -0.203 F 
ATOM     73  F   UNL A   1      37.230  31.623  38.120  1.00  0.00    -0.200 F 
ATOM     74  C   UNL A   1      38.678  33.382  37.499  1.00  0.00     0.200 A 
ATOM     75  F   UNL A   1      40.123  35.120  36.816  1.00  0.00    -0.200 F 
ATOM     76  F   UNL A   1      38.211  34.141  38.498  1.00  0.00    -0.200 F 
ENDBRANCH  42  66
BRANCH  54  77
ATOM     77  C   UNL A   1      44.962  27.354  34.610  1.00  0.00     0.064 A 
ATOM     78  C   UNL A   1      46.167  28.067  34.695  1.00  0.00     0.173 A 
ATOM     79  C   UNL A   1      44.802  26.240  35.449  1.00  0.00     0.173 A 
ATOM     80  F   UNL A   1      46.379  29.132  33.908  1.00  0.00    -0.203 F 
ATOM     81  C   UNL A   1      47.179  27.665  35.565  1.00  0.00     0.198 A 
ATOM     82  C   UNL A   1      45.801  25.862  36.343  1.00  0.00     0.198 A 
ATOM     83  F   UNL A   1      43.667  25.526  35.417  1.00  0.00    -0.203 F 
ATOM     84  F   UNL A   1      48.341  28.333  35.591  1.00  0.00    -0.200 F 
ATOM     85  C   UNL A   1      46.992  26.569  36.393  1.00  0.00     0.200 A 
ATOM     86  F   UNL A   1      45.610  24.813  37.155  1.00  0.00    -0.200 F 
ATOM     87  F   UNL A   1      47.962  26.191  37.237  1.00  0.00    -0.200 F 
ENDBRANCH  54  77
ENDBRANCH  28  29
ENDBRANCH  21  23
ENDBRANCH  20  21
ENDBRANCH  19  20
ENDBRANCH  18  19
ENDBRANCH  17  18
ENDBRANCH  16  17
ENDBRANCH   1  16
TORSDOF 19
ENDMDL
MODEL 2
REMARK VINA RESULT:      -9.4      4.623     10.115
REMARK SMILES O=C(CS(=O)(=O)N1CCC1)OCCOCCOCCOC(=O)c1ccc(-c2c3nc(c(-c4c(F)c(F)c(F)c(F)c4F)c4ccc([nH]4)c(-c4c(F)c(F)c(F)c(F)c4F)c4nc(c(-c5c(F)c(F)c(F)c(F)c5F)c5ccc2[nH]5)C=C4)C=C3)cc1
REMARK SMILES IDX 15 1 14 2 13 3 12 4 11 5 2 6 1 7 3 8 4 9 5 10 6 11 7 12 8 13
REMARK SMILES IDX 10 14 9 15 16 16 17 17 18 18 19 19 20 20 21 21 22 22 23 23
REMARK SMILES IDX 24 24 85 25 25 26 84 27 26 28 27 29 28 30 78 31 29 32 83 33
REMARK SMILES IDX 77 34 79 35 30 36 82 37 76 38 75 39 31 41 63 42 43 43 62 44
REMARK SMILES IDX 44 45 47 46 61 47 80 48 45 49 46 50 60 52 81 53 48 54 32 55
REMARK SMILES IDX 33 56 41 57 34 58 35 59 39 60 42 61 36 62 37 63 40 64 38 65
REMARK SMILES IDX 64 66 65 67 73 68 66 69 67 70 71 71 74 72 68 73 69 74 72 75
REMARK SMILES IDX 70 76 49 77 50 78 58 79 51 80 52 81 56 82 59 83 53 84 54 85
REMARK SMILES IDX 57 86 55 87
REMARK H PARENT 79 40 47 51
REMARK Flexibility Score: inf
ROOT
ATOM      1  C   UNL A   1      32.999  22.100  24.253  1.00  0.00     0.188 C 
ENDROOT
BRANCH   1   2
ATOM      2  O   UNL A   1      32.014  23.013  23.818  1.00  0.00    -0.376 OA
BRANCH   2   3
ATOM      3  C   UNL A   1      32.379  24.330  23.425  1.00  0.00     0.202 C 
BRANCH   3   4
ATOM      4  C   UNL A   1      32.277  25.427  24.485  1.00  0.00     0.261 C 
BRANCH   4   5
ATOM      5  O   UNL A   1      31.312  26.508  24.322  1.00  0.00    -0.462 OA
BRANCH   5   6
ATOM      6  C   UNL A   1      31.145  27.682  24.959  1.00  0.00     0.322 C 
ATOM      7  O   UNL A   1      31.356  27.726  26.174  1.00  0.00    -0.251 OA
BRANCH   6   8
ATOM      8  C   UNL A   1      30.674  28.896  24.261  1.00  0.00     0.276 C 
BRANCH   8   9
ATOM      9  S   UNL A   1      29.553  28.488  22.973  1.00  0.00     0.224 S 
ATOM     10  O   UNL A   1      30.296  28.226  21.761  1.00  0.00    -0.212 OA
ATOM     11  O   UNL A   1      28.648  27.485  23.502  1.00  0.00    -0.212 OA
BRANCH   9  12
ATOM     12  N   UNL A   1      28.673  29.902  22.762  1.00  0.00    -0.201 NA
ATOM     13  C   UNL A   1      28.821  31.195  23.509  1.00  0.00     0.103 C 
ATOM     14  C   UNL A   1      28.689  30.694  21.494  1.00  0.00     0.103 C 
ATOM     15  C   UNL A   1      28.252  31.934  22.294  1.00  0.00     0.033 C 
ENDBRANCH   9  12
ENDBRANCH   8   9
ENDBRANCH   6   8
ENDBRANCH   5   6
ENDBRANCH   4   5
ENDBRANCH   3   4
ENDBRANCH   2   3
ENDBRANCH   1   2
BRANCH   1  16
ATOM     16  C   UNL A   1      34.454  22.551  24.063  1.00  0.00     0.188 C 
BRANCH  16  17
ATOM     17  O   UNL A   1      35.354  22.384  25.143  1.00  0.00    -0.376 OA
BRANCH  17  18
ATOM     18  C   UNL A   1      35.737  21.055  25.487  1.00  0.00     0.202 C 
BRANCH  18  19
ATOM     19  C   UNL A   1      37.094  20.511  24.993  1.00  0.00     0.261 C 
BRANCH  19  20
ATOM     20  O   UNL A   1      38.200  21.444  25.009  1.00  0.00    -0.460 OA
BRANCH  20  21
ATOM     21  C   UNL A   1      39.166  21.210  25.932  1.00  0.00     0.338 C 
ATOM     22  O   UNL A   1      39.727  20.150  26.159  1.00  0.00    -0.246 OA
BRANCH  21  23
ATOM     23  C   UNL A   1      39.590  22.464  26.590  1.00  0.00     0.060 A 
ATOM     24  C   UNL A   1      39.075  23.688  26.135  1.00  0.00     0.016 A 
ATOM     25  C   UNL A   1      40.613  22.449  27.538  1.00  0.00     0.016 A 
ATOM     26  C   UNL A   1      39.595  24.897  26.608  1.00  0.00     0.010 A 
ATOM     27  C   UNL A   1      41.148  23.661  27.995  1.00  0.00     0.010 A 
ATOM     28  C   UNL A   1      40.668  24.892  27.508  1.00  0.00    -0.014 A 
BRANCH  28  29
ATOM     29  C   UNL A   1      41.407  26.149  27.811  1.00  0.00     0.031 A 
ATOM     30  C   UNL A   1      40.685  27.266  28.516  1.00  0.00     0.074 A 
ATOM     31  C   UNL A   1      42.697  26.310  27.461  1.00  0.00     0.049 A 
ATOM     32  N   UNL A   1      41.087  28.482  28.789  1.00  0.00    -0.248 NA
ATOM     33  C   UNL A   1      39.316  26.971  28.968  1.00  0.00     0.031 C 
ATOM     34  C   UNL A   1      43.530  25.300  26.817  1.00  0.00     0.029 A 
ATOM     35  N   UNL A   1      43.523  27.403  27.584  1.00  0.00    -0.354 N 
ATOM     36  C   UNL A   1      40.020  29.101  29.429  1.00  0.00     0.074 A 
ATOM     37  C   UNL A   1      38.943  28.135  29.480  1.00  0.00     0.031 C 
ATOM     38  C   UNL A   1      44.744  25.825  26.578  1.00  0.00     0.029 A 
ATOM     39  C   UNL A   1      44.761  27.220  27.018  1.00  0.00     0.049 A 
ATOM     40  H   UNL A   1      43.254  28.235  28.035  1.00  0.00     0.167 HD
ATOM     41  C   UNL A   1      39.945  30.356  29.932  1.00  0.00     0.037 A 
ATOM     42  C   UNL A   1      45.778  28.089  26.844  1.00  0.00     0.037 A 
ATOM     43  C   UNL A   1      41.015  31.320  29.882  1.00  0.00     0.049 A 
ATOM     44  C   UNL A   1      45.642  29.509  27.340  1.00  0.00     0.074 A 
ATOM     45  C   UNL A   1      41.039  32.609  30.387  1.00  0.00     0.029 A 
ATOM     46  N   UNL A   1      42.244  31.104  29.280  1.00  0.00    -0.354 N 
ATOM     47  N   UNL A   1      44.641  30.078  27.968  1.00  0.00    -0.248 NA
ATOM     48  C   UNL A   1      46.783  30.407  27.103  1.00  0.00     0.031 C 
ATOM     49  C   UNL A   1      42.258  33.195  30.034  1.00  0.00     0.029 A 
ATOM     50  C   UNL A   1      43.023  32.248  29.371  1.00  0.00     0.049 A 
ATOM     51  H   UNL A   1      42.524  30.264  28.850  1.00  0.00     0.167 HD
ATOM     52  C   UNL A   1      45.044  31.382  28.231  1.00  0.00     0.074 A 
ATOM     53  C   UNL A   1      46.384  31.519  27.705  1.00  0.00     0.031 C 
ATOM     54  C   UNL A   1      44.363  32.376  28.855  1.00  0.00     0.037 A 
BRANCH  41  55
ATOM     55  C   UNL A   1      38.644  30.779  30.556  1.00  0.00     0.064 A 
ATOM     56  C   UNL A   1      38.436  30.733  31.943  1.00  0.00     0.173 A 
ATOM     57  C   UNL A   1      37.602  31.273  29.754  1.00  0.00     0.173 A 
ATOM     58  F   UNL A   1      39.395  30.261  32.755  1.00  0.00    -0.203 F 
ATOM     59  C   UNL A   1      37.224  31.134  32.500  1.00  0.00     0.198 A 
ATOM     60  C   UNL A   1      36.405  31.705  30.318  1.00  0.00     0.198 A 
ATOM     61  F   UNL A   1      37.749  31.347  28.423  1.00  0.00    -0.203 F 
ATOM     62  F   UNL A   1      37.029  31.032  33.822  1.00  0.00    -0.200 F 
ATOM     63  C   UNL A   1      36.213  31.627  31.689  1.00  0.00     0.200 A 
ATOM     64  F   UNL A   1      35.436  32.197  29.533  1.00  0.00    -0.200 F 
ATOM     65  F   UNL A   1      35.051  32.022  32.227  1.00  0.00    -0.200 F 
ENDBRANCH  41  55
BRANCH  42  66
ATOM     66  C   UNL A   1      47.018  27.653  26.145  1.00  0.00     0.064 A 
ATOM     67  C   UNL A   1      47.121  27.710  24.748  1.00  0.00     0.173 A 
ATOM     68  C   UNL A   1      48.113  27.141  26.857  1.00  0.00     0.173 A 
ATOM     69  F   UNL A   1      46.088  28.160  24.019  1.00  0.00    -0.203 F 
ATOM     70  C   UNL A   1      48.261  27.252  24.089  1.00  0.00     0.198 A 
ATOM     71  C   UNL A   1      49.266  26.716  26.200  1.00  0.00     0.198 A 
ATOM     72  F   UNL A   1      48.065  27.057  28.195  1.00  0.00    -0.203 F 
ATOM     73  F   UNL A   1      48.308  27.265  22.750  1.00  0.00    -0.200 F 
ATOM     74  C   UNL A   1      49.336  26.763  24.816  1.00  0.00     0.200 A 
ATOM     75  F   UNL A   1      50.305  26.250  26.907  1.00  0.00    -0.200 F 
ATOM     76  F   UNL A   1      50.431  26.324  24.182  1.00  0.00    -0.200 F 
ENDBRANCH  42  66
BRANCH  54  77
ATOM     77  C   UNL A   1      45.067  33.691  29.052  1.00  0.00     0.064 A 
ATOM     78  C   UNL A   1      44.961  34.737  28.125  1.00  0.00     0.173 A 
ATOM     79  C   UNL A   1      45.823  33.921  30.213  1.00  0.00     0.173 A 
ATOM     80  F   UNL A   1      44.262  34.569  26.993  1.00  0.00    -0.203 F 
ATOM     81  C   UNL A   1      45.606  35.954  28.339  1.00  0.00     0.198 A 
ATOM     82  C   UNL A   1      46.437  35.150  30.441  1.00  0.00     0.198 A 
ATOM     83  F   UNL A   1      45.953  32.958  31.138  1.00  0.00    -0.203 F 
ATOM     84  F   UNL A   1      45.530  36.922  27.414  1.00  0.00    -0.200 F 
ATOM     85  C   UNL A   1      46.336  36.163  29.499  1.00  0.00     0.200 A 
ATOM     86  F   UNL A   1      47.127  35.354  31.571  1.00  0.00    -0.200 F 
ATOM     87  F   UNL A   1      46.946  37.337  29.708  1.00  0.00    -0.200 F 
ENDBRANCH  54  77
ENDBRANCH  28  29
ENDBRANCH  21  23
ENDBRANCH  20  21
ENDBRANCH  19  20
ENDBRANCH  18  19
ENDBRANCH  17  18
ENDBRANCH  16  17
ENDBRANCH   1  16
TORSDOF 19
ENDMDL
MODEL 3
REMARK VINA RESULT:      -9.3      4.260      9.740
REMARK SMILES O=C(CS(=O)(=O)N1CCC1)OCCOCCOCCOC(=O)c1ccc(-c2c3nc(c(-c4c(F)c(F)c(F)c(F)c4F)c4ccc([nH]4)c(-c4c(F)c(F)c(F)c(F)c4F)c4nc(c(-c5c(F)c(F)c(F)c(F)c5F)c5ccc2[nH]5)C=C4)C=C3)cc1
REMARK SMILES IDX 15 1 14 2 13 3 12 4 11 5 2 6 1 7 3 8 4 9 5 10 6 11 7 12 8 13
REMARK SMILES IDX 10 14 9 15 16 16 17 17 18 18 19 19 20 20 21 21 22 22 23 23
REMARK SMILES IDX 24 24 85 25 25 26 84 27 26 28 27 29 28 30 78 31 29 32 83 33
REMARK SMILES IDX 77 34 79 35 30 36 82 37 76 38 75 39 31 41 63 42 43 43 62 44
REMARK SMILES IDX 44 45 47 46 61 47 80 48 45 49 46 50 60 52 81 53 48 54 32 55
REMARK SMILES IDX 33 56 41 57 34 58 35 59 39 60 42 61 36 62 37 63 40 64 38 65
REMARK SMILES IDX 64 66 65 67 73 68 66 69 67 70 71 71 74 72 68 73 69 74 72 75
REMARK SMILES IDX 70 76 49 77 50 78 58 79 51 80 52 81 56 82 59 83 53 84 54 85
REMARK SMILES IDX 57 86 55 87
REMARK H PARENT 79 40 47 51
REMARK Flexibility Score: inf
ROOT
ATOM      1  C   UNL A   1      33.306  22.414  26.881  1.00  0.00     0.188 C 
ENDROOT
BRANCH   1   2
ATOM      2  O   UNL A   1      31.932  22.739  26.863  1.00  0.00    -0.376 OA
BRANCH   2   3
ATOM      3  C   UNL A   1      31.303  23.130  25.649  1.00  0.00     0.202 C 
BRANCH   3   4
ATOM      4  C   UNL A   1      30.884  24.594  25.520  1.00  0.00     0.261 C 
BRANCH   4   5
ATOM      5  O   UNL A   1      31.663  25.503  24.686  1.00  0.00    -0.462 OA
BRANCH   5   6
ATOM      6  C   UNL A   1      32.707  26.309  24.950  1.00  0.00     0.322 C 
ATOM      7  O   UNL A   1      33.631  25.868  25.638  1.00  0.00    -0.251 OA
BRANCH   6   8
ATOM      8  C   UNL A   1      32.757  27.711  24.483  1.00  0.00     0.276 C 
BRANCH   8   9
ATOM      9  S   UNL A   1      31.988  28.787  25.637  1.00  0.00     0.224 S 
ATOM     10  O   UNL A   1      31.060  29.648  24.941  1.00  0.00    -0.212 OA
ATOM     11  O   UNL A   1      31.529  27.966  26.742  1.00  0.00    -0.212 OA
BRANCH   9  12
ATOM     12  N   UNL A   1      33.262  29.725  26.200  1.00  0.00    -0.201 NA
ATOM     13  C   UNL A   1      33.252  30.695  27.345  1.00  0.00     0.103 C 
ATOM     14  C   UNL A   1      34.514  29.143  26.774  1.00  0.00     0.103 C 
ATOM     15  C   UNL A   1      34.756  30.467  27.520  1.00  0.00     0.033 C 
ENDBRANCH   9  12
ENDBRANCH   8   9
ENDBRANCH   6   8
ENDBRANCH   5   6
ENDBRANCH   4   5
ENDBRANCH   3   4
ENDBRANCH   2   3
ENDBRANCH   1   2
BRANCH   1  16
ATOM     16  C   UNL A   1      33.655  20.978  26.461  1.00  0.00     0.188 C 
BRANCH  16  17
ATOM     17  O   UNL A   1      34.178  20.770  25.161  1.00  0.00    -0.376 OA
BRANCH  17  18
ATOM     18  C   UNL A   1      35.568  20.483  25.045  1.00  0.00     0.202 C 
BRANCH  18  19
ATOM     19  C   UNL A   1      36.583  21.352  25.818  1.00  0.00     0.261 C 
BRANCH  19  20
ATOM     20  O   UNL A   1      37.851  21.591  25.160  1.00  0.00    -0.460 OA
BRANCH  20  21
ATOM     21  C   UNL A   1      38.962  21.331  25.894  1.00  0.00     0.338 C 
ATOM     22  O   UNL A   1      39.589  20.284  25.936  1.00  0.00    -0.246 OA
BRANCH  21  23
ATOM     23  C   UNL A   1      39.444  22.548  26.581  1.00  0.00     0.060 A 
ATOM     24  C   UNL A   1      38.959  23.802  26.179  1.00  0.00     0.016 A 
ATOM     25  C   UNL A   1      40.489  22.467  27.501  1.00  0.00     0.016 A 
ATOM     26  C   UNL A   1      39.532  24.977  26.677  1.00  0.00     0.010 A 
ATOM     27  C   UNL A   1      41.076  23.645  27.983  1.00  0.00     0.010 A 
ATOM     28  C   UNL A   1      40.626  24.907  27.549  1.00  0.00    -0.014 A 
BRANCH  28  29
ATOM     29  C   UNL A   1      41.414  26.128  27.873  1.00  0.00     0.031 A 
ATOM     30  C   UNL A   1      40.751  27.240  28.643  1.00  0.00     0.074 A 
ATOM     31  C   UNL A   1      42.696  26.263  27.486  1.00  0.00     0.049 A 
ATOM     32  N   UNL A   1      41.201  28.431  28.947  1.00  0.00    -0.248 NA
ATOM     33  C   UNL A   1      39.390  26.970  29.130  1.00  0.00     0.031 C 
ATOM     34  C   UNL A   1      43.475  25.253  26.777  1.00  0.00     0.029 A 
ATOM     35  N   UNL A   1      43.561  27.324  27.620  1.00  0.00    -0.354 N 
ATOM     36  C   UNL A   1      40.176  29.057  29.645  1.00  0.00     0.074 A 
ATOM     37  C   UNL A   1      39.071  28.124  29.697  1.00  0.00     0.031 C 
ATOM     38  C   UNL A   1      44.697  25.749  26.516  1.00  0.00     0.029 A 
ATOM     39  C   UNL A   1      44.773  27.125  27.006  1.00  0.00     0.049 A 
ATOM     40  H   UNL A   1      43.333  28.146  28.111  1.00  0.00     0.167 HD
ATOM     41  C   UNL A   1      40.157  30.294  30.197  1.00  0.00     0.037 A 
ATOM     42  C   UNL A   1      45.811  27.969  26.831  1.00  0.00     0.037 A 
ATOM     43  C   UNL A   1      41.255  31.226  30.146  1.00  0.00     0.049 A 
ATOM     44  C   UNL A   1      45.737  29.372  27.383  1.00  0.00     0.074 A 
ATOM     45  C   UNL A   1      41.338  32.493  30.698  1.00  0.00     0.029 A 
ATOM     46  N   UNL A   1      42.457  30.996  29.495  1.00  0.00    -0.354 N 
ATOM     47  N   UNL A   1      44.776  29.947  28.066  1.00  0.00    -0.248 NA
ATOM     48  C   UNL A   1      46.898  30.244  27.141  1.00  0.00     0.031 C 
ATOM     49  C   UNL A   1      42.563  33.055  30.325  1.00  0.00     0.029 A 
ATOM     50  C   UNL A   1      43.274  32.111  29.602  1.00  0.00     0.049 A 
ATOM     51  H   UNL A   1      42.696  30.164  29.025  1.00  0.00     0.167 HD
ATOM     52  C   UNL A   1      45.228  31.227  28.363  1.00  0.00     0.074 A 
ATOM     53  C   UNL A   1      46.554  31.343  27.797  1.00  0.00     0.031 C 
ATOM     54  C   UNL A   1      44.600  32.217  29.046  1.00  0.00     0.037 A 
BRANCH  41  55
ATOM     55  C   UNL A   1      38.892  30.733  30.880  1.00  0.00     0.064 A 
ATOM     56  C   UNL A   1      38.731  30.647  32.271  1.00  0.00     0.173 A 
ATOM     57  C   UNL A   1      37.838  31.281  30.132  1.00  0.00     0.173 A 
ATOM     58  F   UNL A   1      39.703  30.122  33.033  1.00  0.00    -0.203 F 
ATOM     59  C   UNL A   1      37.551  31.064  32.883  1.00  0.00     0.198 A 
ATOM     60  C   UNL A   1      36.674  31.729  30.752  1.00  0.00     0.198 A 
ATOM     61  F   UNL A   1      37.941  31.395  28.799  1.00  0.00    -0.203 F 
ATOM     62  F   UNL A   1      37.399  30.924  34.208  1.00  0.00    -0.200 F 
ATOM     63  C   UNL A   1      36.528  31.611  32.125  1.00  0.00     0.200 A 
ATOM     64  F   UNL A   1      35.693  32.273  30.018  1.00  0.00    -0.200 F 
ATOM     65  F   UNL A   1      35.397  32.020  32.717  1.00  0.00    -0.200 F 
ENDBRANCH  41  55
BRANCH  42  66
ATOM     66  C   UNL A   1      47.013  27.522  26.074  1.00  0.00     0.064 A 
ATOM     67  C   UNL A   1      48.140  27.017  26.738  1.00  0.00     0.173 A 
ATOM     68  C   UNL A   1      47.072  27.621  24.676  1.00  0.00     0.173 A 
ATOM     69  F   UNL A   1      48.147  26.932  28.077  1.00  0.00    -0.203 F 
ATOM     70  C   UNL A   1      49.286  26.648  26.035  1.00  0.00     0.198 A 
ATOM     71  C   UNL A   1      48.205  27.221  23.971  1.00  0.00     0.198 A 
ATOM     72  F   UNL A   1      46.025  28.106  23.992  1.00  0.00    -0.203 F 
ATOM     73  F   UNL A   1      50.369  26.222  26.700  1.00  0.00    -0.200 F 
ATOM     74  C   UNL A   1      49.315  26.743  24.651  1.00  0.00     0.200 A 
ATOM     75  F   UNL A   1      48.226  27.308  22.634  1.00  0.00    -0.200 F 
ATOM     76  F   UNL A   1      50.416  26.388  23.977  1.00  0.00    -0.200 F 
ENDBRANCH  42  66
BRANCH  54  77
ATOM     77  C   UNL A   1      45.352  33.501  29.268  1.00  0.00     0.064 A 
ATOM     78  C   UNL A   1      45.254  34.583  28.381  1.00  0.00     0.173 A 
ATOM     79  C   UNL A   1      46.148  33.666  30.413  1.00  0.00     0.173 A 
ATOM     80  F   UNL A   1      44.517  34.477  27.265  1.00  0.00    -0.203 F 
ATOM     81  C   UNL A   1      45.943  35.770  28.618  1.00  0.00     0.198 A 
ATOM     82  C   UNL A   1      46.808  34.866  30.665  1.00  0.00     0.198 A 
ATOM     83  F   UNL A   1      46.273  32.667  31.300  1.00  0.00    -0.203 F 
ATOM     84  F   UNL A   1      45.873  36.772  27.730  1.00  0.00    -0.200 F 
ATOM     85  C   UNL A   1      46.713  35.914  29.763  1.00  0.00     0.200 A 
ATOM     86  F   UNL A   1      47.537  35.008  31.781  1.00  0.00    -0.200 F 
ATOM     87  F   UNL A   1      47.366  37.061  29.994  1.00  0.00    -0.200 F 
ENDBRANCH  54  77
ENDBRANCH  28  29
ENDBRANCH  21  23
ENDBRANCH  20  21
ENDBRANCH  19  20
ENDBRANCH  18  19
ENDBRANCH  17  18
ENDBRANCH  16  17
ENDBRANCH   1  16
TORSDOF 19
ENDMDL
