MODEL 1
REMARK VINA RESULT:     -13.0      0.000      0.000
REMARK SMILES Cc1cccc(O[C@H](C)C(=O)NNC(=O)[C@H]2[C@@H]3CC[C@@H](C3)[C@@H]2C(=O)OCCOCCOCCOC(=O)c2ccc(-c3c4nc(c(-c5c(F)c(F)c(F)c(F)c5F)c5ccc([nH]5)c(-c5c(F)c(F)c(F)c(F)c5F)c5nc(c(-c6c(F)c(F)c(F)c(F)c6F)c6ccc3[nH]6)C=C5)C=C4)cc2)c1
REMARK SMILES IDX 28 1 27 2 26 3 25 4 23 5 24 6 22 7 16 8 17 9 18 10 21 11
REMARK SMILES IDX 20 12 19 13 14 14 13 15 15 17 12 18 10 19 11 20 8 22 9 23
REMARK SMILES IDX 7 24 6 25 1 26 2 27 3 28 100 29 4 30 5 31 29 32 30 33 31 34
REMARK SMILES IDX 32 35 33 36 34 37 35 38 36 39 37 40 38 41 99 42 39 43 98 44
REMARK SMILES IDX 40 45 41 46 42 47 92 48 43 49 97 50 91 51 93 52 44 53 96 54
REMARK SMILES IDX 90 55 89 56 45 58 77 59 57 60 76 61 58 62 61 63 75 64 94 65
REMARK SMILES IDX 59 66 60 67 74 69 95 70 62 71 46 72 47 73 55 74 48 75 49 76
REMARK SMILES IDX 53 77 56 78 50 79 51 80 54 81 52 82 78 83 79 84 87 85 80 86
REMARK SMILES IDX 81 87 85 88 88 89 82 90 83 91 86 92 84 93 63 94 64 95 72 96
REMARK SMILES IDX 65 97 66 98 70 99 73 100 67 101 68 102 71 103 69 104
REMARK H PARENT 13 16 12 21 93 57 61 68
REMARK Flexibility Score: inf
ROOT
ATOM      1  O   UNL A   1      36.642  21.839  23.975  1.00  0.00    -0.376 OA
ENDROOT
BRANCH   1   2
ATOM      2  C   UNL A   1      35.994  23.123  24.093  1.00  0.00     0.202 C 
BRANCH   2   3
ATOM      3  C   UNL A   1      35.564  24.113  25.435  1.00  0.00     0.261 C 
BRANCH   3   4
ATOM      4  O   UNL A   1      34.483  25.563  25.745  1.00  0.00    -0.463 OA
BRANCH   4   5
ATOM      5  C   UNL A   1      33.078  25.959  26.006  1.00  0.00     0.310 C 
ATOM      6  O   UNL A   1      32.204  25.309  26.589  1.00  0.00    -0.252 OA
BRANCH   5   7
ATOM      7  C   UNL A   1      32.509  27.284  25.606  1.00  0.00     0.115 C 
ATOM      8  C   UNL A   1      33.593  28.051  24.764  1.00  0.00     0.098 C 
ATOM      9  C   UNL A   1      33.683  29.465  25.416  1.00  0.00     0.003 C 
ATOM     10  C   UNL A   1      34.579  29.374  26.661  1.00  0.00     0.005 C 
ATOM     11  C   UNL A   1      32.303  29.643  26.043  1.00  0.00     0.009 C 
ATOM     12  C   UNL A   1      32.374  28.319  26.815  1.00  0.00     0.004 C 
ATOM     13  C   UNL A   1      33.669  28.626  27.645  1.00  0.00     0.005 C 
BRANCH   8  14
ATOM     14  C   UNL A   1      33.538  28.211  23.267  1.00  0.00     0.242 C 
ATOM     15  N   UNL A   1      33.453  27.172  22.406  1.00  0.00    -0.267 N 
ATOM     16  H   UNL A   1      33.268  27.400  21.466  1.00  0.00     0.191 HD
ATOM     17  O   UNL A   1      33.445  29.344  22.781  1.00  0.00    -0.273 OA
BRANCH  15  18
ATOM     18  N   UNL A   1      33.594  25.843  22.688  1.00  0.00    -0.264 N 
ATOM     19  C   UNL A   1      32.611  24.939  22.376  1.00  0.00     0.279 C 
ATOM     20  O   UNL A   1      32.942  23.849  21.899  1.00  0.00    -0.269 OA
ATOM     21  H   UNL A   1      34.417  25.529  23.124  1.00  0.00     0.191 HD
BRANCH  19  22
ATOM     22  C   UNL A   1      31.159  25.217  22.856  1.00  0.00     0.260 C 
ATOM     23  C   UNL A   1      30.471  23.896  23.220  1.00  0.00     0.064 C 
BRANCH  22  24
ATOM     24  O   UNL A   1      30.750  26.373  23.559  1.00  0.00    -0.481 OA
BRANCH  24  25
ATOM     25  C   UNL A   1      29.647  27.138  23.369  1.00  0.00     0.120 A 
ATOM     26  C   UNL A   1      29.134  30.483  21.577  1.00  0.00     0.044 C 
ATOM     27  C   UNL A   1      28.883  29.259  22.406  1.00  0.00    -0.047 A 
ATOM     28  C   UNL A   1      27.605  29.024  22.910  1.00  0.00     0.003 A 
ATOM     29  C   UNL A   1      29.896  28.321  22.658  1.00  0.00     0.049 A 
ATOM     30  C   UNL A   1      27.331  27.831  23.567  1.00  0.00     0.004 A 
ATOM     31  C   UNL A   1      28.336  26.872  23.740  1.00  0.00     0.046 A 
ENDBRANCH  24  25
ENDBRANCH  22  24
ENDBRANCH  19  22
ENDBRANCH  15  18
ENDBRANCH   8  14
ENDBRANCH   5   7
ENDBRANCH   4   5
ENDBRANCH   3   4
ENDBRANCH   2   3
ENDBRANCH   1   2
BRANCH   1  32
ATOM     32  C   UNL A   1      37.247  21.101  25.053  1.00  0.00     0.188 C 
BRANCH  32  33
ATOM     33  C   UNL A   1      38.543  21.553  25.693  1.00  0.00     0.188 C 
BRANCH  33  34
ATOM     34  O   UNL A   1      39.431  20.463  25.691  1.00  0.00    -0.376 OA
BRANCH  34  35
ATOM     35  C   UNL A   1      40.427  20.485  26.686  1.00  0.00     0.202 C 
BRANCH  35  36
ATOM     36  C   UNL A   1      41.788  20.824  26.075  1.00  0.00     0.261 C 
BRANCH  36  37
ATOM     37  O   UNL A   1      41.766  22.166  25.529  1.00  0.00    -0.460 OA
BRANCH  37  38
ATOM     38  C   UNL A   1      42.242  23.169  26.351  1.00  0.00     0.338 C 
ATOM     39  O   UNL A   1      43.235  23.091  27.034  1.00  0.00    -0.246 OA
BRANCH  38  40
ATOM     40  C   UNL A   1      41.188  24.229  26.521  1.00  0.00     0.060 A 
ATOM     41  C   UNL A   1      41.339  25.550  26.070  1.00  0.00     0.016 A 
ATOM     42  C   UNL A   1      40.316  24.038  27.529  1.00  0.00     0.016 A 
ATOM     43  C   UNL A   1      40.908  26.692  26.857  1.00  0.00     0.010 A 
ATOM     44  C   UNL A   1      40.113  25.142  28.344  1.00  0.00     0.010 A 
ATOM     45  C   UNL A   1      40.441  26.561  28.165  1.00  0.00    -0.014 A 
BRANCH  45  46
ATOM     46  C   UNL A   1      40.302  27.950  29.318  1.00  0.00     0.031 A 
ATOM     47  C   UNL A   1      39.223  29.411  29.322  1.00  0.00     0.074 A 
ATOM     48  C   UNL A   1      41.294  28.114  30.222  1.00  0.00     0.049 A 
ATOM     49  N   UNL A   1      39.618  30.652  29.558  1.00  0.00    -0.248 NA
ATOM     50  C   UNL A   1      37.762  29.580  28.807  1.00  0.00     0.031 C 
ATOM     51  C   UNL A   1      41.346  29.072  31.321  1.00  0.00     0.029 A 
ATOM     52  N   UNL A   1      42.531  27.460  30.293  1.00  0.00    -0.354 N 
ATOM     53  C   UNL A   1      38.508  31.503  29.354  1.00  0.00     0.074 A 
ATOM     54  C   UNL A   1      37.641  30.843  28.488  1.00  0.00     0.031 C 
ATOM     55  C   UNL A   1      42.618  29.165  31.741  1.00  0.00     0.029 A 
ATOM     56  C   UNL A   1      43.432  28.400  30.815  1.00  0.00     0.049 A 
ATOM     57  H   UNL A   1      42.727  26.531  30.031  1.00  0.00     0.167 HD
ATOM     58  C   UNL A   1      38.168  32.545  30.165  1.00  0.00     0.037 A 
ATOM     59  C   UNL A   1      44.458  28.853  30.040  1.00  0.00     0.037 A 
ATOM     60  C   UNL A   1      39.322  32.878  30.948  1.00  0.00     0.049 A 
ATOM     61  C   UNL A   1      44.396  30.352  29.817  1.00  0.00     0.074 A 
ATOM     62  C   UNL A   1      39.819  32.525  32.185  1.00  0.00     0.029 A 
ATOM     63  N   UNL A   1      40.390  33.319  30.213  1.00  0.00    -0.354 N 
ATOM     64  N   UNL A   1      43.484  31.141  30.321  1.00  0.00    -0.248 NA
ATOM     65  C   UNL A   1      45.321  31.073  28.944  1.00  0.00     0.031 C 
ATOM     66  C   UNL A   1      41.246  32.670  32.118  1.00  0.00     0.029 A 
ATOM     67  C   UNL A   1      41.583  33.153  30.864  1.00  0.00     0.049 A 
ATOM     68  H   UNL A   1      40.309  33.712  29.314  1.00  0.00     0.167 HD
ATOM     69  C   UNL A   1      43.627  32.398  29.808  1.00  0.00     0.074 A 
ATOM     70  C   UNL A   1      44.794  32.308  28.950  1.00  0.00     0.031 C 
ATOM     71  C   UNL A   1      42.772  33.427  30.074  1.00  0.00     0.037 A 
BRANCH  58  72
ATOM     72  C   UNL A   1      36.724  33.030  30.388  1.00  0.00     0.064 A 
ATOM     73  C   UNL A   1      36.072  33.733  29.358  1.00  0.00     0.173 A 
ATOM     74  C   UNL A   1      35.952  32.942  31.579  1.00  0.00     0.173 A 
ATOM     75  F   UNL A   1      36.613  33.814  28.135  1.00  0.00    -0.203 F 
ATOM     76  C   UNL A   1      34.840  34.383  29.538  1.00  0.00     0.198 A 
ATOM     77  C   UNL A   1      34.764  33.659  31.788  1.00  0.00     0.198 A 
ATOM     78  F   UNL A   1      36.248  32.090  32.565  1.00  0.00    -0.203 F 
ATOM     79  F   UNL A   1      34.271  35.021  28.506  1.00  0.00    -0.200 F 
ATOM     80  C   UNL A   1      34.208  34.385  30.765  1.00  0.00     0.200 A 
ATOM     81  F   UNL A   1      34.159  33.616  32.986  1.00  0.00    -0.200 F 
ATOM     82  F   UNL A   1      33.056  35.045  30.947  1.00  0.00    -0.200 F 
ENDBRANCH  58  72
BRANCH  59  83
ATOM     83  C   UNL A   1      44.993  27.811  29.099  1.00  0.00     0.064 A 
ATOM     84  C   UNL A   1      44.551  27.838  27.751  1.00  0.00     0.173 A 
ATOM     85  C   UNL A   1      46.119  27.022  29.369  1.00  0.00     0.173 A 
ATOM     86  F   UNL A   1      43.471  28.561  27.411  1.00  0.00    -0.203 F 
ATOM     87  C   UNL A   1      45.275  27.236  26.722  1.00  0.00     0.198 A 
ATOM     88  C   UNL A   1      46.818  26.379  28.336  1.00  0.00     0.198 A 
ATOM     89  F   UNL A   1      46.626  26.956  30.607  1.00  0.00    -0.203 F 
ATOM     90  F   UNL A   1      44.913  27.431  25.445  1.00  0.00    -0.200 F 
ATOM     91  C   UNL A   1      46.416  26.514  27.015  1.00  0.00     0.200 A 
ATOM     92  F   UNL A   1      47.958  25.727  28.611  1.00  0.00    -0.200 F 
ATOM     93  F   UNL A   1      47.169  26.020  26.022  1.00  0.00    -0.200 F 
ENDBRANCH  59  83
BRANCH  71  94
ATOM     94  C   UNL A   1      42.989  34.806  29.516  1.00  0.00     0.064 A 
ATOM     95  C   UNL A   1      43.292  35.876  30.368  1.00  0.00     0.173 A 
ATOM     96  C   UNL A   1      42.784  35.135  28.156  1.00  0.00     0.173 A 
ATOM     97  F   UNL A   1      43.457  35.674  31.684  1.00  0.00    -0.203 F 
ATOM     98  C   UNL A   1      43.424  37.176  29.888  1.00  0.00     0.198 A 
ATOM     99  C   UNL A   1      42.834  36.445  27.694  1.00  0.00     0.198 A 
ATOM    100  F   UNL A   1      42.565  34.201  27.220  1.00  0.00    -0.203 F 
ATOM    101  F   UNL A   1      43.791  38.155  30.723  1.00  0.00    -0.200 F 
ATOM    102  C   UNL A   1      43.174  37.464  28.557  1.00  0.00     0.200 A 
ATOM    103  F   UNL A   1      42.563  36.705  26.407  1.00  0.00    -0.200 F 
ATOM    104  F   UNL A   1      43.273  38.720  28.103  1.00  0.00    -0.200 F 
ENDBRANCH  71  94
ENDBRANCH  45  46
ENDBRANCH  38  40
ENDBRANCH  37  38
ENDBRANCH  36  37
ENDBRANCH  35  36
ENDBRANCH  34  35
ENDBRANCH  33  34
ENDBRANCH  32  33
ENDBRANCH   1  32
TORSDOF 22
ENDMDL
MODEL 2
REMARK VINA RESULT:     -12.8      1.229      2.561
REMARK SMILES Cc1cccc(O[C@H](C)C(=O)NNC(=O)[C@H]2[C@@H]3CC[C@@H](C3)[C@@H]2C(=O)OCCOCCOCCOC(=O)c2ccc(-c3c4nc(c(-c5c(F)c(F)c(F)c(F)c5F)c5ccc([nH]5)c(-c5c(F)c(F)c(F)c(F)c5F)c5nc(c(-c6c(F)c(F)c(F)c(F)c6F)c6ccc3[nH]6)C=C5)C=C4)cc2)c1
REMARK SMILES IDX 28 1 27 2 26 3 25 4 23 5 24 6 22 7 16 8 17 9 18 10 21 11
REMARK SMILES IDX 20 12 19 13 14 14 13 15 15 17 12 18 10 19 11 20 8 22 9 23
REMARK SMILES IDX 7 24 6 25 1 26 2 27 3 28 100 29 4 30 5 31 29 32 30 33 31 34
REMARK SMILES IDX 32 35 33 36 34 37 35 38 36 39 37 40 38 41 99 42 39 43 98 44
REMARK SMILES IDX 40 45 41 46 42 47 92 48 43 49 97 50 91 51 93 52 44 53 96 54
REMARK SMILES IDX 90 55 89 56 45 58 77 59 57 60 76 61 58 62 61 63 75 64 94 65
REMARK SMILES IDX 59 66 60 67 74 69 95 70 62 71 46 72 47 73 55 74 48 75 49 76
REMARK SMILES IDX 53 77 56 78 50 79 51 80 54 81 52 82 78 83 79 84 87 85 80 86
REMARK SMILES IDX 81 87 85 88 88 89 82 90 83 91 86 92 84 93 63 94 64 95 72 96
REMARK SMILES IDX 65 97 66 98 70 99 73 100 67 101 68 102 71 103 69 104
REMARK H PARENT 13 16 12 21 93 57 61 68
REMARK Flexibility Score: inf
ROOT
ATOM      1  O   UNL A   1      36.768  22.369  24.346  1.00  0.00    -0.376 OA
ENDROOT
BRANCH   1   2
ATOM      2  C   UNL A   1      36.284  23.718  24.519  1.00  0.00     0.202 C 
BRANCH   2   3
ATOM      3  C   UNL A   1      35.205  24.452  25.641  1.00  0.00     0.261 C 
BRANCH   3   4
ATOM      4  O   UNL A   1      33.647  25.419  25.573  1.00  0.00    -0.463 OA
BRANCH   4   5
ATOM      5  C   UNL A   1      32.345  25.620  26.254  1.00  0.00     0.310 C 
ATOM      6  O   UNL A   1      31.700  24.797  26.912  1.00  0.00    -0.252 OA
BRANCH   5   7
ATOM      7  C   UNL A   1      31.614  26.925  26.264  1.00  0.00     0.115 C 
ATOM      8  C   UNL A   1      31.839  27.626  24.875  1.00  0.00     0.098 C 
ATOM      9  C   UNL A   1      32.297  29.075  25.224  1.00  0.00     0.003 C 
ATOM     10  C   UNL A   1      33.797  29.048  25.559  1.00  0.00     0.005 C 
ATOM     11  C   UNL A   1      31.679  29.310  26.600  1.00  0.00     0.009 C 
ATOM     12  C   UNL A   1      32.286  28.033  27.198  1.00  0.00     0.004 C 
ATOM     13  C   UNL A   1      33.795  28.373  26.937  1.00  0.00     0.005 C 
BRANCH   8  14
ATOM     14  C   UNL A   1      30.798  27.696  23.789  1.00  0.00     0.242 C 
ATOM     15  N   UNL A   1      31.032  27.350  22.502  1.00  0.00    -0.267 N 
ATOM     16  H   UNL A   1      30.243  27.288  21.918  1.00  0.00     0.191 HD
ATOM     17  O   UNL A   1      29.629  27.969  24.086  1.00  0.00    -0.273 OA
BRANCH  15  18
ATOM     18  N   UNL A   1      32.237  27.075  21.921  1.00  0.00    -0.264 N 
ATOM     19  C   UNL A   1      32.529  25.825  21.439  1.00  0.00     0.279 C 
ATOM     20  O   UNL A   1      33.114  25.732  20.355  1.00  0.00    -0.269 OA
ATOM     21  H   UNL A   1      32.910  27.790  21.847  1.00  0.00     0.191 HD
BRANCH  19  22
ATOM     22  C   UNL A   1      32.338  24.599  22.375  1.00  0.00     0.260 C 
ATOM     23  C   UNL A   1      30.892  24.553  22.881  1.00  0.00     0.064 C 
BRANCH  22  24
ATOM     24  O   UNL A   1      33.012  23.364  22.232  1.00  0.00    -0.481 OA
BRANCH  24  25
ATOM     25  C   UNL A   1      32.782  22.192  22.872  1.00  0.00     0.120 A 
ATOM     26  C   UNL A   1      33.499  21.055  26.458  1.00  0.00     0.044 C 
ATOM     27  C   UNL A   1      33.105  21.038  25.012  1.00  0.00    -0.047 A 
ATOM     28  C   UNL A   1      32.581  19.871  24.459  1.00  0.00     0.003 A 
ATOM     29  C   UNL A   1      33.218  22.182  24.205  1.00  0.00     0.049 A 
ATOM     30  C   UNL A   1      32.093  19.883  23.158  1.00  0.00     0.004 A 
ATOM     31  C   UNL A   1      32.143  21.056  22.395  1.00  0.00     0.046 A 
ENDBRANCH  24  25
ENDBRANCH  22  24
ENDBRANCH  19  22
ENDBRANCH  15  18
ENDBRANCH   8  14
ENDBRANCH   5   7
ENDBRANCH   4   5
ENDBRANCH   3   4
ENDBRANCH   2   3
ENDBRANCH   1   2
BRANCH   1  32
ATOM     32  C   UNL A   1      37.108  21.455  25.407  1.00  0.00     0.188 C 
BRANCH  32  33
ATOM     33  C   UNL A   1      38.384  20.640  25.371  1.00  0.00     0.188 C 
BRANCH  33  34
ATOM     34  O   UNL A   1      39.418  21.432  25.900  1.00  0.00    -0.376 OA
BRANCH  34  35
ATOM     35  C   UNL A   1      40.430  20.735  26.589  1.00  0.00     0.202 C 
BRANCH  35  36
ATOM     36  C   UNL A   1      41.811  21.238  26.166  1.00  0.00     0.261 C 
BRANCH  36  37
ATOM     37  O   UNL A   1      41.703  22.566  25.599  1.00  0.00    -0.460 OA
BRANCH  37  38
ATOM     38  C   UNL A   1      42.140  23.609  26.393  1.00  0.00     0.338 C 
ATOM     39  O   UNL A   1      43.162  23.607  27.036  1.00  0.00    -0.246 OA
BRANCH  38  40
ATOM     40  C   UNL A   1      41.023  24.596  26.596  1.00  0.00     0.060 A 
ATOM     41  C   UNL A   1      41.064  25.919  26.126  1.00  0.00     0.016 A 
ATOM     42  C   UNL A   1      40.209  24.358  27.642  1.00  0.00     0.016 A 
ATOM     43  C   UNL A   1      40.587  27.038  26.918  1.00  0.00     0.010 A 
ATOM     44  C   UNL A   1      39.963  25.456  28.453  1.00  0.00     0.010 A 
ATOM     45  C   UNL A   1      40.185  26.892  28.246  1.00  0.00    -0.014 A 
BRANCH  45  46
ATOM     46  C   UNL A   1      39.997  28.282  29.390  1.00  0.00     0.031 A 
ATOM     47  C   UNL A   1      38.919  29.744  29.346  1.00  0.00     0.074 A 
ATOM     48  C   UNL A   1      40.949  28.448  30.336  1.00  0.00     0.049 A 
ATOM     49  N   UNL A   1      39.304  30.986  29.597  1.00  0.00    -0.248 NA
ATOM     50  C   UNL A   1      37.482  29.913  28.768  1.00  0.00     0.031 C 
ATOM     51  C   UNL A   1      40.954  29.407  31.434  1.00  0.00     0.029 A 
ATOM     52  N   UNL A   1      42.181  27.793  30.460  1.00  0.00    -0.354 N 
ATOM     53  C   UNL A   1      38.205  31.837  29.343  1.00  0.00     0.074 A 
ATOM     54  C   UNL A   1      37.375  31.176  28.442  1.00  0.00     0.031 C 
ATOM     55  C   UNL A   1      42.207  29.501  31.908  1.00  0.00     0.029 A 
ATOM     56  C   UNL A   1      43.060  28.734  31.019  1.00  0.00     0.049 A 
ATOM     57  H   UNL A   1      42.387  26.864  30.208  1.00  0.00     0.167 HD
ATOM     58  C   UNL A   1      37.830  32.880  30.137  1.00  0.00     0.037 A 
ATOM     59  C   UNL A   1      44.118  29.185  30.289  1.00  0.00     0.037 A 
ATOM     60  C   UNL A   1      38.950  33.214  30.969  1.00  0.00     0.049 A 
ATOM     61  C   UNL A   1      44.067  30.684  30.061  1.00  0.00     0.074 A 
ATOM     62  C   UNL A   1      39.393  32.863  32.227  1.00  0.00     0.029 A 
ATOM     63  N   UNL A   1      40.049  33.653  30.279  1.00  0.00    -0.354 N 
ATOM     64  N   UNL A   1      43.134  31.474  30.524  1.00  0.00    -0.248 NA
ATOM     65  C   UNL A   1      45.028  31.403  29.227  1.00  0.00     0.031 C 
ATOM     66  C   UNL A   1      40.822  33.007  32.221  1.00  0.00     0.029 A 
ATOM     67  C   UNL A   1      41.213  33.488  30.982  1.00  0.00     0.049 A 
ATOM     68  H   UNL A   1      40.007  34.044  29.378  1.00  0.00     0.167 HD
ATOM     69  C   UNL A   1      43.300  32.730  30.016  1.00  0.00     0.074 A 
ATOM     70  C   UNL A   1      44.502  32.638  29.208  1.00  0.00     0.031 C 
ATOM     71  C   UNL A   1      42.434  33.759  30.243  1.00  0.00     0.037 A 
BRANCH  58  72
ATOM     72  C   UNL A   1      36.378  33.366  30.298  1.00  0.00     0.064 A 
ATOM     73  C   UNL A   1      35.747  34.003  29.213  1.00  0.00     0.173 A 
ATOM     74  C   UNL A   1      35.579  33.341  31.473  1.00  0.00     0.173 A 
ATOM     75  F   UNL A   1      36.316  34.017  28.001  1.00  0.00    -0.203 F 
ATOM     76  C   UNL A   1      34.507  34.653  29.325  1.00  0.00     0.198 A 
ATOM     77  C   UNL A   1      34.382  34.060  31.612  1.00  0.00     0.198 A 
ATOM     78  F   UNL A   1      35.856  32.551  32.514  1.00  0.00    -0.203 F 
ATOM     79  F   UNL A   1      33.959  35.225  28.245  1.00  0.00    -0.200 F 
ATOM     80  C   UNL A   1      33.846  34.721  30.535  1.00  0.00     0.200 A 
ATOM     81  F   UNL A   1      33.748  34.082  32.795  1.00  0.00    -0.200 F 
ATOM     82  F   UNL A   1      32.685  35.381  30.651  1.00  0.00    -0.200 F 
ENDBRANCH  58  72
BRANCH  59  83
ATOM     83  C   UNL A   1      44.692  28.141  29.372  1.00  0.00     0.064 A 
ATOM     84  C   UNL A   1      44.267  28.132  28.019  1.00  0.00     0.173 A 
ATOM     85  C   UNL A   1      45.836  27.388  29.670  1.00  0.00     0.173 A 
ATOM     86  F   UNL A   1      43.172  28.821  27.653  1.00  0.00    -0.203 F 
ATOM     87  C   UNL A   1      45.019  27.532  27.010  1.00  0.00     0.198 A 
ATOM     88  C   UNL A   1      46.565  26.745  28.658  1.00  0.00     0.198 A 
ATOM     89  F   UNL A   1      46.328  27.357  30.916  1.00  0.00    -0.203 F 
ATOM     90  F   UNL A   1      44.669  27.695  25.726  1.00  0.00    -0.200 F 
ATOM     91  C   UNL A   1      46.175  26.847  27.330  1.00  0.00     0.200 A 
ATOM     92  F   UNL A   1      47.718  26.129  28.958  1.00  0.00    -0.200 F 
ATOM     93  F   UNL A   1      46.955  26.355  26.355  1.00  0.00    -0.200 F 
ENDBRANCH  59  83
BRANCH  71  94
ATOM     94  C   UNL A   1      42.676  35.138  29.693  1.00  0.00     0.064 A 
ATOM     95  C   UNL A   1      43.410  36.076  30.429  1.00  0.00     0.173 A 
ATOM     96  C   UNL A   1      42.091  35.609  28.494  1.00  0.00     0.173 A 
ATOM     97  F   UNL A   1      43.964  35.739  31.604  1.00  0.00    -0.203 F 
ATOM     98  C   UNL A   1      43.585  37.382  29.978  1.00  0.00     0.198 A 
ATOM     99  C   UNL A   1      42.198  36.935  28.089  1.00  0.00     0.198 A 
ATOM    100  F   UNL A   1      41.429  34.800  27.655  1.00  0.00    -0.203 F 
ATOM    101  F   UNL A   1      44.360  38.223  30.674  1.00  0.00    -0.200 F 
ATOM    102  C   UNL A   1      42.962  37.817  28.820  1.00  0.00     0.200 A 
ATOM    103  F   UNL A   1      41.565  37.341  26.979  1.00  0.00    -0.200 F 
ATOM    104  F   UNL A   1      43.108  39.081  28.404  1.00  0.00    -0.200 F 
ENDBRANCH  71  94
ENDBRANCH  45  46
ENDBRANCH  38  40
ENDBRANCH  37  38
ENDBRANCH  36  37
ENDBRANCH  35  36
ENDBRANCH  34  35
ENDBRANCH  33  34
ENDBRANCH  32  33
ENDBRANCH   1  32
TORSDOF 22
ENDMDL
MODEL 3
REMARK VINA RESULT:     -12.6      1.591      3.251
REMARK SMILES Cc1cccc(O[C@H](C)C(=O)NNC(=O)[C@H]2[C@@H]3CC[C@@H](C3)[C@@H]2C(=O)OCCOCCOCCOC(=O)c2ccc(-c3c4nc(c(-c5c(F)c(F)c(F)c(F)c5F)c5ccc([nH]5)c(-c5c(F)c(F)c(F)c(F)c5F)c5nc(c(-c6c(F)c(F)c(F)c(F)c6F)c6ccc3[nH]6)C=C5)C=C4)cc2)c1
REMARK SMILES IDX 28 1 27 2 26 3 25 4 23 5 24 6 22 7 16 8 17 9 18 10 21 11
REMARK SMILES IDX 20 12 19 13 14 14 13 15 15 17 12 18 10 19 11 20 8 22 9 23
REMARK SMILES IDX 7 24 6 25 1 26 2 27 3 28 100 29 4 30 5 31 29 32 30 33 31 34
REMARK SMILES IDX 32 35 33 36 34 37 35 38 36 39 37 40 38 41 99 42 39 43 98 44
REMARK SMILES IDX 40 45 41 46 42 47 92 48 43 49 97 50 91 51 93 52 44 53 96 54
REMARK SMILES IDX 90 55 89 56 45 58 77 59 57 60 76 61 58 62 61 63 75 64 94 65
REMARK SMILES IDX 59 66 60 67 74 69 95 70 62 71 46 72 47 73 55 74 48 75 49 76
REMARK SMILES IDX 53 77 56 78 50 79 51 80 54 81 52 82 78 83 79 84 87 85 80 86
REMARK SMILES IDX 81 87 85 88 88 89 82 90 83 91 86 92 84 93 63 94 64 95 72 96
REMARK SMILES IDX 65 97 66 98 70 99 73 100 67 101 68 102 71 103 69 104
REMARK H PARENT 13 16 12 21 93 57 61 68
REMARK Flexibility Score: inf
ROOT
ATOM      1  O   UNL A   1      39.658  21.004  26.413  1.00  0.00    -0.376 OA
ENDROOT
BRANCH   1   2
ATOM      2  C   UNL A   1      39.443  22.399  26.109  1.00  0.00     0.202 C 
BRANCH   2   3
ATOM      3  C   UNL A   1      38.030  23.365  25.927  1.00  0.00     0.261 C 
BRANCH   3   4
ATOM      4  O   UNL A   1      36.680  23.557  24.698  1.00  0.00    -0.463 OA
BRANCH   4   5
ATOM      5  C   UNL A   1      35.206  23.537  24.544  1.00  0.00     0.310 C 
ATOM      6  O   UNL A   1      34.452  24.496  24.349  1.00  0.00    -0.252 OA
BRANCH   5   7
ATOM      7  C   UNL A   1      34.392  22.281  24.574  1.00  0.00     0.115 C 
ATOM      8  C   UNL A   1      32.871  22.681  24.606  1.00  0.00     0.098 C 
ATOM      9  C   UNL A   1      32.264  21.861  25.785  1.00  0.00     0.003 C 
ATOM     10  C   UNL A   1      32.579  22.588  27.102  1.00  0.00     0.005 C 
ATOM     11  C   UNL A   1      33.188  20.650  25.874  1.00  0.00     0.009 C 
ATOM     12  C   UNL A   1      34.459  21.504  25.968  1.00  0.00     0.004 C 
ATOM     13  C   UNL A   1      34.080  22.309  27.259  1.00  0.00     0.005 C 
BRANCH   8  14
ATOM     14  C   UNL A   1      31.950  22.579  23.419  1.00  0.00     0.242 C 
ATOM     15  N   UNL A   1      30.996  23.493  23.131  1.00  0.00    -0.267 N 
ATOM     16  H   UNL A   1      30.560  23.405  22.252  1.00  0.00     0.191 HD
ATOM     17  O   UNL A   1      32.132  21.684  22.585  1.00  0.00    -0.273 OA
BRANCH  15  18
ATOM     18  N   UNL A   1      30.566  24.524  23.916  1.00  0.00    -0.264 N 
ATOM     19  C   UNL A   1      30.623  25.824  23.483  1.00  0.00     0.279 C 
ATOM     20  O   UNL A   1      29.664  26.566  23.716  1.00  0.00    -0.269 OA
ATOM     21  H   UNL A   1      30.209  24.330  24.812  1.00  0.00     0.191 HD
BRANCH  19  22
ATOM     22  C   UNL A   1      31.972  26.374  22.941  1.00  0.00     0.260 C 
ATOM     23  C   UNL A   1      32.145  25.969  21.473  1.00  0.00     0.064 C 
BRANCH  22  24
ATOM     24  O   UNL A   1      32.571  27.587  23.352  1.00  0.00    -0.481 OA
BRANCH  24  25
ATOM     25  C   UNL A   1      32.741  28.068  24.608  1.00  0.00     0.120 A 
ATOM     26  C   UNL A   1      31.393  31.203  26.347  1.00  0.00     0.044 C 
ATOM     27  C   UNL A   1      32.171  29.951  26.072  1.00  0.00    -0.047 A 
ATOM     28  C   UNL A   1      32.986  29.418  27.069  1.00  0.00     0.003 A 
ATOM     29  C   UNL A   1      32.074  29.279  24.843  1.00  0.00     0.049 A 
ATOM     30  C   UNL A   1      33.607  28.192  26.871  1.00  0.00     0.004 A 
ATOM     31  C   UNL A   1      33.434  27.498  25.667  1.00  0.00     0.046 A 
ENDBRANCH  24  25
ENDBRANCH  22  24
ENDBRANCH  19  22
ENDBRANCH  15  18
ENDBRANCH   8  14
ENDBRANCH   5   7
ENDBRANCH   4   5
ENDBRANCH   3   4
ENDBRANCH   2   3
ENDBRANCH   1   2
BRANCH   1  32
ATOM     32  C   UNL A   1      40.780  20.466  27.138  1.00  0.00     0.188 C 
BRANCH  32  33
ATOM     33  C   UNL A   1      41.875  19.687  26.439  1.00  0.00     0.188 C 
BRANCH  33  34
ATOM     34  O   UNL A   1      42.475  20.537  25.494  1.00  0.00    -0.376 OA
BRANCH  34  35
ATOM     35  C   UNL A   1      43.327  21.528  26.019  1.00  0.00     0.202 C 
BRANCH  35  36
ATOM     36  C   UNL A   1      43.346  22.757  25.107  1.00  0.00     0.261 C 
BRANCH  36  37
ATOM     37  O   UNL A   1      43.410  23.964  25.904  1.00  0.00    -0.460 OA
BRANCH  37  38
ATOM     38  C   UNL A   1      42.504  24.957  25.585  1.00  0.00     0.338 C 
ATOM     39  O   UNL A   1      42.590  25.691  24.629  1.00  0.00    -0.246 OA
BRANCH  38  40
ATOM     40  C   UNL A   1      41.589  25.206  26.753  1.00  0.00     0.060 A 
ATOM     41  C   UNL A   1      40.403  25.952  26.663  1.00  0.00     0.016 A 
ATOM     42  C   UNL A   1      42.156  25.129  27.972  1.00  0.00     0.016 A 
ATOM     43  C   UNL A   1      40.003  26.900  27.688  1.00  0.00     0.010 A 
ATOM     44  C   UNL A   1      41.862  26.186  28.821  1.00  0.00     0.010 A 
ATOM     45  C   UNL A   1      40.833  27.231  28.759  1.00  0.00    -0.014 A 
BRANCH  45  46
ATOM     46  C   UNL A   1      40.579  28.687  29.804  1.00  0.00     0.031 A 
ATOM     47  C   UNL A   1      39.394  30.059  29.694  1.00  0.00     0.074 A 
ATOM     48  C   UNL A   1      41.547  28.993  30.698  1.00  0.00     0.049 A 
ATOM     49  N   UNL A   1      39.693  31.341  29.838  1.00  0.00    -0.248 NA
ATOM     50  C   UNL A   1      37.930  30.079  29.160  1.00  0.00     0.031 C 
ATOM     51  C   UNL A   1      41.516  30.031  31.722  1.00  0.00     0.029 A 
ATOM     52  N   UNL A   1      42.828  28.440  30.823  1.00  0.00    -0.354 N 
ATOM     53  C   UNL A   1      38.525  32.089  29.565  1.00  0.00     0.074 A 
ATOM     54  C   UNL A   1      37.718  31.303  28.747  1.00  0.00     0.031 C 
ATOM     55  C   UNL A   1      42.773  30.250  32.139  1.00  0.00     0.029 A 
ATOM     56  C   UNL A   1      43.652  29.482  31.277  1.00  0.00     0.049 A 
ATOM     57  H   UNL A   1      43.095  27.512  30.632  1.00  0.00     0.167 HD
ATOM     58  C   UNL A   1      38.099  33.159  30.294  1.00  0.00     0.037 A 
ATOM     59  C   UNL A   1      44.648  29.951  30.475  1.00  0.00     0.037 A 
ATOM     60  C   UNL A   1      39.218  33.636  31.055  1.00  0.00     0.049 A 
ATOM     61  C   UNL A   1      44.478  31.421  30.140  1.00  0.00     0.074 A 
ATOM     62  C   UNL A   1      39.727  33.415  32.317  1.00  0.00     0.029 A 
ATOM     63  N   UNL A   1      40.258  34.100  30.293  1.00  0.00    -0.354 N 
ATOM     64  N   UNL A   1      43.504  32.175  30.579  1.00  0.00    -0.248 NA
ATOM     65  C   UNL A   1      45.355  32.142  29.219  1.00  0.00     0.031 C 
ATOM     66  C   UNL A   1      41.140  33.661  32.246  1.00  0.00     0.029 A 
ATOM     67  C   UNL A   1      41.453  34.073  30.961  1.00  0.00     0.049 A 
ATOM     68  H   UNL A   1      40.157  34.417  29.368  1.00  0.00     0.167 HD
ATOM     69  C   UNL A   1      43.558  33.396  29.974  1.00  0.00     0.074 A 
ATOM     70  C   UNL A   1      44.737  33.331  29.130  1.00  0.00     0.031 C 
ATOM     71  C   UNL A   1      42.626  34.375  30.158  1.00  0.00     0.037 A 
BRANCH  58  72
ATOM     72  C   UNL A   1      36.622  33.551  30.473  1.00  0.00     0.064 A 
ATOM     73  C   UNL A   1      35.890  33.992  29.355  1.00  0.00     0.173 A 
ATOM     74  C   UNL A   1      35.882  33.616  31.686  1.00  0.00     0.173 A 
ATOM     75  F   UNL A   1      36.400  33.893  28.120  1.00  0.00    -0.203 F 
ATOM     76  C   UNL A   1      34.607  34.554  29.455  1.00  0.00     0.198 A 
ATOM     77  C   UNL A   1      34.637  34.254  31.801  1.00  0.00     0.198 A 
ATOM     78  F   UNL A   1      36.271  32.990  32.800  1.00  0.00    -0.203 F 
ATOM     79  F   UNL A   1      33.965  34.939  28.344  1.00  0.00    -0.200 F 
ATOM     80  C   UNL A   1      33.999  34.728  30.682  1.00  0.00     0.200 A 
ATOM     81  F   UNL A   1      34.059  34.380  33.006  1.00  0.00    -0.200 F 
ATOM     82  F   UNL A   1      32.795  35.307  30.779  1.00  0.00    -0.200 F 
ENDBRANCH  58  72
BRANCH  59  83
ATOM     83  C   UNL A   1      45.269  28.885  29.617  1.00  0.00     0.064 A 
ATOM     84  C   UNL A   1      46.115  27.933  30.241  1.00  0.00     0.173 A 
ATOM     85  C   UNL A   1      44.829  28.573  28.323  1.00  0.00     0.173 A 
ATOM     86  F   UNL A   1      46.589  28.161  31.477  1.00  0.00    -0.203 F 
ATOM     87  C   UNL A   1      46.382  26.690  29.667  1.00  0.00     0.198 A 
ATOM     88  C   UNL A   1      45.139  27.340  27.729  1.00  0.00     0.198 A 
ATOM     89  F   UNL A   1      44.004  29.398  27.665  1.00  0.00    -0.203 F 
ATOM     90  F   UNL A   1      47.046  25.757  30.366  1.00  0.00    -0.200 F 
ATOM     91  C   UNL A   1      45.884  26.391  28.414  1.00  0.00     0.200 A 
ATOM     92  F   UNL A   1      44.608  27.024  26.539  1.00  0.00    -0.200 F 
ATOM     93  F   UNL A   1      46.052  25.162  27.902  1.00  0.00    -0.200 F 
ENDBRANCH  59  83
BRANCH  71  94
ATOM     94  C   UNL A   1      42.746  35.722  29.499  1.00  0.00     0.064 A 
ATOM     95  C   UNL A   1      43.345  36.791  30.175  1.00  0.00     0.173 A 
ATOM     96  C   UNL A   1      42.167  36.026  28.245  1.00  0.00     0.173 A 
ATOM     97  F   UNL A   1      43.880  36.614  31.393  1.00  0.00    -0.203 F 
ATOM     98  C   UNL A   1      43.402  38.067  29.619  1.00  0.00     0.198 A 
ATOM     99  C   UNL A   1      42.151  37.318  27.730  1.00  0.00     0.198 A 
ATOM    100  F   UNL A   1      41.629  35.085  27.457  1.00  0.00    -0.203 F 
ATOM    101  F   UNL A   1      44.053  39.041  30.265  1.00  0.00    -0.200 F 
ATOM    102  C   UNL A   1      42.787  38.335  28.408  1.00  0.00     0.200 A 
ATOM    103  F   UNL A   1      41.527  37.561  26.568  1.00  0.00    -0.200 F 
ATOM    104  F   UNL A   1      42.817  39.568  27.888  1.00  0.00    -0.200 F 
ENDBRANCH  71  94
ENDBRANCH  45  46
ENDBRANCH  38  40
ENDBRANCH  37  38
ENDBRANCH  36  37
ENDBRANCH  35  36
ENDBRANCH  34  35
ENDBRANCH  33  34
ENDBRANCH  32  33
ENDBRANCH   1  32
TORSDOF 22
ENDMDL
