MODEL 1
REMARK VINA RESULT:      -9.4      0.000      0.000
REMARK SMILES O=C(OCCOCCOCCOC(=O)[C@H](c1c[nH]c2cc(OCc3ccccc3)ccc12)[NH+]1CC[NH+]([C@H]2CCS(=O)(=O)C2)CC1)c1ccc(-c2c3nc(c(-c4c(F)c(F)c(F)c(F)c4F)c4ccc([nH]4)c(-c4c(F)c(F)c(F)c(F)c4F)c4nc(c(-c5c(F)c(F)c(F)c(F)c5F)c5ccc2[nH]5)C=C4)C=C3)cc1
REMARK SMILES IDX 8 1 7 2 6 3 5 4 4 5 3 6 2 7 1 8 46 9 47 10 108 11 48 12
REMARK SMILES IDX 107 13 49 14 50 15 51 16 101 17 52 18 106 19 100 20 102 21
REMARK SMILES IDX 53 22 105 23 99 24 98 25 54 27 86 28 66 29 85 30 67 31 70 32
REMARK SMILES IDX 84 33 103 34 68 35 69 36 83 38 104 39 71 40 55 41 56 42
REMARK SMILES IDX 64 43 57 44 58 45 62 46 65 47 59 48 60 49 63 50 61 51 87 52
REMARK SMILES IDX 88 53 96 54 89 55 90 56 94 57 97 58 91 59 92 60 95 61 93 62
REMARK SMILES IDX 72 63 73 64 81 65 74 66 75 67 79 68 82 69 76 70 77 71 80 72
REMARK SMILES IDX 78 73 9 74 10 75 11 76 12 77 13 78 14 79 15 80 33 81 34 82
REMARK SMILES IDX 45 83 35 85 44 86 36 87 37 89 38 90 43 91 39 92 40 93 41 94
REMARK SMILES IDX 42 95 16 96 17 97 32 98 18 99 19 100 31 101 20 103 30 104
REMARK SMILES IDX 21 105 22 106 23 107 24 108 25 109 29 110 26 111 28 112
REMARK SMILES IDX 27 113
REMARK H PARENT 102 26 70 37 33 84 36 88 18 102
REMARK Flexibility Score: inf
ROOT
ATOM      1  C   UNL A   1      40.394  28.901  28.410  1.00  0.00     0.188 C 
ENDROOT
BRANCH   1   2
ATOM      2  C   UNL A   1      40.523  27.881  27.287  1.00  0.00     0.188 C 
BRANCH   2   3
ATOM      3  O   UNL A   1      40.409  26.514  27.690  1.00  0.00    -0.376 OA
BRANCH   3   4
ATOM      4  C   UNL A   1      40.271  25.591  26.609  1.00  0.00     0.202 C 
BRANCH   4   5
ATOM      5  C   UNL A   1      40.108  24.102  26.969  1.00  0.00     0.261 C 
BRANCH   5   6
ATOM      6  O   UNL A   1      40.915  23.615  28.060  1.00  0.00    -0.460 OA
BRANCH   6   7
ATOM      7  C   UNL A   1      42.241  23.387  28.179  1.00  0.00     0.338 C 
ATOM      8  O   UNL A   1      42.612  22.227  28.368  1.00  0.00    -0.246 OA
BRANCH   7   9
ATOM      9  C   UNL A   1      43.297  24.444  28.118  1.00  0.00     0.060 A 
ATOM     10  C   UNL A   1      43.614  25.334  29.141  1.00  0.00     0.016 A 
ATOM     11  C   UNL A   1      44.063  24.519  26.944  1.00  0.00     0.016 A 
ATOM     12  C   UNL A   1      44.595  26.317  29.000  1.00  0.00     0.010 A 
ATOM     13  C   UNL A   1      45.080  25.476  26.807  1.00  0.00     0.010 A 
ATOM     14  C   UNL A   1      45.332  26.411  27.830  1.00  0.00    -0.014 A 
BRANCH  14  15
ATOM     15  C   UNL A   1      46.208  27.579  27.564  1.00  0.00     0.031 A 
ATOM     16  C   UNL A   1      47.675  27.324  27.468  1.00  0.00     0.074 A 
ATOM     17  C   UNL A   1      45.792  28.813  27.212  1.00  0.00     0.049 A 
ATOM     18  N   UNL A   1      48.635  28.189  27.314  1.00  0.00    -0.248 NA
ATOM     19  C   UNL A   1      48.102  25.915  27.400  1.00  0.00     0.031 C 
ATOM     20  C   UNL A   1      44.491  29.161  26.682  1.00  0.00     0.029 A 
ATOM     21  N   UNL A   1      46.430  30.034  27.271  1.00  0.00    -0.354 N 
ATOM     22  C   UNL A   1      49.762  27.439  27.051  1.00  0.00     0.074 A 
ATOM     23  C   UNL A   1      49.397  26.044  27.154  1.00  0.00     0.031 C 
ATOM     24  C   UNL A   1      44.352  30.497  26.668  1.00  0.00     0.029 A 
ATOM     25  C   UNL A   1      45.546  31.093  27.192  1.00  0.00     0.049 A 
ATOM     26  H   UNL A   1      47.405  30.139  27.360  1.00  0.00     0.167 HD
ATOM     27  C   UNL A   1      50.978  27.902  26.696  1.00  0.00     0.037 A 
ATOM     28  C   UNL A   1      45.688  32.384  27.536  1.00  0.00     0.037 A 
ATOM     29  C   UNL A   1      51.304  29.297  26.602  1.00  0.00     0.049 A 
ATOM     30  C   UNL A   1      47.095  32.857  27.574  1.00  0.00     0.074 A 
ATOM     31  C   UNL A   1      52.513  29.879  26.271  1.00  0.00     0.029 A 
ATOM     32  N   UNL A   1      50.419  30.336  26.869  1.00  0.00    -0.354 N 
ATOM     33  N   UNL A   1      48.185  32.149  27.456  1.00  0.00    -0.248 NA
ATOM     34  C   UNL A   1      47.289  34.308  27.611  1.00  0.00     0.031 C 
ATOM     35  C   UNL A   1      52.389  31.261  26.439  1.00  0.00     0.029 A 
ATOM     36  C   UNL A   1      51.086  31.549  26.805  1.00  0.00     0.049 A 
ATOM     37  H   UNL A   1      49.462  30.225  27.072  1.00  0.00     0.167 HD
ATOM     38  C   UNL A   1      49.197  33.068  27.327  1.00  0.00     0.074 A 
ATOM     39  C   UNL A   1      48.598  34.385  27.439  1.00  0.00     0.031 C 
ATOM     40  C   UNL A   1      50.497  32.835  27.054  1.00  0.00     0.037 A 
BRANCH  27  41
ATOM     41  C   UNL A   1      52.042  26.880  26.480  1.00  0.00     0.064 A 
ATOM     42  C   UNL A   1      52.151  26.144  25.291  1.00  0.00     0.173 A 
ATOM     43  C   UNL A   1      52.954  26.619  27.510  1.00  0.00     0.173 A 
ATOM     44  F   UNL A   1      51.271  26.330  24.294  1.00  0.00    -0.203 F 
ATOM     45  C   UNL A   1      53.133  25.167  25.149  1.00  0.00     0.198 A 
ATOM     46  C   UNL A   1      53.948  25.663  27.355  1.00  0.00     0.198 A 
ATOM     47  F   UNL A   1      52.868  27.283  28.672  1.00  0.00    -0.203 F 
ATOM     48  F   UNL A   1      53.191  24.434  24.029  1.00  0.00    -0.200 F 
ATOM     49  C   UNL A   1      54.034  24.934  26.178  1.00  0.00     0.200 A 
ATOM     50  F   UNL A   1      54.815  25.436  28.351  1.00  0.00    -0.200 F 
ATOM     51  F   UNL A   1      54.979  23.993  26.042  1.00  0.00    -0.200 F 
ENDBRANCH  27  41
BRANCH  28  52
ATOM     52  C   UNL A   1      44.603  33.364  27.817  1.00  0.00     0.064 A 
ATOM     53  C   UNL A   1      44.002  33.554  29.064  1.00  0.00     0.173 A 
ATOM     54  C   UNL A   1      44.023  34.028  26.715  1.00  0.00     0.173 A 
ATOM     55  F   UNL A   1      44.475  32.916  30.143  1.00  0.00    -0.203 F 
ATOM     56  C   UNL A   1      42.869  34.366  29.199  1.00  0.00     0.198 A 
ATOM     57  C   UNL A   1      42.880  34.816  26.847  1.00  0.00     0.198 A 
ATOM     58  F   UNL A   1      44.569  33.889  25.496  1.00  0.00    -0.203 F 
ATOM     59  F   UNL A   1      42.296  34.511  30.402  1.00  0.00    -0.200 F 
ATOM     60  C   UNL A   1      42.305  34.988  28.092  1.00  0.00     0.200 A 
ATOM     61  F   UNL A   1      42.340  35.395  25.768  1.00  0.00    -0.200 F 
ATOM     62  F   UNL A   1      41.199  35.732  28.225  1.00  0.00    -0.200 F 
ENDBRANCH  28  52
BRANCH  40  63
ATOM     63  C   UNL A   1      51.335  34.058  26.927  1.00  0.00     0.064 A 
ATOM     64  C   UNL A   1      51.501  34.692  25.689  1.00  0.00     0.173 A 
ATOM     65  C   UNL A   1      52.046  34.539  28.033  1.00  0.00     0.173 A 
ATOM     66  F   UNL A   1      50.883  34.215  24.598  1.00  0.00    -0.203 F 
ATOM     67  C   UNL A   1      52.378  35.758  25.556  1.00  0.00     0.198 A 
ATOM     68  C   UNL A   1      52.892  35.631  27.904  1.00  0.00     0.198 A 
ATOM     69  F   UNL A   1      51.941  33.933  29.226  1.00  0.00    -0.203 F 
ATOM     70  F   UNL A   1      52.592  36.297  24.348  1.00  0.00    -0.200 F 
ATOM     71  C   UNL A   1      53.065  36.232  26.664  1.00  0.00     0.200 A 
ATOM     72  F   UNL A   1      53.560  36.086  28.972  1.00  0.00    -0.200 F 
ATOM     73  F   UNL A   1      53.916  37.258  26.534  1.00  0.00    -0.200 F 
ENDBRANCH  40  63
ENDBRANCH  14  15
ENDBRANCH   7   9
ENDBRANCH   6   7
ENDBRANCH   5   6
ENDBRANCH   4   5
ENDBRANCH   3   4
ENDBRANCH   2   3
ENDBRANCH   1   2
BRANCH   1  74
ATOM     74  O   UNL A   1      39.105  29.433  28.692  1.00  0.00    -0.376 OA
BRANCH  74  75
ATOM     75  C   UNL A   1      38.648  29.443  30.037  1.00  0.00     0.202 C 
BRANCH  75  76
ATOM     76  C   UNL A   1      38.262  30.775  30.691  1.00  0.00     0.261 C 
BRANCH  76  77
ATOM     77  O   UNL A   1      38.764  31.942  30.050  1.00  0.00    -0.459 OA
BRANCH  77  78
ATOM     78  C   UNL A   1      37.789  32.813  29.666  1.00  0.00     0.370 C 
ATOM     79  O   UNL A   1      37.913  33.630  28.753  1.00  0.00    -0.245 OA
BRANCH  78  80
ATOM     80  C   UNL A   1      36.518  32.727  30.520  1.00  0.00     0.328 C 
BRANCH  80  81
ATOM     81  N   UNL A   1      36.433  33.767  31.582  1.00  0.00    -0.310 N 
ATOM     82  C   UNL A   1      35.762  33.393  32.815  1.00  0.00     0.325 C 
ATOM     83  C   UNL A   1      37.660  34.528  31.881  1.00  0.00     0.325 C 
ATOM     84  H   UNL A   1      35.810  34.407  31.089  1.00  0.00     0.349 HD
ATOM     85  C   UNL A   1      36.671  32.594  33.775  1.00  0.00     0.324 C 
ATOM     86  C   UNL A   1      38.259  34.388  33.311  1.00  0.00     0.324 C 
ATOM     87  N   UNL A   1      38.029  33.124  34.004  1.00  0.00    -0.322 N 
ATOM     88  H   UNL A   1      38.110  33.401  34.982  1.00  0.00     0.348 HD
BRANCH  87  89
ATOM     89  C   UNL A   1      39.062  32.093  33.912  1.00  0.00     0.200 C 
ATOM     90  C   UNL A   1      40.493  32.388  34.379  1.00  0.00     0.082 C 
ATOM     91  C   UNL A   1      38.656  30.885  34.747  1.00  0.00     0.201 C 
ATOM     92  C   UNL A   1      41.216  31.063  34.189  1.00  0.00     0.143 C 
ATOM     93  S   UNL A   1      40.074  29.812  34.704  1.00  0.00     0.156 S 
ATOM     94  O   UNL A   1      39.873  28.859  33.624  1.00  0.00    -0.229 OA
ATOM     95  O   UNL A   1      40.417  29.399  36.041  1.00  0.00    -0.229 OA
ENDBRANCH  87  89
ENDBRANCH  80  81
BRANCH  80  96
ATOM     96  C   UNL A   1      35.377  32.697  29.534  1.00  0.00     0.046 A 
ATOM     97  C   UNL A   1      34.486  33.717  29.220  1.00  0.00     0.094 A 
ATOM     98  C   UNL A   1      35.060  31.620  28.665  1.00  0.00     0.009 A 
ATOM     99  N   UNL A   1      33.550  33.221  28.355  1.00  0.00    -0.361 N 
ATOM    100  C   UNL A   1      33.859  31.926  28.027  1.00  0.00     0.050 A 
ATOM    101  C   UNL A   1      35.664  30.386  28.415  1.00  0.00     0.015 A 
ATOM    102  H   UNL A   1      32.770  33.720  28.018  1.00  0.00     0.166 HD
ATOM    103  C   UNL A   1      33.165  31.004  27.238  1.00  0.00     0.073 A 
ATOM    104  C   UNL A   1      34.980  29.462  27.632  1.00  0.00     0.047 A 
ATOM    105  C   UNL A   1      33.723  29.733  27.082  1.00  0.00     0.121 A 
BRANCH 105 106
ATOM    106  O   UNL A   1      32.917  28.843  26.413  1.00  0.00    -0.489 OA
BRANCH 106 107
ATOM    107  C   UNL A   1      32.824  28.891  24.973  1.00  0.00     0.265 C 
BRANCH 107 108
ATOM    108  C   UNL A   1      31.399  28.743  24.491  1.00  0.00    -0.011 A 
ATOM    109  C   UNL A   1      30.937  27.501  24.026  1.00  0.00     0.007 A 
ATOM    110  C   UNL A   1      30.652  29.904  24.240  1.00  0.00     0.007 A 
ATOM    111  C   UNL A   1      29.849  27.460  23.156  1.00  0.00     0.000 A 
ATOM    112  C   UNL A   1      29.582  29.857  23.355  1.00  0.00     0.000 A 
ATOM    113  C   UNL A   1      29.204  28.643  22.787  1.00  0.00     0.000 A 
ENDBRANCH 107 108
ENDBRANCH 106 107
ENDBRANCH 105 106
ENDBRANCH  80  96
ENDBRANCH  78  80
ENDBRANCH  77  78
ENDBRANCH  76  77
ENDBRANCH  75  76
ENDBRANCH  74  75
ENDBRANCH   1  74
TORSDOF 23
ENDMDL
MODEL 2
REMARK VINA RESULT:      -9.2      6.141     13.780
REMARK SMILES O=C(OCCOCCOCCOC(=O)[C@H](c1c[nH]c2cc(OCc3ccccc3)ccc12)[NH+]1CC[NH+]([C@H]2CCS(=O)(=O)C2)CC1)c1ccc(-c2c3nc(c(-c4c(F)c(F)c(F)c(F)c4F)c4ccc([nH]4)c(-c4c(F)c(F)c(F)c(F)c4F)c4nc(c(-c5c(F)c(F)c(F)c(F)c5F)c5ccc2[nH]5)C=C4)C=C3)cc1
REMARK SMILES IDX 8 1 7 2 6 3 5 4 4 5 3 6 2 7 1 8 46 9 47 10 108 11 48 12
REMARK SMILES IDX 107 13 49 14 50 15 51 16 101 17 52 18 106 19 100 20 102 21
REMARK SMILES IDX 53 22 105 23 99 24 98 25 54 27 86 28 66 29 85 30 67 31 70 32
REMARK SMILES IDX 84 33 103 34 68 35 69 36 83 38 104 39 71 40 55 41 56 42
REMARK SMILES IDX 64 43 57 44 58 45 62 46 65 47 59 48 60 49 63 50 61 51 87 52
REMARK SMILES IDX 88 53 96 54 89 55 90 56 94 57 97 58 91 59 92 60 95 61 93 62
REMARK SMILES IDX 72 63 73 64 81 65 74 66 75 67 79 68 82 69 76 70 77 71 80 72
REMARK SMILES IDX 78 73 9 74 10 75 11 76 12 77 13 78 14 79 15 80 33 81 34 82
REMARK SMILES IDX 45 83 35 85 44 86 36 87 37 89 38 90 43 91 39 92 40 93 41 94
REMARK SMILES IDX 42 95 16 96 17 97 32 98 18 99 19 100 31 101 20 103 30 104
REMARK SMILES IDX 21 105 22 106 23 107 24 108 25 109 29 110 26 111 28 112
REMARK SMILES IDX 27 113
REMARK H PARENT 102 26 70 37 33 84 36 88 18 102
REMARK Flexibility Score: inf
ROOT
ATOM      1  C   UNL A   1      46.602  25.457  32.993  1.00  0.00     0.188 C 
ENDROOT
BRANCH   1   2
ATOM      2  C   UNL A   1      46.950  25.960  34.388  1.00  0.00     0.188 C 
BRANCH   2   3
ATOM      3  O   UNL A   1      47.552  24.993  35.251  1.00  0.00    -0.376 OA
BRANCH   3   4
ATOM      4  C   UNL A   1      46.633  24.052  35.810  1.00  0.00     0.202 C 
BRANCH   4   5
ATOM      5  C   UNL A   1      46.626  23.900  37.343  1.00  0.00     0.261 C 
BRANCH   5   6
ATOM      6  O   UNL A   1      45.615  24.638  38.056  1.00  0.00    -0.460 OA
BRANCH   6   7
ATOM      7  C   UNL A   1      45.356  25.960  38.158  1.00  0.00     0.338 C 
ATOM      8  O   UNL A   1      45.761  26.552  39.159  1.00  0.00    -0.246 OA
BRANCH   7   9
ATOM      9  C   UNL A   1      44.594  26.759  37.149  1.00  0.00     0.060 A 
ATOM     10  C   UNL A   1      45.069  27.883  36.477  1.00  0.00     0.016 A 
ATOM     11  C   UNL A   1      43.304  26.315  36.820  1.00  0.00     0.016 A 
ATOM     12  C   UNL A   1      44.288  28.597  35.568  1.00  0.00     0.010 A 
ATOM     13  C   UNL A   1      42.524  27.002  35.876  1.00  0.00     0.010 A 
ATOM     14  C   UNL A   1      43.002  28.177  35.264  1.00  0.00    -0.014 A 
BRANCH  14  15
ATOM     15  C   UNL A   1      42.074  29.037  34.490  1.00  0.00     0.031 A 
ATOM     16  C   UNL A   1      41.456  30.191  35.206  1.00  0.00     0.074 A 
ATOM     17  C   UNL A   1      41.885  28.992  33.155  1.00  0.00     0.049 A 
ATOM     18  N   UNL A   1      40.568  31.033  34.763  1.00  0.00    -0.248 NA
ATOM     19  C   UNL A   1      42.003  30.519  36.535  1.00  0.00     0.031 C 
ATOM     20  C   UNL A   1      42.766  28.381  32.184  1.00  0.00     0.029 A 
ATOM     21  N   UNL A   1      40.851  29.461  32.372  1.00  0.00    -0.354 N 
ATOM     22  C   UNL A   1      40.506  32.031  35.713  1.00  0.00     0.074 A 
ATOM     23  C   UNL A   1      41.375  31.654  36.805  1.00  0.00     0.031 C 
ATOM     24  C   UNL A   1      42.150  28.320  30.991  1.00  0.00     0.029 A 
ATOM     25  C   UNL A   1      40.837  28.880  31.118  1.00  0.00     0.049 A 
ATOM     26  H   UNL A   1      40.198  30.134  32.672  1.00  0.00     0.167 HD
ATOM     27  C   UNL A   1      39.817  33.187  35.629  1.00  0.00     0.037 A 
ATOM     28  C   UNL A   1      39.858  28.791  30.201  1.00  0.00     0.037 A 
ATOM     29  C   UNL A   1      38.965  33.529  34.525  1.00  0.00     0.049 A 
ATOM     30  C   UNL A   1      38.804  29.829  30.328  1.00  0.00     0.074 A 
ATOM     31  C   UNL A   1      38.202  34.667  34.347  1.00  0.00     0.029 A 
ATOM     32  N   UNL A   1      38.739  32.717  33.420  1.00  0.00    -0.354 N 
ATOM     33  N   UNL A   1      38.647  30.704  31.283  1.00  0.00    -0.248 NA
ATOM     34  C   UNL A   1      37.910  29.987  29.178  1.00  0.00     0.031 C 
ATOM     35  C   UNL A   1      37.436  34.499  33.189  1.00  0.00     0.029 A 
ATOM     36  C   UNL A   1      37.772  33.289  32.607  1.00  0.00     0.049 A 
ATOM     37  H   UNL A   1      39.196  31.864  33.241  1.00  0.00     0.167 HD
ATOM     38  C   UNL A   1      37.686  31.570  30.822  1.00  0.00     0.074 A 
ATOM     39  C   UNL A   1      37.254  31.081  29.525  1.00  0.00     0.031 C 
ATOM     40  C   UNL A   1      37.263  32.717  31.392  1.00  0.00     0.037 A 
BRANCH  27  41
ATOM     41  C   UNL A   1      39.903  34.100  36.804  1.00  0.00     0.064 A 
ATOM     42  C   UNL A   1      39.047  33.990  37.910  1.00  0.00     0.173 A 
ATOM     43  C   UNL A   1      40.853  35.128  36.799  1.00  0.00     0.173 A 
ATOM     44  F   UNL A   1      38.091  33.048  37.937  1.00  0.00    -0.203 F 
ATOM     45  C   UNL A   1      39.133  34.894  38.966  1.00  0.00     0.198 A 
ATOM     46  C   UNL A   1      40.954  36.011  37.866  1.00  0.00     0.198 A 
ATOM     47  F   UNL A   1      41.674  35.283  35.750  1.00  0.00    -0.203 F 
ATOM     48  F   UNL A   1      38.273  34.810  39.990  1.00  0.00    -0.200 F 
ATOM     49  C   UNL A   1      40.091  35.896  38.946  1.00  0.00     0.200 A 
ATOM     50  F   UNL A   1      41.877  36.981  37.842  1.00  0.00    -0.200 F 
ATOM     51  F   UNL A   1      40.173  36.767  39.961  1.00  0.00    -0.200 F 
ENDBRANCH  27  41
BRANCH  28  52
ATOM     52  C   UNL A   1      39.764  27.819  29.079  1.00  0.00     0.064 A 
ATOM     53  C   UNL A   1      39.208  26.540  29.173  1.00  0.00     0.173 A 
ATOM     54  C   UNL A   1      40.433  28.143  27.878  1.00  0.00     0.173 A 
ATOM     55  F   UNL A   1      38.600  26.153  30.302  1.00  0.00    -0.203 F 
ATOM     56  C   UNL A   1      39.324  25.626  28.118  1.00  0.00     0.198 A 
ATOM     57  C   UNL A   1      40.569  27.223  26.839  1.00  0.00     0.198 A 
ATOM     58  F   UNL A   1      40.974  29.362  27.732  1.00  0.00    -0.203 F 
ATOM     59  F   UNL A   1      38.805  24.397  28.245  1.00  0.00    -0.200 F 
ATOM     60  C   UNL A   1      40.009  25.965  26.958  1.00  0.00     0.200 A 
ATOM     61  F   UNL A   1      41.246  27.560  25.734  1.00  0.00    -0.200 F 
ATOM     62  F   UNL A   1      40.148  25.071  25.969  1.00  0.00    -0.200 F 
ENDBRANCH  28  52
BRANCH  40  63
ATOM     63  C   UNL A   1      36.237  33.459  30.610  1.00  0.00     0.064 A 
ATOM     64  C   UNL A   1      35.008  33.807  31.185  1.00  0.00     0.173 A 
ATOM     65  C   UNL A   1      36.453  33.739  29.256  1.00  0.00     0.173 A 
ATOM     66  F   UNL A   1      34.747  33.494  32.464  1.00  0.00    -0.203 F 
ATOM     67  C   UNL A   1      34.012  34.390  30.417  1.00  0.00     0.198 A 
ATOM     68  C   UNL A   1      35.468  34.360  28.501  1.00  0.00     0.198 A 
ATOM     69  F   UNL A   1      37.604  33.385  28.663  1.00  0.00    -0.203 F 
ATOM     70  F   UNL A   1      32.811  34.637  30.958  1.00  0.00    -0.200 F 
ATOM     71  C   UNL A   1      34.246  34.675  29.079  1.00  0.00     0.200 A 
ATOM     72  F   UNL A   1      35.691  34.630  27.208  1.00  0.00    -0.200 F 
ATOM     73  F   UNL A   1      33.281  35.234  28.336  1.00  0.00    -0.200 F 
ENDBRANCH  40  63
ENDBRANCH  14  15
ENDBRANCH   7   9
ENDBRANCH   6   7
ENDBRANCH   5   6
ENDBRANCH   4   5
ENDBRANCH   3   4
ENDBRANCH   2   3
ENDBRANCH   1   2
BRANCH   1  74
ATOM     74  O   UNL A   1      45.421  25.953  32.373  1.00  0.00    -0.376 OA
BRANCH  74  75
ATOM     75  C   UNL A   1      45.369  26.019  30.955  1.00  0.00     0.202 C 
BRANCH  75  76
ATOM     76  C   UNL A   1      44.307  25.207  30.203  1.00  0.00     0.261 C 
BRANCH  76  77
ATOM     77  O   UNL A   1      44.360  25.296  28.783  1.00  0.00    -0.459 OA
BRANCH  77  78
ATOM     78  C   UNL A   1      44.766  24.143  28.183  1.00  0.00     0.370 C 
ATOM     79  O   UNL A   1      44.417  23.018  28.540  1.00  0.00    -0.245 OA
BRANCH  78  80
ATOM     80  C   UNL A   1      45.761  24.364  27.036  1.00  0.00     0.328 C 
BRANCH  80  81
ATOM     81  N   UNL A   1      45.121  24.490  25.698  1.00  0.00    -0.310 N 
ATOM     82  C   UNL A   1      45.745  23.771  24.601  1.00  0.00     0.325 C 
ATOM     83  C   UNL A   1      43.655  24.344  25.633  1.00  0.00     0.325 C 
ATOM     84  H   UNL A   1      45.318  25.480  25.551  1.00  0.00     0.349 HD
ATOM     85  C   UNL A   1      45.355  22.276  24.564  1.00  0.00     0.324 C 
ATOM     86  C   UNL A   1      43.090  23.154  24.804  1.00  0.00     0.324 C 
ATOM     87  N   UNL A   1      43.921  21.957  24.712  1.00  0.00    -0.322 N 
ATOM     88  H   UNL A   1      43.590  21.536  23.845  1.00  0.00     0.348 HD
BRANCH  87  89
ATOM     89  C   UNL A   1      43.677  20.877  25.667  1.00  0.00     0.200 C 
ATOM     90  C   UNL A   1      42.392  20.862  26.505  1.00  0.00     0.082 C 
ATOM     91  C   UNL A   1      43.640  19.543  24.932  1.00  0.00     0.201 C 
ATOM     92  C   UNL A   1      42.490  19.564  27.294  1.00  0.00     0.143 C 
ATOM     93  S   UNL A   1      43.142  18.363  26.168  1.00  0.00     0.156 S 
ATOM     94  O   UNL A   1      44.349  17.774  26.726  1.00  0.00    -0.229 OA
ATOM     95  O   UNL A   1      42.053  17.562  25.670  1.00  0.00    -0.229 OA
ENDBRANCH  87  89
ENDBRANCH  80  81
BRANCH  80  96
ATOM     96  C   UNL A   1      46.616  25.528  27.469  1.00  0.00     0.046 A 
ATOM     97  C   UNL A   1      47.840  25.495  28.130  1.00  0.00     0.094 A 
ATOM     98  C   UNL A   1      46.359  26.896  27.193  1.00  0.00     0.009 A 
ATOM     99  N   UNL A   1      48.208  26.780  28.420  1.00  0.00    -0.361 N 
ATOM    100  C   UNL A   1      47.298  27.656  27.888  1.00  0.00     0.050 A 
ATOM    101  C   UNL A   1      45.368  27.550  26.457  1.00  0.00     0.015 A 
ATOM    102  H   UNL A   1      49.008  27.037  28.936  1.00  0.00     0.166 HD
ATOM    103  C   UNL A   1      47.223  29.049  27.983  1.00  0.00     0.073 A 
ATOM    104  C   UNL A   1      45.285  28.937  26.547  1.00  0.00     0.047 A 
ATOM    105  C   UNL A   1      46.164  29.688  27.335  1.00  0.00     0.121 A 
BRANCH 105 106
ATOM    106  O   UNL A   1      46.078  31.036  27.591  1.00  0.00    -0.489 OA
BRANCH 106 107
ATOM    107  C   UNL A   1      44.817  31.619  27.984  1.00  0.00     0.265 C 
BRANCH 107 108
ATOM    108  C   UNL A   1      44.532  32.907  27.245  1.00  0.00    -0.011 A 
ATOM    109  C   UNL A   1      43.825  33.941  27.878  1.00  0.00     0.007 A 
ATOM    110  C   UNL A   1      44.717  32.937  25.854  1.00  0.00     0.007 A 
ATOM    111  C   UNL A   1      43.149  34.881  27.100  1.00  0.00     0.000 A 
ATOM    112  C   UNL A   1      44.023  33.862  25.086  1.00  0.00     0.000 A 
ATOM    113  C   UNL A   1      43.212  34.811  25.707  1.00  0.00     0.000 A 
ENDBRANCH 107 108
ENDBRANCH 106 107
ENDBRANCH 105 106
ENDBRANCH  80  96
ENDBRANCH  78  80
ENDBRANCH  77  78
ENDBRANCH  76  77
ENDBRANCH  75  76
ENDBRANCH  74  75
ENDBRANCH   1  74
TORSDOF 23
ENDMDL
MODEL 3
REMARK VINA RESULT:      -9.2      6.120     13.863
REMARK SMILES O=C(OCCOCCOCCOC(=O)[C@H](c1c[nH]c2cc(OCc3ccccc3)ccc12)[NH+]1CC[NH+]([C@H]2CCS(=O)(=O)C2)CC1)c1ccc(-c2c3nc(c(-c4c(F)c(F)c(F)c(F)c4F)c4ccc([nH]4)c(-c4c(F)c(F)c(F)c(F)c4F)c4nc(c(-c5c(F)c(F)c(F)c(F)c5F)c5ccc2[nH]5)C=C4)C=C3)cc1
REMARK SMILES IDX 8 1 7 2 6 3 5 4 4 5 3 6 2 7 1 8 46 9 47 10 108 11 48 12
REMARK SMILES IDX 107 13 49 14 50 15 51 16 101 17 52 18 106 19 100 20 102 21
REMARK SMILES IDX 53 22 105 23 99 24 98 25 54 27 86 28 66 29 85 30 67 31 70 32
REMARK SMILES IDX 84 33 103 34 68 35 69 36 83 38 104 39 71 40 55 41 56 42
REMARK SMILES IDX 64 43 57 44 58 45 62 46 65 47 59 48 60 49 63 50 61 51 87 52
REMARK SMILES IDX 88 53 96 54 89 55 90 56 94 57 97 58 91 59 92 60 95 61 93 62
REMARK SMILES IDX 72 63 73 64 81 65 74 66 75 67 79 68 82 69 76 70 77 71 80 72
REMARK SMILES IDX 78 73 9 74 10 75 11 76 12 77 13 78 14 79 15 80 33 81 34 82
REMARK SMILES IDX 45 83 35 85 44 86 36 87 37 89 38 90 43 91 39 92 40 93 41 94
REMARK SMILES IDX 42 95 16 96 17 97 32 98 18 99 19 100 31 101 20 103 30 104
REMARK SMILES IDX 21 105 22 106 23 107 24 108 25 109 29 110 26 111 28 112
REMARK SMILES IDX 27 113
REMARK H PARENT 102 26 70 37 33 84 36 88 18 102
REMARK Flexibility Score: inf
ROOT
ATOM      1  C   UNL A   1      47.952  27.444  28.759  1.00  0.00     0.188 C 
ENDROOT
BRANCH   1   2
ATOM      2  C   UNL A   1      48.651  28.425  27.827  1.00  0.00     0.188 C 
BRANCH   2   3
ATOM      3  O   UNL A   1      48.396  29.805  28.094  1.00  0.00    -0.376 OA
BRANCH   3   4
ATOM      4  C   UNL A   1      47.461  30.414  27.203  1.00  0.00     0.202 C 
BRANCH   4   5
ATOM      5  C   UNL A   1      47.883  31.737  26.534  1.00  0.00     0.261 C 
BRANCH   5   6
ATOM      6  O   UNL A   1      46.833  32.689  26.277  1.00  0.00    -0.460 OA
BRANCH   6   7
ATOM      7  C   UNL A   1      45.488  32.567  26.219  1.00  0.00     0.338 C 
ATOM      8  O   UNL A   1      44.984  32.263  25.137  1.00  0.00    -0.246 OA
BRANCH   7   9
ATOM      9  C   UNL A   1      44.561  32.794  27.370  1.00  0.00     0.060 A 
ATOM     10  C   UNL A   1      44.199  34.035  27.888  1.00  0.00     0.016 A 
ATOM     11  C   UNL A   1      43.971  31.661  27.952  1.00  0.00     0.016 A 
ATOM     12  C   UNL A   1      43.348  34.167  28.987  1.00  0.00     0.010 A 
ATOM     13  C   UNL A   1      43.082  31.784  29.031  1.00  0.00     0.010 A 
ATOM     14  C   UNL A   1      42.789  33.047  29.582  1.00  0.00    -0.014 A 
BRANCH  14  15
ATOM     15  C   UNL A   1      42.078  33.140  30.880  1.00  0.00     0.031 A 
ATOM     16  C   UNL A   1      42.853  32.799  32.109  1.00  0.00     0.074 A 
ATOM     17  C   UNL A   1      40.859  33.685  31.075  1.00  0.00     0.049 A 
ATOM     18  N   UNL A   1      42.431  32.739  33.338  1.00  0.00    -0.248 NA
ATOM     19  C   UNL A   1      44.310  32.640  31.952  1.00  0.00     0.031 C 
ATOM     20  C   UNL A   1      40.168  34.584  30.177  1.00  0.00     0.029 A 
ATOM     21  N   UNL A   1      39.958  33.538  32.108  1.00  0.00    -0.354 N 
ATOM     22  C   UNL A   1      43.568  32.618  34.109  1.00  0.00     0.074 A 
ATOM     23  C   UNL A   1      44.698  32.520  33.213  1.00  0.00     0.031 C 
ATOM     24  C   UNL A   1      38.895  34.735  30.580  1.00  0.00     0.029 A 
ATOM     25  C   UNL A   1      38.683  33.941  31.754  1.00  0.00     0.049 A 
ATOM     26  H   UNL A   1      40.194  33.186  32.997  1.00  0.00     0.167 HD
ATOM     27  C   UNL A   1      43.641  32.648  35.455  1.00  0.00     0.037 A 
ATOM     28  C   UNL A   1      37.490  33.667  32.307  1.00  0.00     0.037 A 
ATOM     29  C   UNL A   1      42.494  32.749  36.313  1.00  0.00     0.049 A 
ATOM     30  C   UNL A   1      37.553  33.268  33.736  1.00  0.00     0.074 A 
ATOM     31  C   UNL A   1      42.451  32.767  37.694  1.00  0.00     0.029 A 
ATOM     32  N   UNL A   1      41.178  32.820  35.871  1.00  0.00    -0.354 N 
ATOM     33  N   UNL A   1      38.612  33.021  34.456  1.00  0.00    -0.248 NA
ATOM     34  C   UNL A   1      36.285  33.284  34.469  1.00  0.00     0.031 C 
ATOM     35  C   UNL A   1      41.110  32.743  38.087  1.00  0.00     0.029 A 
ATOM     36  C   UNL A   1      40.316  32.782  36.955  1.00  0.00     0.049 A 
ATOM     37  H   UNL A   1      40.902  32.888  34.928  1.00  0.00     0.167 HD
ATOM     38  C   UNL A   1      38.155  32.927  35.747  1.00  0.00     0.074 A 
ATOM     39  C   UNL A   1      36.712  33.085  35.704  1.00  0.00     0.031 C 
ATOM     40  C   UNL A   1      38.881  32.805  36.877  1.00  0.00     0.037 A 
BRANCH  27  41
ATOM     41  C   UNL A   1      44.996  32.481  36.052  1.00  0.00     0.064 A 
ATOM     42  C   UNL A   1      45.895  33.548  36.196  1.00  0.00     0.173 A 
ATOM     43  C   UNL A   1      45.407  31.206  36.461  1.00  0.00     0.173 A 
ATOM     44  F   UNL A   1      45.561  34.778  35.777  1.00  0.00    -0.203 F 
ATOM     45  C   UNL A   1      47.169  33.336  36.718  1.00  0.00     0.198 A 
ATOM     46  C   UNL A   1      46.668  31.004  37.005  1.00  0.00     0.198 A 
ATOM     47  F   UNL A   1      44.587  30.155  36.316  1.00  0.00    -0.203 F 
ATOM     48  F   UNL A   1      48.036  34.354  36.799  1.00  0.00    -0.200 F 
ATOM     49  C   UNL A   1      47.549  32.067  37.128  1.00  0.00     0.200 A 
ATOM     50  F   UNL A   1      47.035  29.776  37.396  1.00  0.00    -0.200 F 
ATOM     51  F   UNL A   1      48.776  31.863  37.629  1.00  0.00    -0.200 F 
ENDBRANCH  27  41
BRANCH  28  52
ATOM     52  C   UNL A   1      36.154  33.775  31.660  1.00  0.00     0.064 A 
ATOM     53  C   UNL A   1      35.670  32.910  30.676  1.00  0.00     0.173 A 
ATOM     54  C   UNL A   1      35.388  34.929  31.935  1.00  0.00     0.173 A 
ATOM     55  F   UNL A   1      36.371  31.821  30.334  1.00  0.00    -0.203 F 
ATOM     56  C   UNL A   1      34.479  33.191  29.994  1.00  0.00     0.198 A 
ATOM     57  C   UNL A   1      34.217  35.220  31.238  1.00  0.00     0.198 A 
ATOM     58  F   UNL A   1      35.803  35.788  32.880  1.00  0.00    -0.203 F 
ATOM     59  F   UNL A   1      34.051  32.357  29.035  1.00  0.00    -0.200 F 
ATOM     60  C   UNL A   1      33.759  34.346  30.269  1.00  0.00     0.200 A 
ATOM     61  F   UNL A   1      33.543  36.346  31.504  1.00  0.00    -0.200 F 
ATOM     62  F   UNL A   1      32.642  34.626  29.584  1.00  0.00    -0.200 F 
ENDBRANCH  28  52
BRANCH  40  63
ATOM     63  C   UNL A   1      38.082  32.779  38.131  1.00  0.00     0.064 A 
ATOM     64  C   UNL A   1      38.074  33.877  39.002  1.00  0.00     0.173 A 
ATOM     65  C   UNL A   1      37.398  31.616  38.504  1.00  0.00     0.173 A 
ATOM     66  F   UNL A   1      38.773  34.982  38.702  1.00  0.00    -0.203 F 
ATOM     67  C   UNL A   1      37.425  33.799  40.225  1.00  0.00     0.198 A 
ATOM     68  C   UNL A   1      36.717  31.558  39.711  1.00  0.00     0.198 A 
ATOM     69  F   UNL A   1      37.416  30.532  37.713  1.00  0.00    -0.203 F 
ATOM     70  F   UNL A   1      37.500  34.825  41.084  1.00  0.00    -0.200 F 
ATOM     71  C   UNL A   1      36.740  32.645  40.575  1.00  0.00     0.200 A 
ATOM     72  F   UNL A   1      36.059  30.441  40.052  1.00  0.00    -0.200 F 
ATOM     73  F   UNL A   1      36.117  32.570  41.758  1.00  0.00    -0.200 F 
ENDBRANCH  40  63
ENDBRANCH  14  15
ENDBRANCH   7   9
ENDBRANCH   6   7
ENDBRANCH   5   6
ENDBRANCH   4   5
ENDBRANCH   3   4
ENDBRANCH   2   3
ENDBRANCH   1   2
BRANCH   1  74
ATOM     74  O   UNL A   1      47.270  27.964  29.894  1.00  0.00    -0.376 OA
BRANCH  74  75
ATOM     75  C   UNL A   1      45.918  27.584  30.113  1.00  0.00     0.202 C 
BRANCH  75  76
ATOM     76  C   UNL A   1      45.530  26.103  30.034  1.00  0.00     0.261 C 
BRANCH  76  77
ATOM     77  O   UNL A   1      44.745  25.734  28.906  1.00  0.00    -0.459 OA
BRANCH  77  78
ATOM     78  C   UNL A   1      45.312  24.755  28.148  1.00  0.00     0.370 C 
ATOM     79  O   UNL A   1      46.282  24.084  28.499  1.00  0.00    -0.245 OA
BRANCH  78  80
ATOM     80  C   UNL A   1      44.662  24.593  26.767  1.00  0.00     0.328 C 
BRANCH  80  81
ATOM     81  N   UNL A   1      43.218  24.236  26.817  1.00  0.00    -0.310 N 
ATOM     82  C   UNL A   1      42.547  24.034  25.545  1.00  0.00     0.325 C 
ATOM     83  C   UNL A   1      42.813  23.195  27.779  1.00  0.00     0.325 C 
ATOM     84  H   UNL A   1      42.878  25.122  27.192  1.00  0.00     0.349 HD
ATOM     85  C   UNL A   1      42.796  22.628  24.952  1.00  0.00     0.324 C 
ATOM     86  C   UNL A   1      42.200  21.885  27.199  1.00  0.00     0.324 C 
ATOM     87  N   UNL A   1      42.641  21.481  25.868  1.00  0.00    -0.322 N 
ATOM     88  H   UNL A   1      41.856  20.914  25.549  1.00  0.00     0.348 HD
BRANCH  87  89
ATOM     89  C   UNL A   1      43.743  20.526  25.770  1.00  0.00     0.200 C 
ATOM     90  C   UNL A   1      43.460  19.019  25.725  1.00  0.00     0.082 C 
ATOM     91  C   UNL A   1      44.529  20.780  24.489  1.00  0.00     0.201 C 
ATOM     92  C   UNL A   1      44.837  18.396  25.549  1.00  0.00     0.143 C 
ATOM     93  S   UNL A   1      45.695  19.439  24.404  1.00  0.00     0.156 S 
ATOM     94  O   UNL A   1      46.940  19.899  25.000  1.00  0.00    -0.229 OA
ATOM     95  O   UNL A   1      45.645  18.828  23.101  1.00  0.00    -0.229 OA
ENDBRANCH  87  89
ENDBRANCH  80  81
BRANCH  80  96
ATOM     96  C   UNL A   1      45.005  25.854  26.015  1.00  0.00     0.046 A 
ATOM     97  C   UNL A   1      44.197  26.963  25.786  1.00  0.00     0.094 A 
ATOM     98  C   UNL A   1      46.275  26.178  25.472  1.00  0.00     0.009 A 
ATOM     99  N   UNL A   1      44.874  27.829  24.971  1.00  0.00    -0.361 N 
ATOM    100  C   UNL A   1      46.138  27.353  24.736  1.00  0.00     0.050 A 
ATOM    101  C   UNL A   1      47.515  25.535  25.498  1.00  0.00     0.015 A 
ATOM    102  H   UNL A   1      44.508  28.669  24.609  1.00  0.00     0.166 HD
ATOM    103  C   UNL A   1      47.155  27.857  23.918  1.00  0.00     0.073 A 
ATOM    104  C   UNL A   1      48.532  26.029  24.687  1.00  0.00     0.047 A 
ATOM    105  C   UNL A   1      48.356  27.147  23.864  1.00  0.00     0.121 A 
BRANCH 105 106
ATOM    106  O   UNL A   1      49.251  27.624  22.936  1.00  0.00    -0.489 OA
BRANCH 106 107
ATOM    107  C   UNL A   1      49.243  27.102  21.589  1.00  0.00     0.265 C 
BRANCH 107 108
ATOM    108  C   UNL A   1      50.514  27.439  20.843  1.00  0.00    -0.011 A 
ATOM    109  C   UNL A   1      50.535  27.416  19.439  1.00  0.00     0.007 A 
ATOM    110  C   UNL A   1      51.721  27.483  21.559  1.00  0.00     0.007 A 
ATOM    111  C   UNL A   1      51.750  27.238  18.778  1.00  0.00     0.000 A 
ATOM    112  C   UNL A   1      52.924  27.282  20.894  1.00  0.00     0.000 A 
ATOM    113  C   UNL A   1      52.934  27.126  19.509  1.00  0.00     0.000 A 
ENDBRANCH 107 108
ENDBRANCH 106 107
ENDBRANCH 105 106
ENDBRANCH  80  96
ENDBRANCH  78  80
ENDBRANCH  77  78
ENDBRANCH  76  77
ENDBRANCH  75  76
ENDBRANCH  74  75
ENDBRANCH   1  74
TORSDOF 23
ENDMDL
