MODEL 1
REMARK VINA RESULT:     -10.3      0.000      0.000
REMARK SMILES C[C@@H]1SCCC[C@]1(CC(=O)OCCOCCOCCOC(=O)c1ccc(-c2c3nc(c(-c4c(F)c(F)c(F)c(F)c4F)c4ccc([nH]4)c(-c4c(F)c(F)c(F)c(F)c4F)c4nc(c(-c5c(F)c(F)c(F)c(F)c5F)c5ccc2[nH]5)C=C4)C=C3)cc1)C(C)(C)[NH3+]
REMARK SMILES IDX 15 1 14 2 13 3 12 4 11 5 9 6 10 7 8 8 7 9 1 10 2 11 3 12
REMARK SMILES IDX 4 13 6 14 5 15 86 16 87 17 88 18 89 19 16 23 17 24 18 25
REMARK SMILES IDX 19 26 20 27 21 28 22 29 23 30 24 31 85 32 25 33 84 34 26 35
REMARK SMILES IDX 27 36 28 37 78 38 29 39 83 40 77 41 79 42 30 43 82 44 76 45
REMARK SMILES IDX 75 46 31 48 63 49 43 50 62 51 44 52 47 53 61 54 80 55 45 56
REMARK SMILES IDX 46 57 60 59 81 60 48 61 32 62 33 63 41 64 34 65 35 66 39 67
REMARK SMILES IDX 42 68 36 69 37 70 40 71 38 72 64 73 65 74 73 75 66 76 67 77
REMARK SMILES IDX 71 78 74 79 68 80 69 81 72 82 70 83 49 84 50 85 58 86 51 87
REMARK SMILES IDX 52 88 56 89 59 90 53 91 54 92 57 93 55 94
REMARK H PARENT 89 20 89 21 89 22 79 47 47 58
REMARK Flexibility Score: inf
ROOT
ATOM      1  C   UNL A   1      30.289  28.370  22.415  1.00  0.00     0.188 C 
ENDROOT
BRANCH   1   2
ATOM      2  O   UNL A   1      30.565  26.991  22.586  1.00  0.00    -0.376 OA
BRANCH   2   3
ATOM      3  C   UNL A   1      31.402  26.380  21.603  1.00  0.00     0.202 C 
BRANCH   3   4
ATOM      4  C   UNL A   1      32.917  26.378  21.882  1.00  0.00     0.261 C 
BRANCH   4   5
ATOM      5  O   UNL A   1      33.296  25.966  23.225  1.00  0.00    -0.463 OA
BRANCH   5   6
ATOM      6  C   UNL A   1      33.957  24.771  23.294  1.00  0.00     0.306 C 
ATOM      7  O   UNL A   1      34.050  23.992  22.347  1.00  0.00    -0.252 OA
BRANCH   6   8
ATOM      8  C   UNL A   1      34.778  24.557  24.573  1.00  0.00     0.137 C 
BRANCH   8   9
ATOM      9  C   UNL A   1      34.856  23.198  25.426  1.00  0.00     0.046 C 
ATOM     10  C   UNL A   1      35.147  20.583  25.011  1.00  0.00     0.020 C 
ATOM     11  C   UNL A   1      35.265  22.009  24.470  1.00  0.00     0.056 C 
ATOM     12  S   UNL A   1      36.985  22.170  23.826  1.00  0.00    -0.158 SA
ATOM     13  C   UNL A   1      37.873  22.273  25.396  1.00  0.00     0.070 C 
ATOM     14  C   UNL A   1      35.928  23.396  26.562  1.00  0.00     0.016 C 
ATOM     15  C   UNL A   1      37.395  23.484  26.167  1.00  0.00     0.012 C 
BRANCH   9  16
ATOM     16  C   UNL A   1      33.445  22.980  26.218  1.00  0.00     0.096 C 
ATOM     17  C   UNL A   1      32.311  22.187  25.517  1.00  0.00     0.079 C 
ATOM     18  C   UNL A   1      33.629  22.231  27.570  1.00  0.00     0.079 C 
BRANCH  16  19
ATOM     19  N   UNL A   1      32.876  24.291  26.498  1.00  0.00    -0.353 N 
ATOM     20  H   UNL A   1      33.625  24.949  26.714  1.00  0.00     0.344 HD
ATOM     21  H   UNL A   1      32.243  24.224  27.296  1.00  0.00     0.344 HD
ATOM     22  H   UNL A   1      32.360  24.620  25.682  1.00  0.00     0.344 HD
ENDBRANCH  16  19
ENDBRANCH   9  16
ENDBRANCH   8   9
ENDBRANCH   6   8
ENDBRANCH   5   6
ENDBRANCH   4   5
ENDBRANCH   3   4
ENDBRANCH   2   3
ENDBRANCH   1   2
BRANCH   1  23
ATOM     23  C   UNL A   1      30.431  29.282  23.642  1.00  0.00     0.188 C 
BRANCH  23  24
ATOM     24  O   UNL A   1      31.610  29.078  24.408  1.00  0.00    -0.376 OA
BRANCH  24  25
ATOM     25  C   UNL A   1      31.420  28.733  25.776  1.00  0.00     0.202 C 
BRANCH  25  26
ATOM     26  C   UNL A   1      31.812  29.862  26.735  1.00  0.00     0.261 C 
BRANCH  26  27
ATOM     27  O   UNL A   1      33.055  30.510  26.399  1.00  0.00    -0.460 OA
BRANCH  27  28
ATOM     28  C   UNL A   1      33.434  31.523  27.211  1.00  0.00     0.338 C 
ATOM     29  O   UNL A   1      32.742  32.438  27.620  1.00  0.00    -0.246 OA
BRANCH  28  30
ATOM     30  C   UNL A   1      34.782  31.225  27.744  1.00  0.00     0.060 A 
ATOM     31  C   UNL A   1      35.080  29.887  28.008  1.00  0.00     0.016 A 
ATOM     32  C   UNL A   1      35.736  32.204  28.000  1.00  0.00     0.016 A 
ATOM     33  C   UNL A   1      36.275  29.516  28.616  1.00  0.00     0.010 A 
ATOM     34  C   UNL A   1      36.958  31.832  28.581  1.00  0.00     0.010 A 
ATOM     35  C   UNL A   1      37.221  30.490  28.933  1.00  0.00    -0.014 A 
BRANCH  35  36
ATOM     36  C   UNL A   1      38.413  30.126  29.747  1.00  0.00     0.031 A 
ATOM     37  C   UNL A   1      39.426  29.179  29.161  1.00  0.00     0.074 A 
ATOM     38  C   UNL A   1      38.628  30.657  30.966  1.00  0.00     0.049 A 
ATOM     39  N   UNL A   1      40.437  28.580  29.737  1.00  0.00    -0.248 NA
ATOM     40  C   UNL A   1      39.277  28.863  27.731  1.00  0.00     0.031 C 
ATOM     41  C   UNL A   1      37.789  31.664  31.618  1.00  0.00     0.029 A 
ATOM     42  N   UNL A   1      39.624  30.412  31.883  1.00  0.00    -0.354 N 
ATOM     43  C   UNL A   1      41.005  27.775  28.757  1.00  0.00     0.074 A 
ATOM     44  C   UNL A   1      40.234  27.964  27.549  1.00  0.00     0.031 C 
ATOM     45  C   UNL A   1      38.298  31.940  32.831  1.00  0.00     0.029 A 
ATOM     46  C   UNL A   1      39.453  31.079  33.073  1.00  0.00     0.049 A 
ATOM     47  H   UNL A   1      40.387  29.816  31.704  1.00  0.00     0.167 HD
ATOM     48  C   UNL A   1      42.072  26.948  28.863  1.00  0.00     0.037 A 
ATOM     49  C   UNL A   1      40.116  30.968  34.242  1.00  0.00     0.037 A 
ATOM     50  C   UNL A   1      42.873  26.805  30.050  1.00  0.00     0.049 A 
ATOM     51  C   UNL A   1      41.257  29.985  34.350  1.00  0.00     0.074 A 
ATOM     52  C   UNL A   1      43.992  26.013  30.242  1.00  0.00     0.029 A 
ATOM     53  N   UNL A   1      42.645  27.474  31.243  1.00  0.00    -0.354 N 
ATOM     54  N   UNL A   1      41.772  29.204  33.432  1.00  0.00    -0.248 NA
ATOM     55  C   UNL A   1      41.902  29.860  35.666  1.00  0.00     0.031 C 
ATOM     56  C   UNL A   1      44.406  26.157  31.569  1.00  0.00     0.029 A 
ATOM     57  C   UNL A   1      43.586  27.088  32.184  1.00  0.00     0.049 A 
ATOM     58  H   UNL A   1      41.924  28.125  31.397  1.00  0.00     0.167 HD
ATOM     59  C   UNL A   1      42.816  28.524  34.048  1.00  0.00     0.074 A 
ATOM     60  C   UNL A   1      42.875  28.997  35.414  1.00  0.00     0.031 C 
ATOM     61  C   UNL A   1      43.647  27.586  33.533  1.00  0.00     0.037 A 
BRANCH  48  62
ATOM     62  C   UNL A   1      42.421  26.092  27.682  1.00  0.00     0.064 A 
ATOM     63  C   UNL A   1      43.426  26.444  26.773  1.00  0.00     0.173 A 
ATOM     64  C   UNL A   1      41.782  24.853  27.510  1.00  0.00     0.173 A 
ATOM     65  F   UNL A   1      44.055  27.624  26.885  1.00  0.00    -0.203 F 
ATOM     66  C   UNL A   1      43.776  25.591  25.728  1.00  0.00     0.198 A 
ATOM     67  C   UNL A   1      42.154  23.990  26.484  1.00  0.00     0.198 A 
ATOM     68  F   UNL A   1      40.813  24.468  28.354  1.00  0.00    -0.203 F 
ATOM     69  F   UNL A   1      44.720  25.959  24.852  1.00  0.00    -0.200 F 
ATOM     70  C   UNL A   1      43.149  24.361  25.592  1.00  0.00     0.200 A 
ATOM     71  F   UNL A   1      41.556  22.797  26.363  1.00  0.00    -0.200 F 
ATOM     72  F   UNL A   1      43.502  23.532  24.601  1.00  0.00    -0.200 F 
ENDBRANCH  48  62
BRANCH  49  73
ATOM     73  C   UNL A   1      39.685  31.745  35.437  1.00  0.00     0.064 A 
ATOM     74  C   UNL A   1      38.676  31.274  36.289  1.00  0.00     0.173 A 
ATOM     75  C   UNL A   1      40.221  33.014  35.710  1.00  0.00     0.173 A 
ATOM     76  F   UNL A   1      38.106  30.081  36.055  1.00  0.00    -0.203 F 
ATOM     77  C   UNL A   1      38.193  32.053  37.338  1.00  0.00     0.198 A 
ATOM     78  C   UNL A   1      39.766  33.777  36.783  1.00  0.00     0.198 A 
ATOM     79  F   UNL A   1      41.183  33.520  34.925  1.00  0.00    -0.203 F 
ATOM     80  F   UNL A   1      37.172  31.610  38.086  1.00  0.00    -0.200 F 
ATOM     81  C   UNL A   1      38.741  33.303  37.587  1.00  0.00     0.200 A 
ATOM     82  F   UNL A   1      40.307  34.978  37.025  1.00  0.00    -0.200 F 
ATOM     83  F   UNL A   1      38.268  34.058  38.588  1.00  0.00    -0.200 F 
ENDBRANCH  49  73
BRANCH  61  84
ATOM     84  C   UNL A   1      44.730  27.051  34.427  1.00  0.00     0.064 A 
ATOM     85  C   UNL A   1      45.996  27.654  34.499  1.00  0.00     0.173 A 
ATOM     86  C   UNL A   1      44.483  25.943  35.253  1.00  0.00     0.173 A 
ATOM     87  F   UNL A   1      46.288  28.708  33.723  1.00  0.00    -0.203 F 
ATOM     88  C   UNL A   1      46.982  27.146  35.341  1.00  0.00     0.198 A 
ATOM     89  C   UNL A   1      45.461  25.461  36.119  1.00  0.00     0.198 A 
ATOM     90  F   UNL A   1      43.287  25.336  35.230  1.00  0.00    -0.203 F 
ATOM     91  F   UNL A   1      48.200  27.704  35.354  1.00  0.00    -0.200 F 
ATOM     92  C   UNL A   1      46.711  26.056  36.156  1.00  0.00     0.200 A 
ATOM     93  F   UNL A   1      45.190  24.419  36.918  1.00  0.00    -0.200 F 
ATOM     94  F   UNL A   1      47.660  25.575  36.971  1.00  0.00    -0.200 F 
ENDBRANCH  61  84
ENDBRANCH  35  36
ENDBRANCH  28  30
ENDBRANCH  27  28
ENDBRANCH  26  27
ENDBRANCH  25  26
ENDBRANCH  24  25
ENDBRANCH  23  24
ENDBRANCH   1  23
TORSDOF 20
ENDMDL
MODEL 2
REMARK VINA RESULT:     -10.3      3.058      8.296
REMARK SMILES C[C@@H]1SCCC[C@]1(CC(=O)OCCOCCOCCOC(=O)c1ccc(-c2c3nc(c(-c4c(F)c(F)c(F)c(F)c4F)c4ccc([nH]4)c(-c4c(F)c(F)c(F)c(F)c4F)c4nc(c(-c5c(F)c(F)c(F)c(F)c5F)c5ccc2[nH]5)C=C4)C=C3)cc1)C(C)(C)[NH3+]
REMARK SMILES IDX 15 1 14 2 13 3 12 4 11 5 9 6 10 7 8 8 7 9 1 10 2 11 3 12
REMARK SMILES IDX 4 13 6 14 5 15 86 16 87 17 88 18 89 19 16 23 17 24 18 25
REMARK SMILES IDX 19 26 20 27 21 28 22 29 23 30 24 31 85 32 25 33 84 34 26 35
REMARK SMILES IDX 27 36 28 37 78 38 29 39 83 40 77 41 79 42 30 43 82 44 76 45
REMARK SMILES IDX 75 46 31 48 63 49 43 50 62 51 44 52 47 53 61 54 80 55 45 56
REMARK SMILES IDX 46 57 60 59 81 60 48 61 32 62 33 63 41 64 34 65 35 66 39 67
REMARK SMILES IDX 42 68 36 69 37 70 40 71 38 72 64 73 65 74 73 75 66 76 67 77
REMARK SMILES IDX 71 78 74 79 68 80 69 81 72 82 70 83 49 84 50 85 58 86 51 87
REMARK SMILES IDX 52 88 56 89 59 90 53 91 54 92 57 93 55 94
REMARK H PARENT 89 20 89 21 89 22 79 47 47 58
REMARK Flexibility Score: inf
ROOT
ATOM      1  C   UNL A   1      38.203  20.070  24.992  1.00  0.00     0.188 C 
ENDROOT
BRANCH   1   2
ATOM      2  O   UNL A   1      37.188  20.743  25.717  1.00  0.00    -0.376 OA
BRANCH   2   3
ATOM      3  C   UNL A   1      36.547  21.835  25.055  1.00  0.00     0.202 C 
BRANCH   3   4
ATOM      4  C   UNL A   1      35.015  21.921  25.178  1.00  0.00     0.261 C 
BRANCH   4   5
ATOM      5  O   UNL A   1      34.280  21.646  23.952  1.00  0.00    -0.463 OA
BRANCH   5   6
ATOM      6  C   UNL A   1      33.777  22.751  23.324  1.00  0.00     0.306 C 
ATOM      7  O   UNL A   1      34.368  23.350  22.427  1.00  0.00    -0.252 OA
BRANCH   6   8
ATOM      8  C   UNL A   1      32.312  23.072  23.652  1.00  0.00     0.137 C 
BRANCH   8   9
ATOM      9  C   UNL A   1      31.797  23.958  24.888  1.00  0.00     0.046 C 
ATOM     10  C   UNL A   1      32.685  25.915  26.462  1.00  0.00     0.020 C 
ATOM     11  C   UNL A   1      32.840  25.110  25.171  1.00  0.00     0.056 C 
ATOM     12  S   UNL A   1      32.925  26.347  23.806  1.00  0.00    -0.158 SA
ATOM     13  C   UNL A   1      31.187  26.840  23.754  1.00  0.00     0.070 C 
ATOM     14  C   UNL A   1      30.392  24.558  24.506  1.00  0.00     0.016 C 
ATOM     15  C   UNL A   1      30.331  25.635  23.432  1.00  0.00     0.012 C 
BRANCH   9  16
ATOM     16  C   UNL A   1      31.499  22.982  26.162  1.00  0.00     0.096 C 
ATOM     17  C   UNL A   1      32.524  22.943  27.327  1.00  0.00     0.079 C 
ATOM     18  C   UNL A   1      30.156  23.319  26.873  1.00  0.00     0.079 C 
BRANCH  16  19
ATOM     19  N   UNL A   1      31.425  21.612  25.674  1.00  0.00    -0.353 N 
ATOM     20  H   UNL A   1      32.326  21.153  25.806  1.00  0.00     0.344 HD
ATOM     21  H   UNL A   1      31.188  21.617  24.681  1.00  0.00     0.344 HD
ATOM     22  H   UNL A   1      30.706  21.104  26.191  1.00  0.00     0.344 HD
ENDBRANCH  16  19
ENDBRANCH   9  16
ENDBRANCH   8   9
ENDBRANCH   6   8
ENDBRANCH   5   6
ENDBRANCH   4   5
ENDBRANCH   3   4
ENDBRANCH   2   3
ENDBRANCH   1   2
BRANCH   1  23
ATOM     23  C   UNL A   1      39.434  19.586  25.772  1.00  0.00     0.188 C 
BRANCH  23  24
ATOM     24  O   UNL A   1      40.384  20.596  26.080  1.00  0.00    -0.376 OA
BRANCH  24  25
ATOM     25  C   UNL A   1      41.709  20.152  26.350  1.00  0.00     0.202 C 
BRANCH  25  26
ATOM     26  C   UNL A   1      42.778  21.147  25.886  1.00  0.00     0.261 C 
BRANCH  26  27
ATOM     27  O   UNL A   1      42.243  22.323  25.245  1.00  0.00    -0.460 OA
BRANCH  27  28
ATOM     28  C   UNL A   1      43.042  23.415  25.247  1.00  0.00     0.338 C 
ATOM     29  O   UNL A   1      43.977  23.645  24.502  1.00  0.00    -0.246 OA
BRANCH  28  30
ATOM     30  C   UNL A   1      42.455  24.430  26.150  1.00  0.00     0.060 A 
ATOM     31  C   UNL A   1      43.009  25.710  26.113  1.00  0.00     0.016 A 
ATOM     32  C   UNL A   1      41.407  24.160  27.023  1.00  0.00     0.016 A 
ATOM     33  C   UNL A   1      42.606  26.701  27.002  1.00  0.00     0.010 A 
ATOM     34  C   UNL A   1      40.971  25.168  27.899  1.00  0.00     0.010 A 
ATOM     35  C   UNL A   1      41.596  26.433  27.924  1.00  0.00    -0.014 A 
BRANCH  35  36
ATOM     36  C   UNL A   1      41.290  27.421  28.995  1.00  0.00     0.031 A 
ATOM     37  C   UNL A   1      42.121  27.409  30.249  1.00  0.00     0.074 A 
ATOM     38  C   UNL A   1      40.324  28.349  28.848  1.00  0.00     0.049 A 
ATOM     39  N   UNL A   1      41.933  28.040  31.380  1.00  0.00    -0.248 NA
ATOM     40  C   UNL A   1      43.329  26.568  30.226  1.00  0.00     0.031 C 
ATOM     41  C   UNL A   1      39.508  28.548  27.650  1.00  0.00     0.029 A 
ATOM     42  N   UNL A   1      39.859  29.299  29.727  1.00  0.00    -0.354 N 
ATOM     43  C   UNL A   1      42.962  27.628  32.217  1.00  0.00     0.074 A 
ATOM     44  C   UNL A   1      43.776  26.698  31.467  1.00  0.00     0.031 C 
ATOM     45  C   UNL A   1      38.636  29.547  27.874  1.00  0.00     0.029 A 
ATOM     46  C   UNL A   1      38.781  30.008  29.252  1.00  0.00     0.049 A 
ATOM     47  H   UNL A   1      40.259  29.457  30.613  1.00  0.00     0.167 HD
ATOM     48  C   UNL A   1      43.199  27.990  33.500  1.00  0.00     0.037 A 
ATOM     49  C   UNL A   1      37.968  30.887  29.873  1.00  0.00     0.037 A 
ATOM     50  C   UNL A   1      42.421  28.960  34.226  1.00  0.00     0.049 A 
ATOM     51  C   UNL A   1      38.215  31.218  31.325  1.00  0.00     0.074 A 
ATOM     52  C   UNL A   1      42.604  29.413  35.521  1.00  0.00     0.029 A 
ATOM     53  N   UNL A   1      41.319  29.629  33.718  1.00  0.00    -0.354 N 
ATOM     54  N   UNL A   1      39.170  30.804  32.122  1.00  0.00    -0.248 NA
ATOM     55  C   UNL A   1      37.260  32.133  31.969  1.00  0.00     0.031 C 
ATOM     56  C   UNL A   1      41.578  30.313  35.817  1.00  0.00     0.029 A 
ATOM     57  C   UNL A   1      40.794  30.470  34.686  1.00  0.00     0.049 A 
ATOM     58  H   UNL A   1      40.963  29.523  32.807  1.00  0.00     0.167 HD
ATOM     59  C   UNL A   1      38.949  31.430  33.343  1.00  0.00     0.074 A 
ATOM     60  C   UNL A   1      37.781  32.268  33.179  1.00  0.00     0.031 C 
ATOM     61  C   UNL A   1      39.646  31.317  34.500  1.00  0.00     0.037 A 
BRANCH  48  62
ATOM     62  C   UNL A   1      44.319  27.309  34.230  1.00  0.00     0.064 A 
ATOM     63  C   UNL A   1      45.594  27.878  34.342  1.00  0.00     0.173 A 
ATOM     64  C   UNL A   1      44.077  26.098  34.898  1.00  0.00     0.173 A 
ATOM     65  F   UNL A   1      45.881  29.026  33.709  1.00  0.00    -0.203 F 
ATOM     66  C   UNL A   1      46.591  27.254  35.090  1.00  0.00     0.198 A 
ATOM     67  C   UNL A   1      45.065  25.493  35.669  1.00  0.00     0.198 A 
ATOM     68  F   UNL A   1      42.872  25.513  34.824  1.00  0.00    -0.203 F 
ATOM     69  F   UNL A   1      47.813  27.799  35.160  1.00  0.00    -0.200 F 
ATOM     70  C   UNL A   1      46.322  26.071  35.762  1.00  0.00     0.200 A 
ATOM     71  F   UNL A   1      44.798  24.358  36.327  1.00  0.00    -0.200 F 
ATOM     72  F   UNL A   1      47.275  25.485  36.499  1.00  0.00    -0.200 F 
ENDBRANCH  48  62
BRANCH  49  73
ATOM     73  C   UNL A   1      36.794  31.469  29.165  1.00  0.00     0.064 A 
ATOM     74  C   UNL A   1      36.741  32.831  28.838  1.00  0.00     0.173 A 
ATOM     75  C   UNL A   1      35.664  30.688  28.869  1.00  0.00     0.173 A 
ATOM     76  F   UNL A   1      37.780  33.629  29.128  1.00  0.00    -0.203 F 
ATOM     77  C   UNL A   1      35.596  33.398  28.282  1.00  0.00     0.198 A 
ATOM     78  C   UNL A   1      34.534  31.247  28.276  1.00  0.00     0.198 A 
ATOM     79  F   UNL A   1      35.654  29.382  29.167  1.00  0.00    -0.203 F 
ATOM     80  F   UNL A   1      35.545  34.718  28.054  1.00  0.00    -0.200 F 
ATOM     81  C   UNL A   1      34.494  32.604  27.997  1.00  0.00     0.200 A 
ATOM     82  F   UNL A   1      33.478  30.474  27.994  1.00  0.00    -0.200 F 
ATOM     83  F   UNL A   1      33.388  33.151  27.474  1.00  0.00    -0.200 F 
ENDBRANCH  49  73
BRANCH  61  84
ATOM     84  C   UNL A   1      39.203  32.161  35.662  1.00  0.00     0.064 A 
ATOM     85  C   UNL A   1      38.308  31.679  36.629  1.00  0.00     0.173 A 
ATOM     86  C   UNL A   1      39.716  33.457  35.831  1.00  0.00     0.173 A 
ATOM     87  F   UNL A   1      37.779  30.451  36.509  1.00  0.00    -0.203 F 
ATOM     88  C   UNL A   1      37.917  32.476  37.702  1.00  0.00     0.198 A 
ATOM     89  C   UNL A   1      39.350  34.236  36.925  1.00  0.00     0.198 A 
ATOM     90  F   UNL A   1      40.584  33.963  34.942  1.00  0.00    -0.203 F 
ATOM     91  F   UNL A   1      37.019  32.015  38.584  1.00  0.00    -0.200 F 
ATOM     92  C   UNL A   1      38.445  33.750  37.854  1.00  0.00     0.200 A 
ATOM     93  F   UNL A   1      39.876  35.460  37.078  1.00  0.00    -0.200 F 
ATOM     94  F   UNL A   1      38.074  34.511  38.892  1.00  0.00    -0.200 F 
ENDBRANCH  61  84
ENDBRANCH  35  36
ENDBRANCH  28  30
ENDBRANCH  27  28
ENDBRANCH  26  27
ENDBRANCH  25  26
ENDBRANCH  24  25
ENDBRANCH  23  24
ENDBRANCH   1  23
TORSDOF 20
ENDMDL
MODEL 3
REMARK VINA RESULT:     -10.2      1.082      2.283
REMARK SMILES C[C@@H]1SCCC[C@]1(CC(=O)OCCOCCOCCOC(=O)c1ccc(-c2c3nc(c(-c4c(F)c(F)c(F)c(F)c4F)c4ccc([nH]4)c(-c4c(F)c(F)c(F)c(F)c4F)c4nc(c(-c5c(F)c(F)c(F)c(F)c5F)c5ccc2[nH]5)C=C4)C=C3)cc1)C(C)(C)[NH3+]
REMARK SMILES IDX 15 1 14 2 13 3 12 4 11 5 9 6 10 7 8 8 7 9 1 10 2 11 3 12
REMARK SMILES IDX 4 13 6 14 5 15 86 16 87 17 88 18 89 19 16 23 17 24 18 25
REMARK SMILES IDX 19 26 20 27 21 28 22 29 23 30 24 31 85 32 25 33 84 34 26 35
REMARK SMILES IDX 27 36 28 37 78 38 29 39 83 40 77 41 79 42 30 43 82 44 76 45
REMARK SMILES IDX 75 46 31 48 63 49 43 50 62 51 44 52 47 53 61 54 80 55 45 56
REMARK SMILES IDX 46 57 60 59 81 60 48 61 32 62 33 63 41 64 34 65 35 66 39 67
REMARK SMILES IDX 42 68 36 69 37 70 40 71 38 72 64 73 65 74 73 75 66 76 67 77
REMARK SMILES IDX 71 78 74 79 68 80 69 81 72 82 70 83 49 84 50 85 58 86 51 87
REMARK SMILES IDX 52 88 56 89 59 90 53 91 54 92 57 93 55 94
REMARK H PARENT 89 20 89 21 89 22 79 47 47 58
REMARK Flexibility Score: inf
ROOT
ATOM      1  C   UNL A   1      30.661  28.158  22.313  1.00  0.00     0.188 C 
ENDROOT
BRANCH   1   2
ATOM      2  O   UNL A   1      31.720  27.229  22.458  1.00  0.00    -0.376 OA
BRANCH   2   3
ATOM      3  C   UNL A   1      31.571  25.979  21.782  1.00  0.00     0.202 C 
BRANCH   3   4
ATOM      4  C   UNL A   1      32.864  25.266  21.344  1.00  0.00     0.261 C 
BRANCH   4   5
ATOM      5  O   UNL A   1      33.850  25.075  22.397  1.00  0.00    -0.463 OA
BRANCH   5   6
ATOM      6  C   UNL A   1      34.059  23.774  22.760  1.00  0.00     0.306 C 
ATOM      7  O   UNL A   1      35.164  23.235  22.750  1.00  0.00    -0.252 OA
BRANCH   6   8
ATOM      8  C   UNL A   1      32.851  23.079  23.405  1.00  0.00     0.137 C 
BRANCH   8   9
ATOM      9  C   UNL A   1      32.785  22.505  24.903  1.00  0.00     0.046 C 
ATOM     10  C   UNL A   1      33.985  22.882  27.251  1.00  0.00     0.020 C 
ATOM     11  C   UNL A   1      33.694  23.395  25.840  1.00  0.00     0.056 C 
ATOM     12  S   UNL A   1      33.046  25.109  26.044  1.00  0.00    -0.158 SA
ATOM     13  C   UNL A   1      31.395  24.722  26.669  1.00  0.00     0.070 C 
ATOM     14  C   UNL A   1      31.284  22.549  25.376  1.00  0.00     0.016 C 
ATOM     15  C   UNL A   1      30.646  23.906  25.639  1.00  0.00     0.012 C 
BRANCH   9  16
ATOM     16  C   UNL A   1      33.170  20.919  24.889  1.00  0.00     0.096 C 
ATOM     17  C   UNL A   1      32.754  20.062  23.664  1.00  0.00     0.079 C 
ATOM     18  C   UNL A   1      34.704  20.675  24.998  1.00  0.00     0.079 C 
BRANCH  16  19
ATOM     19  N   UNL A   1      32.527  20.287  26.032  1.00  0.00    -0.353 N 
ATOM     20  H   UNL A   1      31.527  20.483  26.013  1.00  0.00     0.344 HD
ATOM     21  H   UNL A   1      32.928  20.656  26.895  1.00  0.00     0.344 HD
ATOM     22  H   UNL A   1      32.676  19.278  25.994  1.00  0.00     0.344 HD
ENDBRANCH  16  19
ENDBRANCH   9  16
ENDBRANCH   8   9
ENDBRANCH   6   8
ENDBRANCH   5   6
ENDBRANCH   4   5
ENDBRANCH   3   4
ENDBRANCH   2   3
ENDBRANCH   1   2
BRANCH   1  23
ATOM     23  C   UNL A   1      30.397  29.125  23.476  1.00  0.00     0.188 C 
BRANCH  23  24
ATOM     24  O   UNL A   1      31.514  29.368  24.319  1.00  0.00    -0.376 OA
BRANCH  24  25
ATOM     25  C   UNL A   1      31.422  28.861  25.647  1.00  0.00     0.202 C 
BRANCH  25  26
ATOM     26  C   UNL A   1      31.879  29.873  26.704  1.00  0.00     0.261 C 
BRANCH  26  27
ATOM     27  O   UNL A   1      33.099  30.562  26.365  1.00  0.00    -0.460 OA
BRANCH  27  28
ATOM     28  C   UNL A   1      33.442  31.591  27.173  1.00  0.00     0.338 C 
ATOM     29  O   UNL A   1      32.726  32.500  27.552  1.00  0.00    -0.246 OA
BRANCH  28  30
ATOM     30  C   UNL A   1      34.781  31.322  27.742  1.00  0.00     0.060 A 
ATOM     31  C   UNL A   1      35.083  29.996  28.057  1.00  0.00     0.016 A 
ATOM     32  C   UNL A   1      35.723  32.316  27.983  1.00  0.00     0.016 A 
ATOM     33  C   UNL A   1      36.268  29.655  28.702  1.00  0.00     0.010 A 
ATOM     34  C   UNL A   1      36.936  31.973  28.601  1.00  0.00     0.010 A 
ATOM     35  C   UNL A   1      37.201  30.646  29.004  1.00  0.00    -0.014 A 
BRANCH  35  36
ATOM     36  C   UNL A   1      38.379  30.320  29.853  1.00  0.00     0.031 A 
ATOM     37  C   UNL A   1      39.438  29.406  29.299  1.00  0.00     0.074 A 
ATOM     38  C   UNL A   1      38.541  30.857  31.078  1.00  0.00     0.049 A 
ATOM     39  N   UNL A   1      40.450  28.838  29.905  1.00  0.00    -0.248 NA
ATOM     40  C   UNL A   1      39.343  29.086  27.864  1.00  0.00     0.031 C 
ATOM     41  C   UNL A   1      37.651  31.836  31.704  1.00  0.00     0.029 A 
ATOM     42  N   UNL A   1      39.515  30.643  32.024  1.00  0.00    -0.354 N 
ATOM     43  C   UNL A   1      41.072  28.052  28.943  1.00  0.00     0.074 A 
ATOM     44  C   UNL A   1      40.332  28.218  27.712  1.00  0.00     0.031 C 
ATOM     45  C   UNL A   1      38.114  32.127  32.932  1.00  0.00     0.029 A 
ATOM     46  C   UNL A   1      39.288  31.303  33.209  1.00  0.00     0.049 A 
ATOM     47  H   UNL A   1      40.302  30.071  31.869  1.00  0.00     0.167 HD
ATOM     48  C   UNL A   1      42.161  27.259  29.080  1.00  0.00     0.037 A 
ATOM     49  C   UNL A   1      39.919  31.212  34.397  1.00  0.00     0.037 A 
ATOM     50  C   UNL A   1      42.930  27.141  30.292  1.00  0.00     0.049 A 
ATOM     51  C   UNL A   1      41.086  30.266  34.540  1.00  0.00     0.074 A 
ATOM     52  C   UNL A   1      44.067  26.384  30.517  1.00  0.00     0.029 A 
ATOM     53  N   UNL A   1      42.646  27.802  31.476  1.00  0.00    -0.354 N 
ATOM     54  N   UNL A   1      41.654  29.502  33.637  1.00  0.00    -0.248 NA
ATOM     55  C   UNL A   1      41.695  30.160  35.875  1.00  0.00     0.031 C 
ATOM     56  C   UNL A   1      44.437  26.541  31.855  1.00  0.00     0.029 A 
ATOM     57  C   UNL A   1      43.570  27.445  32.445  1.00  0.00     0.049 A 
ATOM     58  H   UNL A   1      41.900  28.429  31.609  1.00  0.00     0.167 HD
ATOM     59  C   UNL A   1      42.699  28.855  34.285  1.00  0.00     0.074 A 
ATOM     60  C   UNL A   1      42.702  29.329  35.652  1.00  0.00     0.031 C 
ATOM     61  C   UNL A   1      43.575  27.944  33.795  1.00  0.00     0.037 A 
BRANCH  48  62
ATOM     62  C   UNL A   1      42.572  26.415  27.911  1.00  0.00     0.064 A 
ATOM     63  C   UNL A   1      43.523  26.844  26.976  1.00  0.00     0.173 A 
ATOM     64  C   UNL A   1      42.055  25.116  27.776  1.00  0.00     0.173 A 
ATOM     65  F   UNL A   1      44.035  28.082  27.051  1.00  0.00    -0.203 F 
ATOM     66  C   UNL A   1      43.937  26.006  25.942  1.00  0.00     0.198 A 
ATOM     67  C   UNL A   1      42.492  24.271  26.761  1.00  0.00     0.198 A 
ATOM     68  F   UNL A   1      41.142  24.658  28.646  1.00  0.00    -0.203 F 
ATOM     69  F   UNL A   1      44.825  26.445  25.041  1.00  0.00    -0.200 F 
ATOM     70  C   UNL A   1      43.431  24.718  25.844  1.00  0.00     0.200 A 
ATOM     71  F   UNL A   1      42.012  23.024  26.676  1.00  0.00    -0.200 F 
ATOM     72  F   UNL A   1      43.847  23.906  24.862  1.00  0.00    -0.200 F 
ENDBRANCH  48  62
BRANCH  49  73
ATOM     73  C   UNL A   1      39.428  31.974  35.579  1.00  0.00     0.064 A 
ATOM     74  C   UNL A   1      39.951  33.234  35.902  1.00  0.00     0.173 A 
ATOM     75  C   UNL A   1      38.480  31.423  36.456  1.00  0.00     0.173 A 
ATOM     76  F   UNL A   1      40.884  33.793  35.116  1.00  0.00    -0.203 F 
ATOM     77  C   UNL A   1      39.577  33.894  37.071  1.00  0.00     0.198 A 
ATOM     78  C   UNL A   1      38.076  32.101  37.604  1.00  0.00     0.198 A 
ATOM     79  F   UNL A   1      37.952  30.217  36.203  1.00  0.00    -0.203 F 
ATOM     80  F   UNL A   1      40.153  35.061  37.395  1.00  0.00    -0.200 F 
ATOM     81  C   UNL A   1      38.636  33.329  37.919  1.00  0.00     0.200 A 
ATOM     82  F   UNL A   1      37.159  31.555  38.413  1.00  0.00    -0.200 F 
ATOM     83  F   UNL A   1      38.285  33.958  39.050  1.00  0.00    -0.200 F 
ENDBRANCH  49  73
BRANCH  61  84
ATOM     84  C   UNL A   1      44.647  27.443  34.722  1.00  0.00     0.064 A 
ATOM     85  C   UNL A   1      44.459  26.310  35.528  1.00  0.00     0.173 A 
ATOM     86  C   UNL A   1      45.895  28.084  34.773  1.00  0.00     0.173 A 
ATOM     87  F   UNL A   1      43.281  25.667  35.527  1.00  0.00    -0.203 F 
ATOM     88  C   UNL A   1      45.469  25.859  36.375  1.00  0.00     0.198 A 
ATOM     89  C   UNL A   1      46.913  27.608  35.593  1.00  0.00     0.198 A 
ATOM     90  F   UNL A   1      46.131  29.165  34.014  1.00  0.00    -0.203 F 
ATOM     91  F   UNL A   1      45.248  24.808  37.176  1.00  0.00    -0.200 F 
ATOM     92  C   UNL A   1      46.697  26.503  36.399  1.00  0.00     0.200 A 
ATOM     93  F   UNL A   1      48.105  28.221  35.602  1.00  0.00    -0.200 F 
ATOM     94  F   UNL A   1      47.670  26.061  37.208  1.00  0.00    -0.200 F 
ENDBRANCH  61  84
ENDBRANCH  35  36
ENDBRANCH  28  30
ENDBRANCH  27  28
ENDBRANCH  26  27
ENDBRANCH  25  26
ENDBRANCH  24  25
ENDBRANCH  23  24
ENDBRANCH   1  23
TORSDOF 20
ENDMDL
