MODEL 1
REMARK VINA RESULT:     -11.3      0.000      0.000
REMARK SMILES NC(=O)[C@@H]1CCCCN1c1cncc(C(=O)OCCOCCOCCOC(=O)c2ccc(-c3c4nc(c(-c5c(F)c(F)c(F)c(F)c5F)c5ccc([nH]5)c(-c5c(F)c(F)c(F)c(F)c5F)c5nc(c(-c6c(F)c(F)c(F)c(F)c6F)c6ccc3[nH]6)C=C5)C=C4)cc2)n1
REMARK SMILES IDX 21 1 20 2 19 3 18 4 17 5 15 6 16 7 14 8 10 9 11 10 92 11
REMARK SMILES IDX 12 12 13 13 9 14 4 15 5 16 6 17 8 18 7 19 2 20 1 21 3 24
REMARK SMILES IDX 22 25 23 26 24 27 25 28 26 29 27 30 28 31 29 32 30 33 91 34
REMARK SMILES IDX 31 35 90 36 32 37 33 38 34 39 84 40 35 41 89 42 83 43 85 44
REMARK SMILES IDX 36 45 88 46 82 47 81 48 37 50 69 51 49 52 68 53 50 54 53 55
REMARK SMILES IDX 67 56 86 57 51 58 52 59 66 61 87 62 54 63 38 64 39 65 47 66
REMARK SMILES IDX 40 67 41 68 45 69 48 70 42 71 43 72 46 73 44 74 70 75 71 76
REMARK SMILES IDX 79 77 72 78 73 79 77 80 80 81 74 82 75 83 78 84 76 85 55 86
REMARK SMILES IDX 56 87 64 88 57 89 58 90 62 91 65 92 59 93 60 94 63 95 61 96
REMARK H PARENT 1 22 1 23 85 49 53 60
REMARK Flexibility Score: inf
ROOT
ATOM      1  C   UNL A   1      40.014  20.354  26.271  1.00  0.00     0.188 C 
ENDROOT
BRANCH   1   2
ATOM      2  O   UNL A   1      39.554  21.590  25.757  1.00  0.00    -0.376 OA
BRANCH   2   3
ATOM      3  C   UNL A   1      38.176  21.922  25.802  1.00  0.00     0.202 C 
BRANCH   3   4
ATOM      4  C   UNL A   1      37.678  23.351  25.527  1.00  0.00     0.261 C 
BRANCH   4   5
ATOM      5  O   UNL A   1      36.494  23.746  26.234  1.00  0.00    -0.458 OA
BRANCH   5   6
ATOM      6  C   UNL A   1      35.341  23.144  25.841  1.00  0.00     0.358 C 
ATOM      7  O   UNL A   1      34.802  22.187  26.373  1.00  0.00    -0.244 OA
BRANCH   6   8
ATOM      8  C   UNL A   1      34.683  23.945  24.785  1.00  0.00     0.169 A 
ATOM      9  C   UNL A   1      33.384  25.744  24.121  1.00  0.00     0.148 A 
ATOM     10  C   UNL A   1      33.486  25.234  22.813  1.00  0.00     0.157 A 
ATOM     11  N   UNL A   1      33.964  25.055  25.134  1.00  0.00    -0.220 NA
ATOM     12  N   UNL A   1      34.169  24.112  22.461  1.00  0.00    -0.258 NA
ATOM     13  C   UNL A   1      34.798  23.496  23.480  1.00  0.00     0.147 A 
BRANCH   9  14
ATOM     14  N   UNL A   1      32.757  26.949  24.360  1.00  0.00    -0.343 N 
ATOM     15  C   UNL A   1      31.301  27.151  24.589  1.00  0.00     0.172 C 
ATOM     16  C   UNL A   1      30.648  27.653  23.303  1.00  0.00     0.035 C 
ATOM     17  C   UNL A   1      31.301  28.978  22.897  1.00  0.00     0.004 C 
ATOM     18  C   UNL A   1      33.464  28.185  23.989  1.00  0.00     0.119 C 
ATOM     19  C   UNL A   1      32.817  28.823  22.752  1.00  0.00     0.022 C 
BRANCH  15  20
ATOM     20  C   UNL A   1      30.478  26.054  25.290  1.00  0.00     0.240 C 
ATOM     21  N   UNL A   1      29.779  25.174  24.534  1.00  0.00    -0.368 N 
ATOM     22  H   UNL A   1      29.247  24.466  24.967  1.00  0.00     0.159 HD
ATOM     23  H   UNL A   1      29.801  25.241  23.552  1.00  0.00     0.159 HD
ATOM     24  O   UNL A   1      30.356  26.012  26.515  1.00  0.00    -0.273 OA
ENDBRANCH  15  20
ENDBRANCH   9  14
ENDBRANCH   6   8
ENDBRANCH   5   6
ENDBRANCH   4   5
ENDBRANCH   3   4
ENDBRANCH   2   3
ENDBRANCH   1   2
BRANCH   1  25
ATOM     25  C   UNL A   1      41.142  20.298  27.323  1.00  0.00     0.188 C 
BRANCH  25  26
ATOM     26  O   UNL A   1      42.326  19.634  26.966  1.00  0.00    -0.376 OA
BRANCH  26  27
ATOM     27  C   UNL A   1      43.035  19.986  25.793  1.00  0.00     0.202 C 
BRANCH  27  28
ATOM     28  C   UNL A   1      43.714  21.340  25.507  1.00  0.00     0.261 C 
BRANCH  28  29
ATOM     29  O   UNL A   1      42.894  22.463  25.179  1.00  0.00    -0.460 OA
BRANCH  29  30
ATOM     30  C   UNL A   1      43.546  23.645  25.042  1.00  0.00     0.338 C 
ATOM     31  O   UNL A   1      44.417  23.923  24.240  1.00  0.00    -0.246 OA
BRANCH  30  32
ATOM     32  C   UNL A   1      42.907  24.640  25.925  1.00  0.00     0.060 A 
ATOM     33  C   UNL A   1      43.415  25.947  25.953  1.00  0.00     0.016 A 
ATOM     34  C   UNL A   1      41.841  24.274  26.746  1.00  0.00     0.016 A 
ATOM     35  C   UNL A   1      42.869  26.889  26.825  1.00  0.00     0.010 A 
ATOM     36  C   UNL A   1      41.311  25.212  27.634  1.00  0.00     0.010 A 
ATOM     37  C   UNL A   1      41.841  26.515  27.700  1.00  0.00    -0.014 A 
BRANCH  37  38
ATOM     38  C   UNL A   1      41.445  27.412  28.813  1.00  0.00     0.031 A 
ATOM     39  C   UNL A   1      42.226  27.344  30.097  1.00  0.00     0.074 A 
ATOM     40  C   UNL A   1      40.416  28.268  28.693  1.00  0.00     0.049 A 
ATOM     41  N   UNL A   1      42.012  27.950  31.237  1.00  0.00    -0.248 NA
ATOM     42  C   UNL A   1      43.407  26.467  30.093  1.00  0.00     0.031 C 
ATOM     43  C   UNL A   1      39.615  28.466  27.488  1.00  0.00     0.029 A 
ATOM     44  N   UNL A   1      39.862  29.125  29.612  1.00  0.00    -0.354 N 
ATOM     45  C   UNL A   1      43.025  27.524  32.085  1.00  0.00     0.074 A 
ATOM     46  C   UNL A   1      43.833  26.582  31.343  1.00  0.00     0.031 C 
ATOM     47  C   UNL A   1      38.659  29.377  27.746  1.00  0.00     0.029 A 
ATOM     48  C   UNL A   1      38.757  29.793  29.144  1.00  0.00     0.049 A 
ATOM     49  H   UNL A   1      40.221  29.248  30.520  1.00  0.00     0.167 HD
ATOM     50  C   UNL A   1      43.267  27.892  33.366  1.00  0.00     0.037 A 
ATOM     51  C   UNL A   1      37.908  30.623  29.784  1.00  0.00     0.037 A 
ATOM     52  C   UNL A   1      42.456  28.823  34.106  1.00  0.00     0.049 A 
ATOM     53  C   UNL A   1      38.142  30.940  31.243  1.00  0.00     0.074 A 
ATOM     54  C   UNL A   1      42.616  29.260  35.409  1.00  0.00     0.029 A 
ATOM     55  N   UNL A   1      41.327  29.457  33.608  1.00  0.00    -0.354 N 
ATOM     56  N   UNL A   1      39.108  30.545  32.036  1.00  0.00    -0.248 NA
ATOM     57  C   UNL A   1      37.161  31.823  31.893  1.00  0.00     0.031 C 
ATOM     58  C   UNL A   1      41.552  30.113  35.718  1.00  0.00     0.029 A 
ATOM     59  C   UNL A   1      40.768  30.262  34.586  1.00  0.00     0.049 A 
ATOM     60  H   UNL A   1      40.975  29.349  32.694  1.00  0.00     0.167 HD
ATOM     61  C   UNL A   1      38.877  31.163  33.259  1.00  0.00     0.074 A 
ATOM     62  C   UNL A   1      37.683  31.966  33.102  1.00  0.00     0.031 C 
ATOM     63  C   UNL A   1      39.591  31.076  34.409  1.00  0.00     0.037 A 
BRANCH  50  64
ATOM     64  C   UNL A   1      44.443  27.265  34.058  1.00  0.00     0.064 A 
ATOM     65  C   UNL A   1      45.706  27.875  34.063  1.00  0.00     0.173 A 
ATOM     66  C   UNL A   1      44.295  26.057  34.756  1.00  0.00     0.173 A 
ATOM     67  F   UNL A   1      45.905  29.023  33.398  1.00  0.00    -0.203 F 
ATOM     68  C   UNL A   1      46.784  27.283  34.717  1.00  0.00     0.198 A 
ATOM     69  C   UNL A   1      45.367  25.487  35.437  1.00  0.00     0.198 A 
ATOM     70  F   UNL A   1      43.107  25.434  34.786  1.00  0.00    -0.203 F 
ATOM     71  F   UNL A   1      47.994  27.859  34.666  1.00  0.00    -0.200 F 
ATOM     72  C   UNL A   1      46.611  26.096  35.410  1.00  0.00     0.200 A 
ATOM     73  F   UNL A   1      45.194  24.345  36.118  1.00  0.00    -0.200 F 
ATOM     74  F   UNL A   1      47.647  25.534  36.048  1.00  0.00    -0.200 F 
ENDBRANCH  50  64
BRANCH  51  75
ATOM     75  C   UNL A   1      36.743  31.207  29.066  1.00  0.00     0.064 A 
ATOM     76  C   UNL A   1      36.696  32.574  28.757  1.00  0.00     0.173 A 
ATOM     77  C   UNL A   1      35.631  30.424  28.718  1.00  0.00     0.173 A 
ATOM     78  F   UNL A   1      37.720  33.372  29.095  1.00  0.00    -0.203 F 
ATOM     79  C   UNL A   1      35.574  33.139  28.154  1.00  0.00     0.198 A 
ATOM     80  C   UNL A   1      34.524  30.984  28.086  1.00  0.00     0.198 A 
ATOM     81  F   UNL A   1      35.620  29.112  28.997  1.00  0.00    -0.203 F 
ATOM     82  F   UNL A   1      35.532  34.460  27.929  1.00  0.00    -0.200 F 
ATOM     83  C   UNL A   1      34.490  32.343  27.814  1.00  0.00     0.200 A 
ATOM     84  F   UNL A   1      33.483  30.209  27.751  1.00  0.00    -0.200 F 
ATOM     85  F   UNL A   1      33.410  32.889  27.241  1.00  0.00    -0.200 F 
ENDBRANCH  51  75
BRANCH  63  86
ATOM     86  C   UNL A   1      39.145  31.916  35.573  1.00  0.00     0.064 A 
ATOM     87  C   UNL A   1      39.493  33.271  35.689  1.00  0.00     0.173 A 
ATOM     88  C   UNL A   1      38.316  31.366  36.564  1.00  0.00     0.173 A 
ATOM     89  F   UNL A   1      40.292  33.843  34.777  1.00  0.00    -0.203 F 
ATOM     90  C   UNL A   1      39.050  34.034  36.767  1.00  0.00     0.198 A 
ATOM     91  C   UNL A   1      37.846  32.142  37.621  1.00  0.00     0.198 A 
ATOM     92  F   UNL A   1      37.945  30.079  36.497  1.00  0.00    -0.203 F 
ATOM     93  F   UNL A   1      39.436  35.312  36.884  1.00  0.00    -0.200 F 
ATOM     94  C   UNL A   1      38.220  33.472  37.726  1.00  0.00     0.200 A 
ATOM     95  F   UNL A   1      37.030  31.601  38.536  1.00  0.00    -0.200 F 
ATOM     96  F   UNL A   1      37.786  34.211  38.756  1.00  0.00    -0.200 F 
ENDBRANCH  63  86
ENDBRANCH  37  38
ENDBRANCH  30  32
ENDBRANCH  29  30
ENDBRANCH  28  29
ENDBRANCH  27  28
ENDBRANCH  26  27
ENDBRANCH  25  26
ENDBRANCH   1  25
TORSDOF 19
ENDMDL
MODEL 2
REMARK VINA RESULT:     -10.7      1.274      2.066
REMARK SMILES NC(=O)[C@@H]1CCCCN1c1cncc(C(=O)OCCOCCOCCOC(=O)c2ccc(-c3c4nc(c(-c5c(F)c(F)c(F)c(F)c5F)c5ccc([nH]5)c(-c5c(F)c(F)c(F)c(F)c5F)c5nc(c(-c6c(F)c(F)c(F)c(F)c6F)c6ccc3[nH]6)C=C5)C=C4)cc2)n1
REMARK SMILES IDX 21 1 20 2 19 3 18 4 17 5 15 6 16 7 14 8 10 9 11 10 92 11
REMARK SMILES IDX 12 12 13 13 9 14 4 15 5 16 6 17 8 18 7 19 2 20 1 21 3 24
REMARK SMILES IDX 22 25 23 26 24 27 25 28 26 29 27 30 28 31 29 32 30 33 91 34
REMARK SMILES IDX 31 35 90 36 32 37 33 38 34 39 84 40 35 41 89 42 83 43 85 44
REMARK SMILES IDX 36 45 88 46 82 47 81 48 37 50 69 51 49 52 68 53 50 54 53 55
REMARK SMILES IDX 67 56 86 57 51 58 52 59 66 61 87 62 54 63 38 64 39 65 47 66
REMARK SMILES IDX 40 67 41 68 45 69 48 70 42 71 43 72 46 73 44 74 70 75 71 76
REMARK SMILES IDX 79 77 72 78 73 79 77 80 80 81 74 82 75 83 78 84 76 85 55 86
REMARK SMILES IDX 56 87 64 88 57 89 58 90 62 91 65 92 59 93 60 94 63 95 61 96
REMARK H PARENT 1 22 1 23 85 49 53 60
REMARK Flexibility Score: inf
ROOT
ATOM      1  C   UNL A   1      42.481  19.117  25.554  1.00  0.00     0.188 C 
ENDROOT
BRANCH   1   2
ATOM      2  O   UNL A   1      41.829  20.358  25.748  1.00  0.00    -0.376 OA
BRANCH   2   3
ATOM      3  C   UNL A   1      40.661  20.443  26.548  1.00  0.00     0.202 C 
BRANCH   3   4
ATOM      4  C   UNL A   1      39.784  21.707  26.570  1.00  0.00     0.261 C 
BRANCH   4   5
ATOM      5  O   UNL A   1      38.524  21.603  25.892  1.00  0.00    -0.458 OA
BRANCH   5   6
ATOM      6  C   UNL A   1      37.818  22.758  25.777  1.00  0.00     0.358 C 
ATOM      7  O   UNL A   1      38.260  23.893  25.849  1.00  0.00    -0.244 OA
BRANCH   6   8
ATOM      8  C   UNL A   1      36.438  22.467  25.325  1.00  0.00     0.169 A 
ATOM      9  C   UNL A   1      34.272  23.146  24.868  1.00  0.00     0.148 A 
ATOM     10  C   UNL A   1      33.992  21.796  24.586  1.00  0.00     0.157 A 
ATOM     11  N   UNL A   1      35.517  23.478  25.289  1.00  0.00    -0.220 NA
ATOM     12  N   UNL A   1      34.892  20.779  24.653  1.00  0.00    -0.258 NA
ATOM     13  C   UNL A   1      36.138  21.156  24.998  1.00  0.00     0.147 A 
BRANCH   9  14
ATOM     14  N   UNL A   1      33.317  24.121  24.667  1.00  0.00    -0.343 N 
ATOM     15  C   UNL A   1      31.899  24.067  25.116  1.00  0.00     0.172 C 
ATOM     16  C   UNL A   1      31.007  23.675  23.938  1.00  0.00     0.035 C 
ATOM     17  C   UNL A   1      31.163  24.718  22.827  1.00  0.00     0.004 C 
ATOM     18  C   UNL A   1      33.556  25.120  23.613  1.00  0.00     0.119 C 
ATOM     19  C   UNL A   1      32.630  24.867  22.415  1.00  0.00     0.022 C 
BRANCH  15  20
ATOM     20  C   UNL A   1      31.536  23.324  26.415  1.00  0.00     0.240 C 
ATOM     21  N   UNL A   1      31.225  22.008  26.353  1.00  0.00    -0.368 N 
ATOM     22  H   UNL A   1      30.991  21.518  27.176  1.00  0.00     0.159 HD
ATOM     23  H   UNL A   1      31.234  21.539  25.487  1.00  0.00     0.159 HD
ATOM     24  O   UNL A   1      31.423  23.912  27.492  1.00  0.00    -0.273 OA
ENDBRANCH  15  20
ENDBRANCH   9  14
ENDBRANCH   6   8
ENDBRANCH   5   6
ENDBRANCH   4   5
ENDBRANCH   3   4
ENDBRANCH   2   3
ENDBRANCH   1   2
BRANCH   1  25
ATOM     25  C   UNL A   1      43.976  18.940  25.895  1.00  0.00     0.188 C 
BRANCH  25  26
ATOM     26  O   UNL A   1      44.911  19.393  24.950  1.00  0.00    -0.376 OA
BRANCH  26  27
ATOM     27  C   UNL A   1      45.306  20.751  24.907  1.00  0.00     0.202 C 
BRANCH  27  28
ATOM     28  C   UNL A   1      45.036  21.816  25.989  1.00  0.00     0.261 C 
BRANCH  28  29
ATOM     29  O   UNL A   1      45.030  23.193  25.609  1.00  0.00    -0.460 OA
BRANCH  29  30
ATOM     30  C   UNL A   1      43.893  23.632  25.012  1.00  0.00     0.338 C 
ATOM     31  O   UNL A   1      43.393  23.226  23.981  1.00  0.00    -0.246 OA
BRANCH  30  32
ATOM     32  C   UNL A   1      43.231  24.597  25.911  1.00  0.00     0.060 A 
ATOM     33  C   UNL A   1      43.557  25.957  25.803  1.00  0.00     0.016 A 
ATOM     34  C   UNL A   1      42.326  24.157  26.875  1.00  0.00     0.016 A 
ATOM     35  C   UNL A   1      42.992  26.881  26.682  1.00  0.00     0.010 A 
ATOM     36  C   UNL A   1      41.779  25.081  27.769  1.00  0.00     0.010 A 
ATOM     37  C   UNL A   1      42.132  26.442  27.697  1.00  0.00    -0.014 A 
BRANCH  37  38
ATOM     38  C   UNL A   1      41.748  27.358  28.799  1.00  0.00     0.031 A 
ATOM     39  C   UNL A   1      42.547  27.317  30.072  1.00  0.00     0.074 A 
ATOM     40  C   UNL A   1      40.714  28.208  28.677  1.00  0.00     0.049 A 
ATOM     41  N   UNL A   1      42.347  27.943  31.204  1.00  0.00    -0.248 NA
ATOM     42  C   UNL A   1      43.732  26.444  30.068  1.00  0.00     0.031 C 
ATOM     43  C   UNL A   1      39.895  28.381  27.481  1.00  0.00     0.029 A 
ATOM     44  N   UNL A   1      40.169  29.080  29.589  1.00  0.00    -0.354 N 
ATOM     45  C   UNL A   1      43.374  27.536  32.045  1.00  0.00     0.074 A 
ATOM     46  C   UNL A   1      44.175  26.583  31.309  1.00  0.00     0.031 C 
ATOM     47  C   UNL A   1      38.940  29.293  27.736  1.00  0.00     0.029 A 
ATOM     48  C   UNL A   1      39.055  29.735  29.124  1.00  0.00     0.049 A 
ATOM     49  H   UNL A   1      40.541  29.221  30.489  1.00  0.00     0.167 HD
ATOM     50  C   UNL A   1      43.633  27.929  33.315  1.00  0.00     0.037 A 
ATOM     51  C   UNL A   1      38.213  30.573  29.761  1.00  0.00     0.037 A 
ATOM     52  C   UNL A   1      42.829  28.870  34.050  1.00  0.00     0.049 A 
ATOM     53  C   UNL A   1      38.466  30.919  31.210  1.00  0.00     0.074 A 
ATOM     54  C   UNL A   1      43.006  29.332  35.342  1.00  0.00     0.029 A 
ATOM     55  N   UNL A   1      41.690  29.490  33.556  1.00  0.00    -0.354 N 
ATOM     56  N   UNL A   1      39.445  30.541  31.996  1.00  0.00    -0.248 NA
ATOM     57  C   UNL A   1      37.491  31.809  31.858  1.00  0.00     0.031 C 
ATOM     58  C   UNL A   1      41.943  30.186  35.650  1.00  0.00     0.029 A 
ATOM     59  C   UNL A   1      41.142  30.311  34.527  1.00  0.00     0.049 A 
ATOM     60  H   UNL A   1      41.326  29.364  32.650  1.00  0.00     0.167 HD
ATOM     61  C   UNL A   1      39.229  31.181  33.212  1.00  0.00     0.074 A 
ATOM     62  C   UNL A   1      38.030  31.977  33.057  1.00  0.00     0.031 C 
ATOM     63  C   UNL A   1      39.959  31.118  34.353  1.00  0.00     0.037 A 
BRANCH  50  64
ATOM     64  C   UNL A   1      44.821  27.319  34.002  1.00  0.00     0.064 A 
ATOM     65  C   UNL A   1      44.723  26.113  34.711  1.00  0.00     0.173 A 
ATOM     66  C   UNL A   1      46.081  27.931  33.920  1.00  0.00     0.173 A 
ATOM     67  F   UNL A   1      43.539  25.494  34.834  1.00  0.00    -0.203 F 
ATOM     68  C   UNL A   1      45.837  25.557  35.336  1.00  0.00     0.198 A 
ATOM     69  C   UNL A   1      47.198  27.354  34.516  1.00  0.00     0.198 A 
ATOM     70  F   UNL A   1      46.230  29.084  33.250  1.00  0.00    -0.203 F 
ATOM     71  F   UNL A   1      45.709  24.430  36.050  1.00  0.00    -0.200 F 
ATOM     72  C   UNL A   1      47.074  26.173  35.230  1.00  0.00     0.200 A 
ATOM     73  F   UNL A   1      48.396  27.944  34.401  1.00  0.00    -0.200 F 
ATOM     74  F   UNL A   1      48.147  25.631  35.822  1.00  0.00    -0.200 F 
ENDBRANCH  50  64
BRANCH  51  75
ATOM     75  C   UNL A   1      37.035  31.140  29.049  1.00  0.00     0.064 A 
ATOM     76  C   UNL A   1      37.010  32.484  28.649  1.00  0.00     0.173 A 
ATOM     77  C   UNL A   1      35.891  30.366  28.797  1.00  0.00     0.173 A 
ATOM     78  F   UNL A   1      38.067  33.274  28.894  1.00  0.00    -0.203 F 
ATOM     79  C   UNL A   1      35.880  33.038  28.052  1.00  0.00     0.198 A 
ATOM     80  C   UNL A   1      34.775  30.913  28.171  1.00  0.00     0.198 A 
ATOM     81  F   UNL A   1      35.858  29.077  29.164  1.00  0.00    -0.203 F 
ATOM     82  F   UNL A   1      35.861  34.341  27.740  1.00  0.00    -0.200 F 
ATOM     83  C   UNL A   1      34.764  32.252  27.809  1.00  0.00     0.200 A 
ATOM     84  F   UNL A   1      33.703  30.147  27.928  1.00  0.00    -0.200 F 
ATOM     85  F   UNL A   1      33.676  32.787  27.240  1.00  0.00    -0.200 F 
ENDBRANCH  51  75
BRANCH  63  86
ATOM     86  C   UNL A   1      39.527  31.978  35.507  1.00  0.00     0.064 A 
ATOM     87  C   UNL A   1      39.994  33.290  35.672  1.00  0.00     0.173 A 
ATOM     88  C   UNL A   1      38.592  31.494  36.436  1.00  0.00     0.173 A 
ATOM     89  F   UNL A   1      40.897  33.798  34.821  1.00  0.00    -0.203 F 
ATOM     90  C   UNL A   1      39.563  34.075  36.740  1.00  0.00     0.198 A 
ATOM     91  C   UNL A   1      38.136  32.293  37.481  1.00  0.00     0.198 A 
ATOM     92  F   UNL A   1      38.105  30.249  36.320  1.00  0.00    -0.203 F 
ATOM     93  F   UNL A   1      40.060  35.308  36.907  1.00  0.00    -0.200 F 
ATOM     94  C   UNL A   1      38.628  33.579  37.636  1.00  0.00     0.200 A 
ATOM     95  F   UNL A   1      37.219  31.818  38.335  1.00  0.00    -0.200 F 
ATOM     96  F   UNL A   1      38.205  34.340  38.656  1.00  0.00    -0.200 F 
ENDBRANCH  63  86
ENDBRANCH  37  38
ENDBRANCH  30  32
ENDBRANCH  29  30
ENDBRANCH  28  29
ENDBRANCH  27  28
ENDBRANCH  26  27
ENDBRANCH  25  26
ENDBRANCH   1  25
TORSDOF 19
ENDMDL
MODEL 3
REMARK VINA RESULT:     -10.5      4.441      7.417
REMARK SMILES NC(=O)[C@@H]1CCCCN1c1cncc(C(=O)OCCOCCOCCOC(=O)c2ccc(-c3c4nc(c(-c5c(F)c(F)c(F)c(F)c5F)c5ccc([nH]5)c(-c5c(F)c(F)c(F)c(F)c5F)c5nc(c(-c6c(F)c(F)c(F)c(F)c6F)c6ccc3[nH]6)C=C5)C=C4)cc2)n1
REMARK SMILES IDX 21 1 20 2 19 3 18 4 17 5 15 6 16 7 14 8 10 9 11 10 92 11
REMARK SMILES IDX 12 12 13 13 9 14 4 15 5 16 6 17 8 18 7 19 2 20 1 21 3 24
REMARK SMILES IDX 22 25 23 26 24 27 25 28 26 29 27 30 28 31 29 32 30 33 91 34
REMARK SMILES IDX 31 35 90 36 32 37 33 38 34 39 84 40 35 41 89 42 83 43 85 44
REMARK SMILES IDX 36 45 88 46 82 47 81 48 37 50 69 51 49 52 68 53 50 54 53 55
REMARK SMILES IDX 67 56 86 57 51 58 52 59 66 61 87 62 54 63 38 64 39 65 47 66
REMARK SMILES IDX 40 67 41 68 45 69 48 70 42 71 43 72 46 73 44 74 70 75 71 76
REMARK SMILES IDX 79 77 72 78 73 79 77 80 80 81 74 82 75 83 78 84 76 85 55 86
REMARK SMILES IDX 56 87 64 88 57 89 58 90 62 91 65 92 59 93 60 94 63 95 61 96
REMARK H PARENT 1 22 1 23 85 49 53 60
REMARK Flexibility Score: inf
ROOT
ATOM      1  C   UNL A   1      43.849  18.455  25.984  1.00  0.00     0.188 C 
ENDROOT
BRANCH   1   2
ATOM      2  O   UNL A   1      44.260  18.476  24.629  1.00  0.00    -0.376 OA
BRANCH   2   3
ATOM      3  C   UNL A   1      45.370  19.261  24.224  1.00  0.00     0.202 C 
BRANCH   3   4
ATOM      4  C   UNL A   1      45.786  20.530  24.986  1.00  0.00     0.261 C 
BRANCH   4   5
ATOM      5  O   UNL A   1      45.582  21.769  24.292  1.00  0.00    -0.458 OA
BRANCH   5   6
ATOM      6  C   UNL A   1      44.540  22.525  24.725  1.00  0.00     0.358 C 
ATOM      7  O   UNL A   1      43.413  22.548  24.257  1.00  0.00    -0.244 OA
BRANCH   6   8
ATOM      8  C   UNL A   1      44.885  23.182  26.006  1.00  0.00     0.169 A 
ATOM      9  C   UNL A   1      46.207  24.616  27.254  1.00  0.00     0.148 A 
ATOM     10  C   UNL A   1      45.450  24.216  28.371  1.00  0.00     0.157 A 
ATOM     11  N   UNL A   1      45.941  24.051  26.052  1.00  0.00    -0.220 NA
ATOM     12  N   UNL A   1      44.422  23.326  28.342  1.00  0.00    -0.258 NA
ATOM     13  C   UNL A   1      44.134  22.843  27.118  1.00  0.00     0.147 A 
BRANCH   9  14
ATOM     14  N   UNL A   1      47.161  25.606  27.368  1.00  0.00    -0.343 N 
ATOM     15  C   UNL A   1      47.295  26.802  26.493  1.00  0.00     0.172 C 
ATOM     16  C   UNL A   1      48.405  26.564  25.472  1.00  0.00     0.035 C 
ATOM     17  C   UNL A   1      49.721  26.312  26.216  1.00  0.00     0.004 C 
ATOM     18  C   UNL A   1      48.379  25.310  28.139  1.00  0.00     0.119 C 
ATOM     19  C   UNL A   1      49.582  25.147  27.199  1.00  0.00     0.022 C 
BRANCH  15  20
ATOM     20  C   UNL A   1      46.038  27.441  25.874  1.00  0.00     0.240 C 
ATOM     21  N   UNL A   1      45.662  27.071  24.626  1.00  0.00    -0.368 N 
ATOM     22  H   UNL A   1      44.860  27.470  24.216  1.00  0.00     0.159 HD
ATOM     23  H   UNL A   1      46.188  26.404  24.130  1.00  0.00     0.159 HD
ATOM     24  O   UNL A   1      45.422  28.347  26.437  1.00  0.00    -0.273 OA
ENDBRANCH  15  20
ENDBRANCH   9  14
ENDBRANCH   6   8
ENDBRANCH   5   6
ENDBRANCH   4   5
ENDBRANCH   3   4
ENDBRANCH   2   3
ENDBRANCH   1   2
BRANCH   1  25
ATOM     25  C   UNL A   1      42.355  18.516  26.364  1.00  0.00     0.188 C 
BRANCH  25  26
ATOM     26  O   UNL A   1      41.525  19.342  25.591  1.00  0.00    -0.376 OA
BRANCH  26  27
ATOM     27  C   UNL A   1      41.030  20.565  26.104  1.00  0.00     0.202 C 
BRANCH  27  28
ATOM     28  C   UNL A   1      39.671  21.213  25.772  1.00  0.00     0.261 C 
BRANCH  28  29
ATOM     29  O   UNL A   1      39.118  22.156  26.691  1.00  0.00    -0.460 OA
BRANCH  29  30
ATOM     30  C   UNL A   1      38.664  23.312  26.144  1.00  0.00     0.338 C 
ATOM     31  O   UNL A   1      37.776  23.447  25.325  1.00  0.00    -0.246 OA
BRANCH  30  32
ATOM     32  C   UNL A   1      39.312  24.444  26.834  1.00  0.00     0.060 A 
ATOM     33  C   UNL A   1      39.071  24.632  28.203  1.00  0.00     0.016 A 
ATOM     34  C   UNL A   1      40.120  25.334  26.126  1.00  0.00     0.016 A 
ATOM     35  C   UNL A   1      39.621  25.730  28.864  1.00  0.00     0.010 A 
ATOM     36  C   UNL A   1      40.651  26.445  26.785  1.00  0.00     0.010 A 
ATOM     37  C   UNL A   1      40.380  26.665  28.149  1.00  0.00    -0.014 A 
BRANCH  37  38
ATOM     38  C   UNL A   1      40.734  27.967  28.765  1.00  0.00     0.031 A 
ATOM     39  C   UNL A   1      42.152  28.183  29.215  1.00  0.00     0.074 A 
ATOM     40  C   UNL A   1      39.819  28.940  28.925  1.00  0.00     0.049 A 
ATOM     41  N   UNL A   1      42.678  29.190  29.866  1.00  0.00    -0.248 NA
ATOM     42  C   UNL A   1      43.107  27.112  28.889  1.00  0.00     0.031 C 
ATOM     43  C   UNL A   1      38.428  28.875  28.486  1.00  0.00     0.029 A 
ATOM     44  N   UNL A   1      39.930  30.174  29.519  1.00  0.00    -0.354 N 
ATOM     45  C   UNL A   1      44.019  28.871  30.032  1.00  0.00     0.074 A 
ATOM     46  C   UNL A   1      44.221  27.563  29.447  1.00  0.00     0.031 C 
ATOM     47  C   UNL A   1      37.807  30.014  28.839  1.00  0.00     0.029 A 
ATOM     48  C   UNL A   1      38.746  30.869  29.565  1.00  0.00     0.049 A 
ATOM     49  H   UNL A   1      40.776  30.526  29.878  1.00  0.00     0.167 HD
ATOM     50  C   UNL A   1      44.998  29.605  30.612  1.00  0.00     0.037 A 
ATOM     51  C   UNL A   1      38.454  32.047  30.151  1.00  0.00     0.037 A 
ATOM     52  C   UNL A   1      44.793  30.902  31.202  1.00  0.00     0.049 A 
ATOM     53  C   UNL A   1      39.541  32.802  30.880  1.00  0.00     0.074 A 
ATOM     54  C   UNL A   1      45.719  31.727  31.816  1.00  0.00     0.029 A 
ATOM     55  N   UNL A   1      43.573  31.561  31.256  1.00  0.00    -0.354 N 
ATOM     56  N   UNL A   1      40.809  32.502  31.023  1.00  0.00    -0.248 NA
ATOM     57  C   UNL A   1      39.151  34.063  31.529  1.00  0.00     0.031 C 
ATOM     58  C   UNL A   1      45.049  32.858  32.293  1.00  0.00     0.029 A 
ATOM     59  C   UNL A   1      43.719  32.770  31.915  1.00  0.00     0.049 A 
ATOM     60  H   UNL A   1      42.729  31.219  30.882  1.00  0.00     0.167 HD
ATOM     61  C   UNL A   1      41.374  33.554  31.736  1.00  0.00     0.074 A 
ATOM     62  C   UNL A   1      40.312  34.503  31.991  1.00  0.00     0.031 C 
ATOM     63  C   UNL A   1      42.657  33.719  32.142  1.00  0.00     0.037 A 
BRANCH  50  64
ATOM     64  C   UNL A   1      46.376  29.011  30.660  1.00  0.00     0.064 A 
ATOM     65  C   UNL A   1      47.299  29.205  29.622  1.00  0.00     0.173 A 
ATOM     66  C   UNL A   1      46.790  28.268  31.776  1.00  0.00     0.173 A 
ATOM     67  F   UNL A   1      46.949  29.894  28.526  1.00  0.00    -0.203 F 
ATOM     68  C   UNL A   1      48.576  28.653  29.687  1.00  0.00     0.198 A 
ATOM     69  C   UNL A   1      48.079  27.747  31.852  1.00  0.00     0.198 A 
ATOM     70  F   UNL A   1      45.948  28.056  32.799  1.00  0.00    -0.203 F 
ATOM     71  F   UNL A   1      49.424  28.809  28.661  1.00  0.00    -0.200 F 
ATOM     72  C   UNL A   1      48.967  27.933  30.805  1.00  0.00     0.200 A 
ATOM     73  F   UNL A   1      48.460  27.063  32.940  1.00  0.00    -0.200 F 
ATOM     74  F   UNL A   1      50.200  27.412  30.871  1.00  0.00    -0.200 F 
ENDBRANCH  50  64
BRANCH  51  75
ATOM     75  C   UNL A   1      37.069  32.591  30.097  1.00  0.00     0.064 A 
ATOM     76  C   UNL A   1      36.643  33.375  29.016  1.00  0.00     0.173 A 
ATOM     77  C   UNL A   1      36.160  32.382  31.146  1.00  0.00     0.173 A 
ATOM     78  F   UNL A   1      37.484  33.631  28.002  1.00  0.00    -0.203 F 
ATOM     79  C   UNL A   1      35.374  33.951  28.998  1.00  0.00     0.198 A 
ATOM     80  C   UNL A   1      34.881  32.930  31.111  1.00  0.00     0.198 A 
ATOM     81  F   UNL A   1      36.517  31.645  32.208  1.00  0.00    -0.203 F 
ATOM     82  F   UNL A   1      35.018  34.749  27.981  1.00  0.00    -0.200 F 
ATOM     83  C   UNL A   1      34.491  33.724  30.043  1.00  0.00     0.200 A 
ATOM     84  F   UNL A   1      34.028  32.700  32.119  1.00  0.00    -0.200 F 
ATOM     85  F   UNL A   1      33.274  34.283  30.027  1.00  0.00    -0.200 F 
ENDBRANCH  51  75
BRANCH  63  86
ATOM     86  C   UNL A   1      43.007  35.000  32.846  1.00  0.00     0.064 A 
ATOM     87  C   UNL A   1      43.467  36.129  32.151  1.00  0.00     0.173 A 
ATOM     88  C   UNL A   1      42.832  35.112  34.234  1.00  0.00     0.173 A 
ATOM     89  F   UNL A   1      43.663  36.073  30.825  1.00  0.00    -0.203 F 
ATOM     90  C   UNL A   1      43.766  37.312  32.824  1.00  0.00     0.198 A 
ATOM     91  C   UNL A   1      43.097  36.307  34.899  1.00  0.00     0.198 A 
ATOM     92  F   UNL A   1      42.386  34.066  34.946  1.00  0.00    -0.203 F 
ATOM     93  F   UNL A   1      44.251  38.361  32.148  1.00  0.00    -0.200 F 
ATOM     94  C   UNL A   1      43.571  37.402  34.194  1.00  0.00     0.200 A 
ATOM     95  F   UNL A   1      42.892  36.397  36.220  1.00  0.00    -0.200 F 
ATOM     96  F   UNL A   1      43.848  38.545  34.839  1.00  0.00    -0.200 F 
ENDBRANCH  63  86
ENDBRANCH  37  38
ENDBRANCH  30  32
ENDBRANCH  29  30
ENDBRANCH  28  29
ENDBRANCH  27  28
ENDBRANCH  26  27
ENDBRANCH  25  26
ENDBRANCH   1  25
TORSDOF 19
ENDMDL
