MODEL 1
REMARK VINA RESULT:     -12.2      0.000      0.000
REMARK SMILES Cc1cc(-c2cncc(C(=O)OCCOCCOCCOC(=O)c3ccc(-c4c5nc(c(-c6c(F)c(F)c(F)c(F)c6F)c6ccc([nH]6)c(-c6c(F)c(F)c(F)c(F)c6F)c6nc(c(-c7c(F)c(F)c(F)c(F)c7F)c7ccc4[nH]7)C=C6)C=C5)cc3)c2)ccc1F
REMARK SMILES IDX 17 1 16 2 15 3 14 4 13 5 12 6 10 7 11 8 9 9 5 10 6 11 87 12
REMARK SMILES IDX 7 13 8 14 4 15 1 16 2 17 3 18 90 19 89 20 91 21 88 22 18 23
REMARK SMILES IDX 19 24 20 25 21 26 22 27 23 28 24 29 25 30 86 31 26 32 85 33
REMARK SMILES IDX 27 34 28 35 29 36 79 37 30 38 84 39 78 40 80 41 31 42 83 43
REMARK SMILES IDX 77 44 76 45 32 47 64 48 44 49 63 50 45 51 48 52 62 53 81 54
REMARK SMILES IDX 46 55 47 56 61 58 82 59 49 60 33 61 34 62 42 63 35 64 36 65
REMARK SMILES IDX 40 66 43 67 37 68 38 69 41 70 39 71 65 72 66 73 74 74 67 75
REMARK SMILES IDX 68 76 72 77 75 78 69 79 70 80 73 81 71 82 50 83 51 84 59 85
REMARK SMILES IDX 52 86 53 87 57 88 60 89 54 90 55 91 58 92 56 93
REMARK H PARENT 80 46 48 57
REMARK Flexibility Score: inf
ROOT
ATOM      1  C   UNL A   1      42.021  20.167  26.103  1.00  0.00     0.188 C 
ENDROOT
BRANCH   1   2
ATOM      2  C   UNL A   1      41.158  20.567  27.326  1.00  0.00     0.188 C 
BRANCH   2   3
ATOM      3  O   UNL A   1      39.873  21.145  27.158  1.00  0.00    -0.376 OA
BRANCH   3   4
ATOM      4  C   UNL A   1      39.395  21.373  25.840  1.00  0.00     0.202 C 
BRANCH   4   5
ATOM      5  C   UNL A   1      38.091  22.167  25.644  1.00  0.00     0.261 C 
BRANCH   5   6
ATOM      6  O   UNL A   1      37.200  21.641  24.641  1.00  0.00    -0.460 OA
BRANCH   6   7
ATOM      7  C   UNL A   1      36.573  22.563  23.865  1.00  0.00     0.339 C 
ATOM      8  O   UNL A   1      36.791  22.804  22.691  1.00  0.00    -0.246 OA
BRANCH   7   9
ATOM      9  C   UNL A   1      35.406  23.112  24.582  1.00  0.00     0.079 A 
ATOM     10  C   UNL A   1      33.957  24.907  25.337  1.00  0.00     0.001 A 
ATOM     11  C   UNL A   1      33.241  23.927  26.031  1.00  0.00     0.119 A 
ATOM     12  C   UNL A   1      35.092  24.471  24.630  1.00  0.00     0.027 A 
ATOM     13  N   UNL A   1      33.542  22.605  26.033  1.00  0.00    -0.263 NA
ATOM     14  C   UNL A   1      34.600  22.225  25.282  1.00  0.00     0.126 A 
BRANCH  10  15
ATOM     15  C   UNL A   1      33.488  26.302  25.266  1.00  0.00    -0.016 A 
ATOM     16  C   UNL A   1      31.631  28.752  27.544  1.00  0.00     0.047 C 
ATOM     17  C   UNL A   1      32.369  28.192  26.368  1.00  0.00    -0.015 A 
ATOM     18  C   UNL A   1      32.785  26.855  26.356  1.00  0.00     0.015 A 
ATOM     19  C   UNL A   1      32.669  28.992  25.269  1.00  0.00     0.126 A 
ATOM     20  C   UNL A   1      33.358  28.480  24.175  1.00  0.00     0.040 A 
ATOM     21  F   UNL A   1      32.295  30.279  25.258  1.00  0.00    -0.207 F 
ATOM     22  C   UNL A   1      33.764  27.140  24.172  1.00  0.00     0.012 A 
ENDBRANCH  10  15
ENDBRANCH   7   9
ENDBRANCH   6   7
ENDBRANCH   5   6
ENDBRANCH   4   5
ENDBRANCH   3   4
ENDBRANCH   2   3
ENDBRANCH   1   2
BRANCH   1  23
ATOM     23  O   UNL A   1      43.262  20.849  25.970  1.00  0.00    -0.376 OA
BRANCH  23  24
ATOM     24  C   UNL A   1      43.193  22.146  25.379  1.00  0.00     0.202 C 
BRANCH  24  25
ATOM     25  C   UNL A   1      43.105  23.291  26.399  1.00  0.00     0.261 C 
BRANCH  25  26
ATOM     26  O   UNL A   1      41.831  23.933  26.411  1.00  0.00    -0.460 OA
BRANCH  26  27
ATOM     27  C   UNL A   1      41.400  24.222  27.649  1.00  0.00     0.338 C 
ATOM     28  O   UNL A   1      41.783  23.763  28.711  1.00  0.00    -0.246 OA
BRANCH  27  29
ATOM     29  C   UNL A   1      40.371  25.253  27.581  1.00  0.00     0.060 A 
ATOM     30  C   UNL A   1      40.516  26.224  26.576  1.00  0.00     0.016 A 
ATOM     31  C   UNL A   1      39.643  25.457  28.745  1.00  0.00     0.016 A 
ATOM     32  C   UNL A   1      40.187  27.525  26.870  1.00  0.00     0.010 A 
ATOM     33  C   UNL A   1      39.354  26.758  29.055  1.00  0.00     0.010 A 
ATOM     34  C   UNL A   1      39.768  27.772  28.169  1.00  0.00    -0.014 A 
BRANCH  34  35
ATOM     35  C   UNL A   1      40.082  29.020  28.827  1.00  0.00     0.031 A 
ATOM     36  C   UNL A   1      39.040  30.031  28.990  1.00  0.00     0.074 A 
ATOM     37  C   UNL A   1      41.258  29.059  29.495  1.00  0.00     0.049 A 
ATOM     38  N   UNL A   1      39.272  31.222  29.412  1.00  0.00    -0.248 NA
ATOM     39  C   UNL A   1      37.642  29.789  28.647  1.00  0.00     0.031 C 
ATOM     40  C   UNL A   1      41.605  29.891  30.639  1.00  0.00     0.029 A 
ATOM     41  N   UNL A   1      42.459  28.397  29.168  1.00  0.00    -0.354 N 
ATOM     42  C   UNL A   1      38.056  31.797  29.675  1.00  0.00     0.074 A 
ATOM     43  C   UNL A   1      37.070  30.903  29.114  1.00  0.00     0.031 C 
ATOM     44  C   UNL A   1      42.939  29.900  30.785  1.00  0.00     0.029 A 
ATOM     45  C   UNL A   1      43.499  29.238  29.619  1.00  0.00     0.049 A 
ATOM     46  H   UNL A   1      42.552  27.527  28.717  1.00  0.00     0.167 HD
ATOM     47  C   UNL A   1      38.018  32.899  30.470  1.00  0.00     0.037 A 
ATOM     48  C   UNL A   1      44.350  29.842  28.737  1.00  0.00     0.037 A 
ATOM     49  C   UNL A   1      39.357  33.307  30.871  1.00  0.00     0.049 A 
ATOM     50  C   UNL A   1      44.294  31.353  28.787  1.00  0.00     0.074 A 
ATOM     51  C   UNL A   1      40.128  33.020  31.987  1.00  0.00     0.029 A 
ATOM     52  N   UNL A   1      40.230  33.788  29.903  1.00  0.00    -0.354 N 
ATOM     53  N   UNL A   1      43.260  32.025  29.214  1.00  0.00    -0.248 NA
ATOM     54  C   UNL A   1      45.390  32.222  28.371  1.00  0.00     0.031 C 
ATOM     55  C   UNL A   1      41.481  33.300  31.672  1.00  0.00     0.029 A 
ATOM     56  C   UNL A   1      41.527  33.779  30.375  1.00  0.00     0.049 A 
ATOM     57  H   UNL A   1      39.961  34.093  29.006  1.00  0.00     0.167 HD
ATOM     58  C   UNL A   1      43.530  33.368  29.158  1.00  0.00     0.074 A 
ATOM     59  C   UNL A   1      44.876  33.439  28.624  1.00  0.00     0.031 C 
ATOM     60  C   UNL A   1      42.613  34.299  29.560  1.00  0.00     0.037 A 
BRANCH  47  61
ATOM     61  C   UNL A   1      36.750  33.400  31.086  1.00  0.00     0.064 A 
ATOM     62  C   UNL A   1      36.455  33.150  32.441  1.00  0.00     0.173 A 
ATOM     63  C   UNL A   1      35.769  34.106  30.369  1.00  0.00     0.173 A 
ATOM     64  F   UNL A   1      37.322  32.514  33.240  1.00  0.00    -0.203 F 
ATOM     65  C   UNL A   1      35.243  33.525  33.018  1.00  0.00     0.198 A 
ATOM     66  C   UNL A   1      34.534  34.434  30.933  1.00  0.00     0.198 A 
ATOM     67  F   UNL A   1      35.993  34.508  29.109  1.00  0.00    -0.203 F 
ATOM     68  F   UNL A   1      35.015  33.264  34.314  1.00  0.00    -0.200 F 
ATOM     69  C   UNL A   1      34.271  34.143  32.257  1.00  0.00     0.200 A 
ATOM     70  F   UNL A   1      33.596  35.031  30.182  1.00  0.00    -0.200 F 
ATOM     71  F   UNL A   1      33.090  34.466  32.802  1.00  0.00    -0.200 F 
ENDBRANCH  47  61
BRANCH  48  72
ATOM     72  C   UNL A   1      44.594  29.031  27.514  1.00  0.00     0.064 A 
ATOM     73  C   UNL A   1      45.539  27.990  27.578  1.00  0.00     0.173 A 
ATOM     74  C   UNL A   1      43.664  28.995  26.467  1.00  0.00     0.173 A 
ATOM     75  F   UNL A   1      46.459  27.982  28.557  1.00  0.00    -0.203 F 
ATOM     76  C   UNL A   1      45.487  26.903  26.704  1.00  0.00     0.198 A 
ATOM     77  C   UNL A   1      43.613  27.905  25.595  1.00  0.00     0.198 A 
ATOM     78  F   UNL A   1      42.734  29.954  26.351  1.00  0.00    -0.203 F 
ATOM     79  F   UNL A   1      46.350  25.888  26.842  1.00  0.00    -0.200 F 
ATOM     80  C   UNL A   1      44.501  26.847  25.734  1.00  0.00     0.200 A 
ATOM     81  F   UNL A   1      42.648  27.837  24.665  1.00  0.00    -0.200 F 
ATOM     82  F   UNL A   1      44.383  25.764  24.952  1.00  0.00    -0.200 F 
ENDBRANCH  48  72
BRANCH  60  83
ATOM     83  C   UNL A   1      42.641  35.791  29.306  1.00  0.00     0.064 A 
ATOM     84  C   UNL A   1      43.429  36.698  30.029  1.00  0.00     0.173 A 
ATOM     85  C   UNL A   1      41.992  36.330  28.162  1.00  0.00     0.173 A 
ATOM     86  F   UNL A   1      44.168  36.307  31.074  1.00  0.00    -0.203 F 
ATOM     87  C   UNL A   1      43.539  38.042  29.654  1.00  0.00     0.198 A 
ATOM     88  C   UNL A   1      42.161  37.650  27.754  1.00  0.00     0.198 A 
ATOM     89  F   UNL A   1      41.200  35.583  27.379  1.00  0.00    -0.203 F 
ATOM     90  F   UNL A   1      44.281  38.875  30.397  1.00  0.00    -0.200 F 
ATOM     91  C   UNL A   1      42.927  38.512  28.508  1.00  0.00     0.200 A 
ATOM     92  F   UNL A   1      41.599  38.070  26.611  1.00  0.00    -0.200 F 
ATOM     93  F   UNL A   1      43.092  39.782  28.119  1.00  0.00    -0.200 F 
ENDBRANCH  60  83
ENDBRANCH  34  35
ENDBRANCH  27  29
ENDBRANCH  26  27
ENDBRANCH  25  26
ENDBRANCH  24  25
ENDBRANCH  23  24
ENDBRANCH   1  23
TORSDOF 18
ENDMDL
MODEL 2
REMARK VINA RESULT:     -12.1      4.451     10.455
REMARK SMILES Cc1cc(-c2cncc(C(=O)OCCOCCOCCOC(=O)c3ccc(-c4c5nc(c(-c6c(F)c(F)c(F)c(F)c6F)c6ccc([nH]6)c(-c6c(F)c(F)c(F)c(F)c6F)c6nc(c(-c7c(F)c(F)c(F)c(F)c7F)c7ccc4[nH]7)C=C6)C=C5)cc3)c2)ccc1F
REMARK SMILES IDX 17 1 16 2 15 3 14 4 13 5 12 6 10 7 11 8 9 9 5 10 6 11 87 12
REMARK SMILES IDX 7 13 8 14 4 15 1 16 2 17 3 18 90 19 89 20 91 21 88 22 18 23
REMARK SMILES IDX 19 24 20 25 21 26 22 27 23 28 24 29 25 30 86 31 26 32 85 33
REMARK SMILES IDX 27 34 28 35 29 36 79 37 30 38 84 39 78 40 80 41 31 42 83 43
REMARK SMILES IDX 77 44 76 45 32 47 64 48 44 49 63 50 45 51 48 52 62 53 81 54
REMARK SMILES IDX 46 55 47 56 61 58 82 59 49 60 33 61 34 62 42 63 35 64 36 65
REMARK SMILES IDX 40 66 43 67 37 68 38 69 41 70 39 71 65 72 66 73 74 74 67 75
REMARK SMILES IDX 68 76 72 77 75 78 69 79 70 80 73 81 71 82 50 83 51 84 59 85
REMARK SMILES IDX 52 86 53 87 57 88 60 89 54 90 55 91 58 92 56 93
REMARK H PARENT 80 46 48 57
REMARK Flexibility Score: inf
ROOT
ATOM      1  C   UNL A   1      33.082  29.242  27.244  1.00  0.00     0.188 C 
ENDROOT
BRANCH   1   2
ATOM      2  C   UNL A   1      31.796  29.453  26.407  1.00  0.00     0.188 C 
BRANCH   2   3
ATOM      3  O   UNL A   1      31.863  29.676  25.007  1.00  0.00    -0.376 OA
BRANCH   3   4
ATOM      4  C   UNL A   1      32.888  29.034  24.262  1.00  0.00     0.202 C 
BRANCH   4   5
ATOM      5  C   UNL A   1      32.514  28.269  22.980  1.00  0.00     0.261 C 
BRANCH   5   6
ATOM      6  O   UNL A   1      33.299  27.089  22.721  1.00  0.00    -0.460 OA
BRANCH   6   7
ATOM      7  C   UNL A   1      32.617  26.020  22.232  1.00  0.00     0.339 C 
ATOM      8  O   UNL A   1      32.027  25.950  21.169  1.00  0.00    -0.246 OA
BRANCH   7   9
ATOM      9  C   UNL A   1      32.863  24.837  23.080  1.00  0.00     0.079 A 
ATOM     10  C   UNL A   1      34.278  23.233  24.227  1.00  0.00     0.001 A 
ATOM     11  C   UNL A   1      33.098  22.585  24.604  1.00  0.00     0.119 A 
ATOM     12  C   UNL A   1      34.136  24.368  23.408  1.00  0.00     0.027 A 
ATOM     13  N   UNL A   1      31.850  22.996  24.271  1.00  0.00    -0.263 NA
ATOM     14  C   UNL A   1      31.761  24.132  23.542  1.00  0.00     0.126 A 
BRANCH  10  15
ATOM     15  C   UNL A   1      35.592  22.810  24.744  1.00  0.00    -0.016 A 
ATOM     16  C   UNL A   1      37.661  19.593  24.838  1.00  0.00     0.047 C 
ATOM     17  C   UNL A   1      37.257  21.024  25.016  1.00  0.00    -0.015 A 
ATOM     18  C   UNL A   1      35.997  21.468  24.597  1.00  0.00     0.015 A 
ATOM     19  C   UNL A   1      38.131  21.945  25.587  1.00  0.00     0.126 A 
ATOM     20  C   UNL A   1      37.764  23.277  25.750  1.00  0.00     0.040 A 
ATOM     21  F   UNL A   1      39.349  21.552  25.983  1.00  0.00    -0.207 F 
ATOM     22  C   UNL A   1      36.499  23.707  25.333  1.00  0.00     0.012 A 
ENDBRANCH  10  15
ENDBRANCH   7   9
ENDBRANCH   6   7
ENDBRANCH   5   6
ENDBRANCH   4   5
ENDBRANCH   3   4
ENDBRANCH   2   3
ENDBRANCH   1   2
BRANCH   1  23
ATOM     23  O   UNL A   1      34.077  30.250  27.117  1.00  0.00    -0.376 OA
BRANCH  23  24
ATOM     24  C   UNL A   1      33.724  31.534  27.632  1.00  0.00     0.202 C 
BRANCH  24  25
ATOM     25  C   UNL A   1      34.682  32.056  28.712  1.00  0.00     0.261 C 
BRANCH  25  26
ATOM     26  O   UNL A   1      36.022  32.211  28.245  1.00  0.00    -0.460 OA
BRANCH  26  27
ATOM     27  C   UNL A   1      36.932  31.675  29.073  1.00  0.00     0.338 C 
ATOM     28  O   UNL A   1      37.492  32.196  30.022  1.00  0.00    -0.246 OA
BRANCH  27  29
ATOM     29  C   UNL A   1      37.168  30.283  28.708  1.00  0.00     0.060 A 
ATOM     30  C   UNL A   1      37.015  29.329  29.728  1.00  0.00     0.016 A 
ATOM     31  C   UNL A   1      37.946  30.079  27.576  1.00  0.00     0.016 A 
ATOM     32  C   UNL A   1      37.893  28.273  29.773  1.00  0.00     0.010 A 
ATOM     33  C   UNL A   1      38.848  29.053  27.643  1.00  0.00     0.010 A 
ATOM     34  C   UNL A   1      38.892  28.265  28.810  1.00  0.00    -0.014 A 
BRANCH  34  35
ATOM     35  C   UNL A   1      40.209  27.749  29.109  1.00  0.00     0.031 A 
ATOM     36  C   UNL A   1      40.600  26.436  28.603  1.00  0.00     0.074 A 
ATOM     37  C   UNL A   1      41.094  28.640  29.612  1.00  0.00     0.049 A 
ATOM     38  N   UNL A   1      41.681  25.837  28.956  1.00  0.00    -0.248 NA
ATOM     39  C   UNL A   1      39.775  25.666  27.678  1.00  0.00     0.031 C 
ATOM     40  C   UNL A   1      42.547  28.605  29.510  1.00  0.00     0.029 A 
ATOM     41  N   UNL A   1      40.830  29.739  30.453  1.00  0.00    -0.354 N 
ATOM     42  C   UNL A   1      41.842  24.772  28.109  1.00  0.00     0.074 A 
ATOM     43  C   UNL A   1      40.599  24.656  27.383  1.00  0.00     0.031 C 
ATOM     44  C   UNL A   1      43.069  29.445  30.418  1.00  0.00     0.029 A 
ATOM     45  C   UNL A   1      41.975  29.891  31.264  1.00  0.00     0.049 A 
ATOM     46  H   UNL A   1      40.012  30.288  30.471  1.00  0.00     0.167 HD
ATOM     47  C   UNL A   1      43.070  24.196  28.017  1.00  0.00     0.037 A 
ATOM     48  C   UNL A   1      41.919  29.674  32.612  1.00  0.00     0.037 A 
ATOM     49  C   UNL A   1      44.018  24.828  28.924  1.00  0.00     0.049 A 
ATOM     50  C   UNL A   1      42.816  28.549  33.077  1.00  0.00     0.074 A 
ATOM     51  C   UNL A   1      44.929  25.859  28.756  1.00  0.00     0.029 A 
ATOM     52  N   UNL A   1      43.833  24.687  30.294  1.00  0.00    -0.354 N 
ATOM     53  N   UNL A   1      43.214  27.574  32.306  1.00  0.00    -0.248 NA
ATOM     54  C   UNL A   1      43.340  28.434  34.434  1.00  0.00     0.031 C 
ATOM     55  C   UNL A   1      45.267  26.362  30.037  1.00  0.00     0.029 A 
ATOM     56  C   UNL A   1      44.579  25.622  30.981  1.00  0.00     0.049 A 
ATOM     57  H   UNL A   1      43.250  24.014  30.715  1.00  0.00     0.167 HD
ATOM     58  C   UNL A   1      44.033  26.732  33.013  1.00  0.00     0.074 A 
ATOM     59  C   UNL A   1      44.081  27.315  34.341  1.00  0.00     0.031 C 
ATOM     60  C   UNL A   1      44.596  25.629  32.435  1.00  0.00     0.037 A 
BRANCH  47  61
ATOM     61  C   UNL A   1      43.439  23.267  26.904  1.00  0.00     0.064 A 
ATOM     62  C   UNL A   1      43.006  21.926  26.906  1.00  0.00     0.173 A 
ATOM     63  C   UNL A   1      44.253  23.643  25.822  1.00  0.00     0.173 A 
ATOM     64  F   UNL A   1      42.199  21.453  27.865  1.00  0.00    -0.203 F 
ATOM     65  C   UNL A   1      43.409  21.015  25.932  1.00  0.00     0.198 A 
ATOM     66  C   UNL A   1      44.700  22.717  24.876  1.00  0.00     0.198 A 
ATOM     67  F   UNL A   1      44.622  24.921  25.649  1.00  0.00    -0.203 F 
ATOM     68  F   UNL A   1      42.965  19.750  25.980  1.00  0.00    -0.200 F 
ATOM     69  C   UNL A   1      44.278  21.403  24.932  1.00  0.00     0.200 A 
ATOM     70  F   UNL A   1      45.547  23.106  23.912  1.00  0.00    -0.200 F 
ATOM     71  F   UNL A   1      44.698  20.516  24.019  1.00  0.00    -0.200 F 
ENDBRANCH  47  61
BRANCH  48  72
ATOM     72  C   UNL A   1      40.599  30.022  33.203  1.00  0.00     0.064 A 
ATOM     73  C   UNL A   1      40.316  31.377  33.457  1.00  0.00     0.173 A 
ATOM     74  C   UNL A   1      39.516  29.137  33.137  1.00  0.00     0.173 A 
ATOM     75  F   UNL A   1      41.319  32.266  33.540  1.00  0.00    -0.203 F 
ATOM     76  C   UNL A   1      39.003  31.846  33.528  1.00  0.00     0.198 A 
ATOM     77  C   UNL A   1      38.203  29.610  33.207  1.00  0.00     0.198 A 
ATOM     78  F   UNL A   1      39.718  27.834  32.894  1.00  0.00    -0.203 F 
ATOM     79  F   UNL A   1      38.764  33.154  33.690  1.00  0.00    -0.200 F 
ATOM     80  C   UNL A   1      37.948  30.964  33.369  1.00  0.00     0.200 A 
ATOM     81  F   UNL A   1      37.177  28.762  33.034  1.00  0.00    -0.200 F 
ATOM     82  F   UNL A   1      36.686  31.418  33.341  1.00  0.00    -0.200 F 
ENDBRANCH  48  72
BRANCH  60  83
ATOM     83  C   UNL A   1      45.279  24.470  33.129  1.00  0.00     0.064 A 
ATOM     84  C   UNL A   1      46.596  24.504  33.607  1.00  0.00     0.173 A 
ATOM     85  C   UNL A   1      44.526  23.326  33.509  1.00  0.00     0.173 A 
ATOM     86  F   UNL A   1      47.389  25.563  33.403  1.00  0.00    -0.203 F 
ATOM     87  C   UNL A   1      47.128  23.466  34.380  1.00  0.00     0.198 A 
ATOM     88  C   UNL A   1      45.038  22.329  34.336  1.00  0.00     0.198 A 
ATOM     89  F   UNL A   1      43.254  23.154  33.120  1.00  0.00    -0.203 F 
ATOM     90  F   UNL A   1      48.404  23.532  34.786  1.00  0.00    -0.200 F 
ATOM     91  C   UNL A   1      46.346  22.393  34.763  1.00  0.00     0.200 A 
ATOM     92  F   UNL A   1      44.245  21.326  34.737  1.00  0.00    -0.200 F 
ATOM     93  F   UNL A   1      46.842  21.437  35.558  1.00  0.00    -0.200 F 
ENDBRANCH  60  83
ENDBRANCH  34  35
ENDBRANCH  27  29
ENDBRANCH  26  27
ENDBRANCH  25  26
ENDBRANCH  24  25
ENDBRANCH  23  24
ENDBRANCH   1  23
TORSDOF 18
ENDMDL
MODEL 3
REMARK VINA RESULT:     -12.0      1.343      2.368
REMARK SMILES Cc1cc(-c2cncc(C(=O)OCCOCCOCCOC(=O)c3ccc(-c4c5nc(c(-c6c(F)c(F)c(F)c(F)c6F)c6ccc([nH]6)c(-c6c(F)c(F)c(F)c(F)c6F)c6nc(c(-c7c(F)c(F)c(F)c(F)c7F)c7ccc4[nH]7)C=C6)C=C5)cc3)c2)ccc1F
REMARK SMILES IDX 17 1 16 2 15 3 14 4 13 5 12 6 10 7 11 8 9 9 5 10 6 11 87 12
REMARK SMILES IDX 7 13 8 14 4 15 1 16 2 17 3 18 90 19 89 20 91 21 88 22 18 23
REMARK SMILES IDX 19 24 20 25 21 26 22 27 23 28 24 29 25 30 86 31 26 32 85 33
REMARK SMILES IDX 27 34 28 35 29 36 79 37 30 38 84 39 78 40 80 41 31 42 83 43
REMARK SMILES IDX 77 44 76 45 32 47 64 48 44 49 63 50 45 51 48 52 62 53 81 54
REMARK SMILES IDX 46 55 47 56 61 58 82 59 49 60 33 61 34 62 42 63 35 64 36 65
REMARK SMILES IDX 40 66 43 67 37 68 38 69 41 70 39 71 65 72 66 73 74 74 67 75
REMARK SMILES IDX 68 76 72 77 75 78 69 79 70 80 73 81 71 82 50 83 51 84 59 85
REMARK SMILES IDX 52 86 53 87 57 88 60 89 54 90 55 91 58 92 56 93
REMARK H PARENT 80 46 48 57
REMARK Flexibility Score: inf
ROOT
ATOM      1  C   UNL A   1      37.750  21.472  25.348  1.00  0.00     0.188 C 
ENDROOT
BRANCH   1   2
ATOM      2  C   UNL A   1      36.518  22.314  25.764  1.00  0.00     0.188 C 
BRANCH   2   3
ATOM      3  O   UNL A   1      35.219  21.746  25.792  1.00  0.00    -0.376 OA
BRANCH   3   4
ATOM      4  C   UNL A   1      34.674  21.228  24.587  1.00  0.00     0.202 C 
BRANCH   4   5
ATOM      5  C   UNL A   1      33.622  22.055  23.825  1.00  0.00     0.261 C 
BRANCH   5   6
ATOM      6  O   UNL A   1      33.720  23.481  24.001  1.00  0.00    -0.460 OA
BRANCH   6   7
ATOM      7  C   UNL A   1      33.311  24.237  22.949  1.00  0.00     0.339 C 
ATOM      8  O   UNL A   1      33.426  23.971  21.766  1.00  0.00    -0.246 OA
BRANCH   7   9
ATOM      9  C   UNL A   1      32.491  25.366  23.431  1.00  0.00     0.079 A 
ATOM     10  C   UNL A   1      32.077  27.340  24.779  1.00  0.00     0.001 A 
ATOM     11  C   UNL A   1      30.787  27.337  24.241  1.00  0.00     0.119 A 
ATOM     12  C   UNL A   1      32.926  26.292  24.379  1.00  0.00     0.027 A 
ATOM     13  N   UNL A   1      30.324  26.430  23.346  1.00  0.00    -0.263 NA
ATOM     14  C   UNL A   1      31.200  25.483  22.938  1.00  0.00     0.126 A 
BRANCH  10  15
ATOM     15  C   UNL A   1      32.554  28.439  25.638  1.00  0.00    -0.016 A 
ATOM     16  C   UNL A   1      31.399  31.964  26.577  1.00  0.00     0.047 C 
ATOM     17  C   UNL A   1      32.199  30.698  26.535  1.00  0.00    -0.015 A 
ATOM     18  C   UNL A   1      31.826  29.644  25.693  1.00  0.00     0.015 A 
ATOM     19  C   UNL A   1      33.321  30.538  27.344  1.00  0.00     0.126 A 
ATOM     20  C   UNL A   1      34.065  29.364  27.315  1.00  0.00     0.040 A 
ATOM     21  F   UNL A   1      33.693  31.524  28.171  1.00  0.00    -0.207 F 
ATOM     22  C   UNL A   1      33.686  28.319  26.463  1.00  0.00     0.012 A 
ENDBRANCH  10  15
ENDBRANCH   7   9
ENDBRANCH   6   7
ENDBRANCH   5   6
ENDBRANCH   4   5
ENDBRANCH   3   4
ENDBRANCH   2   3
ENDBRANCH   1   2
BRANCH   1  23
ATOM     23  O   UNL A   1      39.017  22.003  25.715  1.00  0.00    -0.376 OA
BRANCH  23  24
ATOM     24  C   UNL A   1      39.954  21.061  26.235  1.00  0.00     0.202 C 
BRANCH  24  25
ATOM     25  C   UNL A   1      41.143  21.702  26.966  1.00  0.00     0.261 C 
BRANCH  25  26
ATOM     26  O   UNL A   1      40.757  22.761  27.841  1.00  0.00    -0.460 OA
BRANCH  26  27
ATOM     27  C   UNL A   1      41.357  23.927  27.553  1.00  0.00     0.338 C 
ATOM     28  O   UNL A   1      42.542  24.142  27.368  1.00  0.00    -0.246 OA
BRANCH  27  29
ATOM     29  C   UNL A   1      40.355  24.979  27.439  1.00  0.00     0.060 A 
ATOM     30  C   UNL A   1      40.583  25.964  26.462  1.00  0.00     0.016 A 
ATOM     31  C   UNL A   1      39.558  25.179  28.558  1.00  0.00     0.016 A 
ATOM     32  C   UNL A   1      40.261  27.266  26.758  1.00  0.00     0.010 A 
ATOM     33  C   UNL A   1      39.276  26.480  28.872  1.00  0.00     0.010 A 
ATOM     34  C   UNL A   1      39.765  27.500  28.033  1.00  0.00    -0.014 A 
BRANCH  34  35
ATOM     35  C   UNL A   1      40.060  28.730  28.732  1.00  0.00     0.031 A 
ATOM     36  C   UNL A   1      39.019  29.744  28.878  1.00  0.00     0.074 A 
ATOM     37  C   UNL A   1      41.211  28.745  29.444  1.00  0.00     0.049 A 
ATOM     38  N   UNL A   1      39.242  30.923  29.337  1.00  0.00    -0.248 NA
ATOM     39  C   UNL A   1      37.634  29.519  28.478  1.00  0.00     0.031 C 
ATOM     40  C   UNL A   1      41.518  29.548  30.620  1.00  0.00     0.029 A 
ATOM     41  N   UNL A   1      42.419  28.084  29.147  1.00  0.00    -0.354 N 
ATOM     42  C   UNL A   1      38.020  31.499  29.567  1.00  0.00     0.074 A 
ATOM     43  C   UNL A   1      37.051  30.626  28.949  1.00  0.00     0.031 C 
ATOM     44  C   UNL A   1      42.846  29.545  30.816  1.00  0.00     0.029 A 
ATOM     45  C   UNL A   1      43.447  28.907  29.657  1.00  0.00     0.049 A 
ATOM     46  H   UNL A   1      42.524  27.224  28.680  1.00  0.00     0.167 HD
ATOM     47  C   UNL A   1      37.958  32.582  30.386  1.00  0.00     0.037 A 
ATOM     48  C   UNL A   1      44.334  29.526  28.823  1.00  0.00     0.037 A 
ATOM     49  C   UNL A   1      39.283  32.972  30.847  1.00  0.00     0.049 A 
ATOM     50  C   UNL A   1      44.285  31.035  28.907  1.00  0.00     0.074 A 
ATOM     51  C   UNL A   1      40.009  32.655  31.984  1.00  0.00     0.029 A 
ATOM     52  N   UNL A   1      40.195  33.471  29.925  1.00  0.00    -0.354 N 
ATOM     53  N   UNL A   1      43.239  31.704  29.310  1.00  0.00    -0.248 NA
ATOM     54  C   UNL A   1      45.400  31.906  28.553  1.00  0.00     0.031 C 
ATOM     55  C   UNL A   1      41.374  32.933  31.728  1.00  0.00     0.029 A 
ATOM     56  C   UNL A   1      41.473  33.441  30.445  1.00  0.00     0.049 A 
ATOM     57  H   UNL A   1      39.962  33.798  29.026  1.00  0.00     0.167 HD
ATOM     58  C   UNL A   1      43.518  33.047  29.296  1.00  0.00     0.074 A 
ATOM     59  C   UNL A   1      44.884  33.121  28.815  1.00  0.00     0.031 C 
ATOM     60  C   UNL A   1      42.592  33.974  29.684  1.00  0.00     0.037 A 
BRANCH  47  61
ATOM     61  C   UNL A   1      36.669  33.078  30.966  1.00  0.00     0.064 A 
ATOM     62  C   UNL A   1      35.782  33.857  30.197  1.00  0.00     0.173 A 
ATOM     63  C   UNL A   1      36.279  32.839  32.294  1.00  0.00     0.173 A 
ATOM     64  F   UNL A   1      36.025  34.128  28.908  1.00  0.00    -0.203 F 
ATOM     65  C   UNL A   1      34.621  34.408  30.736  1.00  0.00     0.198 A 
ATOM     66  C   UNL A   1      35.143  33.435  32.848  1.00  0.00     0.198 A 
ATOM     67  F   UNL A   1      36.981  32.011  33.081  1.00  0.00    -0.203 F 
ATOM     68  F   UNL A   1      33.810  35.140  29.959  1.00  0.00    -0.200 F 
ATOM     69  C   UNL A   1      34.315  34.219  32.069  1.00  0.00     0.200 A 
ATOM     70  F   UNL A   1      34.859  33.248  34.146  1.00  0.00    -0.200 F 
ATOM     71  F   UNL A   1      33.220  34.783  32.598  1.00  0.00    -0.200 F 
ENDBRANCH  47  61
BRANCH  48  72
ATOM     72  C   UNL A   1      44.619  28.742  27.591  1.00  0.00     0.064 A 
ATOM     73  C   UNL A   1      45.544  27.684  27.670  1.00  0.00     0.173 A 
ATOM     74  C   UNL A   1      43.737  28.749  26.503  1.00  0.00     0.173 A 
ATOM     75  F   UNL A   1      46.418  27.635  28.688  1.00  0.00    -0.203 F 
ATOM     76  C   UNL A   1      45.513  26.621  26.767  1.00  0.00     0.198 A 
ATOM     77  C   UNL A   1      43.708  27.682  25.601  1.00  0.00     0.198 A 
ATOM     78  F   UNL A   1      42.829  29.727  26.371  1.00  0.00    -0.203 F 
ATOM     79  F   UNL A   1      46.353  25.588  26.916  1.00  0.00    -0.200 F 
ATOM     80  C   UNL A   1      44.572  26.607  25.752  1.00  0.00     0.200 A 
ATOM     81  F   UNL A   1      42.784  27.654  24.628  1.00  0.00    -0.200 F 
ATOM     82  F   UNL A   1      44.472  25.546  24.937  1.00  0.00    -0.200 F 
ENDBRANCH  48  72
BRANCH  60  83
ATOM     83  C   UNL A   1      42.638  35.471  29.467  1.00  0.00     0.064 A 
ATOM     84  C   UNL A   1      43.438  36.350  30.211  1.00  0.00     0.173 A 
ATOM     85  C   UNL A   1      41.994  36.046  28.338  1.00  0.00     0.173 A 
ATOM     86  F   UNL A   1      44.173  35.924  31.245  1.00  0.00    -0.203 F 
ATOM     87  C   UNL A   1      43.564  37.701  29.869  1.00  0.00     0.198 A 
ATOM     88  C   UNL A   1      42.179  37.374  27.962  1.00  0.00     0.198 A 
ATOM     89  F   UNL A   1      41.193  35.328  27.538  1.00  0.00    -0.203 F 
ATOM     90  F   UNL A   1      44.317  38.507  30.632  1.00  0.00    -0.200 F 
ATOM     91  C   UNL A   1      42.956  38.207  28.736  1.00  0.00     0.200 A 
ATOM     92  F   UNL A   1      41.622  37.828  26.831  1.00  0.00    -0.200 F 
ATOM     93  F   UNL A   1      43.137  39.484  28.378  1.00  0.00    -0.200 F 
ENDBRANCH  60  83
ENDBRANCH  34  35
ENDBRANCH  27  29
ENDBRANCH  26  27
ENDBRANCH  25  26
ENDBRANCH  24  25
ENDBRANCH  23  24
ENDBRANCH   1  23
TORSDOF 18
ENDMDL
