MODEL 1
REMARK VINA RESULT:     -11.4      0.000      0.000
REMARK SMILES COc1ccc(-c2ccc(C(=O)NCc3ccc(C(=O)OCCOCCOCCOC(=O)c4ccc(-c5c6nc(c(-c7c(F)c(F)c(F)c(F)c7F)c7ccc([nH]7)c(-c7c(F)c(F)c(F)c(F)c7F)c7nc(c(-c8c(F)c(F)c(F)c(F)c8F)c8ccc5[nH]8)C=C7)C=C6)cc4)cc3)o2)c([N+](=O)[O-])c1
REMARK SMILES IDX 24 1 23 2 22 3 21 4 19 5 20 6 18 7 15 8 16 9 97 10 17 11
REMARK SMILES IDX 96 12 14 13 13 14 11 15 12 16 10 18 7 19 8 20 98 21 9 22
REMARK SMILES IDX 6 23 3 24 4 25 103 26 5 27 99 28 2 29 1 30 100 31 101 32
REMARK SMILES IDX 102 33 25 34 26 35 27 36 28 37 29 38 30 39 31 40 32 41 33 42
REMARK SMILES IDX 34 43 95 44 35 45 94 46 36 47 37 48 38 49 88 50 39 51 93 52
REMARK SMILES IDX 87 53 89 54 40 55 92 56 86 57 85 58 41 60 73 61 53 62 72 63
REMARK SMILES IDX 54 64 57 65 71 66 90 67 55 68 56 69 70 71 91 72 58 73 42 74
REMARK SMILES IDX 43 75 51 76 44 77 45 78 49 79 52 80 46 81 47 82 50 83 48 84
REMARK SMILES IDX 74 85 75 86 83 87 76 88 77 89 81 90 84 91 78 92 79 93 82 94
REMARK SMILES IDX 80 95 59 96 60 97 68 98 61 99 62 100 66 101 69 102 63 103
REMARK SMILES IDX 64 104 67 105 65 106
REMARK H PARENT 13 17 89 59 57 70
REMARK Flexibility Score: inf
ROOT
ATOM      1  O   UNL A   1      34.093  30.010  27.291  1.00  0.00    -0.376 OA
ENDROOT
BRANCH   1   2
ATOM      2  C   UNL A   1      33.467  29.396  26.173  1.00  0.00     0.202 C 
BRANCH   2   3
ATOM      3  C   UNL A   1      32.593  28.150  26.351  1.00  0.00     0.261 C 
BRANCH   3   4
ATOM      4  O   UNL A   1      32.071  27.617  25.124  1.00  0.00    -0.460 OA
BRANCH   4   5
ATOM      5  C   UNL A   1      31.749  26.299  25.167  1.00  0.00     0.338 C 
ATOM      6  O   UNL A   1      30.643  25.821  25.320  1.00  0.00    -0.246 OA
BRANCH   5   7
ATOM      7  C   UNL A   1      32.926  25.473  24.810  1.00  0.00     0.060 A 
ATOM      8  C   UNL A   1      35.249  23.992  24.268  1.00  0.00    -0.029 A 
ATOM      9  C   UNL A   1      34.944  24.381  25.579  1.00  0.00     0.006 A 
ATOM     10  C   UNL A   1      34.352  24.322  23.237  1.00  0.00     0.006 A 
ATOM     11  C   UNL A   1      33.795  25.121  25.848  1.00  0.00     0.016 A 
ATOM     12  C   UNL A   1      33.189  25.054  23.504  1.00  0.00     0.016 A 
BRANCH   8  13
ATOM     13  C   UNL A   1      36.566  23.322  23.958  1.00  0.00     0.152 C 
BRANCH  13  14
ATOM     14  N   UNL A   1      36.493  21.919  24.294  1.00  0.00    -0.345 N 
ATOM     15  C   UNL A   1      37.294  21.068  25.013  1.00  0.00     0.287 C 
ATOM     16  O   UNL A   1      36.894  19.901  25.060  1.00  0.00    -0.266 OA
ATOM     17  H   UNL A   1      35.693  21.476  23.927  1.00  0.00     0.164 HD
BRANCH  15  18
ATOM     18  C   UNL A   1      38.517  21.496  25.674  1.00  0.00     0.192 A 
ATOM     19  C   UNL A   1      40.671  21.221  26.150  1.00  0.00     0.142 A 
ATOM     20  C   UNL A   1      40.276  22.360  26.809  1.00  0.00     0.052 A 
ATOM     21  O   UNL A   1      39.629  20.710  25.445  1.00  0.00    -0.451 OA
ATOM     22  C   UNL A   1      38.902  22.537  26.502  1.00  0.00     0.057 A 
BRANCH  19  23
ATOM     23  C   UNL A   1      41.930  20.500  26.050  1.00  0.00     0.095 A 
ATOM     24  C   UNL A   1      44.263  18.940  25.644  1.00  0.00     0.125 A 
ATOM     25  C   UNL A   1      43.076  18.350  26.084  1.00  0.00     0.047 A 
ATOM     26  C   UNL A   1      44.301  20.314  25.427  1.00  0.00     0.132 A 
ATOM     27  C   UNL A   1      41.927  19.120  26.298  1.00  0.00     0.023 A 
ATOM     28  C   UNL A   1      43.138  21.082  25.633  1.00  0.00     0.284 A 
BRANCH  24  29
ATOM     29  O   UNL A   1      45.293  18.067  25.436  1.00  0.00    -0.497 OA
ATOM     30  C   UNL A   1      46.610  18.558  25.659  1.00  0.00     0.278 C 
ENDBRANCH  24  29
BRANCH  28  31
ATOM     31  N   UNL A   1      43.243  22.519  25.398  1.00  0.00     0.063 N 
ATOM     32  O   UNL A   1      43.022  22.944  24.258  1.00  0.00    -0.258 OA
ATOM     33  O   UNL A   1      43.514  23.227  26.378  1.00  0.00    -0.258 OA
ENDBRANCH  28  31
ENDBRANCH  19  23
ENDBRANCH  15  18
ENDBRANCH  13  14
ENDBRANCH   8  13
ENDBRANCH   5   7
ENDBRANCH   4   5
ENDBRANCH   3   4
ENDBRANCH   2   3
ENDBRANCH   1   2
BRANCH   1  34
ATOM     34  C   UNL A   1      33.772  31.345  27.637  1.00  0.00     0.188 C 
BRANCH  34  35
ATOM     35  C   UNL A   1      34.876  32.349  28.030  1.00  0.00     0.188 C 
BRANCH  35  36
ATOM     36  O   UNL A   1      34.589  33.333  28.992  1.00  0.00    -0.376 OA
BRANCH  36  37
ATOM     37  C   UNL A   1      34.270  34.664  28.627  1.00  0.00     0.202 C 
BRANCH  37  38
ATOM     38  C   UNL A   1      33.299  35.606  29.359  1.00  0.00     0.261 C 
BRANCH  38  39
ATOM     39  O   UNL A   1      32.515  35.069  30.423  1.00  0.00    -0.460 OA
BRANCH  39  40
ATOM     40  C   UNL A   1      32.740  35.626  31.637  1.00  0.00     0.338 C 
ATOM     41  O   UNL A   1      32.065  36.459  32.214  1.00  0.00    -0.246 OA
BRANCH  40  42
ATOM     42  C   UNL A   1      33.883  34.943  32.262  1.00  0.00     0.060 A 
ATOM     43  C   UNL A   1      35.146  35.542  32.181  1.00  0.00     0.016 A 
ATOM     44  C   UNL A   1      33.717  33.701  32.876  1.00  0.00     0.016 A 
ATOM     45  C   UNL A   1      36.260  34.884  32.698  1.00  0.00     0.010 A 
ATOM     46  C   UNL A   1      34.837  33.034  33.376  1.00  0.00     0.010 A 
ATOM     47  C   UNL A   1      36.116  33.610  33.263  1.00  0.00    -0.014 A 
BRANCH  47  48
ATOM     48  C   UNL A   1      37.314  32.798  33.577  1.00  0.00     0.031 A 
ATOM     49  C   UNL A   1      38.050  33.074  34.858  1.00  0.00     0.074 A 
ATOM     50  C   UNL A   1      37.743  31.839  32.740  1.00  0.00     0.049 A 
ATOM     51  N   UNL A   1      39.168  32.559  35.303  1.00  0.00    -0.248 NA
ATOM     52  C   UNL A   1      37.443  34.069  35.756  1.00  0.00     0.031 C 
ATOM     53  C   UNL A   1      37.090  31.452  31.493  1.00  0.00     0.029 A 
ATOM     54  N   UNL A   1      38.848  31.028  32.812  1.00  0.00    -0.354 N 
ATOM     55  C   UNL A   1      39.402  33.174  36.526  1.00  0.00     0.074 A 
ATOM     56  C   UNL A   1      38.325  34.115  36.744  1.00  0.00     0.031 C 
ATOM     57  C   UNL A   1      37.820  30.488  30.902  1.00  0.00     0.029 A 
ATOM     58  C   UNL A   1      39.007  30.220  31.713  1.00  0.00     0.049 A 
ATOM     59  H   UNL A   1      39.466  31.025  33.578  1.00  0.00     0.167 HD
ATOM     60  C   UNL A   1      40.421  32.967  37.391  1.00  0.00     0.037 A 
ATOM     61  C   UNL A   1      40.014  29.386  31.389  1.00  0.00     0.037 A 
ATOM     62  C   UNL A   1      41.496  32.037  37.169  1.00  0.00     0.049 A 
ATOM     63  C   UNL A   1      41.181  29.233  32.332  1.00  0.00     0.074 A 
ATOM     64  C   UNL A   1      42.571  31.745  37.990  1.00  0.00     0.029 A 
ATOM     65  N   UNL A   1      41.635  31.252  36.033  1.00  0.00    -0.354 N 
ATOM     66  N   UNL A   1      41.386  29.799  33.498  1.00  0.00    -0.248 NA
ATOM     67  C   UNL A   1      42.257  28.323  31.912  1.00  0.00     0.031 C 
ATOM     68  C   UNL A   1      43.388  30.823  37.330  1.00  0.00     0.029 A 
ATOM     69  C   UNL A   1      42.793  30.494  36.122  1.00  0.00     0.049 A 
ATOM     70  H   UNL A   1      41.006  31.236  35.277  1.00  0.00     0.167 HD
ATOM     71  C   UNL A   1      42.593  29.290  33.963  1.00  0.00     0.074 A 
ATOM     72  C   UNL A   1      43.071  28.363  32.959  1.00  0.00     0.031 C 
ATOM     73  C   UNL A   1      43.246  29.565  35.119  1.00  0.00     0.037 A 
BRANCH  60  74
ATOM     74  C   UNL A   1      40.439  33.788  38.646  1.00  0.00     0.064 A 
ATOM     75  C   UNL A   1      39.722  33.406  39.789  1.00  0.00     0.173 A 
ATOM     76  C   UNL A   1      41.207  34.962  38.715  1.00  0.00     0.173 A 
ATOM     77  F   UNL A   1      38.959  32.302  39.768  1.00  0.00    -0.203 F 
ATOM     78  C   UNL A   1      39.751  34.180  40.945  1.00  0.00     0.198 A 
ATOM     79  C   UNL A   1      41.257  35.717  39.883  1.00  0.00     0.198 A 
ATOM     80  F   UNL A   1      41.912  35.371  37.651  1.00  0.00    -0.203 F 
ATOM     81  F   UNL A   1      39.019  33.821  42.010  1.00  0.00    -0.200 F 
ATOM     82  C   UNL A   1      40.523  35.330  40.994  1.00  0.00     0.200 A 
ATOM     83  F   UNL A   1      42.013  36.823  39.931  1.00  0.00    -0.200 F 
ATOM     84  F   UNL A   1      40.556  36.071  42.111  1.00  0.00    -0.200 F 
ENDBRANCH  60  74
BRANCH  61  85
ATOM     85  C   UNL A   1      39.979  28.641  30.103  1.00  0.00     0.064 A 
ATOM     86  C   UNL A   1      39.415  27.360  30.025  1.00  0.00     0.173 A 
ATOM     87  C   UNL A   1      40.536  29.181  28.934  1.00  0.00     0.173 A 
ATOM     88  F   UNL A   1      38.895  26.791  31.124  1.00  0.00    -0.203 F 
ATOM     89  C   UNL A   1      39.425  26.641  28.832  1.00  0.00     0.198 A 
ATOM     90  C   UNL A   1      40.520  28.472  27.735  1.00  0.00     0.198 A 
ATOM     91  F   UNL A   1      41.094  30.400  28.957  1.00  0.00    -0.203 F 
ATOM     92  F   UNL A   1      38.925  25.398  28.798  1.00  0.00    -0.200 F 
ATOM     93  C   UNL A   1      39.972  27.199  27.687  1.00  0.00     0.200 A 
ATOM     94  F   UNL A   1      41.043  29.018  26.630  1.00  0.00    -0.200 F 
ATOM     95  F   UNL A   1      39.983  26.506  26.541  1.00  0.00    -0.200 F 
ENDBRANCH  61  85
BRANCH  73  96
ATOM     96  C   UNL A   1      44.522  28.820  35.390  1.00  0.00     0.064 A 
ATOM     97  C   UNL A   1      45.772  29.332  35.012  1.00  0.00     0.173 A 
ATOM     98  C   UNL A   1      44.496  27.599  36.082  1.00  0.00     0.173 A 
ATOM     99  F   UNL A   1      45.851  30.488  34.336  1.00  0.00    -0.203 F 
ATOM    100  C   UNL A   1      46.945  28.638  35.296  1.00  0.00     0.198 A 
ATOM    101  C   UNL A   1      45.673  26.924  36.392  1.00  0.00     0.198 A 
ATOM    102  F   UNL A   1      43.327  27.069  36.473  1.00  0.00    -0.203 F 
ATOM    103  F   UNL A   1      48.126  29.124  34.887  1.00  0.00    -0.200 F 
ATOM    104  C   UNL A   1      46.895  27.440  35.993  1.00  0.00     0.200 A 
ATOM    105  F   UNL A   1      45.622  25.773  37.078  1.00  0.00    -0.200 F 
ATOM    106  F   UNL A   1      48.027  26.778  36.275  1.00  0.00    -0.200 F 
ENDBRANCH  73  96
ENDBRANCH  47  48
ENDBRANCH  40  42
ENDBRANCH  39  40
ENDBRANCH  38  39
ENDBRANCH  37  38
ENDBRANCH  36  37
ENDBRANCH  35  36
ENDBRANCH  34  35
ENDBRANCH   1  34
TORSDOF 23
ENDMDL
MODEL 2
REMARK VINA RESULT:     -10.6      4.263     10.566
REMARK SMILES COc1ccc(-c2ccc(C(=O)NCc3ccc(C(=O)OCCOCCOCCOC(=O)c4ccc(-c5c6nc(c(-c7c(F)c(F)c(F)c(F)c7F)c7ccc([nH]7)c(-c7c(F)c(F)c(F)c(F)c7F)c7nc(c(-c8c(F)c(F)c(F)c(F)c8F)c8ccc5[nH]8)C=C7)C=C6)cc4)cc3)o2)c([N+](=O)[O-])c1
REMARK SMILES IDX 24 1 23 2 22 3 21 4 19 5 20 6 18 7 15 8 16 9 97 10 17 11
REMARK SMILES IDX 96 12 14 13 13 14 11 15 12 16 10 18 7 19 8 20 98 21 9 22
REMARK SMILES IDX 6 23 3 24 4 25 103 26 5 27 99 28 2 29 1 30 100 31 101 32
REMARK SMILES IDX 102 33 25 34 26 35 27 36 28 37 29 38 30 39 31 40 32 41 33 42
REMARK SMILES IDX 34 43 95 44 35 45 94 46 36 47 37 48 38 49 88 50 39 51 93 52
REMARK SMILES IDX 87 53 89 54 40 55 92 56 86 57 85 58 41 60 73 61 53 62 72 63
REMARK SMILES IDX 54 64 57 65 71 66 90 67 55 68 56 69 70 71 91 72 58 73 42 74
REMARK SMILES IDX 43 75 51 76 44 77 45 78 49 79 52 80 46 81 47 82 50 83 48 84
REMARK SMILES IDX 74 85 75 86 83 87 76 88 77 89 81 90 84 91 78 92 79 93 82 94
REMARK SMILES IDX 80 95 59 96 60 97 68 98 61 99 62 100 66 101 69 102 63 103
REMARK SMILES IDX 64 104 67 105 65 106
REMARK H PARENT 13 17 89 59 57 70
REMARK Flexibility Score: inf
ROOT
ATOM      1  O   UNL A   1      33.558  22.993  24.713  1.00  0.00    -0.376 OA
ENDROOT
BRANCH   1   2
ATOM      2  C   UNL A   1      32.998  23.075  26.016  1.00  0.00     0.202 C 
BRANCH   2   3
ATOM      3  C   UNL A   1      31.512  23.396  26.211  1.00  0.00     0.261 C 
BRANCH   3   4
ATOM      4  O   UNL A   1      31.263  24.607  26.940  1.00  0.00    -0.460 OA
BRANCH   4   5
ATOM      5  C   UNL A   1      30.900  25.668  26.174  1.00  0.00     0.338 C 
ATOM      6  O   UNL A   1      29.912  25.759  25.473  1.00  0.00    -0.246 OA
BRANCH   5   7
ATOM      7  C   UNL A   1      31.789  26.821  26.443  1.00  0.00     0.060 A 
ATOM      8  C   UNL A   1      33.615  28.889  26.967  1.00  0.00    -0.029 A 
ATOM      9  C   UNL A   1      34.015  27.751  26.255  1.00  0.00     0.006 A 
ATOM     10  C   UNL A   1      32.275  28.994  27.381  1.00  0.00     0.006 A 
ATOM     11  C   UNL A   1      33.111  26.722  25.999  1.00  0.00     0.016 A 
ATOM     12  C   UNL A   1      31.360  27.968  27.115  1.00  0.00     0.016 A 
BRANCH   8  13
ATOM     13  C   UNL A   1      34.629  29.931  27.372  1.00  0.00     0.152 C 
BRANCH  13  14
ATOM     14  N   UNL A   1      35.422  29.442  28.476  1.00  0.00    -0.345 N 
ATOM     15  C   UNL A   1      36.164  30.047  29.458  1.00  0.00     0.287 C 
ATOM     16  O   UNL A   1      36.729  29.267  30.230  1.00  0.00    -0.266 OA
ATOM     17  H   UNL A   1      35.431  28.459  28.538  1.00  0.00     0.164 HD
BRANCH  15  18
ATOM     18  C   UNL A   1      36.281  31.490  29.591  1.00  0.00     0.192 A 
ATOM     19  C   UNL A   1      35.464  33.461  30.219  1.00  0.00     0.142 A 
ATOM     20  C   UNL A   1      36.699  33.715  29.675  1.00  0.00     0.052 A 
ATOM     21  O   UNL A   1      35.215  32.125  30.198  1.00  0.00    -0.451 OA
ATOM     22  C   UNL A   1      37.222  32.457  29.278  1.00  0.00     0.057 A 
BRANCH  19  23
ATOM     23  C   UNL A   1      34.427  34.297  30.802  1.00  0.00     0.095 A 
ATOM     24  C   UNL A   1      32.616  36.087  32.051  1.00  0.00     0.125 A 
ATOM     25  C   UNL A   1      33.478  35.294  32.813  1.00  0.00     0.047 A 
ATOM     26  C   UNL A   1      32.635  35.975  30.665  1.00  0.00     0.132 A 
ATOM     27  C   UNL A   1      34.363  34.400  32.199  1.00  0.00     0.023 A 
ATOM     28  C   UNL A   1      33.536  35.082  30.052  1.00  0.00     0.284 A 
BRANCH  24  29
ATOM     29  O   UNL A   1      31.837  36.944  32.776  1.00  0.00    -0.497 OA
ATOM     30  C   UNL A   1      30.621  36.423  33.300  1.00  0.00     0.278 C 
ENDBRANCH  24  29
BRANCH  28  31
ATOM     31  N   UNL A   1      33.502  35.001  28.595  1.00  0.00     0.063 N 
ATOM     32  O   UNL A   1      34.394  35.571  27.955  1.00  0.00    -0.258 OA
ATOM     33  O   UNL A   1      32.588  34.330  28.093  1.00  0.00    -0.258 OA
ENDBRANCH  28  31
ENDBRANCH  19  23
ENDBRANCH  15  18
ENDBRANCH  13  14
ENDBRANCH   8  13
ENDBRANCH   5   7
ENDBRANCH   4   5
ENDBRANCH   3   4
ENDBRANCH   2   3
ENDBRANCH   1   2
BRANCH   1  34
ATOM     34  C   UNL A   1      33.675  21.736  24.070  1.00  0.00     0.188 C 
BRANCH  34  35
ATOM     35  C   UNL A   1      34.446  20.576  24.733  1.00  0.00     0.188 C 
BRANCH  35  36
ATOM     36  O   UNL A   1      35.627  20.862  25.442  1.00  0.00    -0.376 OA
BRANCH  36  37
ATOM     37  C   UNL A   1      36.846  21.144  24.778  1.00  0.00     0.202 C 
BRANCH  37  38
ATOM     38  C   UNL A   1      38.264  20.908  25.327  1.00  0.00     0.261 C 
BRANCH  38  39
ATOM     39  O   UNL A   1      38.800  21.864  26.239  1.00  0.00    -0.460 OA
BRANCH  39  40
ATOM     40  C   UNL A   1      38.398  23.141  26.031  1.00  0.00     0.338 C 
ATOM     41  O   UNL A   1      37.444  23.529  25.380  1.00  0.00    -0.246 OA
BRANCH  40  42
ATOM     42  C   UNL A   1      39.221  24.033  26.863  1.00  0.00     0.060 A 
ATOM     43  C   UNL A   1      38.941  25.405  26.852  1.00  0.00     0.016 A 
ATOM     44  C   UNL A   1      40.287  23.524  27.607  1.00  0.00     0.016 A 
ATOM     45  C   UNL A   1      39.750  26.283  27.570  1.00  0.00     0.010 A 
ATOM     46  C   UNL A   1      41.108  24.408  28.311  1.00  0.00     0.010 A 
ATOM     47  C   UNL A   1      40.859  25.792  28.272  1.00  0.00    -0.014 A 
BRANCH  47  48
ATOM     48  C   UNL A   1      41.864  26.731  28.821  1.00  0.00     0.031 A 
ATOM     49  C   UNL A   1      41.424  27.728  29.855  1.00  0.00     0.074 A 
ATOM     50  C   UNL A   1      43.141  26.703  28.404  1.00  0.00     0.049 A 
ATOM     51  N   UNL A   1      42.096  28.702  30.413  1.00  0.00    -0.248 NA
ATOM     52  C   UNL A   1      40.033  27.609  30.322  1.00  0.00     0.031 C 
ATOM     53  C   UNL A   1      43.696  25.758  27.440  1.00  0.00     0.029 A 
ATOM     54  N   UNL A   1      44.200  27.513  28.734  1.00  0.00    -0.354 N 
ATOM     55  C   UNL A   1      41.210  29.317  31.286  1.00  0.00     0.074 A 
ATOM     56  C   UNL A   1      39.946  28.623  31.170  1.00  0.00     0.031 C 
ATOM     57  C   UNL A   1      44.992  26.054  27.237  1.00  0.00     0.029 A 
ATOM     58  C   UNL A   1      45.345  27.231  28.031  1.00  0.00     0.049 A 
ATOM     59  H   UNL A   1      44.144  28.226  29.410  1.00  0.00     0.167 HD
ATOM     60  C   UNL A   1      41.433  30.364  32.114  1.00  0.00     0.037 A 
ATOM     61  C   UNL A   1      46.529  27.872  28.011  1.00  0.00     0.037 A 
ATOM     62  C   UNL A   1      42.688  31.058  32.221  1.00  0.00     0.049 A 
ATOM     63  C   UNL A   1      46.728  29.088  28.882  1.00  0.00     0.074 A 
ATOM     64  C   UNL A   1      43.020  32.124  33.039  1.00  0.00     0.029 A 
ATOM     65  N   UNL A   1      43.820  30.758  31.477  1.00  0.00    -0.354 N 
ATOM     66  N   UNL A   1      45.895  29.652  29.723  1.00  0.00    -0.248 NA
ATOM     67  C   UNL A   1      48.036  29.755  28.800  1.00  0.00     0.031 C 
ATOM     68  C   UNL A   1      44.335  32.503  32.753  1.00  0.00     0.029 A 
ATOM     69  C   UNL A   1      44.843  31.636  31.798  1.00  0.00     0.049 A 
ATOM     70  H   UNL A   1      43.885  30.031  30.817  1.00  0.00     0.167 HD
ATOM     71  C   UNL A   1      46.586  30.715  30.293  1.00  0.00     0.074 A 
ATOM     72  C   UNL A   1      47.910  30.713  29.708  1.00  0.00     0.031 C 
ATOM     73  C   UNL A   1      46.162  31.611  31.217  1.00  0.00     0.037 A 
BRANCH  60  74
ATOM     74  C   UNL A   1      40.281  30.844  32.946  1.00  0.00     0.064 A 
ATOM     75  C   UNL A   1      40.013  30.307  34.214  1.00  0.00     0.173 A 
ATOM     76  C   UNL A   1      39.449  31.874  32.480  1.00  0.00     0.173 A 
ATOM     77  F   UNL A   1      40.768  29.308  34.697  1.00  0.00    -0.203 F 
ATOM     78  C   UNL A   1      38.940  30.764  34.973  1.00  0.00     0.198 A 
ATOM     79  C   UNL A   1      38.395  32.349  33.255  1.00  0.00     0.198 A 
ATOM     80  F   UNL A   1      39.663  32.422  31.275  1.00  0.00    -0.203 F 
ATOM     81  F   UNL A   1      38.674  30.204  36.162  1.00  0.00    -0.200 F 
ATOM     82  C   UNL A   1      38.137  31.789  34.497  1.00  0.00     0.200 A 
ATOM     83  F   UNL A   1      37.627  33.347  32.797  1.00  0.00    -0.200 F 
ATOM     84  F   UNL A   1      37.108  32.234  35.233  1.00  0.00    -0.200 F 
ENDBRANCH  60  74
BRANCH  61  85
ATOM     85  C   UNL A   1      47.620  27.395  27.121  1.00  0.00     0.064 A 
ATOM     86  C   UNL A   1      47.718  27.840  25.795  1.00  0.00     0.173 A 
ATOM     87  C   UNL A   1      48.568  26.462  27.568  1.00  0.00     0.173 A 
ATOM     88  F   UNL A   1      46.817  28.710  25.314  1.00  0.00    -0.203 F 
ATOM     89  C   UNL A   1      48.710  27.356  24.945  1.00  0.00     0.198 A 
ATOM     90  C   UNL A   1      49.577  26.001  26.725  1.00  0.00     0.198 A 
ATOM     91  F   UNL A   1      48.514  26.000  28.825  1.00  0.00    -0.203 F 
ATOM     92  F   UNL A   1      48.750  27.760  23.668  1.00  0.00    -0.200 F 
ATOM     93  C   UNL A   1      49.642  26.442  25.412  1.00  0.00     0.200 A 
ATOM     94  F   UNL A   1      50.480  25.124  27.183  1.00  0.00    -0.200 F 
ATOM     95  F   UNL A   1      50.595  25.977  24.594  1.00  0.00    -0.200 F 
ENDBRANCH  61  85
BRANCH  73  96
ATOM     96  C   UNL A   1      47.150  32.636  31.696  1.00  0.00     0.064 A 
ATOM     97  C   UNL A   1      47.977  32.405  32.804  1.00  0.00     0.173 A 
ATOM     98  C   UNL A   1      47.305  33.847  31.003  1.00  0.00     0.173 A 
ATOM     99  F   UNL A   1      47.859  31.269  33.509  1.00  0.00    -0.203 F 
ATOM    100  C   UNL A   1      48.906  33.358  33.216  1.00  0.00     0.198 A 
ATOM    101  C   UNL A   1      48.255  34.784  31.398  1.00  0.00     0.198 A 
ATOM    102  F   UNL A   1      46.543  34.114  29.931  1.00  0.00    -0.203 F 
ATOM    103  F   UNL A   1      49.655  33.135  34.304  1.00  0.00    -0.200 F 
ATOM    104  C   UNL A   1      49.050  34.542  32.507  1.00  0.00     0.200 A 
ATOM    105  F   UNL A   1      48.403  35.921  30.703  1.00  0.00    -0.200 F 
ATOM    106  F   UNL A   1      49.951  35.454  32.898  1.00  0.00    -0.200 F 
ENDBRANCH  73  96
ENDBRANCH  47  48
ENDBRANCH  40  42
ENDBRANCH  39  40
ENDBRANCH  38  39
ENDBRANCH  37  38
ENDBRANCH  36  37
ENDBRANCH  35  36
ENDBRANCH  34  35
ENDBRANCH   1  34
TORSDOF 23
ENDMDL
MODEL 3
REMARK VINA RESULT:     -10.3      4.152     10.982
REMARK SMILES COc1ccc(-c2ccc(C(=O)NCc3ccc(C(=O)OCCOCCOCCOC(=O)c4ccc(-c5c6nc(c(-c7c(F)c(F)c(F)c(F)c7F)c7ccc([nH]7)c(-c7c(F)c(F)c(F)c(F)c7F)c7nc(c(-c8c(F)c(F)c(F)c(F)c8F)c8ccc5[nH]8)C=C7)C=C6)cc4)cc3)o2)c([N+](=O)[O-])c1
REMARK SMILES IDX 24 1 23 2 22 3 21 4 19 5 20 6 18 7 15 8 16 9 97 10 17 11
REMARK SMILES IDX 96 12 14 13 13 14 11 15 12 16 10 18 7 19 8 20 98 21 9 22
REMARK SMILES IDX 6 23 3 24 4 25 103 26 5 27 99 28 2 29 1 30 100 31 101 32
REMARK SMILES IDX 102 33 25 34 26 35 27 36 28 37 29 38 30 39 31 40 32 41 33 42
REMARK SMILES IDX 34 43 95 44 35 45 94 46 36 47 37 48 38 49 88 50 39 51 93 52
REMARK SMILES IDX 87 53 89 54 40 55 92 56 86 57 85 58 41 60 73 61 53 62 72 63
REMARK SMILES IDX 54 64 57 65 71 66 90 67 55 68 56 69 70 71 91 72 58 73 42 74
REMARK SMILES IDX 43 75 51 76 44 77 45 78 49 79 52 80 46 81 47 82 50 83 48 84
REMARK SMILES IDX 74 85 75 86 83 87 76 88 77 89 81 90 84 91 78 92 79 93 82 94
REMARK SMILES IDX 80 95 59 96 60 97 68 98 61 99 62 100 66 101 69 102 63 103
REMARK SMILES IDX 64 104 67 105 65 106
REMARK H PARENT 13 17 89 59 57 70
REMARK Flexibility Score: inf
ROOT
ATOM      1  O   UNL A   1      40.864  25.795  27.625  1.00  0.00    -0.376 OA
ENDROOT
BRANCH   1   2
ATOM      2  C   UNL A   1      40.885  26.698  28.721  1.00  0.00     0.202 C 
BRANCH   2   3
ATOM      3  C   UNL A   1      39.623  27.464  29.130  1.00  0.00     0.261 C 
BRANCH   3   4
ATOM      4  O   UNL A   1      39.845  28.852  29.422  1.00  0.00    -0.460 OA
BRANCH   4   5
ATOM      5  C   UNL A   1      39.873  29.158  30.744  1.00  0.00     0.338 C 
ATOM      6  O   UNL A   1      40.382  28.507  31.635  1.00  0.00    -0.246 OA
BRANCH   5   7
ATOM      7  C   UNL A   1      39.347  30.525  30.964  1.00  0.00     0.060 A 
ATOM      8  C   UNL A   1      38.272  33.055  31.537  1.00  0.00    -0.029 A 
ATOM      9  C   UNL A   1      38.679  32.205  32.573  1.00  0.00     0.006 A 
ATOM     10  C   UNL A   1      38.447  32.635  30.206  1.00  0.00     0.006 A 
ATOM     11  C   UNL A   1      39.207  30.947  32.291  1.00  0.00     0.016 A 
ATOM     12  C   UNL A   1      38.990  31.377  29.917  1.00  0.00     0.016 A 
BRANCH   8  13
ATOM     13  C   UNL A   1      37.565  34.352  31.847  1.00  0.00     0.152 C 
BRANCH  13  14
ATOM     14  N   UNL A   1      36.202  34.084  32.246  1.00  0.00    -0.345 N 
ATOM     15  C   UNL A   1      35.062  33.734  31.567  1.00  0.00     0.287 C 
ATOM     16  O   UNL A   1      34.059  33.610  32.276  1.00  0.00    -0.266 OA
ATOM     17  H   UNL A   1      36.060  34.172  33.216  1.00  0.00     0.164 HD
BRANCH  15  18
ATOM     18  C   UNL A   1      35.027  33.518  30.129  1.00  0.00     0.192 A 
ATOM     19  C   UNL A   1      34.571  32.249  28.361  1.00  0.00     0.142 A 
ATOM     20  C   UNL A   1      35.084  33.424  27.867  1.00  0.00     0.052 A 
ATOM     21  O   UNL A   1      34.507  32.307  29.717  1.00  0.00    -0.451 OA
ATOM     22  C   UNL A   1      35.372  34.234  28.996  1.00  0.00     0.057 A 
BRANCH  19  23
ATOM     23  C   UNL A   1      34.089  31.023  27.747  1.00  0.00     0.095 A 
ATOM     24  C   UNL A   1      33.128  28.778  26.305  1.00  0.00     0.125 A 
ATOM     25  C   UNL A   1      32.334  29.915  26.470  1.00  0.00     0.047 A 
ATOM     26  C   UNL A   1      34.395  28.744  26.878  1.00  0.00     0.132 A 
ATOM     27  C   UNL A   1      32.801  31.019  27.193  1.00  0.00     0.023 A 
ATOM     28  C   UNL A   1      34.864  29.862  27.595  1.00  0.00     0.284 A 
BRANCH  24  29
ATOM     29  O   UNL A   1      32.566  27.793  25.543  1.00  0.00    -0.497 OA
ATOM     30  C   UNL A   1      31.510  28.176  24.669  1.00  0.00     0.278 C 
ENDBRANCH  24  29
BRANCH  28  31
ATOM     31  N   UNL A   1      36.197  29.762  28.181  1.00  0.00     0.063 N 
ATOM     32  O   UNL A   1      36.292  29.433  29.370  1.00  0.00    -0.258 OA
ATOM     33  O   UNL A   1      37.157  29.983  27.428  1.00  0.00    -0.258 OA
ENDBRANCH  28  31
ENDBRANCH  19  23
ENDBRANCH  15  18
ENDBRANCH  13  14
ENDBRANCH   8  13
ENDBRANCH   5   7
ENDBRANCH   4   5
ENDBRANCH   3   4
ENDBRANCH   2   3
ENDBRANCH   1   2
BRANCH   1  34
ATOM     34  C   UNL A   1      41.123  24.418  27.836  1.00  0.00     0.188 C 
BRANCH  34  35
ATOM     35  C   UNL A   1      42.471  23.946  28.418  1.00  0.00     0.188 C 
BRANCH  35  36
ATOM     36  O   UNL A   1      43.475  23.503  27.538  1.00  0.00    -0.376 OA
BRANCH  36  37
ATOM     37  C   UNL A   1      43.175  23.064  26.225  1.00  0.00     0.202 C 
BRANCH  37  38
ATOM     38  C   UNL A   1      43.787  23.598  24.919  1.00  0.00     0.261 C 
BRANCH  38  39
ATOM     39  O   UNL A   1      43.897  25.011  24.757  1.00  0.00    -0.460 OA
BRANCH  39  40
ATOM     40  C   UNL A   1      45.112  25.530  25.054  1.00  0.00     0.338 C 
ATOM     41  O   UNL A   1      46.195  25.204  24.602  1.00  0.00    -0.246 OA
BRANCH  40  42
ATOM     42  C   UNL A   1      44.922  26.699  25.927  1.00  0.00     0.060 A 
ATOM     43  C   UNL A   1      46.025  27.190  26.636  1.00  0.00     0.016 A 
ATOM     44  C   UNL A   1      43.659  27.271  26.080  1.00  0.00     0.016 A 
ATOM     45  C   UNL A   1      45.861  28.249  27.526  1.00  0.00     0.010 A 
ATOM     46  C   UNL A   1      43.492  28.319  26.987  1.00  0.00     0.010 A 
ATOM     47  C   UNL A   1      44.586  28.792  27.734  1.00  0.00    -0.014 A 
BRANCH  47  48
ATOM     48  C   UNL A   1      44.355  29.732  28.855  1.00  0.00     0.031 A 
ATOM     49  C   UNL A   1      44.104  29.167  30.224  1.00  0.00     0.074 A 
ATOM     50  C   UNL A   1      44.364  31.062  28.660  1.00  0.00     0.049 A 
ATOM     51  N   UNL A   1      43.790  29.783  31.335  1.00  0.00    -0.248 NA
ATOM     52  C   UNL A   1      44.220  27.705  30.356  1.00  0.00     0.031 C 
ATOM     53  C   UNL A   1      44.637  31.729  27.391  1.00  0.00     0.029 A 
ATOM     54  N   UNL A   1      44.115  32.089  29.537  1.00  0.00    -0.354 N 
ATOM     55  C   UNL A   1      43.662  28.786  32.293  1.00  0.00     0.074 A 
ATOM     56  C   UNL A   1      43.908  27.524  31.631  1.00  0.00     0.031 C 
ATOM     57  C   UNL A   1      44.520  33.057  27.563  1.00  0.00     0.029 A 
ATOM     58  C   UNL A   1      44.130  33.328  28.947  1.00  0.00     0.049 A 
ATOM     59  H   UNL A   1      43.944  31.950  30.496  1.00  0.00     0.167 HD
ATOM     60  C   UNL A   1      43.369  28.914  33.608  1.00  0.00     0.037 A 
ATOM     61  C   UNL A   1      43.829  34.536  29.461  1.00  0.00     0.037 A 
ATOM     62  C   UNL A   1      43.116  30.169  34.262  1.00  0.00     0.049 A 
ATOM     63  C   UNL A   1      43.426  34.644  30.911  1.00  0.00     0.074 A 
ATOM     64  C   UNL A   1      42.822  30.406  35.594  1.00  0.00     0.029 A 
ATOM     65  N   UNL A   1      43.118  31.403  33.627  1.00  0.00    -0.354 N 
ATOM     66  N   UNL A   1      43.328  33.702  31.818  1.00  0.00    -0.248 NA
ATOM     67  C   UNL A   1      43.091  35.988  31.407  1.00  0.00     0.031 C 
ATOM     68  C   UNL A   1      42.595  31.776  35.754  1.00  0.00     0.029 A 
ATOM     69  C   UNL A   1      42.805  32.402  34.536  1.00  0.00     0.049 A 
ATOM     70  H   UNL A   1      43.311  31.546  32.673  1.00  0.00     0.167 HD
ATOM     71  C   UNL A   1      42.955  34.340  32.995  1.00  0.00     0.074 A 
ATOM     72  C   UNL A   1      42.852  35.751  32.690  1.00  0.00     0.031 C 
ATOM     73  C   UNL A   1      42.721  33.805  34.218  1.00  0.00     0.037 A 
BRANCH  60  74
ATOM     74  C   UNL A   1      43.275  27.656  34.420  1.00  0.00     0.064 A 
ATOM     75  C   UNL A   1      42.048  27.017  34.652  1.00  0.00     0.173 A 
ATOM     76  C   UNL A   1      44.433  27.067  34.951  1.00  0.00     0.173 A 
ATOM     77  F   UNL A   1      40.910  27.550  34.180  1.00  0.00    -0.203 F 
ATOM     78  C   UNL A   1      41.980  25.851  35.408  1.00  0.00     0.198 A 
ATOM     79  C   UNL A   1      44.364  25.884  35.681  1.00  0.00     0.198 A 
ATOM     80  F   UNL A   1      45.631  27.637  34.757  1.00  0.00    -0.203 F 
ATOM     81  F   UNL A   1      40.792  25.283  35.657  1.00  0.00    -0.200 F 
ATOM     82  C   UNL A   1      43.138  25.281  35.915  1.00  0.00     0.200 A 
ATOM     83  F   UNL A   1      45.486  25.330  36.162  1.00  0.00    -0.200 F 
ATOM     84  F   UNL A   1      43.072  24.153  36.637  1.00  0.00    -0.200 F 
ENDBRANCH  60  74
BRANCH  61  85
ATOM     85  C   UNL A   1      43.877  35.746  28.599  1.00  0.00     0.064 A 
ATOM     86  C   UNL A   1      45.075  36.446  28.403  1.00  0.00     0.173 A 
ATOM     87  C   UNL A   1      42.721  36.242  27.977  1.00  0.00     0.173 A 
ATOM     88  F   UNL A   1      46.201  36.025  28.999  1.00  0.00    -0.203 F 
ATOM     89  C   UNL A   1      45.112  37.608  27.634  1.00  0.00     0.198 A 
ATOM     90  C   UNL A   1      42.765  37.388  27.186  1.00  0.00     0.198 A 
ATOM     91  F   UNL A   1      41.549  35.613  28.138  1.00  0.00    -0.203 F 
ATOM     92  F   UNL A   1      46.260  38.287  27.505  1.00  0.00    -0.200 F 
ATOM     93  C   UNL A   1      43.959  38.075  27.022  1.00  0.00     0.200 A 
ATOM     94  F   UNL A   1      41.650  37.831  26.590  1.00  0.00    -0.200 F 
ATOM     95  F   UNL A   1      43.995  39.192  26.284  1.00  0.00    -0.200 F 
ENDBRANCH  61  85
BRANCH  73  96
ATOM     96  C   UNL A   1      42.378  34.749  35.335  1.00  0.00     0.064 A 
ATOM     97  C   UNL A   1      41.051  35.081  35.643  1.00  0.00     0.173 A 
ATOM     98  C   UNL A   1      43.393  35.291  36.140  1.00  0.00     0.173 A 
ATOM     99  F   UNL A   1      40.045  34.601  34.896  1.00  0.00    -0.203 F 
ATOM    100  C   UNL A   1      40.754  35.938  36.700  1.00  0.00     0.198 A 
ATOM    101  C   UNL A   1      43.091  36.122  37.214  1.00  0.00     0.198 A 
ATOM    102  F   UNL A   1      44.679  34.999  35.892  1.00  0.00    -0.203 F 
ATOM    103  F   UNL A   1      39.481  36.276  36.949  1.00  0.00    -0.200 F 
ATOM    104  C   UNL A   1      41.773  36.450  37.490  1.00  0.00     0.200 A 
ATOM    105  F   UNL A   1      44.077  36.604  37.984  1.00  0.00    -0.200 F 
ATOM    106  F   UNL A   1      41.485  37.267  38.513  1.00  0.00    -0.200 F 
ENDBRANCH  73  96
ENDBRANCH  47  48
ENDBRANCH  40  42
ENDBRANCH  39  40
ENDBRANCH  38  39
ENDBRANCH  37  38
ENDBRANCH  36  37
ENDBRANCH  35  36
ENDBRANCH  34  35
ENDBRANCH   1  34
TORSDOF 23
ENDMDL
