MODEL 1
REMARK VINA RESULT:     -11.4      0.000      0.000
REMARK SMILES CC(C)c1cc2c(cc1Cl)C=C(C(=O)OCCOCCOCCOC(=O)c1ccc(-c3c4nc(c(-c5c(F)c(F)c(F)c(F)c5F)c5ccc([nH]5)c(-c5c(F)c(F)c(F)c(F)c5F)c5nc(c(-c6c(F)c(F)c(F)c(F)c6F)c6ccc3[nH]6)C=C5)C=C4)cc1)[C@@H](C(F)(F)F)O2
REMARK SMILES IDX 20 1 19 2 18 3 17 4 16 5 15 6 13 7 14 8 12 9 4 10 5 11 9 12
REMARK SMILES IDX 6 13 8 14 10 15 7 16 95 17 11 18 90 19 2 20 1 21 3 22 91 23
REMARK SMILES IDX 92 24 93 25 94 26 21 27 22 28 23 29 24 30 25 31 26 32 27 33
REMARK SMILES IDX 28 34 89 35 29 36 88 37 30 38 31 39 32 40 82 41 33 42 87 43
REMARK SMILES IDX 81 44 83 45 34 46 86 47 80 48 79 49 35 51 67 52 47 53 66 54
REMARK SMILES IDX 48 55 51 56 65 57 84 58 49 59 50 60 64 62 85 63 52 64 36 65
REMARK SMILES IDX 37 66 45 67 38 68 39 69 43 70 46 71 40 72 41 73 44 74 42 75
REMARK SMILES IDX 68 76 69 77 77 78 70 79 71 80 75 81 78 82 72 83 73 84 76 85
REMARK SMILES IDX 74 86 53 87 54 88 62 89 55 90 56 91 60 92 63 93 57 94 58 95
REMARK SMILES IDX 61 96 59 97
REMARK H PARENT 83 50 51 61
REMARK Flexibility Score: inf
ROOT
ATOM      1  C   UNL A   1      33.678  33.987  28.648  1.00  0.00     0.188 C 
ENDROOT
BRANCH   1   2
ATOM      2  C   UNL A   1      34.382  32.620  28.523  1.00  0.00     0.188 C 
BRANCH   2   3
ATOM      3  O   UNL A   1      34.330  31.863  27.326  1.00  0.00    -0.376 OA
BRANCH   3   4
ATOM      4  C   UNL A   1      33.665  30.609  27.288  1.00  0.00     0.202 C 
BRANCH   4   5
ATOM      5  C   UNL A   1      34.487  29.332  27.136  1.00  0.00     0.261 C 
BRANCH   5   6
ATOM      6  O   UNL A   1      33.666  28.159  27.050  1.00  0.00    -0.460 OA
BRANCH   6   7
ATOM      7  C   UNL A   1      33.582  27.615  25.816  1.00  0.00     0.338 C 
ATOM      8  O   UNL A   1      33.908  28.136  24.760  1.00  0.00    -0.246 OA
BRANCH   7   9
ATOM      9  C   UNL A   1      33.166  26.208  25.922  1.00  0.00     0.087 C 
ATOM     10  C   UNL A   1      33.009  21.203  25.346  1.00  0.00    -0.023 A 
ATOM     11  C   UNL A   1      32.075  22.209  25.713  1.00  0.00     0.052 A 
ATOM     12  C   UNL A   1      34.361  21.587  25.299  1.00  0.00     0.045 A 
ATOM     13  C   UNL A   1      32.442  23.544  25.886  1.00  0.00     0.128 A 
ATOM     14  C   UNL A   1      34.730  22.928  25.498  1.00  0.00     0.032 A 
ATOM     15  Cl  UNL A   1      35.691  20.531  24.992  1.00  0.00    -0.084 Cl
ATOM     16  C   UNL A   1      33.771  23.910  25.744  1.00  0.00     0.019 A 
ATOM     17  O   UNL A   1      31.436  24.425  26.164  1.00  0.00    -0.475 OA
ATOM     18  C   UNL A   1      34.146  25.309  25.773  1.00  0.00     0.027 C 
ATOM     19  C   UNL A   1      31.722  25.854  26.149  1.00  0.00     0.316 C 
BRANCH  10  20
ATOM     20  C   UNL A   1      32.406  19.836  25.002  1.00  0.00     0.014 C 
ATOM     21  C   UNL A   1      32.545  19.569  23.488  1.00  0.00     0.012 C 
ATOM     22  C   UNL A   1      32.900  18.584  25.729  1.00  0.00     0.012 C 
ENDBRANCH  10  20
BRANCH  19  23
ATOM     23  C   UNL A   1      30.784  26.530  25.137  1.00  0.00     0.430 C 
ATOM     24  F   UNL A   1      31.242  26.387  23.871  1.00  0.00    -0.167 F 
ATOM     25  F   UNL A   1      29.544  25.986  25.164  1.00  0.00    -0.167 F 
ATOM     26  F   UNL A   1      30.651  27.853  25.377  1.00  0.00    -0.167 F 
ENDBRANCH  19  23
ENDBRANCH   7   9
ENDBRANCH   6   7
ENDBRANCH   5   6
ENDBRANCH   4   5
ENDBRANCH   3   4
ENDBRANCH   2   3
ENDBRANCH   1   2
BRANCH   1  27
ATOM     27  O   UNL A   1      33.156  34.425  29.888  1.00  0.00    -0.376 OA
BRANCH  27  28
ATOM     28  C   UNL A   1      34.051  34.830  30.916  1.00  0.00     0.202 C 
BRANCH  28  29
ATOM     29  C   UNL A   1      34.542  33.786  31.917  1.00  0.00     0.261 C 
BRANCH  29  30
ATOM     30  O   UNL A   1      35.916  33.429  31.698  1.00  0.00    -0.460 OA
BRANCH  30  31
ATOM     31  C   UNL A   1      36.367  32.385  32.435  1.00  0.00     0.338 C 
ATOM     32  O   UNL A   1      35.902  31.953  33.474  1.00  0.00    -0.246 OA
BRANCH  31  33
ATOM     33  C   UNL A   1      37.426  31.691  31.681  1.00  0.00     0.060 A 
ATOM     34  C   UNL A   1      37.403  31.630  30.286  1.00  0.00     0.016 A 
ATOM     35  C   UNL A   1      38.472  31.104  32.404  1.00  0.00     0.016 A 
ATOM     36  C   UNL A   1      38.454  31.006  29.612  1.00  0.00     0.010 A 
ATOM     37  C   UNL A   1      39.514  30.468  31.729  1.00  0.00     0.010 A 
ATOM     38  C   UNL A   1      39.522  30.436  30.327  1.00  0.00    -0.014 A 
BRANCH  38  39
ATOM     39  C   UNL A   1      40.715  29.937  29.607  1.00  0.00     0.031 A 
ATOM     40  C   UNL A   1      40.801  28.528  29.110  1.00  0.00     0.074 A 
ATOM     41  C   UNL A   1      41.742  30.785  29.418  1.00  0.00     0.049 A 
ATOM     42  N   UNL A   1      41.742  27.967  28.395  1.00  0.00    -0.248 NA
ATOM     43  C   UNL A   1      39.692  27.632  29.464  1.00  0.00     0.031 C 
ATOM     44  C   UNL A   1      41.781  32.170  29.889  1.00  0.00     0.029 A 
ATOM     45  N   UNL A   1      42.942  30.613  28.780  1.00  0.00    -0.354 N 
ATOM     46  C   UNL A   1      41.329  26.660  28.184  1.00  0.00     0.074 A 
ATOM     47  C   UNL A   1      40.075  26.496  28.893  1.00  0.00     0.031 C 
ATOM     48  C   UNL A   1      42.939  32.729  29.507  1.00  0.00     0.029 A 
ATOM     49  C   UNL A   1      43.727  31.739  28.778  1.00  0.00     0.049 A 
ATOM     50  H   UNL A   1      43.215  29.764  28.363  1.00  0.00     0.167 HD
ATOM     51  C   UNL A   1      41.935  25.698  27.447  1.00  0.00     0.037 A 
ATOM     52  C   UNL A   1      44.941  31.953  28.238  1.00  0.00     0.037 A 
ATOM     53  C   UNL A   1      43.193  25.862  26.762  1.00  0.00     0.049 A 
ATOM     54  C   UNL A   1      45.613  30.850  27.472  1.00  0.00     0.074 A 
ATOM     55  C   UNL A   1      43.859  24.958  25.952  1.00  0.00     0.029 A 
ATOM     56  N   UNL A   1      43.986  26.999  26.822  1.00  0.00    -0.354 N 
ATOM     57  N   UNL A   1      45.177  29.644  27.206  1.00  0.00    -0.248 NA
ATOM     58  C   UNL A   1      46.945  31.143  26.926  1.00  0.00     0.031 C 
ATOM     59  C   UNL A   1      45.076  25.528  25.563  1.00  0.00     0.029 A 
ATOM     60  C   UNL A   1      45.149  26.806  26.091  1.00  0.00     0.049 A 
ATOM     61  H   UNL A   1      43.757  27.822  27.312  1.00  0.00     0.167 HD
ATOM     62  C   UNL A   1      46.170  29.037  26.452  1.00  0.00     0.074 A 
ATOM     63  C   UNL A   1      47.225  30.016  26.284  1.00  0.00     0.031 C 
ATOM     64  C   UNL A   1      46.203  27.780  25.946  1.00  0.00     0.037 A 
BRANCH  51  65
ATOM     65  C   UNL A   1      41.238  24.375  27.321  1.00  0.00     0.064 A 
ATOM     66  C   UNL A   1      40.102  24.228  26.511  1.00  0.00     0.173 A 
ATOM     67  C   UNL A   1      41.753  23.229  27.944  1.00  0.00     0.173 A 
ATOM     68  F   UNL A   1      39.568  25.294  25.897  1.00  0.00    -0.203 F 
ATOM     69  C   UNL A   1      39.499  22.984  26.341  1.00  0.00     0.198 A 
ATOM     70  C   UNL A   1      41.163  21.983  27.753  1.00  0.00     0.198 A 
ATOM     71  F   UNL A   1      42.844  23.315  28.721  1.00  0.00    -0.203 F 
ATOM     72  F   UNL A   1      38.400  22.871  25.583  1.00  0.00    -0.200 F 
ATOM     73  C   UNL A   1      40.035  21.861  26.954  1.00  0.00     0.200 A 
ATOM     74  F   UNL A   1      41.690  20.896  28.334  1.00  0.00    -0.200 F 
ATOM     75  F   UNL A   1      39.464  20.662  26.776  1.00  0.00    -0.200 F 
ENDBRANCH  51  65
BRANCH  52  76
ATOM     76  C   UNL A   1      45.567  33.291  28.370  1.00  0.00     0.064 A 
ATOM     77  C   UNL A   1      45.292  34.303  27.442  1.00  0.00     0.173 A 
ATOM     78  C   UNL A   1      46.419  33.595  29.441  1.00  0.00     0.173 A 
ATOM     79  F   UNL A   1      44.496  34.050  26.393  1.00  0.00    -0.203 F 
ATOM     80  C   UNL A   1      45.849  35.572  27.578  1.00  0.00     0.198 A 
ATOM     81  C   UNL A   1      46.958  34.870  29.588  1.00  0.00     0.198 A 
ATOM     82  F   UNL A   1      46.708  32.658  30.355  1.00  0.00    -0.203 F 
ATOM     83  F   UNL A   1      45.590  36.517  26.664  1.00  0.00    -0.200 F 
ATOM     84  C   UNL A   1      46.675  35.856  28.656  1.00  0.00     0.200 A 
ATOM     85  F   UNL A   1      47.745  35.146  30.638  1.00  0.00    -0.200 F 
ATOM     86  F   UNL A   1      47.200  37.081  28.793  1.00  0.00    -0.200 F 
ENDBRANCH  52  76
BRANCH  64  87
ATOM     87  C   UNL A   1      47.424  27.385  25.168  1.00  0.00     0.064 A 
ATOM     88  C   UNL A   1      47.529  27.643  23.794  1.00  0.00     0.173 A 
ATOM     89  C   UNL A   1      48.517  26.780  25.808  1.00  0.00     0.173 A 
ATOM     90  F   UNL A   1      46.505  28.204  23.132  1.00  0.00    -0.203 F 
ATOM     91  C   UNL A   1      48.675  27.293  23.084  1.00  0.00     0.198 A 
ATOM     92  C   UNL A   1      49.672  26.457  25.101  1.00  0.00     0.198 A 
ATOM     93  F   UNL A   1      48.469  26.515  27.122  1.00  0.00    -0.203 F 
ATOM     94  F   UNL A   1      48.736  27.512  21.763  1.00  0.00    -0.200 F 
ATOM     95  C   UNL A   1      49.748  26.707  23.739  1.00  0.00     0.200 A 
ATOM     96  F   UNL A   1      50.713  25.901  25.738  1.00  0.00    -0.200 F 
ATOM     97  F   UNL A   1      50.853  26.379  23.056  1.00  0.00    -0.200 F 
ENDBRANCH  64  87
ENDBRANCH  38  39
ENDBRANCH  31  33
ENDBRANCH  30  31
ENDBRANCH  29  30
ENDBRANCH  28  29
ENDBRANCH  27  28
ENDBRANCH   1  27
TORSDOF 19
ENDMDL
MODEL 2
REMARK VINA RESULT:     -11.0      4.554      8.576
REMARK SMILES CC(C)c1cc2c(cc1Cl)C=C(C(=O)OCCOCCOCCOC(=O)c1ccc(-c3c4nc(c(-c5c(F)c(F)c(F)c(F)c5F)c5ccc([nH]5)c(-c5c(F)c(F)c(F)c(F)c5F)c5nc(c(-c6c(F)c(F)c(F)c(F)c6F)c6ccc3[nH]6)C=C5)C=C4)cc1)[C@@H](C(F)(F)F)O2
REMARK SMILES IDX 20 1 19 2 18 3 17 4 16 5 15 6 13 7 14 8 12 9 4 10 5 11 9 12
REMARK SMILES IDX 6 13 8 14 10 15 7 16 95 17 11 18 90 19 2 20 1 21 3 22 91 23
REMARK SMILES IDX 92 24 93 25 94 26 21 27 22 28 23 29 24 30 25 31 26 32 27 33
REMARK SMILES IDX 28 34 89 35 29 36 88 37 30 38 31 39 32 40 82 41 33 42 87 43
REMARK SMILES IDX 81 44 83 45 34 46 86 47 80 48 79 49 35 51 67 52 47 53 66 54
REMARK SMILES IDX 48 55 51 56 65 57 84 58 49 59 50 60 64 62 85 63 52 64 36 65
REMARK SMILES IDX 37 66 45 67 38 68 39 69 43 70 46 71 40 72 41 73 44 74 42 75
REMARK SMILES IDX 68 76 69 77 77 78 70 79 71 80 75 81 78 82 72 83 73 84 76 85
REMARK SMILES IDX 74 86 53 87 54 88 62 89 55 90 56 91 60 92 63 93 57 94 58 95
REMARK SMILES IDX 61 96 59 97
REMARK H PARENT 83 50 51 61
REMARK Flexibility Score: inf
ROOT
ATOM      1  C   UNL A   1      32.063  29.527  25.920  1.00  0.00     0.188 C 
ENDROOT
BRANCH   1   2
ATOM      2  C   UNL A   1      33.150  29.064  24.928  1.00  0.00     0.188 C 
BRANCH   2   3
ATOM      3  O   UNL A   1      33.024  29.276  23.533  1.00  0.00    -0.376 OA
BRANCH   3   4
ATOM      4  C   UNL A   1      32.741  28.195  22.657  1.00  0.00     0.202 C 
BRANCH   4   5
ATOM      5  C   UNL A   1      31.594  27.243  22.989  1.00  0.00     0.261 C 
BRANCH   5   6
ATOM      6  O   UNL A   1      32.018  26.135  23.795  1.00  0.00    -0.460 OA
BRANCH   6   7
ATOM      7  C   UNL A   1      31.146  25.103  23.843  1.00  0.00     0.338 C 
ATOM      8  O   UNL A   1      29.951  25.138  23.594  1.00  0.00    -0.246 OA
BRANCH   7   9
ATOM      9  C   UNL A   1      31.875  23.852  24.102  1.00  0.00     0.087 C 
ATOM     10  C   UNL A   1      33.179  18.982  24.119  1.00  0.00    -0.023 A 
ATOM     11  C   UNL A   1      33.471  20.111  24.932  1.00  0.00     0.052 A 
ATOM     12  C   UNL A   1      32.534  19.239  22.896  1.00  0.00     0.045 A 
ATOM     13  C   UNL A   1      33.027  21.396  24.616  1.00  0.00     0.128 A 
ATOM     14  C   UNL A   1      32.110  20.538  22.570  1.00  0.00     0.032 A 
ATOM     15  Cl  UNL A   1      32.173  18.059  21.689  1.00  0.00    -0.084 Cl
ATOM     16  C   UNL A   1      32.314  21.603  23.447  1.00  0.00     0.019 A 
ATOM     17  O   UNL A   1      33.311  22.381  25.519  1.00  0.00    -0.475 OA
ATOM     18  C   UNL A   1      31.720  22.896  23.178  1.00  0.00     0.027 C 
ATOM     19  C   UNL A   1      32.699  23.693  25.351  1.00  0.00     0.316 C 
BRANCH  10  20
ATOM     20  C   UNL A   1      33.567  17.624  24.713  1.00  0.00     0.014 C 
ATOM     21  C   UNL A   1      32.445  17.120  25.646  1.00  0.00     0.012 C 
ATOM     22  C   UNL A   1      33.933  16.466  23.782  1.00  0.00     0.012 C 
ENDBRANCH  10  20
BRANCH  19  23
ATOM     23  C   UNL A   1      31.908  24.030  26.623  1.00  0.00     0.430 C 
ATOM     24  F   UNL A   1      32.410  23.382  27.701  1.00  0.00    -0.167 F 
ATOM     25  F   UNL A   1      31.960  25.353  26.908  1.00  0.00    -0.167 F 
ATOM     26  F   UNL A   1      30.605  23.692  26.513  1.00  0.00    -0.167 F 
ENDBRANCH  19  23
ENDBRANCH   7   9
ENDBRANCH   6   7
ENDBRANCH   5   6
ENDBRANCH   4   5
ENDBRANCH   3   4
ENDBRANCH   2   3
ENDBRANCH   1   2
BRANCH   1  27
ATOM     27  O   UNL A   1      32.249  30.681  26.717  1.00  0.00    -0.376 OA
BRANCH  27  28
ATOM     28  C   UNL A   1      31.434  31.824  26.488  1.00  0.00     0.202 C 
BRANCH  28  29
ATOM     29  C   UNL A   1      31.843  33.156  27.114  1.00  0.00     0.261 C 
BRANCH  29  30
ATOM     30  O   UNL A   1      33.265  33.352  27.089  1.00  0.00    -0.460 OA
BRANCH  30  31
ATOM     31  C   UNL A   1      33.776  34.019  28.153  1.00  0.00     0.338 C 
ATOM     32  O   UNL A   1      33.285  34.964  28.743  1.00  0.00    -0.246 OA
BRANCH  31  33
ATOM     33  C   UNL A   1      34.962  33.295  28.645  1.00  0.00     0.060 A 
ATOM     34  C   UNL A   1      36.240  33.850  28.555  1.00  0.00     0.016 A 
ATOM     35  C   UNL A   1      34.769  32.035  29.225  1.00  0.00     0.016 A 
ATOM     36  C   UNL A   1      37.327  33.150  29.081  1.00  0.00     0.010 A 
ATOM     37  C   UNL A   1      35.859  31.331  29.738  1.00  0.00     0.010 A 
ATOM     38  C   UNL A   1      37.141  31.896  29.689  1.00  0.00    -0.014 A 
BRANCH  38  39
ATOM     39  C   UNL A   1      38.263  31.242  30.400  1.00  0.00     0.031 A 
ATOM     40  C   UNL A   1      38.576  31.554  31.830  1.00  0.00     0.074 A 
ATOM     41  C   UNL A   1      39.015  30.358  29.720  1.00  0.00     0.049 A 
ATOM     42  N   UNL A   1      39.472  31.008  32.612  1.00  0.00    -0.248 NA
ATOM     43  C   UNL A   1      37.787  32.619  32.463  1.00  0.00     0.031 C 
ATOM     44  C   UNL A   1      38.822  30.002  28.314  1.00  0.00     0.029 A 
ATOM     45  N   UNL A   1      40.083  29.596  30.116  1.00  0.00    -0.354 N 
ATOM     46  C   UNL A   1      39.338  31.637  33.840  1.00  0.00     0.074 A 
ATOM     47  C   UNL A   1      38.308  32.646  33.684  1.00  0.00     0.031 C 
ATOM     48  C   UNL A   1      39.729  29.076  27.969  1.00  0.00     0.029 A 
ATOM     49  C   UNL A   1      40.575  28.785  29.125  1.00  0.00     0.049 A 
ATOM     50  H   UNL A   1      40.462  29.628  31.025  1.00  0.00     0.167 HD
ATOM     51  C   UNL A   1      40.001  31.377  34.992  1.00  0.00     0.037 A 
ATOM     52  C   UNL A   1      41.586  27.898  29.146  1.00  0.00     0.037 A 
ATOM     53  C   UNL A   1      41.039  30.386  35.133  1.00  0.00     0.049 A 
ATOM     54  C   UNL A   1      42.340  27.669  30.425  1.00  0.00     0.074 A 
ATOM     55  C   UNL A   1      41.733  30.020  36.274  1.00  0.00     0.029 A 
ATOM     56  N   UNL A   1      41.547  29.617  34.096  1.00  0.00    -0.354 N 
ATOM     57  N   UNL A   1      42.150  28.209  31.603  1.00  0.00    -0.248 NA
ATOM     58  C   UNL A   1      43.445  26.702  30.376  1.00  0.00     0.031 C 
ATOM     59  C   UNL A   1      42.693  29.067  35.918  1.00  0.00     0.029 A 
ATOM     60  C   UNL A   1      42.568  28.803  34.564  1.00  0.00     0.049 A 
ATOM     61  H   UNL A   1      41.231  29.645  33.165  1.00  0.00     0.167 HD
ATOM     62  C   UNL A   1      43.099  27.640  32.440  1.00  0.00     0.074 A 
ATOM     63  C   UNL A   1      43.851  26.697  31.638  1.00  0.00     0.031 C 
ATOM     64  C   UNL A   1      43.325  27.880  33.755  1.00  0.00     0.037 A 
BRANCH  51  65
ATOM     65  C   UNL A   1      39.615  32.163  36.211  1.00  0.00     0.064 A 
ATOM     66  C   UNL A   1      40.315  33.323  36.576  1.00  0.00     0.173 A 
ATOM     67  C   UNL A   1      38.492  31.806  36.971  1.00  0.00     0.173 A 
ATOM     68  F   UNL A   1      41.398  33.705  35.884  1.00  0.00    -0.203 F 
ATOM     69  C   UNL A   1      39.911  34.089  37.668  1.00  0.00     0.198 A 
ATOM     70  C   UNL A   1      38.077  32.588  38.046  1.00  0.00     0.198 A 
ATOM     71  F   UNL A   1      37.783  30.711  36.656  1.00  0.00    -0.203 F 
ATOM     72  F   UNL A   1      40.609  35.180  38.013  1.00  0.00    -0.200 F 
ATOM     73  C   UNL A   1      38.788  33.726  38.395  1.00  0.00     0.200 A 
ATOM     74  F   UNL A   1      36.983  32.244  38.740  1.00  0.00    -0.200 F 
ATOM     75  F   UNL A   1      38.391  34.474  39.434  1.00  0.00    -0.200 F 
ENDBRANCH  51  65
BRANCH  52  76
ATOM     76  C   UNL A   1      41.902  27.128  27.919  1.00  0.00     0.064 A 
ATOM     77  C   UNL A   1      42.825  27.619  26.985  1.00  0.00     0.173 A 
ATOM     78  C   UNL A   1      41.322  25.876  27.673  1.00  0.00     0.173 A 
ATOM     79  F   UNL A   1      43.390  28.820  27.173  1.00  0.00    -0.203 F 
ATOM     80  C   UNL A   1      43.153  26.886  25.848  1.00  0.00     0.198 A 
ATOM     81  C   UNL A   1      41.668  25.134  26.547  1.00  0.00     0.198 A 
ATOM     82  F   UNL A   1      40.437  25.364  28.541  1.00  0.00    -0.203 F 
ATOM     83  F   UNL A   1      44.020  27.388  24.959  1.00  0.00    -0.200 F 
ATOM     84  C   UNL A   1      42.581  25.641  25.635  1.00  0.00     0.200 A 
ATOM     85  F   UNL A   1      41.124  23.925  26.350  1.00  0.00    -0.200 F 
ATOM     86  F   UNL A   1      42.908  24.930  24.547  1.00  0.00    -0.200 F 
ENDBRANCH  52  76
BRANCH  64  87
ATOM     87  C   UNL A   1      44.439  27.118  34.411  1.00  0.00     0.064 A 
ATOM     88  C   UNL A   1      45.741  27.635  34.471  1.00  0.00     0.173 A 
ATOM     89  C   UNL A   1      44.195  25.878  35.022  1.00  0.00     0.173 A 
ATOM     90  F   UNL A   1      46.028  28.809  33.887  1.00  0.00    -0.203 F 
ATOM     91  C   UNL A   1      46.763  26.931  35.101  1.00  0.00     0.198 A 
ATOM     92  C   UNL A   1      45.214  25.190  35.676  1.00  0.00     0.198 A 
ATOM     93  F   UNL A   1      42.967  25.341  34.997  1.00  0.00    -0.203 F 
ATOM     94  F   UNL A   1      48.009  27.425  35.110  1.00  0.00    -0.200 F 
ATOM     95  C   UNL A   1      46.498  25.713  35.710  1.00  0.00     0.200 A 
ATOM     96  F   UNL A   1      44.953  24.019  36.274  1.00  0.00    -0.200 F 
ATOM     97  F   UNL A   1      47.482  25.041  36.324  1.00  0.00    -0.200 F 
ENDBRANCH  64  87
ENDBRANCH  38  39
ENDBRANCH  31  33
ENDBRANCH  30  31
ENDBRANCH  29  30
ENDBRANCH  28  29
ENDBRANCH  27  28
ENDBRANCH   1  27
TORSDOF 19
ENDMDL
MODEL 3
REMARK VINA RESULT:     -10.9      4.541      8.865
REMARK SMILES CC(C)c1cc2c(cc1Cl)C=C(C(=O)OCCOCCOCCOC(=O)c1ccc(-c3c4nc(c(-c5c(F)c(F)c(F)c(F)c5F)c5ccc([nH]5)c(-c5c(F)c(F)c(F)c(F)c5F)c5nc(c(-c6c(F)c(F)c(F)c(F)c6F)c6ccc3[nH]6)C=C5)C=C4)cc1)[C@@H](C(F)(F)F)O2
REMARK SMILES IDX 20 1 19 2 18 3 17 4 16 5 15 6 13 7 14 8 12 9 4 10 5 11 9 12
REMARK SMILES IDX 6 13 8 14 10 15 7 16 95 17 11 18 90 19 2 20 1 21 3 22 91 23
REMARK SMILES IDX 92 24 93 25 94 26 21 27 22 28 23 29 24 30 25 31 26 32 27 33
REMARK SMILES IDX 28 34 89 35 29 36 88 37 30 38 31 39 32 40 82 41 33 42 87 43
REMARK SMILES IDX 81 44 83 45 34 46 86 47 80 48 79 49 35 51 67 52 47 53 66 54
REMARK SMILES IDX 48 55 51 56 65 57 84 58 49 59 50 60 64 62 85 63 52 64 36 65
REMARK SMILES IDX 37 66 45 67 38 68 39 69 43 70 46 71 40 72 41 73 44 74 42 75
REMARK SMILES IDX 68 76 69 77 77 78 70 79 71 80 75 81 78 82 72 83 73 84 76 85
REMARK SMILES IDX 74 86 53 87 54 88 62 89 55 90 56 91 60 92 63 93 57 94 58 95
REMARK SMILES IDX 61 96 59 97
REMARK H PARENT 83 50 51 61
REMARK Flexibility Score: inf
ROOT
ATOM      1  C   UNL A   1      31.700  30.783  26.229  1.00  0.00     0.188 C 
ENDROOT
BRANCH   1   2
ATOM      2  C   UNL A   1      31.995  29.587  27.158  1.00  0.00     0.188 C 
BRANCH   2   3
ATOM      3  O   UNL A   1      33.320  29.187  27.458  1.00  0.00    -0.376 OA
BRANCH   3   4
ATOM      4  C   UNL A   1      34.192  28.735  26.432  1.00  0.00     0.202 C 
BRANCH   4   5
ATOM      5  C   UNL A   1      33.610  28.003  25.225  1.00  0.00     0.261 C 
BRANCH   5   6
ATOM      6  O   UNL A   1      33.609  26.580  25.396  1.00  0.00    -0.460 OA
BRANCH   6   7
ATOM      7  C   UNL A   1      33.701  25.870  24.249  1.00  0.00     0.338 C 
ATOM      8  O   UNL A   1      34.034  26.289  23.151  1.00  0.00    -0.246 OA
BRANCH   7   9
ATOM      9  C   UNL A   1      33.481  24.443  24.531  1.00  0.00     0.087 C 
ATOM     10  C   UNL A   1      34.156  19.456  24.811  1.00  0.00    -0.023 A 
ATOM     11  C   UNL A   1      33.036  20.328  24.848  1.00  0.00     0.052 A 
ATOM     12  C   UNL A   1      35.424  20.056  24.909  1.00  0.00     0.045 A 
ATOM     13  C   UNL A   1      33.169  21.718  24.843  1.00  0.00     0.128 A 
ATOM     14  C   UNL A   1      35.553  21.455  24.929  1.00  0.00     0.032 A 
ATOM     15  Cl  UNL A   1      36.927  19.211  25.000  1.00  0.00    -0.084 Cl
ATOM     16  C   UNL A   1      34.434  22.282  24.848  1.00  0.00     0.019 A 
ATOM     17  O   UNL A   1      32.012  22.443  24.805  1.00  0.00    -0.475 OA
ATOM     18  C   UNL A   1      34.591  23.714  24.694  1.00  0.00     0.027 C 
ATOM     19  C   UNL A   1      32.086  23.883  24.588  1.00  0.00     0.316 C 
BRANCH  10  20
ATOM     20  C   UNL A   1      33.830  17.971  24.618  1.00  0.00     0.014 C 
ATOM     21  C   UNL A   1      32.372  17.695  25.044  1.00  0.00     0.012 C 
ATOM     22  C   UNL A   1      34.028  17.322  23.246  1.00  0.00     0.012 C 
ENDBRANCH  10  20
BRANCH  19  23
ATOM     23  C   UNL A   1      31.260  24.233  23.341  1.00  0.00     0.430 C 
ATOM     24  F   UNL A   1      32.030  24.245  22.228  1.00  0.00    -0.167 F 
ATOM     25  F   UNL A   1      30.277  23.327  23.122  1.00  0.00    -0.167 F 
ATOM     26  F   UNL A   1      30.675  25.446  23.447  1.00  0.00    -0.167 F 
ENDBRANCH  19  23
ENDBRANCH   7   9
ENDBRANCH   6   7
ENDBRANCH   5   6
ENDBRANCH   4   5
ENDBRANCH   3   4
ENDBRANCH   2   3
ENDBRANCH   1   2
BRANCH   1  27
ATOM     27  O   UNL A   1      31.588  32.096  26.746  1.00  0.00    -0.376 OA
BRANCH  27  28
ATOM     28  C   UNL A   1      32.627  32.611  27.569  1.00  0.00     0.202 C 
BRANCH  28  29
ATOM     29  C   UNL A   1      32.938  34.105  27.512  1.00  0.00     0.261 C 
BRANCH  29  30
ATOM     30  O   UNL A   1      32.353  34.822  28.611  1.00  0.00    -0.460 OA
BRANCH  30  31
ATOM     31  C   UNL A   1      33.220  35.555  29.351  1.00  0.00     0.338 C 
ATOM     32  O   UNL A   1      33.062  36.683  29.779  1.00  0.00    -0.246 OA
BRANCH  31  33
ATOM     33  C   UNL A   1      34.351  34.697  29.750  1.00  0.00     0.060 A 
ATOM     34  C   UNL A   1      35.595  34.799  29.125  1.00  0.00     0.016 A 
ATOM     35  C   UNL A   1      34.147  33.782  30.790  1.00  0.00     0.016 A 
ATOM     36  C   UNL A   1      36.652  34.003  29.571  1.00  0.00     0.010 A 
ATOM     37  C   UNL A   1      35.199  32.977  31.225  1.00  0.00     0.010 A 
ATOM     38  C   UNL A   1      36.464  33.099  30.632  1.00  0.00    -0.014 A 
BRANCH  38  39
ATOM     39  C   UNL A   1      37.625  32.390  31.216  1.00  0.00     0.031 A 
ATOM     40  C   UNL A   1      38.147  32.725  32.577  1.00  0.00     0.074 A 
ATOM     41  C   UNL A   1      38.217  31.432  30.480  1.00  0.00     0.049 A 
ATOM     42  N   UNL A   1      39.102  32.140  33.256  1.00  0.00    -0.248 NA
ATOM     43  C   UNL A   1      37.524  33.863  33.265  1.00  0.00     0.031 C 
ATOM     44  C   UNL A   1      37.813  31.045  29.128  1.00  0.00     0.029 A 
ATOM     45  N   UNL A   1      39.275  30.608  30.763  1.00  0.00    -0.354 N 
ATOM     46  C   UNL A   1      39.177  32.817  34.464  1.00  0.00     0.074 A 
ATOM     47  C   UNL A   1      38.205  33.892  34.404  1.00  0.00     0.031 C 
ATOM     48  C   UNL A   1      38.602  30.046  28.705  1.00  0.00     0.029 A 
ATOM     49  C   UNL A   1      39.573  29.733  29.750  1.00  0.00     0.049 A 
ATOM     50  H   UNL A   1      39.774  30.642  31.612  1.00  0.00     0.167 HD
ATOM     51  C   UNL A   1      39.970  32.547  35.529  1.00  0.00     0.037 A 
ATOM     52  C   UNL A   1      40.516  28.775  29.675  1.00  0.00     0.037 A 
ATOM     53  C   UNL A   1      40.949  31.489  35.572  1.00  0.00     0.049 A 
ATOM     54  C   UNL A   1      41.418  28.534  30.851  1.00  0.00     0.074 A 
ATOM     55  C   UNL A   1      41.763  31.111  36.626  1.00  0.00     0.029 A 
ATOM     56  N   UNL A   1      41.259  30.652  34.511  1.00  0.00    -0.354 N 
ATOM     57  N   UNL A   1      41.425  29.124  32.021  1.00  0.00    -0.248 NA
ATOM     58  C   UNL A   1      42.439  27.489  30.697  1.00  0.00     0.031 C 
ATOM     59  C   UNL A   1      42.601  30.079  36.187  1.00  0.00     0.029 A 
ATOM     60  C   UNL A   1      42.277  29.782  34.874  1.00  0.00     0.049 A 
ATOM     61  H   UNL A   1      40.823  30.673  33.629  1.00  0.00     0.167 HD
ATOM     62  C   UNL A   1      42.438  28.515  32.748  1.00  0.00     0.074 A 
ATOM     63  C   UNL A   1      43.010  27.495  31.894  1.00  0.00     0.031 C 
ATOM     64  C   UNL A   1      42.854  28.781  34.010  1.00  0.00     0.037 A 
BRANCH  51  65
ATOM     65  C   UNL A   1      39.805  33.398  36.754  1.00  0.00     0.064 A 
ATOM     66  C   UNL A   1      40.525  34.593  36.908  1.00  0.00     0.173 A 
ATOM     67  C   UNL A   1      38.865  33.065  37.740  1.00  0.00     0.173 A 
ATOM     68  F   UNL A   1      41.438  34.954  35.995  1.00  0.00    -0.203 F 
ATOM     69  C   UNL A   1      40.318  35.415  38.013  1.00  0.00     0.198 A 
ATOM     70  C   UNL A   1      38.644  33.902  38.830  1.00  0.00     0.198 A 
ATOM     71  F   UNL A   1      38.145  31.938  37.633  1.00  0.00    -0.203 F 
ATOM     72  F   UNL A   1      41.034  36.539  38.152  1.00  0.00    -0.200 F 
ATOM     73  C   UNL A   1      39.372  35.074  38.968  1.00  0.00     0.200 A 
ATOM     74  F   UNL A   1      37.720  33.578  39.745  1.00  0.00    -0.200 F 
ATOM     75  F   UNL A   1      39.163  35.875  40.021  1.00  0.00    -0.200 F 
ENDBRANCH  51  65
BRANCH  52  76
ATOM     76  C   UNL A   1      40.612  27.945  28.449  1.00  0.00     0.064 A 
ATOM     77  C   UNL A   1      41.391  28.363  27.363  1.00  0.00     0.173 A 
ATOM     78  C   UNL A   1      39.962  26.707  28.355  1.00  0.00     0.173 A 
ATOM     79  F   UNL A   1      42.015  29.550  27.405  1.00  0.00    -0.203 F 
ATOM     80  C   UNL A   1      41.514  27.573  26.223  1.00  0.00     0.198 A 
ATOM     81  C   UNL A   1      40.104  25.908  27.223  1.00  0.00     0.198 A 
ATOM     82  F   UNL A   1      39.210  26.264  29.372  1.00  0.00    -0.203 F 
ATOM     83  F   UNL A   1      42.245  28.006  25.187  1.00  0.00    -0.200 F 
ATOM     84  C   UNL A   1      40.877  26.343  26.158  1.00  0.00     0.200 A 
ATOM     85  F   UNL A   1      39.499  24.713  27.169  1.00  0.00    -0.200 F 
ATOM     86  F   UNL A   1      41.007  25.577  25.066  1.00  0.00    -0.200 F 
ENDBRANCH  52  76
BRANCH  64  87
ATOM     87  C   UNL A   1      43.992  27.962  34.545  1.00  0.00     0.064 A 
ATOM     88  C   UNL A   1      43.770  26.734  35.184  1.00  0.00     0.173 A 
ATOM     89  C   UNL A   1      45.320  28.386  34.381  1.00  0.00     0.173 A 
ATOM     90  F   UNL A   1      42.518  26.292  35.380  1.00  0.00    -0.203 F 
ATOM     91  C   UNL A   1      44.833  25.969  35.657  1.00  0.00     0.198 A 
ATOM     92  C   UNL A   1      46.382  27.606  34.830  1.00  0.00     0.198 A 
ATOM     93  F   UNL A   1      45.587  29.551  33.773  1.00  0.00    -0.203 F 
ATOM     94  F   UNL A   1      44.594  24.818  36.302  1.00  0.00    -0.200 F 
ATOM     95  C   UNL A   1      46.138  26.402  35.474  1.00  0.00     0.200 A 
ATOM     96  F   UNL A   1      47.643  28.020  34.642  1.00  0.00    -0.200 F 
ATOM     97  F   UNL A   1      47.161  25.660  35.922  1.00  0.00    -0.200 F 
ENDBRANCH  64  87
ENDBRANCH  38  39
ENDBRANCH  31  33
ENDBRANCH  30  31
ENDBRANCH  29  30
ENDBRANCH  28  29
ENDBRANCH  27  28
ENDBRANCH   1  27
TORSDOF 19
ENDMDL
