MODEL 1
REMARK VINA RESULT:      -9.8      0.000      0.000
REMARK SMILES Cc1c(C(=O)OCCOCCOCCOC(=O)c2ccc(-c3c4nc(c(-c5c(F)c(F)c(F)c(F)c5F)c5ccc([nH]5)c(-c5c(F)c(F)c(F)c(F)c5F)c5nc(c(-c6c(F)c(F)c(F)c(F)c6F)c6ccc3[nH]6)C=C5)C=C4)cc2)ccc2c1N[C@@H](c1ccc(S(=O)(=O)N3CCOCC3)cc1)[C@@H]1CC=C[C@H]21
REMARK SMILES IDX 10 1 9 2 8 3 7 4 6 5 4 6 5 7 3 8 1 9 2 10 84 11 81 12 83 13
REMARK SMILES IDX 85 14 82 15 106 16 86 17 102 19 105 20 103 21 104 22 87 23
REMARK SMILES IDX 88 24 101 25 89 26 100 27 90 28 91 29 92 30 93 31 94 32
REMARK SMILES IDX 95 33 99 34 96 35 98 36 97 37 11 38 12 39 13 40 14 41 15 42
REMARK SMILES IDX 16 43 17 44 18 45 19 46 80 47 20 48 79 49 21 50 22 51 23 52
REMARK SMILES IDX 73 53 24 54 78 55 72 56 74 57 25 58 77 59 71 60 70 61 26 63
REMARK SMILES IDX 58 64 38 65 57 66 39 67 42 68 56 69 75 70 40 71 41 72 55 74
REMARK SMILES IDX 76 75 43 76 27 77 28 78 36 79 29 80 30 81 34 82 37 83 31 84
REMARK SMILES IDX 32 85 35 86 33 87 59 88 60 89 68 90 61 91 62 92 66 93 69 94
REMARK SMILES IDX 63 95 64 96 67 97 65 98 44 99 45 100 53 101 46 102 47 103
REMARK SMILES IDX 51 104 54 105 48 106 49 107 52 108 50 109
REMARK H PARENT 85 18 74 62 42 73
REMARK Flexibility Score: inf
ROOT
ATOM      1  C   UNL A   1      42.497  22.601  26.277  1.00  0.00     0.188 C 
ENDROOT
BRANCH   1   2
ATOM      2  O   UNL A   1      42.188  23.310  27.459  1.00  0.00    -0.376 OA
BRANCH   2   3
ATOM      3  C   UNL A   1      40.850  23.669  27.762  1.00  0.00     0.202 C 
BRANCH   3   4
ATOM      4  C   UNL A   1      39.895  24.274  26.727  1.00  0.00     0.261 C 
BRANCH   4   5
ATOM      5  O   UNL A   1      39.367  25.551  27.083  1.00  0.00    -0.460 OA
BRANCH   5   6
ATOM      6  C   UNL A   1      40.262  26.568  27.112  1.00  0.00     0.338 C 
ATOM      7  O   UNL A   1      41.057  26.866  26.236  1.00  0.00    -0.246 OA
BRANCH   6   8
ATOM      8  C   UNL A   1      40.003  27.434  28.288  1.00  0.00     0.065 A 
ATOM      9  C   UNL A   1      39.060  29.327  26.876  1.00  0.00     0.047 C 
ATOM     10  C   UNL A   1      39.419  28.716  28.210  1.00  0.00    -0.013 A 
ATOM     11  C   UNL A   1      39.202  29.437  29.407  1.00  0.00     0.042 A 
ATOM     12  C   UNL A   1      40.396  26.899  29.523  1.00  0.00     0.016 A 
ATOM     13  C   UNL A   1      39.499  28.836  30.643  1.00  0.00    -0.017 A 
ATOM     14  N   UNL A   1      38.579  30.668  29.367  1.00  0.00    -0.377 N 
ATOM     15  C   UNL A   1      40.152  27.599  30.694  1.00  0.00     0.007 A 
ATOM     16  C   UNL A   1      39.016  29.439  31.928  1.00  0.00     0.049 C 
ATOM     17  C   UNL A   1      38.187  31.406  30.552  1.00  0.00     0.114 C 
ATOM     18  H   UNL A   1      38.394  31.067  28.486  1.00  0.00     0.161 HD
ATOM     19  C   UNL A   1      37.888  30.471  31.756  1.00  0.00     0.031 C 
ATOM     20  C   UNL A   1      40.014  30.196  32.761  1.00  0.00    -0.023 C 
ATOM     21  C   UNL A   1      37.928  31.173  33.132  1.00  0.00     0.034 C 
ATOM     22  C   UNL A   1      39.392  31.157  33.458  1.00  0.00    -0.030 C 
BRANCH  17  23
ATOM     23  C   UNL A   1      36.991  32.280  30.189  1.00  0.00    -0.025 A 
ATOM     24  C   UNL A   1      35.643  31.957  30.466  1.00  0.00     0.007 A 
ATOM     25  C   UNL A   1      37.248  33.482  29.543  1.00  0.00     0.007 A 
ATOM     26  C   UNL A   1      34.595  32.822  30.106  1.00  0.00     0.022 A 
ATOM     27  C   UNL A   1      36.220  34.363  29.269  1.00  0.00     0.022 A 
ATOM     28  C   UNL A   1      34.897  34.046  29.515  1.00  0.00     0.082 A 
BRANCH  28  29
ATOM     29  S   UNL A   1      33.605  35.178  29.050  1.00  0.00     0.243 S 
ATOM     30  O   UNL A   1      34.242  36.211  28.262  1.00  0.00    -0.207 OA
ATOM     31  O   UNL A   1      32.529  34.369  28.519  1.00  0.00    -0.207 OA
BRANCH  29  32
ATOM     32  N   UNL A   1      33.065  35.883  30.481  1.00  0.00    -0.193 NA
ATOM     33  C   UNL A   1      33.278  37.312  30.798  1.00  0.00     0.131 C 
ATOM     34  C   UNL A   1      32.533  35.087  31.604  1.00  0.00     0.131 C 
ATOM     35  C   UNL A   1      34.028  37.501  32.128  1.00  0.00     0.177 C 
ATOM     36  C   UNL A   1      33.357  35.310  32.875  1.00  0.00     0.177 C 
ATOM     37  O   UNL A   1      33.505  36.701  33.198  1.00  0.00    -0.379 OA
ENDBRANCH  29  32
ENDBRANCH  28  29
ENDBRANCH  17  23
ENDBRANCH   6   8
ENDBRANCH   5   6
ENDBRANCH   4   5
ENDBRANCH   3   4
ENDBRANCH   2   3
ENDBRANCH   1   2
BRANCH   1  38
ATOM     38  C   UNL A   1      42.984  23.348  25.015  1.00  0.00     0.188 C 
BRANCH  38  39
ATOM     39  O   UNL A   1      43.953  22.772  24.167  1.00  0.00    -0.376 OA
BRANCH  39  40
ATOM     40  C   UNL A   1      45.309  22.727  24.576  1.00  0.00     0.202 C 
BRANCH  40  41
ATOM     41  C   UNL A   1      46.119  23.974  24.975  1.00  0.00     0.261 C 
BRANCH  41  42
ATOM     42  O   UNL A   1      45.552  25.243  24.626  1.00  0.00    -0.460 OA
BRANCH  42  43
ATOM     43  C   UNL A   1      46.409  26.292  24.655  1.00  0.00     0.338 C 
ATOM     44  O   UNL A   1      47.392  26.477  23.952  1.00  0.00    -0.246 OA
BRANCH  43  45
ATOM     45  C   UNL A   1      45.893  27.310  25.584  1.00  0.00     0.060 A 
ATOM     46  C   UNL A   1      46.797  28.025  26.385  1.00  0.00     0.016 A 
ATOM     47  C   UNL A   1      44.520  27.516  25.701  1.00  0.00     0.016 A 
ATOM     48  C   UNL A   1      46.326  28.954  27.310  1.00  0.00     0.010 A 
ATOM     49  C   UNL A   1      44.047  28.413  26.662  1.00  0.00     0.010 A 
ATOM     50  C   UNL A   1      44.947  29.113  27.486  1.00  0.00    -0.014 A 
BRANCH  50  51
ATOM     51  C   UNL A   1      44.435  29.820  28.681  1.00  0.00     0.031 A 
ATOM     52  C   UNL A   1      44.277  31.312  28.601  1.00  0.00     0.074 A 
ATOM     53  C   UNL A   1      44.128  29.163  29.811  1.00  0.00     0.049 A 
ATOM     54  N   UNL A   1      43.958  32.167  29.537  1.00  0.00    -0.248 NA
ATOM     55  C   UNL A   1      44.510  31.922  27.280  1.00  0.00     0.031 C 
ATOM     56  C   UNL A   1      44.171  27.714  29.987  1.00  0.00     0.029 A 
ATOM     57  N   UNL A   1      43.729  29.643  31.034  1.00  0.00    -0.354 N 
ATOM     58  C   UNL A   1      43.950  33.411  28.920  1.00  0.00     0.074 A 
ATOM     59  C   UNL A   1      44.318  33.206  27.537  1.00  0.00     0.031 C 
ATOM     60  C   UNL A   1      43.834  27.422  31.256  1.00  0.00     0.029 A 
ATOM     61  C   UNL A   1      43.590  28.665  31.987  1.00  0.00     0.049 A 
ATOM     62  H   UNL A   1      43.558  30.597  31.210  1.00  0.00     0.167 HD
ATOM     63  C   UNL A   1      43.658  34.616  29.460  1.00  0.00     0.037 A 
ATOM     64  C   UNL A   1      43.328  28.773  33.304  1.00  0.00     0.037 A 
ATOM     65  C   UNL A   1      43.323  34.821  30.844  1.00  0.00     0.049 A 
ATOM     66  C   UNL A   1      43.123  30.140  33.910  1.00  0.00     0.074 A 
ATOM     67  C   UNL A   1      43.031  36.006  31.494  1.00  0.00     0.029 A 
ATOM     68  N   UNL A   1      43.246  33.813  31.794  1.00  0.00    -0.354 N 
ATOM     69  N   UNL A   1      43.121  31.315  33.327  1.00  0.00    -0.248 NA
ATOM     70  C   UNL A   1      42.890  30.194  35.361  1.00  0.00     0.031 C 
ATOM     71  C   UNL A   1      42.831  35.723  32.848  1.00  0.00     0.029 A 
ATOM     72  C   UNL A   1      42.935  34.354  33.031  1.00  0.00     0.049 A 
ATOM     73  H   UNL A   1      43.391  32.855  31.616  1.00  0.00     0.167 HD
ATOM     74  C   UNL A   1      42.860  32.242  34.330  1.00  0.00     0.074 A 
ATOM     75  C   UNL A   1      42.691  31.491  35.556  1.00  0.00     0.031 C 
ATOM     76  C   UNL A   1      42.769  33.593  34.244  1.00  0.00     0.037 A 
BRANCH  63  77
ATOM     77  C   UNL A   1      43.717  35.812  28.558  1.00  0.00     0.064 A 
ATOM     78  C   UNL A   1      42.567  36.313  27.928  1.00  0.00     0.173 A 
ATOM     79  C   UNL A   1      44.927  36.494  28.357  1.00  0.00     0.173 A 
ATOM     80  F   UNL A   1      41.391  35.684  28.072  1.00  0.00    -0.203 F 
ATOM     81  C   UNL A   1      42.630  37.445  27.121  1.00  0.00     0.198 A 
ATOM     82  C   UNL A   1      44.979  37.643  27.574  1.00  0.00     0.198 A 
ATOM     83  F   UNL A   1      46.055  36.053  28.934  1.00  0.00    -0.203 F 
ATOM     84  F   UNL A   1      41.527  37.885  26.500  1.00  0.00    -0.200 F 
ATOM     85  C   UNL A   1      43.832  38.115  26.954  1.00  0.00     0.200 A 
ATOM     86  F   UNL A   1      46.139  38.296  27.422  1.00  0.00    -0.200 F 
ATOM     87  F   UNL A   1      43.887  39.216  26.191  1.00  0.00    -0.200 F 
ENDBRANCH  63  77
BRANCH  64  88
ATOM     88  C   UNL A   1      43.251  27.552  34.150  1.00  0.00     0.064 A 
ATOM     89  C   UNL A   1      44.412  26.963  34.671  1.00  0.00     0.173 A 
ATOM     90  C   UNL A   1      42.023  26.941  34.445  1.00  0.00     0.173 A 
ATOM     91  F   UNL A   1      45.612  27.491  34.390  1.00  0.00    -0.203 F 
ATOM     92  C   UNL A   1      44.349  25.806  35.445  1.00  0.00     0.198 A 
ATOM     93  C   UNL A   1      41.958  25.801  35.243  1.00  0.00     0.198 A 
ATOM     94  F   UNL A   1      40.882  27.457  33.963  1.00  0.00    -0.203 F 
ATOM     95  F   UNL A   1      45.478  25.240  35.891  1.00  0.00    -0.200 F 
ATOM     96  C   UNL A   1      43.122  25.230  35.738  1.00  0.00     0.200 A 
ATOM     97  F   UNL A   1      40.770  25.252  35.530  1.00  0.00    -0.200 F 
ATOM     98  F   UNL A   1      43.061  24.122  36.488  1.00  0.00    -0.200 F 
ENDBRANCH  64  88
BRANCH  76  99
ATOM     99  C   UNL A   1      42.447  34.351  35.502  1.00  0.00     0.064 A 
ATOM    100  C   UNL A   1      43.442  34.997  36.249  1.00  0.00     0.173 A 
ATOM    101  C   UNL A   1      41.116  34.479  35.934  1.00  0.00     0.173 A 
ATOM    102  F   UNL A   1      44.730  34.898  35.885  1.00  0.00    -0.203 F 
ATOM    103  C   UNL A   1      43.123  35.717  37.397  1.00  0.00     0.198 A 
ATOM    104  C   UNL A   1      40.797  35.230  37.062  1.00  0.00     0.198 A 
ATOM    105  F   UNL A   1      40.123  33.893  35.249  1.00  0.00    -0.203 F 
ATOM    106  F   UNL A   1      44.096  36.283  38.124  1.00  0.00    -0.200 F 
ATOM    107  C   UNL A   1      41.800  35.841  37.798  1.00  0.00     0.200 A 
ATOM    108  F   UNL A   1      39.516  35.365  37.435  1.00  0.00    -0.200 F 
ATOM    109  F   UNL A   1      41.494  36.544  38.897  1.00  0.00    -0.200 F 
ENDBRANCH  76  99
ENDBRANCH  50  51
ENDBRANCH  43  45
ENDBRANCH  42  43
ENDBRANCH  41  42
ENDBRANCH  40  41
ENDBRANCH  39  40
ENDBRANCH  38  39
ENDBRANCH   1  38
TORSDOF 20
ENDMDL
MODEL 2
REMARK VINA RESULT:      -8.4      5.389      9.114
REMARK SMILES Cc1c(C(=O)OCCOCCOCCOC(=O)c2ccc(-c3c4nc(c(-c5c(F)c(F)c(F)c(F)c5F)c5ccc([nH]5)c(-c5c(F)c(F)c(F)c(F)c5F)c5nc(c(-c6c(F)c(F)c(F)c(F)c6F)c6ccc3[nH]6)C=C5)C=C4)cc2)ccc2c1N[C@@H](c1ccc(S(=O)(=O)N3CCOCC3)cc1)[C@@H]1CC=C[C@H]21
REMARK SMILES IDX 10 1 9 2 8 3 7 4 6 5 4 6 5 7 3 8 1 9 2 10 84 11 81 12 83 13
REMARK SMILES IDX 85 14 82 15 106 16 86 17 102 19 105 20 103 21 104 22 87 23
REMARK SMILES IDX 88 24 101 25 89 26 100 27 90 28 91 29 92 30 93 31 94 32
REMARK SMILES IDX 95 33 99 34 96 35 98 36 97 37 11 38 12 39 13 40 14 41 15 42
REMARK SMILES IDX 16 43 17 44 18 45 19 46 80 47 20 48 79 49 21 50 22 51 23 52
REMARK SMILES IDX 73 53 24 54 78 55 72 56 74 57 25 58 77 59 71 60 70 61 26 63
REMARK SMILES IDX 58 64 38 65 57 66 39 67 42 68 56 69 75 70 40 71 41 72 55 74
REMARK SMILES IDX 76 75 43 76 27 77 28 78 36 79 29 80 30 81 34 82 37 83 31 84
REMARK SMILES IDX 32 85 35 86 33 87 59 88 60 89 68 90 61 91 62 92 66 93 69 94
REMARK SMILES IDX 63 95 64 96 67 97 65 98 44 99 45 100 53 101 46 102 47 103
REMARK SMILES IDX 51 104 54 105 48 106 49 107 52 108 50 109
REMARK H PARENT 85 18 74 62 42 73
REMARK Flexibility Score: inf
ROOT
ATOM      1  C   UNL A   1      49.969  19.940  37.725  1.00  0.00     0.188 C 
ENDROOT
BRANCH   1   2
ATOM      2  O   UNL A   1      49.479  20.631  36.594  1.00  0.00    -0.376 OA
BRANCH   2   3
ATOM      3  C   UNL A   1      48.137  20.465  36.168  1.00  0.00     0.202 C 
BRANCH   3   4
ATOM      4  C   UNL A   1      46.991  21.358  36.654  1.00  0.00     0.261 C 
BRANCH   4   5
ATOM      5  O   UNL A   1      46.638  22.411  35.759  1.00  0.00    -0.460 OA
BRANCH   5   6
ATOM      6  C   UNL A   1      45.508  22.215  35.038  1.00  0.00     0.338 C 
ATOM      7  O   UNL A   1      45.082  21.150  34.623  1.00  0.00    -0.246 OA
BRANCH   6   8
ATOM      8  C   UNL A   1      44.714  23.468  34.994  1.00  0.00     0.065 A 
ATOM      9  C   UNL A   1      45.646  24.156  32.731  1.00  0.00     0.047 C 
ATOM     10  C   UNL A   1      44.739  24.379  33.917  1.00  0.00    -0.013 A 
ATOM     11  C   UNL A   1      43.919  25.529  33.982  1.00  0.00     0.042 A 
ATOM     12  C   UNL A   1      43.921  23.713  36.123  1.00  0.00     0.016 A 
ATOM     13  C   UNL A   1      43.046  25.699  35.072  1.00  0.00    -0.017 A 
ATOM     14  N   UNL A   1      43.879  26.408  32.919  1.00  0.00    -0.377 N 
ATOM     15  C   UNL A   1      43.097  24.827  36.166  1.00  0.00     0.007 A 
ATOM     16  C   UNL A   1      41.963  26.735  35.037  1.00  0.00     0.049 C 
ATOM     17  C   UNL A   1      42.960  27.528  32.840  1.00  0.00     0.114 C 
ATOM     18  H   UNL A   1      44.509  26.268  32.176  1.00  0.00     0.161 HD
ATOM     19  C   UNL A   1      41.648  27.270  33.629  1.00  0.00     0.031 C 
ATOM     20  C   UNL A   1      42.185  28.002  35.816  1.00  0.00    -0.023 C 
ATOM     21  C   UNL A   1      40.854  28.549  33.979  1.00  0.00     0.034 C 
ATOM     22  C   UNL A   1      41.536  29.018  35.230  1.00  0.00    -0.030 C 
BRANCH  17  23
ATOM     23  C   UNL A   1      42.700  27.821  31.366  1.00  0.00    -0.025 A 
ATOM     24  C   UNL A   1      41.795  28.794  30.887  1.00  0.00     0.007 A 
ATOM     25  C   UNL A   1      43.409  27.080  30.430  1.00  0.00     0.007 A 
ATOM     26  C   UNL A   1      41.616  29.012  29.509  1.00  0.00     0.022 A 
ATOM     27  C   UNL A   1      43.290  27.358  29.082  1.00  0.00     0.022 A 
ATOM     28  C   UNL A   1      42.390  28.292  28.602  1.00  0.00     0.082 A 
BRANCH  28  29
ATOM     29  S   UNL A   1      42.207  28.538  26.850  1.00  0.00     0.243 S 
ATOM     30  O   UNL A   1      40.978  29.280  26.675  1.00  0.00    -0.207 OA
ATOM     31  O   UNL A   1      43.478  29.047  26.377  1.00  0.00    -0.207 OA
BRANCH  29  32
ATOM     32  N   UNL A   1      41.983  27.008  26.183  1.00  0.00    -0.193 NA
ATOM     33  C   UNL A   1      40.780  26.189  26.447  1.00  0.00     0.131 C 
ATOM     34  C   UNL A   1      43.056  26.292  25.466  1.00  0.00     0.131 C 
ATOM     35  C   UNL A   1      41.137  24.814  27.038  1.00  0.00     0.177 C 
ATOM     36  C   UNL A   1      43.369  24.953  26.139  1.00  0.00     0.177 C 
ATOM     37  O   UNL A   1      42.196  24.148  26.336  1.00  0.00    -0.379 OA
ENDBRANCH  29  32
ENDBRANCH  28  29
ENDBRANCH  17  23
ENDBRANCH   6   8
ENDBRANCH   5   6
ENDBRANCH   4   5
ENDBRANCH   3   4
ENDBRANCH   2   3
ENDBRANCH   1   2
BRANCH   1  38
ATOM     38  C   UNL A   1      51.026  18.824  37.572  1.00  0.00     0.188 C 
BRANCH  38  39
ATOM     39  O   UNL A   1      51.663  18.601  36.334  1.00  0.00    -0.376 OA
BRANCH  39  40
ATOM     40  C   UNL A   1      52.760  19.412  35.952  1.00  0.00     0.202 C 
BRANCH  40  41
ATOM     41  C   UNL A   1      53.383  19.393  34.545  1.00  0.00     0.261 C 
BRANCH  41  42
ATOM     42  O   UNL A   1      52.529  19.783  33.462  1.00  0.00    -0.460 OA
BRANCH  42  43
ATOM     43  C   UNL A   1      52.878  20.927  32.825  1.00  0.00     0.338 C 
ATOM     44  O   UNL A   1      53.735  21.074  31.965  1.00  0.00    -0.246 OA
BRANCH  43  45
ATOM     45  C   UNL A   1      51.946  21.998  33.210  1.00  0.00     0.060 A 
ATOM     46  C   UNL A   1      50.594  21.684  33.419  1.00  0.00     0.016 A 
ATOM     47  C   UNL A   1      52.396  23.313  33.308  1.00  0.00     0.016 A 
ATOM     48  C   UNL A   1      49.684  22.692  33.731  1.00  0.00     0.010 A 
ATOM     49  C   UNL A   1      51.474  24.328  33.573  1.00  0.00     0.010 A 
ATOM     50  C   UNL A   1      50.113  24.024  33.759  1.00  0.00    -0.014 A 
BRANCH  50  51
ATOM     51  C   UNL A   1      49.117  25.118  33.739  1.00  0.00     0.031 A 
ATOM     52  C   UNL A   1      48.811  25.767  32.419  1.00  0.00     0.074 A 
ATOM     53  C   UNL A   1      48.504  25.534  34.860  1.00  0.00     0.049 A 
ATOM     54  N   UNL A   1      48.067  26.809  32.156  1.00  0.00    -0.248 NA
ATOM     55  C   UNL A   1      49.430  25.152  31.232  1.00  0.00     0.031 C 
ATOM     56  C   UNL A   1      48.664  24.937  36.183  1.00  0.00     0.029 A 
ATOM     57  N   UNL A   1      47.629  26.573  35.058  1.00  0.00    -0.354 N 
ATOM     58  C   UNL A   1      48.127  26.973  30.779  1.00  0.00     0.074 A 
ATOM     59  C   UNL A   1      48.997  25.940  30.261  1.00  0.00     0.031 C 
ATOM     60  C   UNL A   1      47.926  25.637  37.064  1.00  0.00     0.029 A 
ATOM     61  C   UNL A   1      47.278  26.751  36.372  1.00  0.00     0.049 A 
ATOM     62  H   UNL A   1      47.287  27.137  34.326  1.00  0.00     0.167 HD
ATOM     63  C   UNL A   1      47.509  27.901  30.014  1.00  0.00     0.037 A 
ATOM     64  C   UNL A   1      46.542  27.722  36.947  1.00  0.00     0.037 A 
ATOM     65  C   UNL A   1      46.669  28.947  30.535  1.00  0.00     0.049 A 
ATOM     66  C   UNL A   1      45.960  28.817  36.087  1.00  0.00     0.074 A 
ATOM     67  C   UNL A   1      46.013  29.949  29.844  1.00  0.00     0.029 A 
ATOM     68  N   UNL A   1      46.379  29.129  31.879  1.00  0.00    -0.354 N 
ATOM     69  N   UNL A   1      46.021  28.974  34.787  1.00  0.00    -0.248 NA
ATOM     70  C   UNL A   1      45.208  29.875  36.779  1.00  0.00     0.031 C 
ATOM     71  C   UNL A   1      45.371  30.771  30.775  1.00  0.00     0.029 A 
ATOM     72  C   UNL A   1      45.573  30.244  32.040  1.00  0.00     0.049 A 
ATOM     73  H   UNL A   1      46.700  28.552  32.610  1.00  0.00     0.167 HD
ATOM     74  C   UNL A   1      45.297  30.126  34.502  1.00  0.00     0.074 A 
ATOM     75  C   UNL A   1      44.789  30.620  35.765  1.00  0.00     0.031 C 
ATOM     76  C   UNL A   1      45.074  30.723  33.305  1.00  0.00     0.037 A 
BRANCH  63  77
ATOM     77  C   UNL A   1      47.740  27.846  28.534  1.00  0.00     0.064 A 
ATOM     78  C   UNL A   1      46.904  27.102  27.688  1.00  0.00     0.173 A 
ATOM     79  C   UNL A   1      48.782  28.581  27.948  1.00  0.00     0.173 A 
ATOM     80  F   UNL A   1      45.907  26.365  28.201  1.00  0.00    -0.203 F 
ATOM     81  C   UNL A   1      47.109  27.087  26.311  1.00  0.00     0.198 A 
ATOM     82  C   UNL A   1      48.965  28.588  26.569  1.00  0.00     0.198 A 
ATOM     83  F   UNL A   1      49.612  29.305  28.714  1.00  0.00    -0.203 F 
ATOM     84  F   UNL A   1      46.321  26.341  25.526  1.00  0.00    -0.200 F 
ATOM     85  C   UNL A   1      48.131  27.839  25.752  1.00  0.00     0.200 A 
ATOM     86  F   UNL A   1      49.947  29.323  26.029  1.00  0.00    -0.200 F 
ATOM     87  F   UNL A   1      48.316  27.838  24.425  1.00  0.00    -0.200 F 
ENDBRANCH  63  77
BRANCH  64  88
ATOM     88  C   UNL A   1      46.317  27.714  38.417  1.00  0.00     0.064 A 
ATOM     89  C   UNL A   1      45.250  26.998  38.978  1.00  0.00     0.173 A 
ATOM     90  C   UNL A   1      47.152  28.428  39.290  1.00  0.00     0.173 A 
ATOM     91  F   UNL A   1      44.405  26.327  38.182  1.00  0.00    -0.203 F 
ATOM     92  C   UNL A   1      45.021  27.004  40.352  1.00  0.00     0.198 A 
ATOM     93  C   UNL A   1      46.939  28.410  40.667  1.00  0.00     0.198 A 
ATOM     94  F   UNL A   1      48.182  29.138  38.805  1.00  0.00    -0.203 F 
ATOM     95  F   UNL A   1      43.967  26.348  40.855  1.00  0.00    -0.200 F 
ATOM     96  C   UNL A   1      45.870  27.703  41.197  1.00  0.00     0.200 A 
ATOM     97  F   UNL A   1      47.767  29.080  41.479  1.00  0.00    -0.200 F 
ATOM     98  F   UNL A   1      45.653  27.703  42.518  1.00  0.00    -0.200 F 
ENDBRANCH  64  88
BRANCH  76  99
ATOM     99  C   UNL A   1      44.222  31.962  33.292  1.00  0.00     0.064 A 
ATOM    100  C   UNL A   1      42.850  31.911  33.008  1.00  0.00     0.173 A 
ATOM    101  C   UNL A   1      44.777  33.210  33.622  1.00  0.00     0.173 A 
ATOM    102  F   UNL A   1      42.272  30.746  32.678  1.00  0.00    -0.203 F 
ATOM    103  C   UNL A   1      42.070  33.065  33.027  1.00  0.00     0.198 A 
ATOM    104  C   UNL A   1      43.987  34.356  33.675  1.00  0.00     0.198 A 
ATOM    105  F   UNL A   1      46.082  33.315  33.914  1.00  0.00    -0.203 F 
ATOM    106  F   UNL A   1      40.771  33.000  32.703  1.00  0.00    -0.200 F 
ATOM    107  C   UNL A   1      42.637  34.284  33.369  1.00  0.00     0.200 A 
ATOM    108  F   UNL A   1      44.533  35.528  34.025  1.00  0.00    -0.200 F 
ATOM    109  F   UNL A   1      41.882  35.392  33.398  1.00  0.00    -0.200 F 
ENDBRANCH  76  99
ENDBRANCH  50  51
ENDBRANCH  43  45
ENDBRANCH  42  43
ENDBRANCH  41  42
ENDBRANCH  40  41
ENDBRANCH  39  40
ENDBRANCH  38  39
ENDBRANCH   1  38
TORSDOF 20
ENDMDL
MODEL 3
REMARK VINA RESULT:      -8.4      4.772      9.048
REMARK SMILES Cc1c(C(=O)OCCOCCOCCOC(=O)c2ccc(-c3c4nc(c(-c5c(F)c(F)c(F)c(F)c5F)c5ccc([nH]5)c(-c5c(F)c(F)c(F)c(F)c5F)c5nc(c(-c6c(F)c(F)c(F)c(F)c6F)c6ccc3[nH]6)C=C5)C=C4)cc2)ccc2c1N[C@@H](c1ccc(S(=O)(=O)N3CCOCC3)cc1)[C@@H]1CC=C[C@H]21
REMARK SMILES IDX 10 1 9 2 8 3 7 4 6 5 4 6 5 7 3 8 1 9 2 10 84 11 81 12 83 13
REMARK SMILES IDX 85 14 82 15 106 16 86 17 102 19 105 20 103 21 104 22 87 23
REMARK SMILES IDX 88 24 101 25 89 26 100 27 90 28 91 29 92 30 93 31 94 32
REMARK SMILES IDX 95 33 99 34 96 35 98 36 97 37 11 38 12 39 13 40 14 41 15 42
REMARK SMILES IDX 16 43 17 44 18 45 19 46 80 47 20 48 79 49 21 50 22 51 23 52
REMARK SMILES IDX 73 53 24 54 78 55 72 56 74 57 25 58 77 59 71 60 70 61 26 63
REMARK SMILES IDX 58 64 38 65 57 66 39 67 42 68 56 69 75 70 40 71 41 72 55 74
REMARK SMILES IDX 76 75 43 76 27 77 28 78 36 79 29 80 30 81 34 82 37 83 31 84
REMARK SMILES IDX 32 85 35 86 33 87 59 88 60 89 68 90 61 91 62 92 66 93 69 94
REMARK SMILES IDX 63 95 64 96 67 97 65 98 44 99 45 100 53 101 46 102 47 103
REMARK SMILES IDX 51 104 54 105 48 106 49 107 52 108 50 109
REMARK H PARENT 85 18 74 62 42 73
REMARK Flexibility Score: inf
ROOT
ATOM      1  C   UNL A   1      44.818  22.639  23.989  1.00  0.00     0.188 C 
ENDROOT
BRANCH   1   2
ATOM      2  O   UNL A   1      44.645  21.481  24.778  1.00  0.00    -0.376 OA
BRANCH   2   3
ATOM      3  C   UNL A   1      43.525  21.349  25.638  1.00  0.00     0.202 C 
BRANCH   3   4
ATOM      4  C   UNL A   1      42.411  22.397  25.724  1.00  0.00     0.261 C 
BRANCH   4   5
ATOM      5  O   UNL A   1      41.108  21.905  25.414  1.00  0.00    -0.460 OA
BRANCH   5   6
ATOM      6  C   UNL A   1      40.346  21.550  26.477  1.00  0.00     0.338 C 
ATOM      7  O   UNL A   1      40.700  21.498  27.643  1.00  0.00    -0.246 OA
BRANCH   6   8
ATOM      8  C   UNL A   1      38.926  21.434  26.063  1.00  0.00     0.065 A 
ATOM      9  C   UNL A   1      38.384  23.831  26.714  1.00  0.00     0.047 C 
ATOM     10  C   UNL A   1      37.994  22.490  26.139  1.00  0.00    -0.013 A 
ATOM     11  C   UNL A   1      36.672  22.262  25.692  1.00  0.00     0.042 A 
ATOM     12  C   UNL A   1      38.543  20.171  25.591  1.00  0.00     0.016 A 
ATOM     13  C   UNL A   1      36.338  21.022  25.116  1.00  0.00    -0.017 A 
ATOM     14  N   UNL A   1      35.755  23.292  25.699  1.00  0.00    -0.377 N 
ATOM     15  C   UNL A   1      37.253  19.964  25.127  1.00  0.00     0.007 A 
ATOM     16  C   UNL A   1      35.049  20.842  24.372  1.00  0.00     0.049 C 
ATOM     17  C   UNL A   1      34.427  23.186  25.125  1.00  0.00     0.114 C 
ATOM     18  H   UNL A   1      36.015  24.144  26.118  1.00  0.00     0.161 HD
ATOM     19  C   UNL A   1      34.369  22.159  23.961  1.00  0.00     0.031 C 
ATOM     20  C   UNL A   1      33.935  20.115  25.074  1.00  0.00    -0.023 C 
ATOM     21  C   UNL A   1      32.946  21.656  23.628  1.00  0.00     0.034 C 
ATOM     22  C   UNL A   1      32.750  20.558  24.631  1.00  0.00    -0.030 C 
BRANCH  17  23
ATOM     23  C   UNL A   1      33.989  24.581  24.687  1.00  0.00    -0.025 A 
ATOM     24  C   UNL A   1      34.054  25.066  23.362  1.00  0.00     0.007 A 
ATOM     25  C   UNL A   1      33.487  25.431  25.663  1.00  0.00     0.007 A 
ATOM     26  C   UNL A   1      33.623  26.364  23.036  1.00  0.00     0.022 A 
ATOM     27  C   UNL A   1      32.988  26.672  25.320  1.00  0.00     0.022 A 
ATOM     28  C   UNL A   1      33.069  27.165  24.031  1.00  0.00     0.082 A 
BRANCH  28  29
ATOM     29  S   UNL A   1      32.500  28.811  23.666  1.00  0.00     0.243 S 
ATOM     30  O   UNL A   1      32.178  29.416  24.940  1.00  0.00    -0.207 OA
ATOM     31  O   UNL A   1      33.481  29.390  22.773  1.00  0.00    -0.207 OA
BRANCH  29  32
ATOM     32  N   UNL A   1      31.063  28.628  22.807  1.00  0.00    -0.193 NA
ATOM     33  C   UNL A   1      30.424  29.742  22.072  1.00  0.00     0.131 C 
ATOM     34  C   UNL A   1      30.233  27.411  22.902  1.00  0.00     0.131 C 
ATOM     35  C   UNL A   1      28.979  29.986  22.539  1.00  0.00     0.177 C 
ATOM     36  C   UNL A   1      28.825  27.742  23.405  1.00  0.00     0.177 C 
ATOM     37  O   UNL A   1      28.200  28.786  22.643  1.00  0.00    -0.379 OA
ENDBRANCH  29  32
ENDBRANCH  28  29
ENDBRANCH  17  23
ENDBRANCH   6   8
ENDBRANCH   5   6
ENDBRANCH   4   5
ENDBRANCH   3   4
ENDBRANCH   2   3
ENDBRANCH   1   2
BRANCH   1  38
ATOM     38  C   UNL A   1      45.172  23.994  24.642  1.00  0.00     0.188 C 
BRANCH  38  39
ATOM     39  O   UNL A   1      46.375  24.655  24.323  1.00  0.00    -0.376 OA
BRANCH  39  40
ATOM     40  C   UNL A   1      47.041  25.422  25.311  1.00  0.00     0.202 C 
BRANCH  40  41
ATOM     41  C   UNL A   1      46.440  26.683  25.956  1.00  0.00     0.261 C 
BRANCH  41  42
ATOM     42  O   UNL A   1      45.442  26.473  26.964  1.00  0.00    -0.460 OA
BRANCH  42  43
ATOM     43  C   UNL A   1      44.259  27.098  26.753  1.00  0.00     0.338 C 
ATOM     44  O   UNL A   1      43.314  26.709  26.082  1.00  0.00    -0.246 OA
BRANCH  43  45
ATOM     45  C   UNL A   1      44.190  28.299  27.601  1.00  0.00     0.060 A 
ATOM     46  C   UNL A   1      43.405  29.385  27.184  1.00  0.00     0.016 A 
ATOM     47  C   UNL A   1      44.943  28.370  28.772  1.00  0.00     0.016 A 
ATOM     48  C   UNL A   1      43.369  30.552  27.945  1.00  0.00     0.010 A 
ATOM     49  C   UNL A   1      44.942  29.557  29.508  1.00  0.00     0.010 A 
ATOM     50  C   UNL A   1      44.178  30.658  29.083  1.00  0.00    -0.014 A 
BRANCH  50  51
ATOM     51  C   UNL A   1      44.418  31.985  29.692  1.00  0.00     0.031 A 
ATOM     52  C   UNL A   1      43.564  32.386  30.862  1.00  0.00     0.074 A 
ATOM     53  C   UNL A   1      45.358  32.820  29.219  1.00  0.00     0.049 A 
ATOM     54  N   UNL A   1      43.501  33.528  31.495  1.00  0.00    -0.248 NA
ATOM     55  C   UNL A   1      42.658  31.352  31.391  1.00  0.00     0.031 C 
ATOM     56  C   UNL A   1      46.292  32.517  28.139  1.00  0.00     0.029 A 
ATOM     57  N   UNL A   1      45.667  34.106  29.586  1.00  0.00    -0.354 N 
ATOM     58  C   UNL A   1      42.554  33.350  32.494  1.00  0.00     0.074 A 
ATOM     59  C   UNL A   1      42.050  32.001  32.372  1.00  0.00     0.031 C 
ATOM     60  C   UNL A   1      47.060  33.599  27.914  1.00  0.00     0.029 A 
ATOM     61  C   UNL A   1      46.641  34.679  28.808  1.00  0.00     0.049 A 
ATOM     62  H   UNL A   1      45.232  34.572  30.337  1.00  0.00     0.167 HD
ATOM     63  C   UNL A   1      42.144  34.234  33.432  1.00  0.00     0.037 A 
ATOM     64  C   UNL A   1      47.112  35.941  28.803  1.00  0.00     0.037 A 
ATOM     65  C   UNL A   1      42.624  35.586  33.531  1.00  0.00     0.049 A 
ATOM     66  C   UNL A   1      46.553  36.945  29.782  1.00  0.00     0.074 A 
ATOM     67  C   UNL A   1      42.256  36.568  34.433  1.00  0.00     0.029 A 
ATOM     68  N   UNL A   1      43.572  36.151  32.690  1.00  0.00    -0.354 N 
ATOM     69  N   UNL A   1      45.655  36.777  30.722  1.00  0.00    -0.248 NA
ATOM     70  C   UNL A   1      47.073  38.318  29.693  1.00  0.00     0.031 C 
ATOM     71  C   UNL A   1      42.940  37.741  34.104  1.00  0.00     0.029 A 
ATOM     72  C   UNL A   1      43.782  37.475  33.037  1.00  0.00     0.049 A 
ATOM     73  H   UNL A   1      44.027  35.679  31.954  1.00  0.00     0.167 HD
ATOM     74  C   UNL A   1      45.522  38.009  31.352  1.00  0.00     0.074 A 
ATOM     75  C   UNL A   1      46.447  38.912  30.699  1.00  0.00     0.031 C 
ATOM     76  C   UNL A   1      44.707  38.362  32.378  1.00  0.00     0.037 A 
BRANCH  63  77
ATOM     77  C   UNL A   1      41.103  33.775  34.408  1.00  0.00     0.064 A 
ATOM     78  C   UNL A   1      39.735  33.813  34.093  1.00  0.00     0.173 A 
ATOM     79  C   UNL A   1      41.476  33.249  35.654  1.00  0.00     0.173 A 
ATOM     80  F   UNL A   1      39.325  34.327  32.924  1.00  0.00    -0.203 F 
ATOM     81  C   UNL A   1      38.781  33.351  34.995  1.00  0.00     0.198 A 
ATOM     82  C   UNL A   1      40.522  32.760  36.540  1.00  0.00     0.198 A 
ATOM     83  F   UNL A   1      42.771  33.194  36.003  1.00  0.00    -0.203 F 
ATOM     84  F   UNL A   1      37.479  33.430  34.690  1.00  0.00    -0.200 F 
ATOM     85  C   UNL A   1      39.175  32.815  36.211  1.00  0.00     0.200 A 
ATOM     86  F   UNL A   1      40.905  32.232  37.710  1.00  0.00    -0.200 F 
ATOM     87  F   UNL A   1      38.256  32.354  37.071  1.00  0.00    -0.200 F 
ENDBRANCH  63  77
BRANCH  64  88
ATOM     88  C   UNL A   1      48.168  36.337  27.833  1.00  0.00     0.064 A 
ATOM     89  C   UNL A   1      47.836  36.969  26.626  1.00  0.00     0.173 A 
ATOM     90  C   UNL A   1      49.525  36.082  28.082  1.00  0.00     0.173 A 
ATOM     91  F   UNL A   1      46.549  37.204  26.328  1.00  0.00    -0.203 F 
ATOM     92  C   UNL A   1      48.817  37.323  25.703  1.00  0.00     0.198 A 
ATOM     93  C   UNL A   1      50.509  36.462  27.171  1.00  0.00     0.198 A 
ATOM     94  F   UNL A   1      49.898  35.471  29.216  1.00  0.00    -0.203 F 
ATOM     95  F   UNL A   1      48.466  37.884  24.539  1.00  0.00    -0.200 F 
ATOM     96  C   UNL A   1      50.154  37.077  25.979  1.00  0.00     0.200 A 
ATOM     97  F   UNL A   1      51.799  36.230  27.445  1.00  0.00    -0.200 F 
ATOM     98  F   UNL A   1      51.098  37.423  25.094  1.00  0.00    -0.200 F 
ENDBRANCH  64  88
BRANCH  76  99
ATOM     99  C   UNL A   1      44.794  39.776  32.882  1.00  0.00     0.064 A 
ATOM    100  C   UNL A   1      45.700  40.148  33.885  1.00  0.00     0.173 A 
ATOM    101  C   UNL A   1      43.997  40.783  32.312  1.00  0.00     0.173 A 
ATOM    102  F   UNL A   1      46.477  39.223  34.469  1.00  0.00    -0.203 F 
ATOM    103  C   UNL A   1      45.785  41.468  34.321  1.00  0.00     0.198 A 
ATOM    104  C   UNL A   1      44.111  42.108  32.725  1.00  0.00     0.198 A 
ATOM    105  F   UNL A   1      43.123  40.486  31.339  1.00  0.00    -0.203 F 
ATOM    106  F   UNL A   1      46.622  41.790  35.317  1.00  0.00    -0.200 F 
ATOM    107  C   UNL A   1      44.997  42.448  33.735  1.00  0.00     0.200 A 
ATOM    108  F   UNL A   1      43.364  43.056  32.143  1.00  0.00    -0.200 F 
ATOM    109  F   UNL A   1      45.090  43.720  34.148  1.00  0.00    -0.200 F 
ENDBRANCH  76  99
ENDBRANCH  50  51
ENDBRANCH  43  45
ENDBRANCH  42  43
ENDBRANCH  41  42
ENDBRANCH  40  41
ENDBRANCH  39  40
ENDBRANCH  38  39
ENDBRANCH   1  38
TORSDOF 20
ENDMDL
