MODEL 1
REMARK VINA RESULT:     -10.9      0.000      0.000
REMARK SMILES CCCN1CCC[C@@]2(CCN(c3ccc(C(=O)OCCOCCOCCOC(=O)c4ccc(-c5c6nc(c(-c7c(F)c(F)c(F)c(F)c7F)c7ccc([nH]7)c(-c7c(F)c(F)c(F)c(F)c7F)c7nc(c(-c8c(F)c(F)c(F)c(F)c8F)c8ccc5[nH]8)C=C7)C=C6)cc4)cn3)C2)C1=O
REMARK SMILES IDX 22 1 21 2 20 3 19 4 18 5 16 6 17 7 15 8 12 9 13 10 94 11
REMARK SMILES IDX 14 12 93 13 11 14 4 15 5 16 96 17 6 18 8 19 97 20 7 21 9 22
REMARK SMILES IDX 95 23 10 24 3 25 2 26 1 27 23 28 24 29 25 30 26 31 27 32
REMARK SMILES IDX 28 33 29 34 30 35 31 36 92 37 32 38 91 39 33 40 34 41 35 42
REMARK SMILES IDX 85 43 36 44 90 45 84 46 86 47 37 48 89 49 83 50 82 51 38 53
REMARK SMILES IDX 70 54 50 55 69 56 51 57 54 58 68 59 87 60 52 61 53 62 67 64
REMARK SMILES IDX 88 65 55 66 39 67 40 68 48 69 41 70 42 71 46 72 49 73 43 74
REMARK SMILES IDX 44 75 47 76 45 77 71 78 72 79 80 80 73 81 74 82 78 83 81 84
REMARK SMILES IDX 75 85 76 86 79 87 77 88 56 89 57 90 65 91 58 92 59 93 63 94
REMARK SMILES IDX 66 95 60 96 61 97 64 98 62 99
REMARK H PARENT 86 52 54 63
REMARK Flexibility Score: inf
ROOT
ATOM      1  C   UNL A   1      42.653  18.597  26.435  1.00  0.00     0.188 C 
ENDROOT
BRANCH   1   2
ATOM      2  O   UNL A   1      42.485  19.789  27.192  1.00  0.00    -0.376 OA
BRANCH   2   3
ATOM      3  C   UNL A   1      41.187  20.330  27.395  1.00  0.00     0.202 C 
BRANCH   3   4
ATOM      4  C   UNL A   1      40.537  21.199  26.308  1.00  0.00     0.261 C 
BRANCH   4   5
ATOM      5  O   UNL A   1      39.197  21.628  26.596  1.00  0.00    -0.460 OA
BRANCH   5   6
ATOM      6  C   UNL A   1      38.934  22.938  26.340  1.00  0.00     0.339 C 
ATOM      7  O   UNL A   1      39.702  23.869  26.414  1.00  0.00    -0.246 OA
BRANCH   6   8
ATOM      8  C   UNL A   1      37.580  23.062  25.768  1.00  0.00     0.078 A 
ATOM      9  C   UNL A   1      35.110  23.127  24.543  1.00  0.00     0.128 A 
ATOM     10  C   UNL A   1      35.441  24.088  25.503  1.00  0.00     0.048 A 
ATOM     11  N   UNL A   1      35.952  22.119  24.240  1.00  0.00    -0.238 NA
ATOM     12  C   UNL A   1      36.681  24.052  26.136  1.00  0.00     0.021 A 
ATOM     13  C   UNL A   1      37.173  22.122  24.832  1.00  0.00     0.129 A 
BRANCH   9  14
ATOM     14  N   UNL A   1      33.950  23.299  23.808  1.00  0.00    -0.356 N 
ATOM     15  N   UNL A   1      32.244  27.246  22.829  1.00  0.00    -0.342 N 
ATOM     16  C   UNL A   1      30.847  27.290  23.226  1.00  0.00     0.119 C 
ATOM     17  C   UNL A   1      32.745  26.080  22.251  1.00  0.00     0.230 C 
ATOM     18  C   UNL A   1      30.524  26.136  24.153  1.00  0.00     0.023 C 
ATOM     19  C   UNL A   1      32.279  24.777  22.926  1.00  0.00     0.069 C 
ATOM     20  O   UNL A   1      33.653  26.097  21.423  1.00  0.00    -0.274 OA
ATOM     21  C   UNL A   1      30.821  24.834  23.411  1.00  0.00     0.021 C 
ATOM     22  C   UNL A   1      32.526  23.560  22.009  1.00  0.00     0.040 C 
ATOM     23  C   UNL A   1      33.239  24.542  24.122  1.00  0.00     0.135 C 
ATOM     24  C   UNL A   1      33.940  23.098  22.368  1.00  0.00     0.119 C 
BRANCH  15  25
ATOM     25  C   UNL A   1      33.206  28.309  23.127  1.00  0.00     0.119 C 
BRANCH  25  26
ATOM     26  C   UNL A   1      33.395  28.762  24.573  1.00  0.00     0.018 C 
ATOM     27  C   UNL A   1      33.655  27.617  25.548  1.00  0.00     0.006 C 
ENDBRANCH  25  26
ENDBRANCH  15  25
ENDBRANCH   9  14
ENDBRANCH   6   8
ENDBRANCH   5   6
ENDBRANCH   4   5
ENDBRANCH   3   4
ENDBRANCH   2   3
ENDBRANCH   1   2
BRANCH   1  28
ATOM     28  C   UNL A   1      43.738  18.514  25.339  1.00  0.00     0.188 C 
BRANCH  28  29
ATOM     29  O   UNL A   1      43.874  19.686  24.573  1.00  0.00    -0.376 OA
BRANCH  29  30
ATOM     30  C   UNL A   1      45.114  20.369  24.548  1.00  0.00     0.202 C 
BRANCH  30  31
ATOM     31  C   UNL A   1      45.391  21.709  25.261  1.00  0.00     0.261 C 
BRANCH  31  32
ATOM     32  O   UNL A   1      44.401  22.222  26.157  1.00  0.00    -0.460 OA
BRANCH  32  33
ATOM     33  C   UNL A   1      43.628  23.234  25.700  1.00  0.00     0.338 C 
ATOM     34  O   UNL A   1      43.088  23.320  24.611  1.00  0.00    -0.246 OA
BRANCH  33  35
ATOM     35  C   UNL A   1      43.404  24.180  26.811  1.00  0.00     0.060 A 
ATOM     36  C   UNL A   1      42.659  23.761  27.921  1.00  0.00     0.016 A 
ATOM     37  C   UNL A   1      43.917  25.477  26.749  1.00  0.00     0.016 A 
ATOM     38  C   UNL A   1      42.406  24.650  28.967  1.00  0.00     0.010 A 
ATOM     39  C   UNL A   1      43.646  26.372  27.789  1.00  0.00     0.010 A 
ATOM     40  C   UNL A   1      42.867  25.972  28.891  1.00  0.00    -0.014 A 
BRANCH  40  41
ATOM     41  C   UNL A   1      42.409  26.979  29.880  1.00  0.00     0.031 A 
ATOM     42  C   UNL A   1      43.131  27.081  31.195  1.00  0.00     0.074 A 
ATOM     43  C   UNL A   1      41.370  27.792  29.617  1.00  0.00     0.049 A 
ATOM     44  N   UNL A   1      42.871  27.834  32.233  1.00  0.00    -0.248 NA
ATOM     45  C   UNL A   1      44.304  26.210  31.362  1.00  0.00     0.031 C 
ATOM     46  C   UNL A   1      40.613  27.818  28.368  1.00  0.00     0.029 A 
ATOM     47  N   UNL A   1      40.768  28.747  30.399  1.00  0.00    -0.354 N 
ATOM     48  C   UNL A   1      43.843  27.526  33.175  1.00  0.00     0.074 A 
ATOM     49  C   UNL A   1      44.678  26.492  32.601  1.00  0.00     0.031 C 
ATOM     50  C   UNL A   1      39.636  28.736  28.472  1.00  0.00     0.029 A 
ATOM     51  C   UNL A   1      39.677  29.334  29.805  1.00  0.00     0.049 A 
ATOM     52  H   UNL A   1      41.087  28.987  31.298  1.00  0.00     0.167 HD
ATOM     53  C   UNL A   1      44.028  28.061  34.406  1.00  0.00     0.037 A 
ATOM     54  C   UNL A   1      38.800  30.233  30.296  1.00  0.00     0.037 A 
ATOM     55  C   UNL A   1      43.194  29.086  34.977  1.00  0.00     0.049 A 
ATOM     56  C   UNL A   1      38.981  30.755  31.700  1.00  0.00     0.074 A 
ATOM     57  C   UNL A   1      43.312  29.707  36.209  1.00  0.00     0.029 A 
ATOM     58  N   UNL A   1      42.080  29.635  34.359  1.00  0.00    -0.354 N 
ATOM     59  N   UNL A   1      39.917  30.480  32.575  1.00  0.00    -0.248 NA
ATOM     60  C   UNL A   1      37.979  31.719  32.182  1.00  0.00     0.031 C 
ATOM     61  C   UNL A   1      42.235  30.587  36.360  1.00  0.00     0.029 A 
ATOM     62  C   UNL A   1      41.484  30.564  35.196  1.00  0.00     0.049 A 
ATOM     63  H   UNL A   1      41.761  29.399  33.458  1.00  0.00     0.167 HD
ATOM     64  C   UNL A   1      39.639  31.257  33.693  1.00  0.00     0.074 A 
ATOM     65  C   UNL A   1      38.452  32.026  33.382  1.00  0.00     0.031 C 
ATOM     66  C   UNL A   1      40.307  31.330  34.872  1.00  0.00     0.037 A 
BRANCH  53  67
ATOM     67  C   UNL A   1      45.162  27.525  35.232  1.00  0.00     0.064 A 
ATOM     68  C   UNL A   1      44.994  26.434  36.098  1.00  0.00     0.173 A 
ATOM     69  C   UNL A   1      46.442  28.089  35.128  1.00  0.00     0.173 A 
ATOM     70  F   UNL A   1      43.787  25.867  36.244  1.00  0.00    -0.203 F 
ATOM     71  C   UNL A   1      46.060  25.946  36.849  1.00  0.00     0.198 A 
ATOM     72  C   UNL A   1      47.513  27.578  35.857  1.00  0.00     0.198 A 
ATOM     73  F   UNL A   1      46.658  29.132  34.312  1.00  0.00    -0.203 F 
ATOM     74  F   UNL A   1      45.865  24.934  37.707  1.00  0.00    -0.200 F 
ATOM     75  C   UNL A   1      47.319  26.513  36.722  1.00  0.00     0.200 A 
ATOM     76  F   UNL A   1      48.732  28.118  35.722  1.00  0.00    -0.200 F 
ATOM     77  F   UNL A   1      48.347  26.036  37.439  1.00  0.00    -0.200 F 
ENDBRANCH  53  67
BRANCH  54  78
ATOM     78  C   UNL A   1      37.656  30.690  29.462  1.00  0.00     0.064 A 
ATOM     79  C   UNL A   1      37.598  32.000  28.966  1.00  0.00     0.173 A 
ATOM     80  C   UNL A   1      36.581  29.836  29.173  1.00  0.00     0.173 A 
ATOM     81  F   UNL A   1      38.585  32.865  29.243  1.00  0.00    -0.203 F 
ATOM     82  C   UNL A   1      36.500  32.444  28.232  1.00  0.00     0.198 A 
ATOM     83  C   UNL A   1      35.498  30.273  28.412  1.00  0.00     0.198 A 
ATOM     84  F   UNL A   1      36.581  28.576  29.631  1.00  0.00    -0.203 F 
ATOM     85  F   UNL A   1      36.444  33.719  27.820  1.00  0.00    -0.200 F 
ATOM     86  C   UNL A   1      35.454  31.580  27.950  1.00  0.00     0.200 A 
ATOM     87  F   UNL A   1      34.492  29.431  28.136  1.00  0.00    -0.200 F 
ATOM     88  F   UNL A   1      34.397  32.008  27.247  1.00  0.00    -0.200 F 
ENDBRANCH  54  78
BRANCH  66  89
ATOM     89  C   UNL A   1      39.799  32.302  35.900  1.00  0.00     0.064 A 
ATOM     90  C   UNL A   1      40.348  33.585  36.041  1.00  0.00     0.173 A 
ATOM     91  C   UNL A   1      38.719  31.958  36.728  1.00  0.00     0.173 A 
ATOM     92  F   UNL A   1      41.390  33.961  35.284  1.00  0.00    -0.203 F 
ATOM     93  C   UNL A   1      39.854  34.476  36.991  1.00  0.00     0.198 A 
ATOM     94  C   UNL A   1      38.205  32.863  37.652  1.00  0.00     0.198 A 
ATOM     95  F   UNL A   1      38.149  30.748  36.628  1.00  0.00    -0.203 F 
ATOM     96  F   UNL A   1      40.428  35.678  37.143  1.00  0.00    -0.200 F 
ATOM     97  C   UNL A   1      38.779  34.118  37.789  1.00  0.00     0.200 A 
ATOM     98  F   UNL A   1      37.154  32.521  38.410  1.00  0.00    -0.200 F 
ATOM     99  F   UNL A   1      38.298  34.979  38.697  1.00  0.00    -0.200 F 
ENDBRANCH  66  89
ENDBRANCH  40  41
ENDBRANCH  33  35
ENDBRANCH  32  33
ENDBRANCH  31  32
ENDBRANCH  30  31
ENDBRANCH  29  30
ENDBRANCH  28  29
ENDBRANCH   1  28
TORSDOF 20
ENDMDL
MODEL 2
REMARK VINA RESULT:     -10.3      4.407      8.326
REMARK SMILES CCCN1CCC[C@@]2(CCN(c3ccc(C(=O)OCCOCCOCCOC(=O)c4ccc(-c5c6nc(c(-c7c(F)c(F)c(F)c(F)c7F)c7ccc([nH]7)c(-c7c(F)c(F)c(F)c(F)c7F)c7nc(c(-c8c(F)c(F)c(F)c(F)c8F)c8ccc5[nH]8)C=C7)C=C6)cc4)cn3)C2)C1=O
REMARK SMILES IDX 22 1 21 2 20 3 19 4 18 5 16 6 17 7 15 8 12 9 13 10 94 11
REMARK SMILES IDX 14 12 93 13 11 14 4 15 5 16 96 17 6 18 8 19 97 20 7 21 9 22
REMARK SMILES IDX 95 23 10 24 3 25 2 26 1 27 23 28 24 29 25 30 26 31 27 32
REMARK SMILES IDX 28 33 29 34 30 35 31 36 92 37 32 38 91 39 33 40 34 41 35 42
REMARK SMILES IDX 85 43 36 44 90 45 84 46 86 47 37 48 89 49 83 50 82 51 38 53
REMARK SMILES IDX 70 54 50 55 69 56 51 57 54 58 68 59 87 60 52 61 53 62 67 64
REMARK SMILES IDX 88 65 55 66 39 67 40 68 48 69 41 70 42 71 46 72 49 73 43 74
REMARK SMILES IDX 44 75 47 76 45 77 71 78 72 79 80 80 73 81 74 82 78 83 81 84
REMARK SMILES IDX 75 85 76 86 79 87 77 88 56 89 57 90 65 91 58 92 59 93 63 94
REMARK SMILES IDX 66 95 60 96 61 97 64 98 62 99
REMARK H PARENT 86 52 54 63
REMARK Flexibility Score: inf
ROOT
ATOM      1  C   UNL A   1      43.538  20.688  25.743  1.00  0.00     0.188 C 
ENDROOT
BRANCH   1   2
ATOM      2  O   UNL A   1      42.726  21.783  25.335  1.00  0.00    -0.376 OA
BRANCH   2   3
ATOM      3  C   UNL A   1      42.042  22.566  26.305  1.00  0.00     0.202 C 
BRANCH   3   4
ATOM      4  C   UNL A   1      42.414  24.043  26.503  1.00  0.00     0.261 C 
BRANCH   4   5
ATOM      5  O   UNL A   1      41.384  24.854  27.088  1.00  0.00    -0.460 OA
BRANCH   5   6
ATOM      6  C   UNL A   1      41.217  26.083  26.528  1.00  0.00     0.339 C 
ATOM      7  O   UNL A   1      41.199  26.356  25.350  1.00  0.00    -0.246 OA
BRANCH   6   8
ATOM      8  C   UNL A   1      40.871  27.056  27.580  1.00  0.00     0.078 A 
ATOM      9  C   UNL A   1      40.227  29.043  29.381  1.00  0.00     0.128 A 
ATOM     10  C   UNL A   1      40.539  27.759  29.838  1.00  0.00     0.048 A 
ATOM     11  N   UNL A   1      40.170  29.325  28.064  1.00  0.00    -0.238 NA
ATOM     12  C   UNL A   1      40.851  26.747  28.933  1.00  0.00     0.021 A 
ATOM     13  C   UNL A   1      40.519  28.342  27.196  1.00  0.00     0.129 A 
BRANCH   9  14
ATOM     14  N   UNL A   1      40.102  30.061  30.310  1.00  0.00    -0.356 N 
ATOM     15  N   UNL A   1      36.773  32.954  30.330  1.00  0.00    -0.342 N 
ATOM     16  C   UNL A   1      37.298  34.308  30.354  1.00  0.00     0.119 C 
ATOM     17  C   UNL A   1      37.396  31.974  31.103  1.00  0.00     0.230 C 
ATOM     18  C   UNL A   1      38.773  34.310  30.006  1.00  0.00     0.023 C 
ATOM     19  C   UNL A   1      38.935  32.013  31.072  1.00  0.00     0.069 C 
ATOM     20  O   UNL A   1      36.778  31.026  31.583  1.00  0.00    -0.274 OA
ATOM     21  C   UNL A   1      39.503  33.442  31.030  1.00  0.00     0.021 C 
ATOM     22  C   UNL A   1      39.533  31.198  32.238  1.00  0.00     0.040 C 
ATOM     23  C   UNL A   1      39.363  31.223  29.807  1.00  0.00     0.135 C 
ATOM     24  C   UNL A   1      39.679  29.783  31.672  1.00  0.00     0.119 C 
BRANCH  15  25
ATOM     25  C   UNL A   1      35.706  32.513  29.429  1.00  0.00     0.119 C 
BRANCH  25  26
ATOM     26  C   UNL A   1      35.540  33.199  28.075  1.00  0.00     0.018 C 
ATOM     27  C   UNL A   1      34.412  34.225  28.038  1.00  0.00     0.006 C 
ENDBRANCH  25  26
ENDBRANCH  15  25
ENDBRANCH   9  14
ENDBRANCH   6   8
ENDBRANCH   5   6
ENDBRANCH   4   5
ENDBRANCH   3   4
ENDBRANCH   2   3
ENDBRANCH   1   2
BRANCH   1  28
ATOM     28  C   UNL A   1      44.883  20.408  25.038  1.00  0.00     0.188 C 
BRANCH  28  29
ATOM     29  O   UNL A   1      45.923  21.277  25.415  1.00  0.00    -0.376 OA
BRANCH  29  30
ATOM     30  C   UNL A   1      46.103  22.500  24.724  1.00  0.00     0.202 C 
BRANCH  30  31
ATOM     31  C   UNL A   1      46.078  23.893  25.387  1.00  0.00     0.261 C 
BRANCH  31  32
ATOM     32  O   UNL A   1      45.716  25.023  24.588  1.00  0.00    -0.460 OA
BRANCH  32  33
ATOM     33  C   UNL A   1      46.542  26.094  24.633  1.00  0.00     0.338 C 
ATOM     34  O   UNL A   1      47.482  26.336  23.896  1.00  0.00    -0.246 OA
BRANCH  33  35
ATOM     35  C   UNL A   1      46.023  27.032  25.648  1.00  0.00     0.060 A 
ATOM     36  C   UNL A   1      46.906  27.563  26.597  1.00  0.00     0.016 A 
ATOM     37  C   UNL A   1      44.670  27.373  25.669  1.00  0.00     0.016 A 
ATOM     38  C   UNL A   1      46.430  28.425  27.587  1.00  0.00     0.010 A 
ATOM     39  C   UNL A   1      44.191  28.220  26.673  1.00  0.00     0.010 A 
ATOM     40  C   UNL A   1      45.064  28.730  27.653  1.00  0.00    -0.014 A 
BRANCH  40  41
ATOM     41  C   UNL A   1      44.517  29.451  28.829  1.00  0.00     0.031 A 
ATOM     42  C   UNL A   1      44.338  30.941  28.744  1.00  0.00     0.074 A 
ATOM     43  C   UNL A   1      44.184  28.796  29.956  1.00  0.00     0.049 A 
ATOM     44  N   UNL A   1      43.943  31.788  29.660  1.00  0.00    -0.248 NA
ATOM     45  C   UNL A   1      44.652  31.561  27.447  1.00  0.00     0.031 C 
ATOM     46  C   UNL A   1      44.274  27.351  30.151  1.00  0.00     0.029 A 
ATOM     47  N   UNL A   1      43.710  29.271  31.154  1.00  0.00    -0.354 N 
ATOM     48  C   UNL A   1      43.965  33.037  29.054  1.00  0.00     0.074 A 
ATOM     49  C   UNL A   1      44.445  32.844  27.703  1.00  0.00     0.031 C 
ATOM     50  C   UNL A   1      43.881  27.057  31.402  1.00  0.00     0.029 A 
ATOM     51  C   UNL A   1      43.546  28.294  32.106  1.00  0.00     0.049 A 
ATOM     52  H   UNL A   1      43.509  30.221  31.316  1.00  0.00     0.167 HD
ATOM     53  C   UNL A   1      43.610  34.236  29.575  1.00  0.00     0.037 A 
ATOM     54  C   UNL A   1      43.190  28.395  33.402  1.00  0.00     0.037 A 
ATOM     55  C   UNL A   1      43.137  34.427  30.921  1.00  0.00     0.049 A 
ATOM     56  C   UNL A   1      42.877  29.753  33.981  1.00  0.00     0.074 A 
ATOM     57  C   UNL A   1      42.734  35.600  31.536  1.00  0.00     0.029 A 
ATOM     58  N   UNL A   1      43.012  33.418  31.865  1.00  0.00    -0.354 N 
ATOM     59  N   UNL A   1      42.873  30.926  33.396  1.00  0.00    -0.248 NA
ATOM     60  C   UNL A   1      42.515  29.797  35.406  1.00  0.00     0.031 C 
ATOM     61  C   UNL A   1      42.423  35.311  32.869  1.00  0.00     0.029 A 
ATOM     62  C   UNL A   1      42.569  33.947  33.067  1.00  0.00     0.049 A 
ATOM     63  H   UNL A   1      43.210  32.467  31.705  1.00  0.00     0.167 HD
ATOM     64  C   UNL A   1      42.478  31.838  34.366  1.00  0.00     0.074 A 
ATOM     65  C   UNL A   1      42.238  31.082  35.577  1.00  0.00     0.031 C 
ATOM     66  C   UNL A   1      42.325  33.183  34.264  1.00  0.00     0.037 A 
BRANCH  53  67
ATOM     67  C   UNL A   1      43.748  35.443  28.693  1.00  0.00     0.064 A 
ATOM     68  C   UNL A   1      42.652  35.986  28.005  1.00  0.00     0.173 A 
ATOM     69  C   UNL A   1      44.988  36.087  28.562  1.00  0.00     0.173 A 
ATOM     70  F   UNL A   1      41.447  35.401  28.085  1.00  0.00    -0.203 F 
ATOM     71  C   UNL A   1      42.799  37.112  27.198  1.00  0.00     0.198 A 
ATOM     72  C   UNL A   1      45.125  37.231  27.781  1.00  0.00     0.198 A 
ATOM     73  F   UNL A   1      46.068  35.611  29.202  1.00  0.00    -0.203 F 
ATOM     74  F   UNL A   1      41.749  37.584  26.512  1.00  0.00    -0.200 F 
ATOM     75  C   UNL A   1      44.033  37.737  27.093  1.00  0.00     0.200 A 
ATOM     76  F   UNL A   1      46.314  37.842  27.693  1.00  0.00    -0.200 F 
ATOM     77  F   UNL A   1      44.170  38.826  26.324  1.00  0.00    -0.200 F 
ENDBRANCH  53  67
BRANCH  54  78
ATOM     78  C   UNL A   1      43.126  27.178  34.254  1.00  0.00     0.064 A 
ATOM     79  C   UNL A   1      41.897  26.593  34.592  1.00  0.00     0.173 A 
ATOM     80  C   UNL A   1      44.290  26.594  34.777  1.00  0.00     0.173 A 
ATOM     81  F   UNL A   1      40.754  27.133  34.144  1.00  0.00    -0.203 F 
ATOM     82  C   UNL A   1      41.833  25.486  35.435  1.00  0.00     0.198 A 
ATOM     83  C   UNL A   1      44.226  25.467  35.595  1.00  0.00     0.198 A 
ATOM     84  F   UNL A   1      45.491  27.118  34.494  1.00  0.00    -0.203 F 
ATOM     85  F   UNL A   1      40.642  24.983  35.788  1.00  0.00    -0.200 F 
ATOM     86  C   UNL A   1      42.997  24.920  35.931  1.00  0.00     0.200 A 
ATOM     87  F   UNL A   1      45.355  24.920  36.067  1.00  0.00    -0.200 F 
ATOM     88  F   UNL A   1      42.936  23.857  36.745  1.00  0.00    -0.200 F 
ENDBRANCH  54  78
BRANCH  66  89
ATOM     89  C   UNL A   1      41.837  33.921  35.479  1.00  0.00     0.064 A 
ATOM     90  C   UNL A   1      40.474  33.995  35.803  1.00  0.00     0.173 A 
ATOM     91  C   UNL A   1      42.751  34.528  36.354  1.00  0.00     0.173 A 
ATOM     92  F   UNL A   1      39.557  33.443  34.995  1.00  0.00    -0.203 F 
ATOM     93  C   UNL A   1      40.043  34.674  36.941  1.00  0.00     0.198 A 
ATOM     94  C   UNL A   1      42.321  35.175  37.509  1.00  0.00     0.198 A 
ATOM     95  F   UNL A   1      44.067  34.479  36.098  1.00  0.00    -0.203 F 
ATOM     96  F   UNL A   1      38.733  34.775  37.203  1.00  0.00    -0.200 F 
ATOM     97  C   UNL A   1      40.967  35.255  37.797  1.00  0.00     0.200 A 
ATOM     98  F   UNL A   1      43.216  35.721  38.343  1.00  0.00    -0.200 F 
ATOM     99  F   UNL A   1      40.551  35.899  38.896  1.00  0.00    -0.200 F 
ENDBRANCH  66  89
ENDBRANCH  40  41
ENDBRANCH  33  35
ENDBRANCH  32  33
ENDBRANCH  31  32
ENDBRANCH  30  31
ENDBRANCH  29  30
ENDBRANCH  28  29
ENDBRANCH   1  28
TORSDOF 20
ENDMDL
MODEL 3
REMARK VINA RESULT:     -10.3      4.134      6.611
REMARK SMILES CCCN1CCC[C@@]2(CCN(c3ccc(C(=O)OCCOCCOCCOC(=O)c4ccc(-c5c6nc(c(-c7c(F)c(F)c(F)c(F)c7F)c7ccc([nH]7)c(-c7c(F)c(F)c(F)c(F)c7F)c7nc(c(-c8c(F)c(F)c(F)c(F)c8F)c8ccc5[nH]8)C=C7)C=C6)cc4)cn3)C2)C1=O
REMARK SMILES IDX 22 1 21 2 20 3 19 4 18 5 16 6 17 7 15 8 12 9 13 10 94 11
REMARK SMILES IDX 14 12 93 13 11 14 4 15 5 16 96 17 6 18 8 19 97 20 7 21 9 22
REMARK SMILES IDX 95 23 10 24 3 25 2 26 1 27 23 28 24 29 25 30 26 31 27 32
REMARK SMILES IDX 28 33 29 34 30 35 31 36 92 37 32 38 91 39 33 40 34 41 35 42
REMARK SMILES IDX 85 43 36 44 90 45 84 46 86 47 37 48 89 49 83 50 82 51 38 53
REMARK SMILES IDX 70 54 50 55 69 56 51 57 54 58 68 59 87 60 52 61 53 62 67 64
REMARK SMILES IDX 88 65 55 66 39 67 40 68 48 69 41 70 42 71 46 72 49 73 43 74
REMARK SMILES IDX 44 75 47 76 45 77 71 78 72 79 80 80 73 81 74 82 78 83 81 84
REMARK SMILES IDX 75 85 76 86 79 87 77 88 56 89 57 90 65 91 58 92 59 93 63 94
REMARK SMILES IDX 66 95 60 96 61 97 64 98 62 99
REMARK H PARENT 86 52 54 63
REMARK Flexibility Score: inf
ROOT
ATOM      1  C   UNL A   1      43.411  20.463  25.751  1.00  0.00     0.188 C 
ENDROOT
BRANCH   1   2
ATOM      2  O   UNL A   1      42.660  21.607  25.363  1.00  0.00    -0.376 OA
BRANCH   2   3
ATOM      3  C   UNL A   1      42.041  22.424  26.348  1.00  0.00     0.202 C 
BRANCH   3   4
ATOM      4  C   UNL A   1      42.322  23.934  26.384  1.00  0.00     0.261 C 
BRANCH   4   5
ATOM      5  O   UNL A   1      41.199  24.751  26.747  1.00  0.00    -0.460 OA
BRANCH   5   6
ATOM      6  C   UNL A   1      41.249  26.040  26.316  1.00  0.00     0.339 C 
ATOM      7  O   UNL A   1      41.351  26.428  25.175  1.00  0.00    -0.246 OA
BRANCH   6   8
ATOM      8  C   UNL A   1      40.975  26.945  27.448  1.00  0.00     0.078 A 
ATOM      9  C   UNL A   1      40.369  28.787  29.408  1.00  0.00     0.128 A 
ATOM     10  C   UNL A   1      41.152  27.670  29.715  1.00  0.00     0.048 A 
ATOM     11  N   UNL A   1      39.842  28.958  28.180  1.00  0.00    -0.238 NA
ATOM     12  C   UNL A   1      41.450  26.728  28.733  1.00  0.00     0.021 A 
ATOM     13  C   UNL A   1      40.177  28.057  27.222  1.00  0.00     0.129 A 
BRANCH   9  14
ATOM     14  N   UNL A   1      40.247  29.788  30.356  1.00  0.00    -0.356 N 
ATOM     15  N   UNL A   1      36.747  32.454  30.655  1.00  0.00    -0.342 N 
ATOM     16  C   UNL A   1      37.183  33.840  30.657  1.00  0.00     0.119 C 
ATOM     17  C   UNL A   1      37.488  31.512  31.369  1.00  0.00     0.230 C 
ATOM     18  C   UNL A   1      38.625  33.941  30.203  1.00  0.00     0.023 C 
ATOM     19  C   UNL A   1      39.015  31.653  31.225  1.00  0.00     0.069 C 
ATOM     20  O   UNL A   1      36.969  30.522  31.881  1.00  0.00    -0.274 OA
ATOM     21  C   UNL A   1      39.483  33.116  31.160  1.00  0.00     0.021 C 
ATOM     22  C   UNL A   1      39.748  30.870  32.335  1.00  0.00     0.040 C 
ATOM     23  C   UNL A   1      39.398  30.902  29.924  1.00  0.00     0.135 C 
ATOM     24  C   UNL A   1      39.944  29.472  31.743  1.00  0.00     0.119 C 
BRANCH  15  25
ATOM     25  C   UNL A   1      35.647  31.951  29.830  1.00  0.00     0.119 C 
BRANCH  25  26
ATOM     26  C   UNL A   1      35.947  31.412  28.433  1.00  0.00     0.018 C 
ATOM     27  C   UNL A   1      36.113  29.896  28.381  1.00  0.00     0.006 C 
ENDBRANCH  25  26
ENDBRANCH  15  25
ENDBRANCH   9  14
ENDBRANCH   6   8
ENDBRANCH   5   6
ENDBRANCH   4   5
ENDBRANCH   3   4
ENDBRANCH   2   3
ENDBRANCH   1   2
BRANCH   1  28
ATOM     28  C   UNL A   1      44.701  20.082  24.993  1.00  0.00     0.188 C 
BRANCH  28  29
ATOM     29  O   UNL A   1      45.826  20.845  25.351  1.00  0.00    -0.376 OA
BRANCH  29  30
ATOM     30  C   UNL A   1      46.023  22.122  24.771  1.00  0.00     0.202 C 
BRANCH  30  31
ATOM     31  C   UNL A   1      45.922  23.458  25.536  1.00  0.00     0.261 C 
BRANCH  31  32
ATOM     32  O   UNL A   1      45.609  24.644  24.801  1.00  0.00    -0.460 OA
BRANCH  32  33
ATOM     33  C   UNL A   1      46.553  25.613  24.771  1.00  0.00     0.338 C 
ATOM     34  O   UNL A   1      47.525  25.678  24.040  1.00  0.00    -0.246 OA
BRANCH  33  35
ATOM     35  C   UNL A   1      46.132  26.693  25.686  1.00  0.00     0.060 A 
ATOM     36  C   UNL A   1      47.099  27.336  26.469  1.00  0.00     0.016 A 
ATOM     37  C   UNL A   1      44.787  27.057  25.778  1.00  0.00     0.016 A 
ATOM     38  C   UNL A   1      46.718  28.336  27.366  1.00  0.00     0.010 A 
ATOM     39  C   UNL A   1      44.405  28.045  26.691  1.00  0.00     0.010 A 
ATOM     40  C   UNL A   1      45.364  28.672  27.508  1.00  0.00    -0.014 A 
BRANCH  40  41
ATOM     41  C   UNL A   1      44.930  29.560  28.615  1.00  0.00     0.031 A 
ATOM     42  C   UNL A   1      44.619  28.948  29.953  1.00  0.00     0.074 A 
ATOM     43  C   UNL A   1      44.813  30.888  28.439  1.00  0.00     0.049 A 
ATOM     44  N   UNL A   1      44.162  29.511  31.042  1.00  0.00    -0.248 NA
ATOM     45  C   UNL A   1      44.854  27.501  30.076  1.00  0.00     0.031 C 
ATOM     46  C   UNL A   1      45.119  31.606  27.205  1.00  0.00     0.029 A 
ATOM     47  N   UNL A   1      44.391  31.866  29.305  1.00  0.00    -0.354 N 
ATOM     48  C   UNL A   1      44.050  28.489  31.976  1.00  0.00     0.074 A 
ATOM     49  C   UNL A   1      44.454  27.266  31.317  1.00  0.00     0.031 C 
ATOM     50  C   UNL A   1      44.863  32.913  27.388  1.00  0.00     0.029 A 
ATOM     51  C   UNL A   1      44.341  33.117  28.738  1.00  0.00     0.049 A 
ATOM     52  H   UNL A   1      44.147  31.689  30.242  1.00  0.00     0.167 HD
ATOM     53  C   UNL A   1      43.654  28.565  33.269  1.00  0.00     0.037 A 
ATOM     54  C   UNL A   1      43.900  34.284  29.248  1.00  0.00     0.037 A 
ATOM     55  C   UNL A   1      43.248  29.782  33.922  1.00  0.00     0.049 A 
ATOM     56  C   UNL A   1      43.387  34.328  30.667  1.00  0.00     0.074 A 
ATOM     57  C   UNL A   1      42.848  29.965  35.235  1.00  0.00     0.029 A 
ATOM     58  N   UNL A   1      43.182  31.025  33.308  1.00  0.00    -0.354 N 
ATOM     59  N   UNL A   1      43.310  33.365  31.553  1.00  0.00    -0.248 NA
ATOM     60  C   UNL A   1      42.902  35.628  31.156  1.00  0.00     0.031 C 
ATOM     61  C   UNL A   1      42.482  31.305  35.398  1.00  0.00     0.029 A 
ATOM     62  C   UNL A   1      42.717  31.972  34.206  1.00  0.00     0.049 A 
ATOM     63  H   UNL A   1      43.428  31.206  32.372  1.00  0.00     0.167 HD
ATOM     64  C   UNL A   1      42.802  33.945  32.708  1.00  0.00     0.074 A 
ATOM     65  C   UNL A   1      42.601  35.349  32.416  1.00  0.00     0.031 C 
ATOM     66  C   UNL A   1      42.529  33.369  33.906  1.00  0.00     0.037 A 
BRANCH  53  67
ATOM     67  C   UNL A   1      43.611  27.288  34.057  1.00  0.00     0.064 A 
ATOM     68  C   UNL A   1      44.778  26.683  34.549  1.00  0.00     0.173 A 
ATOM     69  C   UNL A   1      42.382  26.680  34.355  1.00  0.00     0.173 A 
ATOM     70  F   UNL A   1      45.979  27.216  34.281  1.00  0.00    -0.203 F 
ATOM     71  C   UNL A   1      44.716  25.502  35.286  1.00  0.00     0.198 A 
ATOM     72  C   UNL A   1      42.322  25.518  35.119  1.00  0.00     0.198 A 
ATOM     73  F   UNL A   1      41.236  27.220  33.912  1.00  0.00    -0.203 F 
ATOM     74  F   UNL A   1      45.846  24.916  35.703  1.00  0.00    -0.200 F 
ATOM     75  C   UNL A   1      43.488  24.926  35.576  1.00  0.00     0.200 A 
ATOM     76  F   UNL A   1      41.134  24.971  35.411  1.00  0.00    -0.200 F 
ATOM     77  F   UNL A   1      43.431  23.795  36.294  1.00  0.00    -0.200 F 
ENDBRANCH  53  67
BRANCH  54  78
ATOM     78  C   UNL A   1      43.904  35.513  28.409  1.00  0.00     0.064 A 
ATOM     79  C   UNL A   1      45.085  36.235  28.187  1.00  0.00     0.173 A 
ATOM     80  C   UNL A   1      42.722  36.008  27.840  1.00  0.00     0.173 A 
ATOM     81  F   UNL A   1      46.236  35.821  28.738  1.00  0.00    -0.203 F 
ATOM     82  C   UNL A   1      45.079  37.416  27.448  1.00  0.00     0.198 A 
ATOM     83  C   UNL A   1      42.723  37.173  27.074  1.00  0.00     0.198 A 
ATOM     84  F   UNL A   1      41.562  35.362  28.028  1.00  0.00    -0.203 F 
ATOM     85  F   UNL A   1      46.212  38.118  27.302  1.00  0.00    -0.200 F 
ATOM     86  C   UNL A   1      43.900  37.881  26.887  1.00  0.00     0.200 A 
ATOM     87  F   UNL A   1      41.581  37.614  26.528  1.00  0.00    -0.200 F 
ATOM     88  F   UNL A   1      43.894  39.018  26.179  1.00  0.00    -0.200 F 
ENDBRANCH  54  78
BRANCH  66  89
ATOM     89  C   UNL A   1      42.023  34.259  35.006  1.00  0.00     0.064 A 
ATOM     90  C   UNL A   1      40.652  34.424  35.255  1.00  0.00     0.173 A 
ATOM     91  C   UNL A   1      42.926  34.925  35.851  1.00  0.00     0.173 A 
ATOM     92  F   UNL A   1      39.747  33.821  34.471  1.00  0.00    -0.203 F 
ATOM     93  C   UNL A   1      40.205  35.244  36.289  1.00  0.00     0.198 A 
ATOM     94  C   UNL A   1      42.476  35.715  36.905  1.00  0.00     0.198 A 
ATOM     95  F   UNL A   1      44.248  34.794  35.665  1.00  0.00    -0.203 F 
ATOM     96  F   UNL A   1      38.890  35.427  36.475  1.00  0.00    -0.200 F 
ATOM     97  C   UNL A   1      41.116  35.882  37.117  1.00  0.00     0.200 A 
ATOM     98  F   UNL A   1      43.358  36.316  37.714  1.00  0.00    -0.200 F 
ATOM     99  F   UNL A   1      40.684  36.662  38.116  1.00  0.00    -0.200 F 
ENDBRANCH  66  89
ENDBRANCH  40  41
ENDBRANCH  33  35
ENDBRANCH  32  33
ENDBRANCH  31  32
ENDBRANCH  30  31
ENDBRANCH  29  30
ENDBRANCH  28  29
ENDBRANCH   1  28
TORSDOF 20
ENDMDL
