MODEL 1
REMARK VINA RESULT:     -11.6      0.000      0.000
REMARK SMILES O=C(OCCOCCOCCOC(=O)c1ccc(-c2c3nc(c(-c4c(F)c(F)c(F)c(F)c4F)c4ccc([nH]4)c(-c4c(F)c(F)c(F)c(F)c4F)c4nc(c(-c5c(F)c(F)c(F)c(F)c5F)c5ccc2[nH]5)C=C4)C=C3)cc1)c1ccc(C[C@H]2SC(=O)N(c3ccccc3)C2=O)cc1
REMARK SMILES IDX 7 1 6 2 5 3 4 4 3 5 2 6 1 7 78 8 79 9 97 10 80 11 96 12
REMARK SMILES IDX 81 13 82 14 83 15 84 16 94 17 85 18 87 19 95 20 86 21 88 22
REMARK SMILES IDX 89 23 93 24 90 25 92 26 91 27 8 28 9 29 10 30 11 31 12 32
REMARK SMILES IDX 13 33 14 34 15 35 16 36 77 37 17 38 76 39 18 40 19 41 20 42
REMARK SMILES IDX 70 43 21 44 75 45 69 46 71 47 22 48 74 49 68 50 67 51 23 53
REMARK SMILES IDX 55 54 35 55 54 56 36 57 39 58 53 59 72 60 37 61 38 62 52 64
REMARK SMILES IDX 73 65 40 66 24 67 25 68 33 69 26 70 27 71 31 72 34 73 28 74
REMARK SMILES IDX 29 75 32 76 30 77 56 78 57 79 65 80 58 81 59 82 63 83 66 84
REMARK SMILES IDX 60 85 61 86 64 87 62 88 41 89 42 90 50 91 43 92 44 93 48 94
REMARK SMILES IDX 51 95 45 96 46 97 49 98 47 99
REMARK H PARENT 71 52 39 63
REMARK Flexibility Score: inf
ROOT
ATOM      1  C   UNL A   1      34.417  33.666  28.580  1.00  0.00     0.188 C 
ENDROOT
BRANCH   1   2
ATOM      2  O   UNL A   1      34.020  32.300  28.644  1.00  0.00    -0.376 OA
BRANCH   2   3
ATOM      3  C   UNL A   1      34.102  31.514  27.457  1.00  0.00     0.202 C 
BRANCH   3   4
ATOM      4  C   UNL A   1      33.275  30.228  27.351  1.00  0.00     0.261 C 
BRANCH   4   5
ATOM      5  O   UNL A   1      32.211  30.201  26.375  1.00  0.00    -0.460 OA
BRANCH   5   6
ATOM      6  C   UNL A   1      31.884  29.262  25.461  1.00  0.00     0.338 C 
ATOM      7  O   UNL A   1      31.160  29.531  24.509  1.00  0.00    -0.246 OA
BRANCH   6   8
ATOM      8  C   UNL A   1      32.451  27.912  25.554  1.00  0.00     0.060 A 
ATOM      9  C   UNL A   1      33.605  27.546  24.865  1.00  0.00     0.016 A 
ATOM     10  C   UNL A   1      31.882  27.030  26.473  1.00  0.00     0.016 A 
ATOM     11  C   UNL A   1      34.065  26.235  24.928  1.00  0.00     0.004 A 
ATOM     12  C   UNL A   1      32.361  25.725  26.565  1.00  0.00     0.004 A 
ATOM     13  C   UNL A   1      33.407  25.302  25.736  1.00  0.00    -0.046 A 
BRANCH  13  14
ATOM     14  C   UNL A   1      33.746  23.837  25.625  1.00  0.00     0.060 C 
BRANCH  14  15
ATOM     15  C   UNL A   1      32.479  22.962  25.678  1.00  0.00     0.151 C 
ATOM     16  S   UNL A   1      31.610  22.856  24.091  1.00  0.00    -0.050 SA
ATOM     17  C   UNL A   1      32.880  21.545  26.002  1.00  0.00     0.248 C 
ATOM     18  C   UNL A   1      32.238  21.257  23.756  1.00  0.00     0.293 C 
ATOM     19  N   UNL A   1      32.812  20.720  24.888  1.00  0.00    -0.240 N 
ATOM     20  O   UNL A   1      33.303  21.256  27.119  1.00  0.00    -0.273 OA
ATOM     21  O   UNL A   1      32.093  20.761  22.653  1.00  0.00    -0.261 OA
BRANCH  19  22
ATOM     22  C   UNL A   1      33.330  19.394  24.908  1.00  0.00     0.053 A 
ATOM     23  C   UNL A   1      34.659  19.136  24.543  1.00  0.00     0.027 A 
ATOM     24  C   UNL A   1      32.515  18.309  25.264  1.00  0.00     0.027 A 
ATOM     25  C   UNL A   1      35.158  17.832  24.522  1.00  0.00     0.002 A 
ATOM     26  C   UNL A   1      33.006  17.001  25.214  1.00  0.00     0.002 A 
ATOM     27  C   UNL A   1      34.325  16.764  24.845  1.00  0.00     0.000 A 
ENDBRANCH  19  22
ENDBRANCH  14  15
ENDBRANCH  13  14
ENDBRANCH   6   8
ENDBRANCH   5   6
ENDBRANCH   4   5
ENDBRANCH   3   4
ENDBRANCH   2   3
ENDBRANCH   1   2
BRANCH   1  28
ATOM     28  C   UNL A   1      33.553  34.558  29.474  1.00  0.00     0.188 C 
BRANCH  28  29
ATOM     29  O   UNL A   1      33.668  34.330  30.873  1.00  0.00    -0.376 OA
BRANCH  29  30
ATOM     30  C   UNL A   1      34.192  35.400  31.656  1.00  0.00     0.202 C 
BRANCH  30  31
ATOM     31  C   UNL A   1      35.237  35.047  32.729  1.00  0.00     0.261 C 
BRANCH  31  32
ATOM     32  O   UNL A   1      36.262  34.106  32.334  1.00  0.00    -0.460 OA
BRANCH  32  33
ATOM     33  C   UNL A   1      36.174  32.888  32.922  1.00  0.00     0.338 C 
ATOM     34  O   UNL A   1      35.533  32.593  33.918  1.00  0.00    -0.246 OA
BRANCH  33  35
ATOM     35  C   UNL A   1      36.977  31.866  32.224  1.00  0.00     0.060 A 
ATOM     36  C   UNL A   1      37.988  31.195  32.922  1.00  0.00     0.016 A 
ATOM     37  C   UNL A   1      36.938  31.813  30.828  1.00  0.00     0.016 A 
ATOM     38  C   UNL A   1      39.008  30.541  32.218  1.00  0.00     0.010 A 
ATOM     39  C   UNL A   1      37.952  31.142  30.128  1.00  0.00     0.010 A 
ATOM     40  C   UNL A   1      39.030  30.556  30.814  1.00  0.00    -0.014 A 
BRANCH  40  41
ATOM     41  C   UNL A   1      40.239  30.097  30.068  1.00  0.00     0.031 A 
ATOM     42  C   UNL A   1      41.384  31.056  29.826  1.00  0.00     0.074 A 
ATOM     43  C   UNL A   1      40.340  28.836  29.611  1.00  0.00     0.049 A 
ATOM     44  N   UNL A   1      42.510  30.869  29.179  1.00  0.00    -0.248 NA
ATOM     45  C   UNL A   1      41.236  32.408  30.383  1.00  0.00     0.031 C 
ATOM     46  C   UNL A   1      39.335  27.792  29.789  1.00  0.00     0.029 A 
ATOM     47  N   UNL A   1      41.341  28.222  28.896  1.00  0.00    -0.354 N 
ATOM     48  C   UNL A   1      43.193  32.079  29.239  1.00  0.00     0.074 A 
ATOM     49  C   UNL A   1      42.339  33.003  29.955  1.00  0.00     0.031 C 
ATOM     50  C   UNL A   1      39.771  26.663  29.205  1.00  0.00     0.029 A 
ATOM     51  C   UNL A   1      41.070  26.913  28.580  1.00  0.00     0.049 A 
ATOM     52  H   UNL A   1      42.174  28.677  28.634  1.00  0.00     0.167 HD
ATOM     53  C   UNL A   1      44.422  32.393  28.754  1.00  0.00     0.037 A 
ATOM     54  C   UNL A   1      41.779  26.020  27.860  1.00  0.00     0.037 A 
ATOM     55  C   UNL A   1      45.286  31.476  28.052  1.00  0.00     0.049 A 
ATOM     56  C   UNL A   1      43.115  26.412  27.278  1.00  0.00     0.074 A 
ATOM     57  C   UNL A   1      46.565  31.696  27.567  1.00  0.00     0.029 A 
ATOM     58  N   UNL A   1      44.958  30.169  27.725  1.00  0.00    -0.354 N 
ATOM     59  N   UNL A   1      43.769  27.543  27.380  1.00  0.00    -0.248 NA
ATOM     60  C   UNL A   1      43.813  25.391  26.481  1.00  0.00     0.031 C 
ATOM     61  C   UNL A   1      46.983  30.547  26.888  1.00  0.00     0.029 A 
ATOM     62  C   UNL A   1      45.996  29.584  27.013  1.00  0.00     0.049 A 
ATOM     63  H   UNL A   1      44.114  29.723  27.963  1.00  0.00     0.167 HD
ATOM     64  C   UNL A   1      44.969  27.355  26.703  1.00  0.00     0.074 A 
ATOM     65  C   UNL A   1      44.957  25.999  26.201  1.00  0.00     0.031 C 
ATOM     66  C   UNL A   1      45.991  28.229  26.521  1.00  0.00     0.037 A 
BRANCH  53  67
ATOM     67  C   UNL A   1      44.904  33.806  28.939  1.00  0.00     0.064 A 
ATOM     68  C   UNL A   1      45.673  34.192  30.047  1.00  0.00     0.173 A 
ATOM     69  C   UNL A   1      44.629  34.781  27.965  1.00  0.00     0.173 A 
ATOM     70  F   UNL A   1      45.964  33.304  31.009  1.00  0.00    -0.203 F 
ATOM     71  C   UNL A   1      46.114  35.506  30.193  1.00  0.00     0.198 A 
ATOM     72  C   UNL A   1      45.102  36.084  28.096  1.00  0.00     0.198 A 
ATOM     73  F   UNL A   1      43.911  34.465  26.876  1.00  0.00    -0.203 F 
ATOM     74  F   UNL A   1      46.801  35.863  31.287  1.00  0.00    -0.200 F 
ATOM     75  C   UNL A   1      45.834  36.448  29.215  1.00  0.00     0.200 A 
ATOM     76  F   UNL A   1      44.848  36.987  27.139  1.00  0.00    -0.200 F 
ATOM     77  F   UNL A   1      46.267  37.709  29.353  1.00  0.00    -0.200 F 
ENDBRANCH  53  67
BRANCH  54  78
ATOM     78  C   UNL A   1      41.249  24.646  27.651  1.00  0.00     0.064 A 
ATOM     79  C   UNL A   1      41.839  23.541  28.281  1.00  0.00     0.173 A 
ATOM     80  C   UNL A   1      40.164  24.405  26.795  1.00  0.00     0.173 A 
ATOM     81  F   UNL A   1      42.898  23.717  29.086  1.00  0.00    -0.203 F 
ATOM     82  C   UNL A   1      41.381  22.247  28.046  1.00  0.00     0.198 A 
ATOM     83  C   UNL A   1      39.686  23.113  26.586  1.00  0.00     0.198 A 
ATOM     84  F   UNL A   1      39.565  25.426  26.163  1.00  0.00    -0.203 F 
ATOM     85  F   UNL A   1      42.000  21.205  28.617  1.00  0.00    -0.200 F 
ATOM     86  C   UNL A   1      40.300  22.035  27.203  1.00  0.00     0.200 A 
ATOM     87  F   UNL A   1      38.633  22.914  25.781  1.00  0.00    -0.200 F 
ATOM     88  F   UNL A   1      39.858  20.790  26.979  1.00  0.00    -0.200 F 
ENDBRANCH  54  78
BRANCH  66  89
ATOM     89  C   UNL A   1      47.213  27.732  25.794  1.00  0.00     0.064 A 
ATOM     90  C   UNL A   1      47.320  27.779  24.396  1.00  0.00     0.173 A 
ATOM     91  C   UNL A   1      48.305  27.219  26.514  1.00  0.00     0.173 A 
ATOM     92  F   UNL A   1      46.303  28.249  23.656  1.00  0.00    -0.203 F 
ATOM     93  C   UNL A   1      48.454  27.297  23.745  1.00  0.00     0.198 A 
ATOM     94  C   UNL A   1      49.451  26.772  25.862  1.00  0.00     0.198 A 
ATOM     95  F   UNL A   1      48.264  27.158  27.853  1.00  0.00    -0.203 F 
ATOM     96  F   UNL A   1      48.505  27.295  22.406  1.00  0.00    -0.200 F 
ATOM     97  C   UNL A   1      49.521  26.801  24.478  1.00  0.00     0.200 A 
ATOM     98  F   UNL A   1      50.488  26.309  26.575  1.00  0.00    -0.200 F 
ATOM     99  F   UNL A   1      50.611  26.339  23.851  1.00  0.00    -0.200 F 
ENDBRANCH  66  89
ENDBRANCH  40  41
ENDBRANCH  33  35
ENDBRANCH  32  33
ENDBRANCH  31  32
ENDBRANCH  30  31
ENDBRANCH  29  30
ENDBRANCH  28  29
ENDBRANCH   1  28
TORSDOF 20
ENDMDL
MODEL 2
REMARK VINA RESULT:     -10.9      0.921      6.965
REMARK SMILES O=C(OCCOCCOCCOC(=O)c1ccc(-c2c3nc(c(-c4c(F)c(F)c(F)c(F)c4F)c4ccc([nH]4)c(-c4c(F)c(F)c(F)c(F)c4F)c4nc(c(-c5c(F)c(F)c(F)c(F)c5F)c5ccc2[nH]5)C=C4)C=C3)cc1)c1ccc(C[C@H]2SC(=O)N(c3ccccc3)C2=O)cc1
REMARK SMILES IDX 7 1 6 2 5 3 4 4 3 5 2 6 1 7 78 8 79 9 97 10 80 11 96 12
REMARK SMILES IDX 81 13 82 14 83 15 84 16 94 17 85 18 87 19 95 20 86 21 88 22
REMARK SMILES IDX 89 23 93 24 90 25 92 26 91 27 8 28 9 29 10 30 11 31 12 32
REMARK SMILES IDX 13 33 14 34 15 35 16 36 77 37 17 38 76 39 18 40 19 41 20 42
REMARK SMILES IDX 70 43 21 44 75 45 69 46 71 47 22 48 74 49 68 50 67 51 23 53
REMARK SMILES IDX 55 54 35 55 54 56 36 57 39 58 53 59 72 60 37 61 38 62 52 64
REMARK SMILES IDX 73 65 40 66 24 67 25 68 33 69 26 70 27 71 31 72 34 73 28 74
REMARK SMILES IDX 29 75 32 76 30 77 56 78 57 79 65 80 58 81 59 82 63 83 66 84
REMARK SMILES IDX 60 85 61 86 64 87 62 88 41 89 42 90 50 91 43 92 44 93 48 94
REMARK SMILES IDX 51 95 45 96 46 97 49 98 47 99
REMARK H PARENT 71 52 39 63
REMARK Flexibility Score: inf
ROOT
ATOM      1  C   UNL A   1      35.451  33.108  28.621  1.00  0.00     0.188 C 
ENDROOT
BRANCH   1   2
ATOM      2  O   UNL A   1      34.235  32.620  28.065  1.00  0.00    -0.376 OA
BRANCH   2   3
ATOM      3  C   UNL A   1      34.247  31.351  27.416  1.00  0.00     0.202 C 
BRANCH   3   4
ATOM      4  C   UNL A   1      32.918  30.653  27.109  1.00  0.00     0.261 C 
BRANCH   4   5
ATOM      5  O   UNL A   1      32.698  30.209  25.752  1.00  0.00    -0.460 OA
BRANCH   5   6
ATOM      6  C   UNL A   1      31.889  29.243  25.266  1.00  0.00     0.338 C 
ATOM      7  O   UNL A   1      30.828  29.523  24.721  1.00  0.00    -0.246 OA
BRANCH   6   8
ATOM      8  C   UNL A   1      32.303  27.836  25.321  1.00  0.00     0.060 A 
ATOM      9  C   UNL A   1      33.628  27.464  25.536  1.00  0.00     0.016 A 
ATOM     10  C   UNL A   1      31.304  26.863  25.296  1.00  0.00     0.016 A 
ATOM     11  C   UNL A   1      33.984  26.120  25.509  1.00  0.00     0.004 A 
ATOM     12  C   UNL A   1      31.653  25.515  25.305  1.00  0.00     0.004 A 
ATOM     13  C   UNL A   1      33.002  25.140  25.335  1.00  0.00    -0.046 A 
BRANCH  13  14
ATOM     14  C   UNL A   1      33.402  23.712  25.064  1.00  0.00     0.060 C 
BRANCH  14  15
ATOM     15  C   UNL A   1      32.174  22.783  25.026  1.00  0.00     0.151 C 
ATOM     16  S   UNL A   1      31.385  22.698  23.397  1.00  0.00    -0.050 SA
ATOM     17  C   UNL A   1      32.622  21.372  25.318  1.00  0.00     0.248 C 
ATOM     18  C   UNL A   1      32.098  21.141  23.035  1.00  0.00     0.293 C 
ATOM     19  N   UNL A   1      32.643  20.588  24.174  1.00  0.00    -0.240 N 
ATOM     20  O   UNL A   1      33.006  21.060  26.444  1.00  0.00    -0.273 OA
ATOM     21  O   UNL A   1      32.026  20.681  21.910  1.00  0.00    -0.261 OA
BRANCH  19  22
ATOM     22  C   UNL A   1      33.217  19.285  24.172  1.00  0.00     0.053 A 
ATOM     23  C   UNL A   1      34.552  19.088  24.553  1.00  0.00     0.027 A 
ATOM     24  C   UNL A   1      32.472  18.171  23.761  1.00  0.00     0.027 A 
ATOM     25  C   UNL A   1      35.131  17.818  24.513  1.00  0.00     0.002 A 
ATOM     26  C   UNL A   1      33.059  16.904  23.693  1.00  0.00     0.002 A 
ATOM     27  C   UNL A   1      34.386  16.729  24.069  1.00  0.00     0.000 A 
ENDBRANCH  19  22
ENDBRANCH  14  15
ENDBRANCH  13  14
ENDBRANCH   6   8
ENDBRANCH   5   6
ENDBRANCH   4   5
ENDBRANCH   3   4
ENDBRANCH   2   3
ENDBRANCH   1   2
BRANCH   1  28
ATOM     28  C   UNL A   1      35.206  34.136  29.727  1.00  0.00     0.188 C 
BRANCH  28  29
ATOM     29  O   UNL A   1      34.023  33.952  30.494  1.00  0.00    -0.376 OA
BRANCH  29  30
ATOM     30  C   UNL A   1      34.171  33.956  31.911  1.00  0.00     0.202 C 
BRANCH  30  31
ATOM     31  C   UNL A   1      34.942  32.784  32.546  1.00  0.00     0.261 C 
BRANCH  31  32
ATOM     32  O   UNL A   1      36.369  32.964  32.687  1.00  0.00    -0.460 OA
BRANCH  32  33
ATOM     33  C   UNL A   1      37.008  31.960  33.337  1.00  0.00     0.338 C 
ATOM     34  O   UNL A   1      37.019  31.748  34.539  1.00  0.00    -0.246 OA
BRANCH  33  35
ATOM     35  C   UNL A   1      37.754  31.079  32.417  1.00  0.00     0.060 A 
ATOM     36  C   UNL A   1      38.753  30.244  32.930  1.00  0.00     0.016 A 
ATOM     37  C   UNL A   1      37.681  31.319  31.043  1.00  0.00     0.016 A 
ATOM     38  C   UNL A   1      39.731  29.716  32.076  1.00  0.00     0.010 A 
ATOM     39  C   UNL A   1      38.651  30.775  30.188  1.00  0.00     0.010 A 
ATOM     40  C   UNL A   1      39.720  30.022  30.705  1.00  0.00    -0.014 A 
BRANCH  40  41
ATOM     41  C   UNL A   1      40.894  29.688  29.844  1.00  0.00     0.031 A 
ATOM     42  C   UNL A   1      40.992  28.323  29.200  1.00  0.00     0.074 A 
ATOM     43  C   UNL A   1      41.869  30.586  29.617  1.00  0.00     0.049 A 
ATOM     44  N   UNL A   1      41.938  27.821  28.442  1.00  0.00    -0.248 NA
ATOM     45  C   UNL A   1      39.878  27.397  29.451  1.00  0.00     0.031 C 
ATOM     46  C   UNL A   1      41.902  31.948  30.143  1.00  0.00     0.029 A 
ATOM     47  N   UNL A   1      43.028  30.480  28.883  1.00  0.00    -0.354 N 
ATOM     48  C   UNL A   1      41.540  26.523  28.140  1.00  0.00     0.074 A 
ATOM     49  C   UNL A   1      40.285  26.302  28.826  1.00  0.00     0.031 C 
ATOM     50  C   UNL A   1      43.020  32.555  29.711  1.00  0.00     0.029 A 
ATOM     51  C   UNL A   1      43.802  31.615  28.907  1.00  0.00     0.049 A 
ATOM     52  H   UNL A   1      43.280  29.668  28.387  1.00  0.00     0.167 HD
ATOM     53  C   UNL A   1      42.154  25.600  27.355  1.00  0.00     0.037 A 
ATOM     54  C   UNL A   1      45.006  31.866  28.356  1.00  0.00     0.037 A 
ATOM     55  C   UNL A   1      43.397  25.814  26.656  1.00  0.00     0.049 A 
ATOM     56  C   UNL A   1      45.699  30.802  27.540  1.00  0.00     0.074 A 
ATOM     57  C   UNL A   1      44.067  24.952  25.803  1.00  0.00     0.029 A 
ATOM     58  N   UNL A   1      44.164  26.966  26.735  1.00  0.00    -0.354 N 
ATOM     59  N   UNL A   1      45.292  29.597  27.224  1.00  0.00    -0.248 NA
ATOM     60  C   UNL A   1      47.023  31.144  26.997  1.00  0.00     0.031 C 
ATOM     61  C   UNL A   1      45.270  25.555  25.422  1.00  0.00     0.029 A 
ATOM     62  C   UNL A   1      45.317  26.822  25.976  1.00  0.00     0.049 A 
ATOM     63  H   UNL A   1      43.925  27.769  27.253  1.00  0.00     0.167 HD
ATOM     64  C   UNL A   1      46.284  29.057  26.414  1.00  0.00     0.074 A 
ATOM     65  C   UNL A   1      47.309  30.068  26.278  1.00  0.00     0.031 C 
ATOM     66  C   UNL A   1      46.335  27.833  25.831  1.00  0.00     0.037 A 
BRANCH  53  67
ATOM     67  C   UNL A   1      41.504  24.249  27.230  1.00  0.00     0.064 A 
ATOM     68  C   UNL A   1      42.039  23.105  27.841  1.00  0.00     0.173 A 
ATOM     69  C   UNL A   1      40.299  24.106  26.521  1.00  0.00     0.173 A 
ATOM     70  F   UNL A   1      43.189  23.182  28.528  1.00  0.00    -0.203 F 
ATOM     71  C   UNL A   1      41.415  21.866  27.717  1.00  0.00     0.198 A 
ATOM     72  C   UNL A   1      39.660  22.873  26.429  1.00  0.00     0.198 A 
ATOM     73  F   UNL A   1      39.733  25.169  25.928  1.00  0.00    -0.203 F 
ATOM     74  F   UNL A   1      41.974  20.777  28.264  1.00  0.00    -0.200 F 
ATOM     75  C   UNL A   1      40.224  21.751  27.017  1.00  0.00     0.200 A 
ATOM     76  F   UNL A   1      38.498  22.770  25.770  1.00  0.00    -0.200 F 
ATOM     77  F   UNL A   1      39.621  20.560  26.905  1.00  0.00    -0.200 F 
ENDBRANCH  53  67
BRANCH  54  78
ATOM     78  C   UNL A   1      45.646  33.196  28.545  1.00  0.00     0.064 A 
ATOM     79  C   UNL A   1      46.571  33.410  29.577  1.00  0.00     0.173 A 
ATOM     80  C   UNL A   1      45.325  34.284  27.721  1.00  0.00     0.173 A 
ATOM     81  F   UNL A   1      46.889  32.408  30.410  1.00  0.00    -0.203 F 
ATOM     82  C   UNL A   1      47.132  34.667  29.792  1.00  0.00     0.198 A 
ATOM     83  C   UNL A   1      45.912  35.532  27.916  1.00  0.00     0.198 A 
ATOM     84  F   UNL A   1      44.443  34.134  26.721  1.00  0.00    -0.203 F 
ATOM     85  F   UNL A   1      47.970  34.858  30.820  1.00  0.00    -0.200 F 
ATOM     86  C   UNL A   1      46.807  35.725  28.957  1.00  0.00     0.200 A 
ATOM     87  F   UNL A   1      45.604  36.550  27.100  1.00  0.00    -0.200 F 
ATOM     88  F   UNL A   1      47.349  36.934  29.163  1.00  0.00    -0.200 F 
ENDBRANCH  54  78
BRANCH  66  89
ATOM     89  C   UNL A   1      47.512  27.533  24.941  1.00  0.00     0.064 A 
ATOM     90  C   UNL A   1      47.519  27.862  23.577  1.00  0.00     0.173 A 
ATOM     91  C   UNL A   1      48.661  26.922  25.469  1.00  0.00     0.173 A 
ATOM     92  F   UNL A   1      46.444  28.437  23.015  1.00  0.00    -0.203 F 
ATOM     93  C   UNL A   1      48.614  27.557  22.769  1.00  0.00     0.198 A 
ATOM     94  C   UNL A   1      49.768  26.652  24.666  1.00  0.00     0.198 A 
ATOM     95  F   UNL A   1      48.716  26.593  26.768  1.00  0.00    -0.203 F 
ATOM     96  F   UNL A   1      48.570  27.825  21.457  1.00  0.00    -0.200 F 
ATOM     97  C   UNL A   1      49.738  26.959  23.315  1.00  0.00     0.200 A 
ATOM     98  F   UNL A   1      50.860  26.090  25.202  1.00  0.00    -0.200 F 
ATOM     99  F   UNL A   1      50.791  26.668  22.538  1.00  0.00    -0.200 F 
ENDBRANCH  66  89
ENDBRANCH  40  41
ENDBRANCH  33  35
ENDBRANCH  32  33
ENDBRANCH  31  32
ENDBRANCH  30  31
ENDBRANCH  29  30
ENDBRANCH  28  29
ENDBRANCH   1  28
TORSDOF 20
ENDMDL
MODEL 3
REMARK VINA RESULT:     -10.9      3.561      9.794
REMARK SMILES O=C(OCCOCCOCCOC(=O)c1ccc(-c2c3nc(c(-c4c(F)c(F)c(F)c(F)c4F)c4ccc([nH]4)c(-c4c(F)c(F)c(F)c(F)c4F)c4nc(c(-c5c(F)c(F)c(F)c(F)c5F)c5ccc2[nH]5)C=C4)C=C3)cc1)c1ccc(C[C@H]2SC(=O)N(c3ccccc3)C2=O)cc1
REMARK SMILES IDX 7 1 6 2 5 3 4 4 3 5 2 6 1 7 78 8 79 9 97 10 80 11 96 12
REMARK SMILES IDX 81 13 82 14 83 15 84 16 94 17 85 18 87 19 95 20 86 21 88 22
REMARK SMILES IDX 89 23 93 24 90 25 92 26 91 27 8 28 9 29 10 30 11 31 12 32
REMARK SMILES IDX 13 33 14 34 15 35 16 36 77 37 17 38 76 39 18 40 19 41 20 42
REMARK SMILES IDX 70 43 21 44 75 45 69 46 71 47 22 48 74 49 68 50 67 51 23 53
REMARK SMILES IDX 55 54 35 55 54 56 36 57 39 58 53 59 72 60 37 61 38 62 52 64
REMARK SMILES IDX 73 65 40 66 24 67 25 68 33 69 26 70 27 71 31 72 34 73 28 74
REMARK SMILES IDX 29 75 32 76 30 77 56 78 57 79 65 80 58 81 59 82 63 83 66 84
REMARK SMILES IDX 60 85 61 86 64 87 62 88 41 89 42 90 50 91 43 92 44 93 48 94
REMARK SMILES IDX 51 95 45 96 46 97 49 98 47 99
REMARK H PARENT 71 52 39 63
REMARK Flexibility Score: inf
ROOT
ATOM      1  C   UNL A   1      40.013  21.256  26.196  1.00  0.00     0.188 C 
ENDROOT
BRANCH   1   2
ATOM      2  O   UNL A   1      38.956  20.908  25.307  1.00  0.00    -0.376 OA
BRANCH   2   3
ATOM      3  C   UNL A   1      37.658  21.444  25.552  1.00  0.00     0.202 C 
BRANCH   3   4
ATOM      4  C   UNL A   1      36.425  20.660  25.094  1.00  0.00     0.261 C 
BRANCH   4   5
ATOM      5  O   UNL A   1      35.156  21.007  25.691  1.00  0.00    -0.460 OA
BRANCH   5   6
ATOM      6  C   UNL A   1      34.044  21.539  25.141  1.00  0.00     0.338 C 
ATOM      7  O   UNL A   1      33.309  20.869  24.425  1.00  0.00    -0.246 OA
BRANCH   6   8
ATOM      8  C   UNL A   1      33.657  22.922  25.449  1.00  0.00     0.060 A 
ATOM      9  C   UNL A   1      32.360  23.258  25.830  1.00  0.00     0.016 A 
ATOM     10  C   UNL A   1      34.664  23.885  25.488  1.00  0.00     0.016 A 
ATOM     11  C   UNL A   1      32.022  24.590  26.043  1.00  0.00     0.004 A 
ATOM     12  C   UNL A   1      34.337  25.216  25.736  1.00  0.00     0.004 A 
ATOM     13  C   UNL A   1      33.001  25.584  25.938  1.00  0.00    -0.046 A 
BRANCH  13  14
ATOM     14  C   UNL A   1      32.600  27.038  25.927  1.00  0.00     0.060 C 
BRANCH  14  15
ATOM     15  C   UNL A   1      33.029  27.727  24.618  1.00  0.00     0.151 C 
ATOM     16  S   UNL A   1      33.181  26.585  23.219  1.00  0.00    -0.050 SA
ATOM     17  C   UNL A   1      31.956  28.706  24.210  1.00  0.00     0.248 C 
ATOM     18  C   UNL A   1      31.649  27.084  22.534  1.00  0.00     0.293 C 
ATOM     19  N   UNL A   1      31.203  28.235  23.145  1.00  0.00    -0.240 N 
ATOM     20  O   UNL A   1      31.769  29.733  24.861  1.00  0.00    -0.273 OA
ATOM     21  O   UNL A   1      31.156  26.455  21.614  1.00  0.00    -0.261 OA
BRANCH  19  22
ATOM     22  C   UNL A   1      30.016  28.897  22.719  1.00  0.00     0.053 A 
ATOM     23  C   UNL A   1      30.079  29.989  21.841  1.00  0.00     0.027 A 
ATOM     24  C   UNL A   1      28.759  28.494  23.190  1.00  0.00     0.027 A 
ATOM     25  C   UNL A   1      28.921  30.667  21.454  1.00  0.00     0.002 A 
ATOM     26  C   UNL A   1      27.603  29.190  22.826  1.00  0.00     0.002 A 
ATOM     27  C   UNL A   1      27.685  30.275  21.959  1.00  0.00     0.000 A 
ENDBRANCH  19  22
ENDBRANCH  14  15
ENDBRANCH  13  14
ENDBRANCH   6   8
ENDBRANCH   5   6
ENDBRANCH   4   5
ENDBRANCH   3   4
ENDBRANCH   2   3
ENDBRANCH   1   2
BRANCH   1  28
ATOM     28  C   UNL A   1      40.800  20.030  26.662  1.00  0.00     0.188 C 
BRANCH  28  29
ATOM     29  O   UNL A   1      41.579  19.378  25.667  1.00  0.00    -0.376 OA
BRANCH  29  30
ATOM     30  C   UNL A   1      42.604  18.502  26.128  1.00  0.00     0.202 C 
BRANCH  30  31
ATOM     31  C   UNL A   1      43.913  18.458  25.320  1.00  0.00     0.261 C 
BRANCH  31  32
ATOM     32  O   UNL A   1      44.047  19.441  24.269  1.00  0.00    -0.460 OA
BRANCH  32  33
ATOM     33  C   UNL A   1      44.986  20.391  24.494  1.00  0.00     0.338 C 
ATOM     34  O   UNL A   1      46.186  20.309  24.285  1.00  0.00    -0.246 OA
BRANCH  33  35
ATOM     35  C   UNL A   1      44.413  21.627  25.061  1.00  0.00     0.060 A 
ATOM     36  C   UNL A   1      44.351  22.779  24.270  1.00  0.00     0.016 A 
ATOM     37  C   UNL A   1      44.241  21.719  26.445  1.00  0.00     0.016 A 
ATOM     38  C   UNL A   1      44.203  24.036  24.873  1.00  0.00     0.010 A 
ATOM     39  C   UNL A   1      44.076  22.977  27.044  1.00  0.00     0.010 A 
ATOM     40  C   UNL A   1      44.120  24.151  26.270  1.00  0.00    -0.014 A 
BRANCH  40  41
ATOM     41  C   UNL A   1      44.229  25.486  26.931  1.00  0.00     0.031 A 
ATOM     42  C   UNL A   1      45.592  26.088  27.191  1.00  0.00     0.074 A 
ATOM     43  C   UNL A   1      43.133  26.176  27.293  1.00  0.00     0.049 A 
ATOM     44  N   UNL A   1      45.909  27.219  27.776  1.00  0.00    -0.248 NA
ATOM     45  C   UNL A   1      46.752  25.307  26.738  1.00  0.00     0.031 C 
ATOM     46  C   UNL A   1      41.755  25.741  27.084  1.00  0.00     0.029 A 
ATOM     47  N   UNL A   1      43.010  27.394  27.920  1.00  0.00    -0.354 N 
ATOM     48  C   UNL A   1      47.299  27.277  27.773  1.00  0.00     0.074 A 
ATOM     49  C   UNL A   1      47.764  26.050  27.160  1.00  0.00     0.031 C 
ATOM     50  C   UNL A   1      40.924  26.679  27.568  1.00  0.00     0.029 A 
ATOM     51  C   UNL A   1      41.709  27.766  28.154  1.00  0.00     0.049 A 
ATOM     52  H   UNL A   1      43.782  27.948  28.178  1.00  0.00     0.167 HD
ATOM     53  C   UNL A   1      48.116  28.262  28.226  1.00  0.00     0.037 A 
ATOM     54  C   UNL A   1      41.206  28.850  28.778  1.00  0.00     0.037 A 
ATOM     55  C   UNL A   1      47.663  29.493  28.824  1.00  0.00     0.049 A 
ATOM     56  C   UNL A   1      42.137  29.902  29.330  1.00  0.00     0.074 A 
ATOM     57  C   UNL A   1      48.418  30.566  29.269  1.00  0.00     0.029 A 
ATOM     58  N   UNL A   1      46.337  29.814  29.072  1.00  0.00    -0.354 N 
ATOM     59  N   UNL A   1      43.444  29.966  29.280  1.00  0.00    -0.248 NA
ATOM     60  C   UNL A   1      41.511  31.039  30.022  1.00  0.00     0.031 C 
ATOM     61  C   UNL A   1      47.556  31.503  29.848  1.00  0.00     0.029 A 
ATOM     62  C   UNL A   1      46.257  31.051  29.697  1.00  0.00     0.049 A 
ATOM     63  H   UNL A   1      45.566  29.248  28.839  1.00  0.00     0.167 HD
ATOM     64  C   UNL A   1      43.793  31.166  29.891  1.00  0.00     0.074 A 
ATOM     65  C   UNL A   1      42.560  31.802  30.296  1.00  0.00     0.031 C 
ATOM     66  C   UNL A   1      45.027  31.692  30.092  1.00  0.00     0.037 A 
BRANCH  53  67
ATOM     67  C   UNL A   1      49.600  28.040  28.122  1.00  0.00     0.064 A 
ATOM     68  C   UNL A   1      50.353  28.531  27.044  1.00  0.00     0.173 A 
ATOM     69  C   UNL A   1      50.289  27.362  29.142  1.00  0.00     0.173 A 
ATOM     70  F   UNL A   1      49.749  29.183  26.040  1.00  0.00    -0.203 F 
ATOM     71  C   UNL A   1      51.728  28.319  26.973  1.00  0.00     0.198 A 
ATOM     72  C   UNL A   1      51.668  27.184  29.085  1.00  0.00     0.198 A 
ATOM     73  F   UNL A   1      49.623  26.884  30.205  1.00  0.00    -0.203 F 
ATOM     74  F   UNL A   1      52.417  28.750  25.907  1.00  0.00    -0.200 F 
ATOM     75  C   UNL A   1      52.385  27.652  27.995  1.00  0.00     0.200 A 
ATOM     76  F   UNL A   1      52.303  26.557  30.085  1.00  0.00    -0.200 F 
ATOM     77  F   UNL A   1      53.710  27.456  27.929  1.00  0.00    -0.200 F 
ENDBRANCH  53  67
BRANCH  54  78
ATOM     78  C   UNL A   1      39.733  29.012  28.912  1.00  0.00     0.064 A 
ATOM     79  C   UNL A   1      38.948  29.399  27.817  1.00  0.00     0.173 A 
ATOM     80  C   UNL A   1      39.086  28.816  30.141  1.00  0.00     0.173 A 
ATOM     81  F   UNL A   1      39.525  29.628  26.627  1.00  0.00    -0.203 F 
ATOM     82  C   UNL A   1      37.577  29.606  27.950  1.00  0.00     0.198 A 
ATOM     83  C   UNL A   1      37.709  28.991  30.265  1.00  0.00     0.198 A 
ATOM     84  F   UNL A   1      39.791  28.450  31.222  1.00  0.00    -0.203 F 
ATOM     85  F   UNL A   1      36.860  30.030  26.900  1.00  0.00    -0.200 F 
ATOM     86  C   UNL A   1      36.958  29.395  29.173  1.00  0.00     0.200 A 
ATOM     87  F   UNL A   1      37.113  28.774  31.446  1.00  0.00    -0.200 F 
ATOM     88  F   UNL A   1      35.639  29.592  29.300  1.00  0.00    -0.200 F 
ENDBRANCH  54  78
BRANCH  66  89
ATOM     89  C   UNL A   1      45.110  33.054  30.729  1.00  0.00     0.064 A 
ATOM     90  C   UNL A   1      45.299  33.221  32.109  1.00  0.00     0.173 A 
ATOM     91  C   UNL A   1      45.017  34.212  29.939  1.00  0.00     0.173 A 
ATOM     92  F   UNL A   1      45.382  32.151  32.915  1.00  0.00    -0.203 F 
ATOM     93  C   UNL A   1      45.354  34.493  32.679  1.00  0.00     0.198 A 
ATOM     94  C   UNL A   1      45.109  35.481  30.508  1.00  0.00     0.198 A 
ATOM     95  F   UNL A   1      44.846  34.115  28.613  1.00  0.00    -0.203 F 
ATOM     96  F   UNL A   1      45.472  34.624  34.007  1.00  0.00    -0.200 F 
ATOM     97  C   UNL A   1      45.266  35.620  31.877  1.00  0.00     0.200 A 
ATOM     98  F   UNL A   1      45.042  36.569  29.728  1.00  0.00    -0.200 F 
ATOM     99  F   UNL A   1      45.321  36.842  32.426  1.00  0.00    -0.200 F 
ENDBRANCH  66  89
ENDBRANCH  40  41
ENDBRANCH  33  35
ENDBRANCH  32  33
ENDBRANCH  31  32
ENDBRANCH  30  31
ENDBRANCH  29  30
ENDBRANCH  28  29
ENDBRANCH   1  28
TORSDOF 20
ENDMDL
