MODEL 1
REMARK VINA RESULT:      -9.1      0.000      0.000
REMARK SMILES C[C@@H](NC(=O)N(CC(=O)OCCOCCOCCOC(=O)c1ccc(-c2c3nc(c(-c4c(F)c(F)c(F)c(F)c4F)c4ccc([nH]4)c(-c4c(F)c(F)c(F)c(F)c4F)c4nc(c(-c5c(F)c(F)c(F)c(F)c5F)c5ccc2[nH]5)C=C4)C=C3)cc1)CC(F)(F)F)C1CCCC1
REMARK SMILES IDX 14 1 13 2 12 3 11 4 10 5 8 6 9 7 7 8 6 9 4 10 3 11 5 13 2 14
REMARK SMILES IDX 1 15 90 16 91 17 94 18 92 19 93 20 85 21 86 22 87 23 88 24
REMARK SMILES IDX 89 25 15 26 16 27 17 28 18 29 19 30 20 31 21 32 22 33 23 34
REMARK SMILES IDX 84 35 24 36 83 37 25 38 26 39 27 40 77 41 28 42 82 43 76 44
REMARK SMILES IDX 78 45 29 46 81 47 75 48 74 49 30 51 62 52 42 53 61 54 43 55
REMARK SMILES IDX 46 56 60 57 79 58 44 59 45 60 59 62 80 63 47 64 31 65 32 66
REMARK SMILES IDX 40 67 33 68 34 69 38 70 41 71 35 72 36 73 39 74 37 75 63 76
REMARK SMILES IDX 64 77 72 78 65 79 66 80 70 81 73 82 67 83 68 84 71 85 69 86
REMARK SMILES IDX 48 87 49 88 57 89 50 90 51 91 55 92 58 93 52 94 53 95 56 96
REMARK SMILES IDX 54 97
REMARK H PARENT 3 12 78 50 46 61
REMARK Flexibility Score: inf
ROOT
ATOM      1  C   UNL A   1      32.536  36.069  30.647  1.00  0.00     0.188 C 
ENDROOT
BRANCH   1   2
ATOM      2  O   UNL A   1      33.076  35.083  31.493  1.00  0.00    -0.376 OA
BRANCH   2   3
ATOM      3  C   UNL A   1      34.048  35.434  32.472  1.00  0.00     0.202 C 
BRANCH   3   4
ATOM      4  C   UNL A   1      34.628  34.390  33.439  1.00  0.00     0.261 C 
BRANCH   4   5
ATOM      5  O   UNL A   1      34.534  33.031  32.949  1.00  0.00    -0.462 OA
BRANCH   5   6
ATOM      6  C   UNL A   1      35.674  32.327  33.047  1.00  0.00     0.325 C 
ATOM      7  O   UNL A   1      35.935  31.351  32.336  1.00  0.00    -0.250 OA
BRANCH   6   8
ATOM      8  C   UNL A   1      36.735  32.781  34.053  1.00  0.00     0.244 C 
BRANCH   8   9
ATOM      9  N   UNL A   1      38.020  32.505  34.688  1.00  0.00    -0.305 N 
BRANCH   9  10
ATOM     10  C   UNL A   1      38.162  31.576  35.686  1.00  0.00     0.318 C 
ATOM     11  N   UNL A   1      37.955  31.869  36.993  1.00  0.00    -0.335 N 
ATOM     12  H   UNL A   1      38.131  31.074  37.547  1.00  0.00     0.165 HD
ATOM     13  O   UNL A   1      38.346  30.388  35.413  1.00  0.00    -0.249 OA
BRANCH  11  14
ATOM     14  C   UNL A   1      37.543  33.014  37.862  1.00  0.00     0.083 C 
ATOM     15  C   UNL A   1      38.658  34.059  37.867  1.00  0.00     0.031 C 
BRANCH  14  16
ATOM     16  C   UNL A   1      37.091  32.642  39.291  1.00  0.00     0.011 C 
ATOM     17  C   UNL A   1      36.569  31.223  39.501  1.00  0.00     0.006 C 
ATOM     18  C   UNL A   1      38.025  32.780  40.492  1.00  0.00     0.006 C 
ATOM     19  C   UNL A   1      36.208  31.212  40.983  1.00  0.00     0.000 C 
ATOM     20  C   UNL A   1      37.144  32.239  41.632  1.00  0.00     0.000 C 
ENDBRANCH  14  16
ENDBRANCH  11  14
ENDBRANCH   9  10
BRANCH   9  21
ATOM     21  C   UNL A   1      39.284  32.745  33.946  1.00  0.00     0.237 C 
BRANCH  21  22
ATOM     22  C   UNL A   1      39.393  33.911  32.964  1.00  0.00     0.406 C 
ATOM     23  F   UNL A   1      40.661  34.112  32.541  1.00  0.00    -0.169 F 
ATOM     24  F   UNL A   1      38.673  33.619  31.849  1.00  0.00    -0.169 F 
ATOM     25  F   UNL A   1      38.911  35.069  33.456  1.00  0.00    -0.169 F 
ENDBRANCH  21  22
ENDBRANCH   9  21
ENDBRANCH   8   9
ENDBRANCH   6   8
ENDBRANCH   5   6
ENDBRANCH   4   5
ENDBRANCH   3   4
ENDBRANCH   2   3
ENDBRANCH   1   2
BRANCH   1  26
ATOM     26  C   UNL A   1      33.335  36.549  29.442  1.00  0.00     0.188 C 
BRANCH  26  27
ATOM     27  O   UNL A   1      33.920  35.630  28.556  1.00  0.00    -0.376 OA
BRANCH  27  28
ATOM     28  C   UNL A   1      33.572  34.253  28.510  1.00  0.00     0.202 C 
BRANCH  28  29
ATOM     29  C   UNL A   1      34.425  33.088  29.044  1.00  0.00     0.261 C 
BRANCH  29  30
ATOM     30  O   UNL A   1      35.249  32.380  28.119  1.00  0.00    -0.460 OA
BRANCH  30  31
ATOM     31  C   UNL A   1      34.974  31.067  27.950  1.00  0.00     0.338 C 
ATOM     32  O   UNL A   1      33.964  30.573  27.471  1.00  0.00    -0.246 OA
BRANCH  31  33
ATOM     33  C   UNL A   1      36.212  30.311  28.228  1.00  0.00     0.060 A 
ATOM     34  C   UNL A   1      36.334  29.640  29.457  1.00  0.00     0.016 A 
ATOM     35  C   UNL A   1      37.225  30.236  27.275  1.00  0.00     0.016 A 
ATOM     36  C   UNL A   1      37.493  28.924  29.752  1.00  0.00     0.010 A 
ATOM     37  C   UNL A   1      38.395  29.543  27.582  1.00  0.00     0.010 A 
ATOM     38  C   UNL A   1      38.550  28.915  28.834  1.00  0.00    -0.014 A 
BRANCH  38  39
ATOM     39  C   UNL A   1      39.902  28.453  29.227  1.00  0.00     0.031 A 
ATOM     40  C   UNL A   1      40.777  29.419  29.976  1.00  0.00     0.074 A 
ATOM     41  C   UNL A   1      40.365  27.240  28.886  1.00  0.00     0.049 A 
ATOM     42  N   UNL A   1      42.059  29.368  30.219  1.00  0.00    -0.248 NA
ATOM     43  C   UNL A   1      40.107  30.620  30.505  1.00  0.00     0.031 C 
ATOM     44  C   UNL A   1      39.594  26.194  28.221  1.00  0.00     0.029 A 
ATOM     45  N   UNL A   1      41.622  26.702  29.021  1.00  0.00    -0.354 N 
ATOM     46  C   UNL A   1      42.356  30.541  30.902  1.00  0.00     0.074 A 
ATOM     47  C   UNL A   1      41.126  31.293  31.015  1.00  0.00     0.031 C 
ATOM     48  C   UNL A   1      40.405  25.152  27.969  1.00  0.00     0.029 A 
ATOM     49  C   UNL A   1      41.762  25.483  28.404  1.00  0.00     0.049 A 
ATOM     50  H   UNL A   1      42.350  27.146  29.513  1.00  0.00     0.167 HD
ATOM     51  C   UNL A   1      43.551  30.951  31.390  1.00  0.00     0.037 A 
ATOM     52  C   UNL A   1      42.870  24.751  28.170  1.00  0.00     0.037 A 
ATOM     53  C   UNL A   1      44.768  30.194  31.267  1.00  0.00     0.049 A 
ATOM     54  C   UNL A   1      44.207  25.266  28.644  1.00  0.00     0.074 A 
ATOM     55  C   UNL A   1      46.034  30.516  31.721  1.00  0.00     0.029 A 
ATOM     56  N   UNL A   1      44.868  28.962  30.637  1.00  0.00    -0.354 N 
ATOM     57  N   UNL A   1      44.493  26.378  29.279  1.00  0.00    -0.248 NA
ATOM     58  C   UNL A   1      45.381  24.425  28.365  1.00  0.00     0.031 C 
ATOM     59  C   UNL A   1      46.912  29.505  31.316  1.00  0.00     0.029 A 
ATOM     60  C   UNL A   1      46.179  28.519  30.675  1.00  0.00     0.049 A 
ATOM     61  H   UNL A   1      44.118  28.474  30.225  1.00  0.00     0.167 HD
ATOM     62  C   UNL A   1      45.863  26.350  29.511  1.00  0.00     0.074 A 
ATOM     63  C   UNL A   1      46.353  25.109  28.951  1.00  0.00     0.031 C 
ATOM     64  C   UNL A   1      46.644  27.266  30.135  1.00  0.00     0.037 A 
BRANCH  51  65
ATOM     65  C   UNL A   1      43.603  32.291  32.064  1.00  0.00     0.064 A 
ATOM     66  C   UNL A   1      43.790  33.478  31.339  1.00  0.00     0.173 A 
ATOM     67  C   UNL A   1      43.439  32.393  33.454  1.00  0.00     0.173 A 
ATOM     68  F   UNL A   1      43.968  33.437  30.010  1.00  0.00    -0.203 F 
ATOM     69  C   UNL A   1      43.842  34.712  31.983  1.00  0.00     0.198 A 
ATOM     70  C   UNL A   1      43.455  33.631  34.090  1.00  0.00     0.198 A 
ATOM     71  F   UNL A   1      43.255  31.291  34.196  1.00  0.00    -0.203 F 
ATOM     72  F   UNL A   1      44.077  35.825  31.276  1.00  0.00    -0.200 F 
ATOM     73  C   UNL A   1      43.666  34.787  33.356  1.00  0.00     0.200 A 
ATOM     74  F   UNL A   1      43.269  33.703  35.416  1.00  0.00    -0.200 F 
ATOM     75  F   UNL A   1      43.706  35.976  33.974  1.00  0.00    -0.200 F 
ENDBRANCH  51  65
BRANCH  52  76
ATOM     76  C   UNL A   1      42.773  23.471  27.418  1.00  0.00     0.064 A 
ATOM     77  C   UNL A   1      42.321  22.298  28.040  1.00  0.00     0.173 A 
ATOM     78  C   UNL A   1      43.155  23.385  26.071  1.00  0.00     0.173 A 
ATOM     79  F   UNL A   1      41.968  22.321  29.334  1.00  0.00    -0.203 F 
ATOM     80  C   UNL A   1      42.277  21.087  27.352  1.00  0.00     0.198 A 
ATOM     81  C   UNL A   1      43.079  22.181  25.374  1.00  0.00     0.198 A 
ATOM     82  F   UNL A   1      43.598  24.475  25.426  1.00  0.00    -0.203 F 
ATOM     83  F   UNL A   1      41.896  19.972  27.989  1.00  0.00    -0.200 F 
ATOM     84  C   UNL A   1      42.650  21.031  26.018  1.00  0.00     0.200 A 
ATOM     85  F   UNL A   1      43.426  22.135  24.081  1.00  0.00    -0.200 F 
ATOM     86  F   UNL A   1      42.605  19.866  25.356  1.00  0.00    -0.200 F 
ENDBRANCH  52  76
BRANCH  64  87
ATOM     87  C   UNL A   1      48.100  26.938  30.316  1.00  0.00     0.064 A 
ATOM     88  C   UNL A   1      48.555  26.123  31.362  1.00  0.00     0.173 A 
ATOM     89  C   UNL A   1      49.043  27.391  29.380  1.00  0.00     0.173 A 
ATOM     90  F   UNL A   1      47.698  25.674  32.291  1.00  0.00    -0.203 F 
ATOM     91  C   UNL A   1      49.904  25.791  31.474  1.00  0.00     0.198 A 
ATOM     92  C   UNL A   1      50.383  27.029  29.475  1.00  0.00     0.198 A 
ATOM     93  F   UNL A   1      48.658  28.166  28.353  1.00  0.00    -0.203 F 
ATOM     94  F   UNL A   1      50.324  25.045  32.506  1.00  0.00    -0.200 F 
ATOM     95  C   UNL A   1      50.813  26.234  30.525  1.00  0.00     0.200 A 
ATOM     96  F   UNL A   1      51.256  27.443  28.546  1.00  0.00    -0.200 F 
ATOM     97  F   UNL A   1      52.107  25.898  30.625  1.00  0.00    -0.200 F 
ENDBRANCH  64  87
ENDBRANCH  38  39
ENDBRANCH  31  33
ENDBRANCH  30  31
ENDBRANCH  29  30
ENDBRANCH  28  29
ENDBRANCH  27  28
ENDBRANCH  26  27
ENDBRANCH   1  26
TORSDOF 23
ENDMDL
MODEL 2
REMARK VINA RESULT:      -8.9      4.765      8.278
REMARK SMILES C[C@@H](NC(=O)N(CC(=O)OCCOCCOCCOC(=O)c1ccc(-c2c3nc(c(-c4c(F)c(F)c(F)c(F)c4F)c4ccc([nH]4)c(-c4c(F)c(F)c(F)c(F)c4F)c4nc(c(-c5c(F)c(F)c(F)c(F)c5F)c5ccc2[nH]5)C=C4)C=C3)cc1)CC(F)(F)F)C1CCCC1
REMARK SMILES IDX 14 1 13 2 12 3 11 4 10 5 8 6 9 7 7 8 6 9 4 10 3 11 5 13 2 14
REMARK SMILES IDX 1 15 90 16 91 17 94 18 92 19 93 20 85 21 86 22 87 23 88 24
REMARK SMILES IDX 89 25 15 26 16 27 17 28 18 29 19 30 20 31 21 32 22 33 23 34
REMARK SMILES IDX 84 35 24 36 83 37 25 38 26 39 27 40 77 41 28 42 82 43 76 44
REMARK SMILES IDX 78 45 29 46 81 47 75 48 74 49 30 51 62 52 42 53 61 54 43 55
REMARK SMILES IDX 46 56 60 57 79 58 44 59 45 60 59 62 80 63 47 64 31 65 32 66
REMARK SMILES IDX 40 67 33 68 34 69 38 70 41 71 35 72 36 73 39 74 37 75 63 76
REMARK SMILES IDX 64 77 72 78 65 79 66 80 70 81 73 82 67 83 68 84 71 85 69 86
REMARK SMILES IDX 48 87 49 88 57 89 50 90 51 91 55 92 58 93 52 94 53 95 56 96
REMARK SMILES IDX 54 97
REMARK H PARENT 3 12 78 50 46 61
REMARK Flexibility Score: inf
ROOT
ATOM      1  C   UNL A   1      36.329  31.257  28.271  1.00  0.00     0.188 C 
ENDROOT
BRANCH   1   2
ATOM      2  O   UNL A   1      35.227  31.787  27.574  1.00  0.00    -0.376 OA
BRANCH   2   3
ATOM      3  C   UNL A   1      33.969  31.121  27.610  1.00  0.00     0.202 C 
BRANCH   3   4
ATOM      4  C   UNL A   1      33.657  29.946  26.670  1.00  0.00     0.261 C 
BRANCH   4   5
ATOM      5  O   UNL A   1      33.663  28.657  27.330  1.00  0.00    -0.462 OA
BRANCH   5   6
ATOM      6  C   UNL A   1      32.542  27.939  27.154  1.00  0.00     0.325 C 
ATOM      7  O   UNL A   1      31.658  27.836  28.010  1.00  0.00    -0.250 OA
BRANCH   6   8
ATOM      8  C   UNL A   1      32.311  27.255  25.804  1.00  0.00     0.244 C 
BRANCH   8   9
ATOM      9  N   UNL A   1      32.110  26.001  25.084  1.00  0.00    -0.305 N 
BRANCH   9  10
ATOM     10  C   UNL A   1      32.264  24.777  25.681  1.00  0.00     0.318 C 
ATOM     11  N   UNL A   1      33.350  23.993  25.472  1.00  0.00    -0.335 N 
ATOM     12  H   UNL A   1      33.258  23.150  25.973  1.00  0.00     0.165 HD
ATOM     13  O   UNL A   1      31.478  24.403  26.553  1.00  0.00    -0.249 OA
BRANCH  11  14
ATOM     14  C   UNL A   1      34.646  24.001  24.726  1.00  0.00     0.083 C 
ATOM     15  C   UNL A   1      34.371  24.329  23.259  1.00  0.00     0.031 C 
BRANCH  14  16
ATOM     16  C   UNL A   1      35.518  22.737  24.884  1.00  0.00     0.011 C 
ATOM     17  C   UNL A   1      34.803  21.391  24.798  1.00  0.00     0.006 C 
ATOM     18  C   UNL A   1      36.724  22.474  23.984  1.00  0.00     0.006 C 
ATOM     19  C   UNL A   1      35.937  20.392  25.007  1.00  0.00     0.000 C 
ATOM     20  C   UNL A   1      37.196  21.100  24.494  1.00  0.00     0.000 C 
ENDBRANCH  14  16
ENDBRANCH  11  14
ENDBRANCH   9  10
BRANCH   9  21
ATOM     21  C   UNL A   1      31.199  25.955  23.911  1.00  0.00     0.237 C 
BRANCH  21  22
ATOM     22  C   UNL A   1      29.766  26.473  24.025  1.00  0.00     0.406 C 
ATOM     23  F   UNL A   1      28.858  25.580  23.575  1.00  0.00    -0.169 F 
ATOM     24  F   UNL A   1      29.471  26.671  25.337  1.00  0.00    -0.169 F 
ATOM     25  F   UNL A   1      29.572  27.647  23.393  1.00  0.00    -0.169 F 
ENDBRANCH  21  22
ENDBRANCH   9  21
ENDBRANCH   8   9
ENDBRANCH   6   8
ENDBRANCH   5   6
ENDBRANCH   4   5
ENDBRANCH   3   4
ENDBRANCH   2   3
ENDBRANCH   1   2
BRANCH   1  26
ATOM     26  C   UNL A   1      36.097  30.410  29.516  1.00  0.00     0.188 C 
BRANCH  26  27
ATOM     27  O   UNL A   1      35.979  31.008  30.780  1.00  0.00    -0.376 OA
BRANCH  27  28
ATOM     28  C   UNL A   1      35.054  32.046  31.075  1.00  0.00     0.202 C 
BRANCH  28  29
ATOM     29  C   UNL A   1      35.267  33.184  32.091  1.00  0.00     0.261 C 
BRANCH  29  30
ATOM     30  O   UNL A   1      36.156  34.242  31.735  1.00  0.00    -0.460 OA
BRANCH  30  31
ATOM     31  C   UNL A   1      37.320  34.306  32.421  1.00  0.00     0.338 C 
ATOM     32  O   UNL A   1      37.531  34.876  33.481  1.00  0.00    -0.246 OA
BRANCH  31  33
ATOM     33  C   UNL A   1      38.263  33.360  31.790  1.00  0.00     0.060 A 
ATOM     34  C   UNL A   1      38.918  32.416  32.599  1.00  0.00     0.016 A 
ATOM     35  C   UNL A   1      38.472  33.382  30.412  1.00  0.00     0.016 A 
ATOM     36  C   UNL A   1      39.820  31.514  32.034  1.00  0.00     0.010 A 
ATOM     37  C   UNL A   1      39.394  32.498  29.853  1.00  0.00     0.010 A 
ATOM     38  C   UNL A   1      40.098  31.586  30.664  1.00  0.00    -0.014 A 
BRANCH  38  39
ATOM     39  C   UNL A   1      41.267  30.884  30.083  1.00  0.00     0.031 A 
ATOM     40  C   UNL A   1      42.516  31.686  29.851  1.00  0.00     0.074 A 
ATOM     41  C   UNL A   1      41.210  29.593  29.717  1.00  0.00     0.049 A 
ATOM     42  N   UNL A   1      43.577  31.396  29.146  1.00  0.00    -0.248 NA
ATOM     43  C   UNL A   1      42.561  33.011  30.493  1.00  0.00     0.031 C 
ATOM     44  C   UNL A   1      40.082  28.695  29.948  1.00  0.00     0.029 A 
ATOM     45  N   UNL A   1      42.120  28.827  29.031  1.00  0.00    -0.354 N 
ATOM     46  C   UNL A   1      44.400  32.511  29.235  1.00  0.00     0.074 A 
ATOM     47  C   UNL A   1      43.709  33.491  30.042  1.00  0.00     0.031 C 
ATOM     48  C   UNL A   1      40.351  27.508  29.378  1.00  0.00     0.029 A 
ATOM     49  C   UNL A   1      41.643  27.584  28.695  1.00  0.00     0.049 A 
ATOM     50  H   UNL A   1      43.027  29.137  28.804  1.00  0.00     0.167 HD
ATOM     51  C   UNL A   1      45.625  32.697  28.688  1.00  0.00     0.037 A 
ATOM     52  C   UNL A   1      42.166  26.643  27.883  1.00  0.00     0.037 A 
ATOM     53  C   UNL A   1      46.300  31.715  27.883  1.00  0.00     0.049 A 
ATOM     54  C   UNL A   1      43.492  26.904  27.212  1.00  0.00     0.074 A 
ATOM     55  C   UNL A   1      47.542  31.800  27.278  1.00  0.00     0.029 A 
ATOM     56  N   UNL A   1      45.784  30.466  27.567  1.00  0.00    -0.354 N 
ATOM     57  N   UNL A   1      44.267  27.960  27.284  1.00  0.00    -0.248 NA
ATOM     58  C   UNL A   1      44.018  25.842  26.340  1.00  0.00     0.031 C 
ATOM     59  C   UNL A   1      47.751  30.625  26.549  1.00  0.00     0.029 A 
ATOM     60  C   UNL A   1      46.674  29.778  26.760  1.00  0.00     0.049 A 
ATOM     61  H   UNL A   1      44.915  30.120  27.873  1.00  0.00     0.167 HD
ATOM     62  C   UNL A   1      45.384  27.674  26.506  1.00  0.00     0.074 A 
ATOM     63  C   UNL A   1      45.188  26.344  25.972  1.00  0.00     0.031 C 
ATOM     64  C   UNL A   1      46.474  28.442  26.260  1.00  0.00     0.037 A 
BRANCH  51  65
ATOM     65  C   UNL A   1      46.292  34.023  28.912  1.00  0.00     0.064 A 
ATOM     66  C   UNL A   1      47.158  34.244  29.994  1.00  0.00     0.173 A 
ATOM     67  C   UNL A   1      46.081  35.083  28.016  1.00  0.00     0.173 A 
ATOM     68  F   UNL A   1      47.383  33.271  30.889  1.00  0.00    -0.203 F 
ATOM     69  C   UNL A   1      47.762  35.484  30.187  1.00  0.00     0.198 A 
ATOM     70  C   UNL A   1      46.715  36.310  28.193  1.00  0.00     0.198 A 
ATOM     71  F   UNL A   1      45.265  34.927  26.963  1.00  0.00    -0.203 F 
ATOM     72  F   UNL A   1      48.541  35.688  31.258  1.00  0.00    -0.200 F 
ATOM     73  C   UNL A   1      47.546  36.512  29.282  1.00  0.00     0.200 A 
ATOM     74  F   UNL A   1      46.517  37.297  27.308  1.00  0.00    -0.200 F 
ATOM     75  F   UNL A   1      48.136  37.702  29.465  1.00  0.00    -0.200 F 
ENDBRANCH  51  65
BRANCH  52  76
ATOM     76  C   UNL A   1      41.420  25.381  27.626  1.00  0.00     0.064 A 
ATOM     77  C   UNL A   1      40.313  25.358  26.766  1.00  0.00     0.173 A 
ATOM     78  C   UNL A   1      41.781  24.179  28.253  1.00  0.00     0.173 A 
ATOM     79  F   UNL A   1      39.911  26.485  26.162  1.00  0.00    -0.203 F 
ATOM     80  C   UNL A   1      39.582  24.188  26.563  1.00  0.00     0.198 A 
ATOM     81  C   UNL A   1      41.071  23.003  28.023  1.00  0.00     0.198 A 
ATOM     82  F   UNL A   1      42.830  24.144  29.088  1.00  0.00    -0.203 F 
ATOM     83  F   UNL A   1      38.495  24.209  25.781  1.00  0.00    -0.200 F 
ATOM     84  C   UNL A   1      39.966  23.011  27.186  1.00  0.00     0.200 A 
ATOM     85  F   UNL A   1      41.454  21.864  28.616  1.00  0.00    -0.200 F 
ATOM     86  F   UNL A   1      39.265  21.886  26.987  1.00  0.00    -0.200 F 
ENDBRANCH  52  76
BRANCH  64  87
ATOM     87  C   UNL A   1      47.580  27.844  25.436  1.00  0.00     0.064 A 
ATOM     88  C   UNL A   1      47.547  27.841  24.035  1.00  0.00     0.173 A 
ATOM     89  C   UNL A   1      48.725  27.330  26.066  1.00  0.00     0.173 A 
ATOM     90  F   UNL A   1      46.471  28.308  23.383  1.00  0.00    -0.203 F 
ATOM     91  C   UNL A   1      48.612  27.329  23.296  1.00  0.00     0.198 A 
ATOM     92  C   UNL A   1      49.801  26.851  25.326  1.00  0.00     0.198 A 
ATOM     93  F   UNL A   1      48.811  27.318  27.406  1.00  0.00    -0.203 F 
ATOM     94  F   UNL A   1      48.542  27.298  21.957  1.00  0.00    -0.200 F 
ATOM     95  C   UNL A   1      49.741  26.846  23.940  1.00  0.00     0.200 A 
ATOM     96  F   UNL A   1      50.898  26.403  25.951  1.00  0.00    -0.200 F 
ATOM     97  F   UNL A   1      50.771  26.371  23.227  1.00  0.00    -0.200 F 
ENDBRANCH  64  87
ENDBRANCH  38  39
ENDBRANCH  31  33
ENDBRANCH  30  31
ENDBRANCH  29  30
ENDBRANCH  28  29
ENDBRANCH  27  28
ENDBRANCH  26  27
ENDBRANCH   1  26
TORSDOF 23
ENDMDL
MODEL 3
REMARK VINA RESULT:      -8.8      1.562      3.165
REMARK SMILES C[C@@H](NC(=O)N(CC(=O)OCCOCCOCCOC(=O)c1ccc(-c2c3nc(c(-c4c(F)c(F)c(F)c(F)c4F)c4ccc([nH]4)c(-c4c(F)c(F)c(F)c(F)c4F)c4nc(c(-c5c(F)c(F)c(F)c(F)c5F)c5ccc2[nH]5)C=C4)C=C3)cc1)CC(F)(F)F)C1CCCC1
REMARK SMILES IDX 14 1 13 2 12 3 11 4 10 5 8 6 9 7 7 8 6 9 4 10 3 11 5 13 2 14
REMARK SMILES IDX 1 15 90 16 91 17 94 18 92 19 93 20 85 21 86 22 87 23 88 24
REMARK SMILES IDX 89 25 15 26 16 27 17 28 18 29 19 30 20 31 21 32 22 33 23 34
REMARK SMILES IDX 84 35 24 36 83 37 25 38 26 39 27 40 77 41 28 42 82 43 76 44
REMARK SMILES IDX 78 45 29 46 81 47 75 48 74 49 30 51 62 52 42 53 61 54 43 55
REMARK SMILES IDX 46 56 60 57 79 58 44 59 45 60 59 62 80 63 47 64 31 65 32 66
REMARK SMILES IDX 40 67 33 68 34 69 38 70 41 71 35 72 36 73 39 74 37 75 63 76
REMARK SMILES IDX 64 77 72 78 65 79 66 80 70 81 73 82 67 83 68 84 71 85 69 86
REMARK SMILES IDX 48 87 49 88 57 89 50 90 51 91 55 92 58 93 52 94 53 95 56 96
REMARK SMILES IDX 54 97
REMARK H PARENT 3 12 78 50 46 61
REMARK Flexibility Score: inf
ROOT
ATOM      1  C   UNL A   1      32.504  35.700  30.357  1.00  0.00     0.188 C 
ENDROOT
BRANCH   1   2
ATOM      2  O   UNL A   1      32.757  34.988  31.545  1.00  0.00    -0.376 OA
BRANCH   2   3
ATOM      3  C   UNL A   1      33.889  35.311  32.345  1.00  0.00     0.202 C 
BRANCH   3   4
ATOM      4  C   UNL A   1      34.932  34.249  32.725  1.00  0.00     0.261 C 
BRANCH   4   5
ATOM      5  O   UNL A   1      35.572  34.494  34.000  1.00  0.00    -0.462 OA
BRANCH   5   6
ATOM      6  C   UNL A   1      36.815  33.995  34.101  1.00  0.00     0.325 C 
ATOM      7  O   UNL A   1      37.575  33.857  33.137  1.00  0.00    -0.250 OA
BRANCH   6   8
ATOM      8  C   UNL A   1      37.350  33.627  35.488  1.00  0.00     0.244 C 
BRANCH   8   9
ATOM      9  N   UNL A   1      38.204  32.747  36.278  1.00  0.00    -0.305 N 
BRANCH   9  10
ATOM     10  C   UNL A   1      37.934  31.412  36.443  1.00  0.00     0.318 C 
ATOM     11  N   UNL A   1      38.228  30.485  35.500  1.00  0.00    -0.335 N 
ATOM     12  H   UNL A   1      37.936  29.594  35.802  1.00  0.00     0.165 HD
ATOM     13  O   UNL A   1      37.540  30.984  37.529  1.00  0.00    -0.249 OA
BRANCH  11  14
ATOM     14  C   UNL A   1      38.857  30.381  34.147  1.00  0.00     0.083 C 
ATOM     15  C   UNL A   1      37.799  29.934  33.141  1.00  0.00     0.031 C 
BRANCH  14  16
ATOM     16  C   UNL A   1      40.135  29.519  34.066  1.00  0.00     0.011 C 
ATOM     17  C   UNL A   1      40.162  28.425  33.002  1.00  0.00     0.006 C 
ATOM     18  C   UNL A   1      41.515  30.142  33.865  1.00  0.00     0.006 C 
ATOM     19  C   UNL A   1      41.529  27.781  33.214  1.00  0.00     0.000 C 
ATOM     20  C   UNL A   1      42.411  28.892  33.794  1.00  0.00     0.000 C 
ENDBRANCH  14  16
ENDBRANCH  11  14
ENDBRANCH   9  10
BRANCH   9  21
ATOM     21  C   UNL A   1      39.646  33.063  36.446  1.00  0.00     0.237 C 
BRANCH  21  22
ATOM     22  C   UNL A   1      40.079  34.402  37.041  1.00  0.00     0.406 C 
ATOM     23  F   UNL A   1      41.352  34.378  37.493  1.00  0.00    -0.169 F 
ATOM     24  F   UNL A   1      40.051  35.349  36.066  1.00  0.00    -0.169 F 
ATOM     25  F   UNL A   1      39.274  34.829  38.033  1.00  0.00    -0.169 F 
ENDBRANCH  21  22
ENDBRANCH   9  21
ENDBRANCH   8   9
ENDBRANCH   6   8
ENDBRANCH   5   6
ENDBRANCH   4   5
ENDBRANCH   3   4
ENDBRANCH   2   3
ENDBRANCH   1   2
BRANCH   1  26
ATOM     26  C   UNL A   1      33.671  36.215  29.524  1.00  0.00     0.188 C 
BRANCH  26  27
ATOM     27  O   UNL A   1      34.472  35.330  28.785  1.00  0.00    -0.376 OA
BRANCH  27  28
ATOM     28  C   UNL A   1      34.021  34.065  28.319  1.00  0.00     0.202 C 
BRANCH  28  29
ATOM     29  C   UNL A   1      34.275  32.708  29.001  1.00  0.00     0.261 C 
BRANCH  29  30
ATOM     30  O   UNL A   1      35.496  32.029  28.709  1.00  0.00    -0.460 OA
BRANCH  30  31
ATOM     31  C   UNL A   1      35.384  30.824  28.106  1.00  0.00     0.338 C 
ATOM     32  O   UNL A   1      34.490  30.441  27.365  1.00  0.00    -0.246 OA
BRANCH  31  33
ATOM     33  C   UNL A   1      36.660  30.106  28.300  1.00  0.00     0.060 A 
ATOM     34  C   UNL A   1      36.856  29.383  29.489  1.00  0.00     0.016 A 
ATOM     35  C   UNL A   1      37.637  30.118  27.307  1.00  0.00     0.016 A 
ATOM     36  C   UNL A   1      38.053  28.701  29.705  1.00  0.00     0.010 A 
ATOM     37  C   UNL A   1      38.844  29.459  27.536  1.00  0.00     0.010 A 
ATOM     38  C   UNL A   1      39.072  28.779  28.749  1.00  0.00    -0.014 A 
BRANCH  38  39
ATOM     39  C   UNL A   1      40.455  28.354  29.069  1.00  0.00     0.031 A 
ATOM     40  C   UNL A   1      41.364  29.365  29.709  1.00  0.00     0.074 A 
ATOM     41  C   UNL A   1      40.914  27.131  28.752  1.00  0.00     0.049 A 
ATOM     42  N   UNL A   1      42.660  29.342  29.865  1.00  0.00    -0.248 NA
ATOM     43  C   UNL A   1      40.713  30.580  30.228  1.00  0.00     0.031 C 
ATOM     44  C   UNL A   1      40.116  26.046  28.191  1.00  0.00     0.029 A 
ATOM     45  N   UNL A   1      42.186  26.618  28.824  1.00  0.00    -0.354 N 
ATOM     46  C   UNL A   1      42.984  30.550  30.471  1.00  0.00     0.074 A 
ATOM     47  C   UNL A   1      41.752  31.290  30.635  1.00  0.00     0.031 C 
ATOM     48  C   UNL A   1      40.925  25.004  27.931  1.00  0.00     0.029 A 
ATOM     49  C   UNL A   1      42.303  25.373  28.255  1.00  0.00     0.049 A 
ATOM     50  H   UNL A   1      42.938  27.094  29.243  1.00  0.00     0.167 HD
ATOM     51  C   UNL A   1      44.203  30.998  30.856  1.00  0.00     0.037 A 
ATOM     52  C   UNL A   1      43.404  24.645  27.979  1.00  0.00     0.037 A 
ATOM     53  C   UNL A   1      45.420  30.252  30.684  1.00  0.00     0.049 A 
ATOM     54  C   UNL A   1      44.762  25.200  28.335  1.00  0.00     0.074 A 
ATOM     55  C   UNL A   1      46.710  30.612  31.034  1.00  0.00     0.029 A 
ATOM     56  N   UNL A   1      45.498  28.993  30.105  1.00  0.00    -0.354 N 
ATOM     57  N   UNL A   1      45.072  26.344  28.897  1.00  0.00    -0.248 NA
ATOM     58  C   UNL A   1      45.928  24.362  28.015  1.00  0.00     0.031 C 
ATOM     59  C   UNL A   1      47.574  29.595  30.615  1.00  0.00     0.029 A 
ATOM     60  C   UNL A   1      46.815  28.570  30.072  1.00  0.00     0.049 A 
ATOM     61  H   UNL A   1      44.730  28.477  29.769  1.00  0.00     0.167 HD
ATOM     62  C   UNL A   1      46.456  26.345  29.034  1.00  0.00     0.074 A 
ATOM     63  C   UNL A   1      46.927  25.086  28.500  1.00  0.00     0.031 C 
ATOM     64  C   UNL A   1      47.262  27.300  29.560  1.00  0.00     0.037 A 
BRANCH  51  65
ATOM     65  C   UNL A   1      44.279  32.369  31.462  1.00  0.00     0.064 A 
ATOM     66  C   UNL A   1      44.380  32.561  32.849  1.00  0.00     0.173 A 
ATOM     67  C   UNL A   1      44.278  33.508  30.643  1.00  0.00     0.173 A 
ATOM     68  F   UNL A   1      44.369  31.508  33.679  1.00  0.00    -0.203 F 
ATOM     69  C   UNL A   1      44.444  33.842  33.392  1.00  0.00     0.198 A 
ATOM     70  C   UNL A   1      44.379  34.785  31.187  1.00  0.00     0.198 A 
ATOM     71  F   UNL A   1      44.187  33.383  29.310  1.00  0.00    -0.203 F 
ATOM     72  F   UNL A   1      44.483  34.002  34.722  1.00  0.00    -0.200 F 
ATOM     73  C   UNL A   1      44.452  34.951  32.561  1.00  0.00     0.200 A 
ATOM     74  F   UNL A   1      44.402  35.856  30.380  1.00  0.00    -0.200 F 
ATOM     75  F   UNL A   1      44.524  36.183  33.085  1.00  0.00    -0.200 F 
ENDBRANCH  51  65
BRANCH  52  76
ATOM     76  C   UNL A   1      43.277  23.330  27.295  1.00  0.00     0.064 A 
ATOM     77  C   UNL A   1      43.730  23.151  25.981  1.00  0.00     0.173 A 
ATOM     78  C   UNL A   1      42.676  22.232  27.931  1.00  0.00     0.173 A 
ATOM     79  F   UNL A   1      44.287  24.176  25.320  1.00  0.00    -0.203 F 
ATOM     80  C   UNL A   1      43.566  21.934  25.321  1.00  0.00     0.198 A 
ATOM     81  C   UNL A   1      42.543  21.006  27.282  1.00  0.00     0.198 A 
ATOM     82  F   UNL A   1      42.222  22.348  29.187  1.00  0.00    -0.203 F 
ATOM     83  F   UNL A   1      43.956  21.810  24.045  1.00  0.00    -0.200 F 
ATOM     84  C   UNL A   1      42.979  20.862  25.974  1.00  0.00     0.200 A 
ATOM     85  F   UNL A   1      41.989  19.969  27.922  1.00  0.00    -0.200 F 
ATOM     86  F   UNL A   1      42.824  19.691  25.339  1.00  0.00    -0.200 F 
ENDBRANCH  52  76
BRANCH  64  87
ATOM     87  C   UNL A   1      48.733  27.000  29.655  1.00  0.00     0.064 A 
ATOM     88  C   UNL A   1      49.652  27.468  28.706  1.00  0.00     0.173 A 
ATOM     89  C   UNL A   1      49.234  26.290  30.759  1.00  0.00     0.173 A 
ATOM     90  F   UNL A   1      49.224  28.139  27.625  1.00  0.00    -0.203 F 
ATOM     91  C   UNL A   1      51.016  27.220  28.848  1.00  0.00     0.198 A 
ATOM     92  C   UNL A   1      50.599  26.076  30.917  1.00  0.00     0.198 A 
ATOM     93  F   UNL A   1      48.397  25.829  31.702  1.00  0.00    -0.203 F 
ATOM     94  F   UNL A   1      51.872  27.642  27.907  1.00  0.00    -0.200 F 
ATOM     95  C   UNL A   1      51.489  26.536  29.958  1.00  0.00     0.200 A 
ATOM     96  F   UNL A   1      51.054  25.430  31.999  1.00  0.00    -0.200 F 
ATOM     97  F   UNL A   1      52.802  26.316  30.102  1.00  0.00    -0.200 F 
ENDBRANCH  64  87
ENDBRANCH  38  39
ENDBRANCH  31  33
ENDBRANCH  30  31
ENDBRANCH  29  30
ENDBRANCH  28  29
ENDBRANCH  27  28
ENDBRANCH  26  27
ENDBRANCH   1  26
TORSDOF 23
ENDMDL
