MODEL 1
REMARK VINA RESULT:     -10.5      0.000      0.000
REMARK SMILES CCn1ncc(CNc2ccccc2C(=O)OCCOCCOCCOC(=O)c2ccc(-c3c4nc(c(-c5c(F)c(F)c(F)c(F)c5F)c5ccc([nH]5)c(-c5c(F)c(F)c(F)c(F)c5F)c5nc(c(-c6c(F)c(F)c(F)c(F)c6F)c6ccc3[nH]6)C=C5)C=C4)cc2)c1C
REMARK SMILES IDX 21 1 20 2 19 3 18 4 17 5 15 6 16 7 14 8 9 9 10 10 11 11
REMARK SMILES IDX 13 12 12 13 8 14 7 16 6 17 3 18 4 19 92 20 5 21 93 22 2 23
REMARK SMILES IDX 1 24 22 25 23 26 24 27 25 28 26 29 27 30 28 31 29 32 30 33
REMARK SMILES IDX 91 34 31 35 90 36 32 37 33 38 34 39 84 40 35 41 89 42 83 43
REMARK SMILES IDX 85 44 36 45 88 46 82 47 81 48 37 50 69 51 49 52 68 53 50 54
REMARK SMILES IDX 53 55 67 56 86 57 51 58 52 59 66 61 87 62 54 63 38 64 39 65
REMARK SMILES IDX 47 66 40 67 41 68 45 69 48 70 42 71 43 72 46 73 44 74 70 75
REMARK SMILES IDX 71 76 79 77 72 78 73 79 77 80 80 81 74 82 75 83 78 84 76 85
REMARK SMILES IDX 55 86 56 87 64 88 57 89 58 90 62 91 65 92 59 93 60 94 63 95
REMARK SMILES IDX 61 96
REMARK H PARENT 8 15 85 49 53 60
REMARK Flexibility Score: inf
ROOT
ATOM      1  C   UNL A   1      34.665  32.353  28.022  1.00  0.00     0.188 C 
ENDROOT
BRANCH   1   2
ATOM      2  O   UNL A   1      35.006  31.087  27.462  1.00  0.00    -0.376 OA
BRANCH   2   3
ATOM      3  C   UNL A   1      33.988  30.082  27.429  1.00  0.00     0.202 C 
BRANCH   3   4
ATOM      4  C   UNL A   1      34.400  28.666  26.995  1.00  0.00     0.261 C 
BRANCH   4   5
ATOM      5  O   UNL A   1      33.659  28.229  25.844  1.00  0.00    -0.460 OA
BRANCH   5   6
ATOM      6  C   UNL A   1      32.725  27.269  26.038  1.00  0.00     0.340 C 
ATOM      7  O   UNL A   1      31.969  27.191  26.993  1.00  0.00    -0.246 OA
BRANCH   6   8
ATOM      8  C   UNL A   1      32.589  26.432  24.814  1.00  0.00     0.083 A 
ATOM      9  C   UNL A   1      31.387  26.100  24.152  1.00  0.00     0.049 A 
ATOM     10  C   UNL A   1      31.492  25.203  23.061  1.00  0.00     0.026 A 
ATOM     11  C   UNL A   1      32.709  24.656  22.644  1.00  0.00     0.002 A 
ATOM     12  C   UNL A   1      33.815  25.877  24.384  1.00  0.00     0.018 A 
ATOM     13  C   UNL A   1      33.875  24.993  23.310  1.00  0.00     0.001 A 
BRANCH   9  14
ATOM     14  N   UNL A   1      30.106  26.538  24.425  1.00  0.00    -0.380 N 
ATOM     15  H   UNL A   1      29.973  26.928  25.318  1.00  0.00     0.160 HD
BRANCH  14  16
ATOM     16  C   UNL A   1      28.928  26.501  23.578  1.00  0.00     0.152 C 
BRANCH  16  17
ATOM     17  C   UNL A   1      28.337  27.840  23.299  1.00  0.00     0.012 A 
ATOM     18  N   UNL A   1      28.033  29.952  22.763  1.00  0.00    -0.270 N 
ATOM     19  N   UNL A   1      26.835  29.551  23.233  1.00  0.00    -0.181 NA
ATOM     20  C   UNL A   1      28.972  28.950  22.763  1.00  0.00     0.040 A 
ATOM     21  C   UNL A   1      27.026  28.276  23.567  1.00  0.00     0.141 A 
ATOM     22  C   UNL A   1      30.369  29.101  22.278  1.00  0.00     0.067 C 
BRANCH  18  23
ATOM     23  C   UNL A   1      28.235  31.320  22.320  1.00  0.00     0.141 C 
ATOM     24  C   UNL A   1      28.813  32.269  23.357  1.00  0.00     0.029 C 
ENDBRANCH  18  23
ENDBRANCH  16  17
ENDBRANCH  14  16
ENDBRANCH   9  14
ENDBRANCH   6   8
ENDBRANCH   5   6
ENDBRANCH   4   5
ENDBRANCH   3   4
ENDBRANCH   2   3
ENDBRANCH   1   2
BRANCH   1  25
ATOM     25  C   UNL A   1      35.738  33.466  28.062  1.00  0.00     0.188 C 
BRANCH  25  26
ATOM     26  O   UNL A   1      35.381  34.621  28.817  1.00  0.00    -0.376 OA
BRANCH  26  27
ATOM     27  C   UNL A   1      34.216  35.307  28.372  1.00  0.00     0.202 C 
BRANCH  27  28
ATOM     28  C   UNL A   1      33.123  35.383  29.437  1.00  0.00     0.261 C 
BRANCH  28  29
ATOM     29  O   UNL A   1      33.346  34.512  30.542  1.00  0.00    -0.460 OA
BRANCH  29  30
ATOM     30  C   UNL A   1      33.658  35.093  31.717  1.00  0.00     0.338 C 
ATOM     31  O   UNL A   1      33.211  36.130  32.168  1.00  0.00    -0.246 OA
BRANCH  30  32
ATOM     32  C   UNL A   1      34.655  34.246  32.395  1.00  0.00     0.060 A 
ATOM     33  C   UNL A   1      35.675  34.882  33.110  1.00  0.00     0.016 A 
ATOM     34  C   UNL A   1      34.690  32.869  32.138  1.00  0.00     0.016 A 
ATOM     35  C   UNL A   1      36.845  34.188  33.354  1.00  0.00     0.010 A 
ATOM     36  C   UNL A   1      35.863  32.183  32.354  1.00  0.00     0.010 A 
ATOM     37  C   UNL A   1      36.958  32.884  32.861  1.00  0.00    -0.014 A 
BRANCH  37  38
ATOM     38  C   UNL A   1      38.293  32.374  32.601  1.00  0.00     0.031 A 
ATOM     39  C   UNL A   1      39.232  32.227  33.730  1.00  0.00     0.074 A 
ATOM     40  C   UNL A   1      38.567  31.874  31.377  1.00  0.00     0.049 A 
ATOM     41  N   UNL A   1      40.446  32.666  33.812  1.00  0.00    -0.248 NA
ATOM     42  C   UNL A   1      38.767  31.505  34.923  1.00  0.00     0.031 C 
ATOM     43  C   UNL A   1      37.613  31.635  30.284  1.00  0.00     0.029 A 
ATOM     44  N   UNL A   1      39.728  31.347  30.896  1.00  0.00    -0.354 N 
ATOM     45  C   UNL A   1      40.956  32.147  34.997  1.00  0.00     0.074 A 
ATOM     46  C   UNL A   1      39.856  31.527  35.690  1.00  0.00     0.031 C 
ATOM     47  C   UNL A   1      38.187  30.835  29.362  1.00  0.00     0.029 A 
ATOM     48  C   UNL A   1      39.566  30.590  29.746  1.00  0.00     0.049 A 
ATOM     49  H   UNL A   1      40.602  31.493  31.326  1.00  0.00     0.167 HD
ATOM     50  C   UNL A   1      42.290  32.079  35.241  1.00  0.00     0.037 A 
ATOM     51  C   UNL A   1      40.472  29.748  29.196  1.00  0.00     0.037 A 
ATOM     52  C   UNL A   1      43.049  32.977  34.417  1.00  0.00     0.049 A 
ATOM     53  C   UNL A   1      41.805  30.078  29.758  1.00  0.00     0.074 A 
ATOM     54  C   UNL A   1      43.039  34.344  34.215  1.00  0.00     0.029 A 
ATOM     55  N   UNL A   1      43.808  32.463  33.396  1.00  0.00    -0.354 N 
ATOM     56  N   UNL A   1      42.489  31.150  29.473  1.00  0.00    -0.248 NA
ATOM     57  C   UNL A   1      42.233  29.363  30.952  1.00  0.00     0.031 C 
ATOM     58  C   UNL A   1      43.386  34.527  32.846  1.00  0.00     0.029 A 
ATOM     59  C   UNL A   1      43.591  33.260  32.301  1.00  0.00     0.049 A 
ATOM     60  H   UNL A   1      44.394  31.674  33.441  1.00  0.00     0.167 HD
ATOM     61  C   UNL A   1      43.152  31.468  30.650  1.00  0.00     0.074 A 
ATOM     62  C   UNL A   1      43.054  30.274  31.479  1.00  0.00     0.031 C 
ATOM     63  C   UNL A   1      43.468  32.759  30.954  1.00  0.00     0.037 A 
BRANCH  50  64
ATOM     64  C   UNL A   1      42.919  30.974  36.040  1.00  0.00     0.064 A 
ATOM     65  C   UNL A   1      43.753  31.278  37.129  1.00  0.00     0.173 A 
ATOM     66  C   UNL A   1      42.930  29.630  35.607  1.00  0.00     0.173 A 
ATOM     67  F   UNL A   1      43.854  32.538  37.579  1.00  0.00    -0.203 F 
ATOM     68  C   UNL A   1      44.560  30.306  37.726  1.00  0.00     0.198 A 
ATOM     69  C   UNL A   1      43.691  28.653  36.241  1.00  0.00     0.198 A 
ATOM     70  F   UNL A   1      42.288  29.244  34.496  1.00  0.00    -0.203 F 
ATOM     71  F   UNL A   1      45.417  30.658  38.694  1.00  0.00    -0.200 F 
ATOM     72  C   UNL A   1      44.524  28.995  37.286  1.00  0.00     0.200 A 
ATOM     73  F   UNL A   1      43.662  27.392  35.785  1.00  0.00    -0.200 F 
ATOM     74  F   UNL A   1      45.326  28.072  37.834  1.00  0.00    -0.200 F 
ENDBRANCH  50  64
BRANCH  51  75
ATOM     75  C   UNL A   1      40.223  28.524  28.401  1.00  0.00     0.064 A 
ATOM     76  C   UNL A   1      40.814  28.345  27.141  1.00  0.00     0.173 A 
ATOM     77  C   UNL A   1      39.586  27.396  28.957  1.00  0.00     0.173 A 
ATOM     78  F   UNL A   1      41.488  29.350  26.564  1.00  0.00    -0.203 F 
ATOM     79  C   UNL A   1      40.774  27.113  26.480  1.00  0.00     0.198 A 
ATOM     80  C   UNL A   1      39.528  26.173  28.289  1.00  0.00     0.198 A 
ATOM     81  F   UNL A   1      39.081  27.430  30.199  1.00  0.00    -0.203 F 
ATOM     82  F   UNL A   1      41.400  26.965  25.304  1.00  0.00    -0.200 F 
ATOM     83  C   UNL A   1      40.132  26.028  27.055  1.00  0.00     0.200 A 
ATOM     84  F   UNL A   1      38.933  25.124  28.873  1.00  0.00    -0.200 F 
ATOM     85  F   UNL A   1      40.130  24.837  26.442  1.00  0.00    -0.200 F 
ENDBRANCH  51  75
BRANCH  63  86
ATOM     86  C   UNL A   1      43.383  33.776  29.855  1.00  0.00     0.064 A 
ATOM     87  C   UNL A   1      44.445  34.059  28.979  1.00  0.00     0.173 A 
ATOM     88  C   UNL A   1      42.148  34.384  29.597  1.00  0.00     0.173 A 
ATOM     89  F   UNL A   1      45.622  33.431  29.098  1.00  0.00    -0.203 F 
ATOM     90  C   UNL A   1      44.287  34.956  27.925  1.00  0.00     0.198 A 
ATOM     91  C   UNL A   1      41.984  35.253  28.521  1.00  0.00     0.198 A 
ATOM     92  F   UNL A   1      41.084  34.100  30.364  1.00  0.00    -0.203 F 
ATOM     93  F   UNL A   1      45.319  35.222  27.109  1.00  0.00    -0.200 F 
ATOM     94  C   UNL A   1      43.056  35.548  27.694  1.00  0.00     0.200 A 
ATOM     95  F   UNL A   1      40.779  35.784  28.270  1.00  0.00    -0.200 F 
ATOM     96  F   UNL A   1      42.895  36.382  26.657  1.00  0.00    -0.200 F 
ENDBRANCH  63  86
ENDBRANCH  37  38
ENDBRANCH  30  32
ENDBRANCH  29  30
ENDBRANCH  28  29
ENDBRANCH  27  28
ENDBRANCH  26  27
ENDBRANCH  25  26
ENDBRANCH   1  25
TORSDOF 21
ENDMDL
MODEL 2
REMARK VINA RESULT:     -10.5      4.112      8.529
REMARK SMILES CCn1ncc(CNc2ccccc2C(=O)OCCOCCOCCOC(=O)c2ccc(-c3c4nc(c(-c5c(F)c(F)c(F)c(F)c5F)c5ccc([nH]5)c(-c5c(F)c(F)c(F)c(F)c5F)c5nc(c(-c6c(F)c(F)c(F)c(F)c6F)c6ccc3[nH]6)C=C5)C=C4)cc2)c1C
REMARK SMILES IDX 21 1 20 2 19 3 18 4 17 5 15 6 16 7 14 8 9 9 10 10 11 11
REMARK SMILES IDX 13 12 12 13 8 14 7 16 6 17 3 18 4 19 92 20 5 21 93 22 2 23
REMARK SMILES IDX 1 24 22 25 23 26 24 27 25 28 26 29 27 30 28 31 29 32 30 33
REMARK SMILES IDX 91 34 31 35 90 36 32 37 33 38 34 39 84 40 35 41 89 42 83 43
REMARK SMILES IDX 85 44 36 45 88 46 82 47 81 48 37 50 69 51 49 52 68 53 50 54
REMARK SMILES IDX 53 55 67 56 86 57 51 58 52 59 66 61 87 62 54 63 38 64 39 65
REMARK SMILES IDX 47 66 40 67 41 68 45 69 48 70 42 71 43 72 46 73 44 74 70 75
REMARK SMILES IDX 71 76 79 77 72 78 73 79 77 80 80 81 74 82 75 83 78 84 76 85
REMARK SMILES IDX 55 86 56 87 64 88 57 89 58 90 62 91 65 92 59 93 60 94 63 95
REMARK SMILES IDX 61 96
REMARK H PARENT 8 15 85 49 53 60
REMARK Flexibility Score: inf
ROOT
ATOM      1  C   UNL A   1      40.703  20.476  26.770  1.00  0.00     0.188 C 
ENDROOT
BRANCH   1   2
ATOM      2  O   UNL A   1      39.683  21.465  26.893  1.00  0.00    -0.376 OA
BRANCH   2   3
ATOM      3  C   UNL A   1      38.818  21.667  25.773  1.00  0.00     0.202 C 
BRANCH   3   4
ATOM      4  C   UNL A   1      37.996  20.464  25.283  1.00  0.00     0.261 C 
BRANCH   4   5
ATOM      5  O   UNL A   1      36.786  20.881  24.630  1.00  0.00    -0.460 OA
BRANCH   5   6
ATOM      6  C   UNL A   1      35.671  20.968  25.392  1.00  0.00     0.340 C 
ATOM      7  O   UNL A   1      35.380  21.897  26.128  1.00  0.00    -0.246 OA
BRANCH   6   8
ATOM      8  C   UNL A   1      34.726  19.871  25.044  1.00  0.00     0.083 A 
ATOM      9  C   UNL A   1      33.328  19.871  25.242  1.00  0.00     0.049 A 
ATOM     10  C   UNL A   1      32.644  18.671  24.926  1.00  0.00     0.026 A 
ATOM     11  C   UNL A   1      33.295  17.531  24.448  1.00  0.00     0.002 A 
ATOM     12  C   UNL A   1      35.376  18.715  24.556  1.00  0.00     0.018 A 
ATOM     13  C   UNL A   1      34.668  17.552  24.264  1.00  0.00     0.001 A 
BRANCH   9  14
ATOM     14  N   UNL A   1      32.525  20.895  25.705  1.00  0.00    -0.380 N 
ATOM     15  H   UNL A   1      32.523  21.023  26.680  1.00  0.00     0.160 HD
BRANCH  14  16
ATOM     16  C   UNL A   1      31.684  21.806  24.953  1.00  0.00     0.152 C 
BRANCH  16  17
ATOM     17  C   UNL A   1      32.436  22.728  24.055  1.00  0.00     0.012 A 
ATOM     18  N   UNL A   1      33.384  24.491  23.141  1.00  0.00    -0.270 N 
ATOM     19  N   UNL A   1      33.533  23.517  22.221  1.00  0.00    -0.181 NA
ATOM     20  C   UNL A   1      32.744  24.062  24.278  1.00  0.00     0.040 A 
ATOM     21  C   UNL A   1      32.948  22.455  22.773  1.00  0.00     0.141 A 
ATOM     22  C   UNL A   1      32.466  24.913  25.464  1.00  0.00     0.067 C 
BRANCH  18  23
ATOM     23  C   UNL A   1      33.875  25.833  22.886  1.00  0.00     0.141 C 
ATOM     24  C   UNL A   1      32.876  26.791  22.258  1.00  0.00     0.029 C 
ENDBRANCH  18  23
ENDBRANCH  16  17
ENDBRANCH  14  16
ENDBRANCH   9  14
ENDBRANCH   6   8
ENDBRANCH   5   6
ENDBRANCH   4   5
ENDBRANCH   3   4
ENDBRANCH   2   3
ENDBRANCH   1   2
BRANCH   1  25
ATOM     25  C   UNL A   1      42.151  20.840  27.171  1.00  0.00     0.188 C 
BRANCH  25  26
ATOM     26  O   UNL A   1      43.060  20.982  26.083  1.00  0.00    -0.376 OA
BRANCH  26  27
ATOM     27  C   UNL A   1      42.990  22.220  25.384  1.00  0.00     0.202 C 
BRANCH  27  28
ATOM     28  C   UNL A   1      42.789  23.419  26.310  1.00  0.00     0.261 C 
BRANCH  28  29
ATOM     29  O   UNL A   1      41.820  24.348  25.833  1.00  0.00    -0.460 OA
BRANCH  29  30
ATOM     30  C   UNL A   1      42.262  25.587  25.539  1.00  0.00     0.338 C 
ATOM     31  O   UNL A   1      43.267  25.882  24.921  1.00  0.00    -0.246 OA
BRANCH  30  32
ATOM     32  C   UNL A   1      41.306  26.558  26.098  1.00  0.00     0.060 A 
ATOM     33  C   UNL A   1      41.483  27.908  25.777  1.00  0.00     0.016 A 
ATOM     34  C   UNL A   1      40.397  26.153  27.085  1.00  0.00     0.016 A 
ATOM     35  C   UNL A   1      40.934  28.863  26.611  1.00  0.00     0.010 A 
ATOM     36  C   UNL A   1      39.873  27.100  27.934  1.00  0.00     0.010 A 
ATOM     37  C   UNL A   1      40.238  28.435  27.745  1.00  0.00    -0.014 A 
BRANCH  37  38
ATOM     38  C   UNL A   1      40.163  29.344  28.875  1.00  0.00     0.031 A 
ATOM     39  C   UNL A   1      39.028  30.284  28.960  1.00  0.00     0.074 A 
ATOM     40  C   UNL A   1      41.022  29.171  29.903  1.00  0.00     0.049 A 
ATOM     41  N   UNL A   1      39.071  31.562  29.152  1.00  0.00    -0.248 NA
ATOM     42  C   UNL A   1      37.670  29.739  28.810  1.00  0.00     0.031 C 
ATOM     43  C   UNL A   1      41.957  28.052  30.097  1.00  0.00     0.029 A 
ATOM     44  N   UNL A   1      41.149  29.885  31.056  1.00  0.00    -0.354 N 
ATOM     45  C   UNL A   1      37.750  31.967  29.302  1.00  0.00     0.074 A 
ATOM     46  C   UNL A   1      36.925  30.830  28.984  1.00  0.00     0.031 C 
ATOM     47  C   UNL A   1      42.394  28.056  31.373  1.00  0.00     0.029 A 
ATOM     48  C   UNL A   1      41.856  29.224  32.049  1.00  0.00     0.049 A 
ATOM     49  H   UNL A   1      40.773  30.787  31.173  1.00  0.00     0.167 HD
ATOM     50  C   UNL A   1      37.418  33.151  29.878  1.00  0.00     0.037 A 
ATOM     51  C   UNL A   1      41.922  29.561  33.359  1.00  0.00     0.037 A 
ATOM     52  C   UNL A   1      38.504  34.090  29.876  1.00  0.00     0.049 A 
ATOM     53  C   UNL A   1      41.480  30.971  33.491  1.00  0.00     0.074 A 
ATOM     54  C   UNL A   1      39.287  34.658  28.888  1.00  0.00     0.029 A 
ATOM     55  N   UNL A   1      39.145  34.370  31.056  1.00  0.00    -0.354 N 
ATOM     56  N   UNL A   1      42.164  32.007  33.093  1.00  0.00    -0.248 NA
ATOM     57  C   UNL A   1      40.069  31.218  33.752  1.00  0.00     0.031 C 
ATOM     58  C   UNL A   1      40.573  34.831  29.477  1.00  0.00     0.029 A 
ATOM     59  C   UNL A   1      40.490  34.361  30.788  1.00  0.00     0.049 A 
ATOM     60  H   UNL A   1      38.721  34.542  31.927  1.00  0.00     0.167 HD
ATOM     61  C   UNL A   1      41.208  32.917  32.666  1.00  0.00     0.074 A 
ATOM     62  C   UNL A   1      39.946  32.430  33.207  1.00  0.00     0.031 C 
ATOM     63  C   UNL A   1      41.484  33.819  31.681  1.00  0.00     0.037 A 
BRANCH  50  64
ATOM     64  C   UNL A   1      36.177  33.339  30.702  1.00  0.00     0.064 A 
ATOM     65  C   UNL A   1      35.140  34.165  30.237  1.00  0.00     0.173 A 
ATOM     66  C   UNL A   1      36.088  32.934  32.052  1.00  0.00     0.173 A 
ATOM     67  F   UNL A   1      35.163  34.647  28.985  1.00  0.00    -0.203 F 
ATOM     68  C   UNL A   1      34.100  34.576  31.074  1.00  0.00     0.198 A 
ATOM     69  C   UNL A   1      35.020  33.298  32.866  1.00  0.00     0.198 A 
ATOM     70  F   UNL A   1      37.081  32.264  32.652  1.00  0.00    -0.203 F 
ATOM     71  F   UNL A   1      33.188  35.446  30.621  1.00  0.00    -0.200 F 
ATOM     72  C   UNL A   1      34.037  34.137  32.385  1.00  0.00     0.200 A 
ATOM     73  F   UNL A   1      34.990  32.883  34.142  1.00  0.00    -0.200 F 
ATOM     74  F   UNL A   1      33.061  34.563  33.198  1.00  0.00    -0.200 F 
ENDBRANCH  50  64
BRANCH  51  75
ATOM     75  C   UNL A   1      42.111  28.672  34.527  1.00  0.00     0.064 A 
ATOM     76  C   UNL A   1      41.406  27.464  34.640  1.00  0.00     0.173 A 
ATOM     77  C   UNL A   1      43.159  28.871  35.448  1.00  0.00     0.173 A 
ATOM     78  F   UNL A   1      40.430  27.168  33.770  1.00  0.00    -0.203 F 
ATOM     79  C   UNL A   1      41.733  26.512  35.611  1.00  0.00     0.198 A 
ATOM     80  C   UNL A   1      43.472  27.931  36.430  1.00  0.00     0.198 A 
ATOM     81  F   UNL A   1      43.960  29.943  35.362  1.00  0.00    -0.203 F 
ATOM     82  F   UNL A   1      41.075  25.344  35.650  1.00  0.00    -0.200 F 
ATOM     83  C   UNL A   1      42.766  26.745  36.504  1.00  0.00     0.200 A 
ATOM     84  F   UNL A   1      44.496  28.157  37.265  1.00  0.00    -0.200 F 
ATOM     85  F   UNL A   1      43.107  25.816  37.406  1.00  0.00    -0.200 F 
ENDBRANCH  51  75
BRANCH  63  86
ATOM     86  C   UNL A   1      42.921  34.024  31.305  1.00  0.00     0.064 A 
ATOM     87  C   UNL A   1      43.596  33.229  30.362  1.00  0.00     0.173 A 
ATOM     88  C   UNL A   1      43.595  35.142  31.813  1.00  0.00     0.173 A 
ATOM     89  F   UNL A   1      42.976  32.210  29.752  1.00  0.00    -0.203 F 
ATOM     90  C   UNL A   1      44.908  33.512  29.991  1.00  0.00     0.198 A 
ATOM     91  C   UNL A   1      44.894  35.442  31.412  1.00  0.00     0.198 A 
ATOM     92  F   UNL A   1      42.975  35.971  32.667  1.00  0.00    -0.203 F 
ATOM     93  F   UNL A   1      45.538  32.732  29.099  1.00  0.00    -0.200 F 
ATOM     94  C   UNL A   1      45.554  34.621  30.512  1.00  0.00     0.200 A 
ATOM     95  F   UNL A   1      45.499  36.544  31.880  1.00  0.00    -0.200 F 
ATOM     96  F   UNL A   1      46.803  34.915  30.126  1.00  0.00    -0.200 F 
ENDBRANCH  63  86
ENDBRANCH  37  38
ENDBRANCH  30  32
ENDBRANCH  29  30
ENDBRANCH  28  29
ENDBRANCH  27  28
ENDBRANCH  26  27
ENDBRANCH  25  26
ENDBRANCH   1  25
TORSDOF 21
ENDMDL
MODEL 3
REMARK VINA RESULT:     -10.4      1.336      3.193
REMARK SMILES CCn1ncc(CNc2ccccc2C(=O)OCCOCCOCCOC(=O)c2ccc(-c3c4nc(c(-c5c(F)c(F)c(F)c(F)c5F)c5ccc([nH]5)c(-c5c(F)c(F)c(F)c(F)c5F)c5nc(c(-c6c(F)c(F)c(F)c(F)c6F)c6ccc3[nH]6)C=C5)C=C4)cc2)c1C
REMARK SMILES IDX 21 1 20 2 19 3 18 4 17 5 15 6 16 7 14 8 9 9 10 10 11 11
REMARK SMILES IDX 13 12 12 13 8 14 7 16 6 17 3 18 4 19 92 20 5 21 93 22 2 23
REMARK SMILES IDX 1 24 22 25 23 26 24 27 25 28 26 29 27 30 28 31 29 32 30 33
REMARK SMILES IDX 91 34 31 35 90 36 32 37 33 38 34 39 84 40 35 41 89 42 83 43
REMARK SMILES IDX 85 44 36 45 88 46 82 47 81 48 37 50 69 51 49 52 68 53 50 54
REMARK SMILES IDX 53 55 67 56 86 57 51 58 52 59 66 61 87 62 54 63 38 64 39 65
REMARK SMILES IDX 47 66 40 67 41 68 45 69 48 70 42 71 43 72 46 73 44 74 70 75
REMARK SMILES IDX 71 76 79 77 72 78 73 79 77 80 80 81 74 82 75 83 78 84 76 85
REMARK SMILES IDX 55 86 56 87 64 88 57 89 58 90 62 91 65 92 59 93 60 94 63 95
REMARK SMILES IDX 61 96
REMARK H PARENT 8 15 85 49 53 60
REMARK Flexibility Score: inf
ROOT
ATOM      1  C   UNL A   1      33.506  31.797  27.640  1.00  0.00     0.188 C 
ENDROOT
BRANCH   1   2
ATOM      2  O   UNL A   1      33.198  30.458  27.258  1.00  0.00    -0.376 OA
BRANCH   2   3
ATOM      3  C   UNL A   1      32.273  30.273  26.183  1.00  0.00     0.202 C 
BRANCH   3   4
ATOM      4  C   UNL A   1      31.669  28.871  25.999  1.00  0.00     0.261 C 
BRANCH   4   5
ATOM      5  O   UNL A   1      32.097  28.269  24.766  1.00  0.00    -0.460 OA
BRANCH   5   6
ATOM      6  C   UNL A   1      31.684  28.853  23.617  1.00  0.00     0.340 C 
ATOM      7  O   UNL A   1      32.407  29.231  22.709  1.00  0.00    -0.246 OA
BRANCH   6   8
ATOM      8  C   UNL A   1      30.202  28.773  23.506  1.00  0.00     0.083 A 
ATOM      9  C   UNL A   1      29.419  27.598  23.523  1.00  0.00     0.049 A 
ATOM     10  C   UNL A   1      28.030  27.759  23.299  1.00  0.00     0.026 A 
ATOM     11  C   UNL A   1      27.439  29.004  23.064  1.00  0.00     0.002 A 
ATOM     12  C   UNL A   1      29.596  30.028  23.271  1.00  0.00     0.018 A 
ATOM     13  C   UNL A   1      28.226  30.143  23.048  1.00  0.00     0.001 A 
BRANCH   9  14
ATOM     14  N   UNL A   1      29.828  26.296  23.735  1.00  0.00    -0.380 N 
ATOM     15  H   UNL A   1      30.100  25.801  22.929  1.00  0.00     0.160 HD
BRANCH  14  16
ATOM     16  C   UNL A   1      29.912  25.556  24.980  1.00  0.00     0.152 C 
BRANCH  16  17
ATOM     17  C   UNL A   1      31.071  24.622  25.055  1.00  0.00     0.012 A 
ATOM     18  N   UNL A   1      32.479  23.035  25.638  1.00  0.00    -0.270 N 
ATOM     19  N   UNL A   1      33.122  23.711  24.665  1.00  0.00    -0.181 NA
ATOM     20  C   UNL A   1      31.226  23.533  25.899  1.00  0.00     0.040 A 
ATOM     21  C   UNL A   1      32.272  24.678  24.323  1.00  0.00     0.141 A 
ATOM     22  C   UNL A   1      30.285  22.970  26.903  1.00  0.00     0.067 C 
BRANCH  18  23
ATOM     23  C   UNL A   1      33.111  21.905  26.297  1.00  0.00     0.141 C 
ATOM     24  C   UNL A   1      33.592  22.157  27.716  1.00  0.00     0.029 C 
ENDBRANCH  18  23
ENDBRANCH  16  17
ENDBRANCH  14  16
ENDBRANCH   9  14
ENDBRANCH   6   8
ENDBRANCH   5   6
ENDBRANCH   4   5
ENDBRANCH   3   4
ENDBRANCH   2   3
ENDBRANCH   1   2
BRANCH   1  25
ATOM     25  C   UNL A   1      34.977  32.172  27.933  1.00  0.00     0.188 C 
BRANCH  25  26
ATOM     26  O   UNL A   1      35.167  33.455  28.522  1.00  0.00    -0.376 OA
BRANCH  26  27
ATOM     27  C   UNL A   1      34.323  34.488  28.024  1.00  0.00     0.202 C 
BRANCH  27  28
ATOM     28  C   UNL A   1      33.559  35.219  29.128  1.00  0.00     0.261 C 
BRANCH  28  29
ATOM     29  O   UNL A   1      33.457  34.473  30.337  1.00  0.00    -0.460 OA
BRANCH  29  30
ATOM     30  C   UNL A   1      33.765  35.124  31.477  1.00  0.00     0.338 C 
ATOM     31  O   UNL A   1      33.310  36.183  31.865  1.00  0.00    -0.246 OA
BRANCH  30  32
ATOM     32  C   UNL A   1      34.766  34.324  32.204  1.00  0.00     0.060 A 
ATOM     33  C   UNL A   1      35.803  35.005  32.849  1.00  0.00     0.016 A 
ATOM     34  C   UNL A   1      34.784  32.930  32.057  1.00  0.00     0.016 A 
ATOM     35  C   UNL A   1      36.971  34.320  33.127  1.00  0.00     0.010 A 
ATOM     36  C   UNL A   1      35.954  32.251  32.307  1.00  0.00     0.010 A 
ATOM     37  C   UNL A   1      37.064  32.980  32.739  1.00  0.00    -0.014 A 
BRANCH  37  38
ATOM     38  C   UNL A   1      38.390  32.437  32.499  1.00  0.00     0.031 A 
ATOM     39  C   UNL A   1      39.314  32.281  33.639  1.00  0.00     0.074 A 
ATOM     40  C   UNL A   1      38.665  31.918  31.283  1.00  0.00     0.049 A 
ATOM     41  N   UNL A   1      40.536  32.694  33.730  1.00  0.00    -0.248 NA
ATOM     42  C   UNL A   1      38.820  31.583  34.835  1.00  0.00     0.031 C 
ATOM     43  C   UNL A   1      37.718  31.689  30.182  1.00  0.00     0.029 A 
ATOM     44  N   UNL A   1      39.819  31.360  30.820  1.00  0.00    -0.354 N 
ATOM     45  C   UNL A   1      41.022  32.176  34.925  1.00  0.00     0.074 A 
ATOM     46  C   UNL A   1      39.901  31.588  35.613  1.00  0.00     0.031 C 
ATOM     47  C   UNL A   1      38.283  30.866  29.275  1.00  0.00     0.029 A 
ATOM     48  C   UNL A   1      39.652  30.594  29.677  1.00  0.00     0.049 A 
ATOM     49  H   UNL A   1      40.692  31.491  31.258  1.00  0.00     0.167 HD
ATOM     50  C   UNL A   1      42.352  32.081  35.185  1.00  0.00     0.037 A 
ATOM     51  C   UNL A   1      40.545  29.726  29.145  1.00  0.00     0.037 A 
ATOM     52  C   UNL A   1      43.139  32.952  34.359  1.00  0.00     0.049 A 
ATOM     53  C   UNL A   1      41.878  30.033  29.717  1.00  0.00     0.074 A 
ATOM     54  C   UNL A   1      43.162  34.318  34.143  1.00  0.00     0.029 A 
ATOM     55  N   UNL A   1      43.897  32.410  33.352  1.00  0.00    -0.354 N 
ATOM     56  N   UNL A   1      42.590  31.086  29.429  1.00  0.00    -0.248 NA
ATOM     57  C   UNL A   1      42.278  29.321  30.924  1.00  0.00     0.031 C 
ATOM     58  C   UNL A   1      43.527  34.478  32.775  1.00  0.00     0.029 A 
ATOM     59  C   UNL A   1      43.709  33.201  32.246  1.00  0.00     0.049 A 
ATOM     60  H   UNL A   1      44.464  31.609  33.411  1.00  0.00     0.167 HD
ATOM     61  C   UNL A   1      43.247  31.401  30.610  1.00  0.00     0.074 A 
ATOM     62  C   UNL A   1      43.114  30.219  31.450  1.00  0.00     0.031 C 
ATOM     63  C   UNL A   1      43.589  32.688  30.903  1.00  0.00     0.037 A 
BRANCH  50  64
ATOM     64  C   UNL A   1      42.946  30.971  36.002  1.00  0.00     0.064 A 
ATOM     65  C   UNL A   1      43.765  31.268  37.104  1.00  0.00     0.173 A 
ATOM     66  C   UNL A   1      42.944  29.624  35.577  1.00  0.00     0.173 A 
ATOM     67  F   UNL A   1      43.878  32.528  37.549  1.00  0.00    -0.203 F 
ATOM     68  C   UNL A   1      44.544  30.287  37.723  1.00  0.00     0.198 A 
ATOM     69  C   UNL A   1      43.677  28.639  36.231  1.00  0.00     0.198 A 
ATOM     70  F   UNL A   1      42.317  29.242  34.455  1.00  0.00    -0.203 F 
ATOM     71  F   UNL A   1      45.388  30.630  38.704  1.00  0.00    -0.200 F 
ATOM     72  C   UNL A   1      44.495  28.973  37.290  1.00  0.00     0.200 A 
ATOM     73  F   UNL A   1      43.636  27.376  35.781  1.00  0.00    -0.200 F 
ATOM     74  F   UNL A   1      45.271  28.041  37.858  1.00  0.00    -0.200 F 
ENDBRANCH  50  64
BRANCH  51  75
ATOM     75  C   UNL A   1      40.276  28.500  28.360  1.00  0.00     0.064 A 
ATOM     76  C   UNL A   1      40.848  28.310  27.093  1.00  0.00     0.173 A 
ATOM     77  C   UNL A   1      39.640  27.380  28.931  1.00  0.00     0.173 A 
ATOM     78  F   UNL A   1      41.521  29.307  26.501  1.00  0.00    -0.203 F 
ATOM     79  C   UNL A   1      40.791  27.075  26.440  1.00  0.00     0.198 A 
ATOM     80  C   UNL A   1      39.564  26.153  28.271  1.00  0.00     0.198 A 
ATOM     81  F   UNL A   1      39.153  27.423  30.180  1.00  0.00    -0.203 F 
ATOM     82  F   UNL A   1      41.399  26.917  25.256  1.00  0.00    -0.200 F 
ATOM     83  C   UNL A   1      40.150  25.997  27.029  1.00  0.00     0.200 A 
ATOM     84  F   UNL A   1      38.971  25.111  28.869  1.00  0.00    -0.200 F 
ATOM     85  F   UNL A   1      40.132  24.804  26.423  1.00  0.00    -0.200 F 
ENDBRANCH  51  75
BRANCH  63  86
ATOM     86  C   UNL A   1      43.539  33.695  29.793  1.00  0.00     0.064 A 
ATOM     87  C   UNL A   1      42.375  34.397  29.437  1.00  0.00     0.173 A 
ATOM     88  C   UNL A   1      44.735  34.057  29.161  1.00  0.00     0.173 A 
ATOM     89  F   UNL A   1      41.218  34.182  30.078  1.00  0.00    -0.203 F 
ATOM     90  C   UNL A   1      42.401  35.380  28.450  1.00  0.00     0.198 A 
ATOM     91  C   UNL A   1      44.764  35.065  28.200  1.00  0.00     0.198 A 
ATOM     92  F   UNL A   1      45.887  33.463  29.508  1.00  0.00    -0.203 F 
ATOM     93  F   UNL A   1      41.275  36.028  28.116  1.00  0.00    -0.200 F 
ATOM     94  C   UNL A   1      43.597  35.716  27.836  1.00  0.00     0.200 A 
ATOM     95  F   UNL A   1      45.931  35.423  27.644  1.00  0.00    -0.200 F 
ATOM     96  F   UNL A   1      43.629  36.687  26.913  1.00  0.00    -0.200 F 
ENDBRANCH  63  86
ENDBRANCH  37  38
ENDBRANCH  30  32
ENDBRANCH  29  30
ENDBRANCH  28  29
ENDBRANCH  27  28
ENDBRANCH  26  27
ENDBRANCH  25  26
ENDBRANCH   1  25
TORSDOF 21
ENDMDL
