MODEL 1
REMARK VINA RESULT:      -9.1      0.000      0.000
REMARK SMILES CC(C)N(CC(F)(F)F)C(=O)N(CC(=O)OCCOCCOCCOC(=O)c1ccc(-c2c3nc(c(-c4c(F)c(F)c(F)c(F)c4F)c4ccc([nH]4)c(-c4c(F)c(F)c(F)c(F)c4F)c4nc(c(-c5c(F)c(F)c(F)c(F)c5F)c5ccc2[nH]5)C=C4)C=C3)cc1)C(C)(C)C
REMARK SMILES IDX 19 1 18 2 17 3 16 4 14 5 15 6 13 7 12 8 10 9 11 10 4 11 2 12
REMARK SMILES IDX 1 13 3 14 5 15 6 16 7 17 8 18 9 19 91 20 92 21 93 22 94 23
REMARK SMILES IDX 20 24 21 25 22 26 23 27 24 28 25 29 26 30 27 31 28 32 29 33
REMARK SMILES IDX 90 34 30 35 89 36 31 37 32 38 33 39 83 40 34 41 88 42 82 43
REMARK SMILES IDX 84 44 35 45 87 46 81 47 80 48 36 50 68 51 48 52 67 53 49 54
REMARK SMILES IDX 52 55 66 56 85 57 50 58 51 59 65 61 86 62 53 63 37 64 38 65
REMARK SMILES IDX 46 66 39 67 40 68 44 69 47 70 41 71 42 72 45 73 43 74 69 75
REMARK SMILES IDX 70 76 78 77 71 78 72 79 76 80 79 81 73 82 74 83 77 84 75 85
REMARK SMILES IDX 54 86 55 87 63 88 56 89 57 90 61 91 64 92 58 93 59 94 62 95
REMARK SMILES IDX 60 96
REMARK H PARENT 84 49 52 60
REMARK Flexibility Score: inf
ROOT
ATOM      1  O   UNL A   1      39.625  23.290  26.826  1.00  0.00    -0.376 OA
ENDROOT
BRANCH   1   2
ATOM      2  C   UNL A   1      38.453  23.738  26.147  1.00  0.00     0.202 C 
BRANCH   2   3
ATOM      3  C   UNL A   1      37.359  22.676  25.993  1.00  0.00     0.261 C 
BRANCH   3   4
ATOM      4  O   UNL A   1      36.095  23.072  26.587  1.00  0.00    -0.462 OA
BRANCH   4   5
ATOM      5  C   UNL A   1      35.180  22.082  26.760  1.00  0.00     0.325 C 
ATOM      6  O   UNL A   1      34.599  21.861  27.818  1.00  0.00    -0.250 OA
BRANCH   5   7
ATOM      7  C   UNL A   1      34.921  21.212  25.511  1.00  0.00     0.244 C 
BRANCH   7   8
ATOM      8  N   UNL A   1      33.560  20.739  25.196  1.00  0.00    -0.309 N 
BRANCH   8   9
ATOM      9  C   UNL A   1      32.429  21.544  25.075  1.00  0.00     0.321 C 
ATOM     10  O   UNL A   1      31.332  21.078  25.396  1.00  0.00    -0.248 OA
BRANCH   9  11
ATOM     11  N   UNL A   1      32.449  22.809  24.507  1.00  0.00    -0.313 N 
BRANCH  11  12
ATOM     12  C   UNL A   1      31.799  22.945  23.169  1.00  0.00     0.081 C 
ATOM     13  C   UNL A   1      30.784  24.096  23.123  1.00  0.00     0.031 C 
ATOM     14  C   UNL A   1      32.786  23.018  21.997  1.00  0.00     0.031 C 
ENDBRANCH  11  12
BRANCH  11  15
ATOM     15  C   UNL A   1      32.708  24.107  25.171  1.00  0.00     0.237 C 
BRANCH  15  16
ATOM     16  C   UNL A   1      33.881  24.919  24.618  1.00  0.00     0.406 C 
ATOM     17  F   UNL A   1      34.531  25.607  25.578  1.00  0.00    -0.169 F 
ATOM     18  F   UNL A   1      34.780  24.088  24.038  1.00  0.00    -0.169 F 
ATOM     19  F   UNL A   1      33.474  25.791  23.671  1.00  0.00    -0.169 F 
ENDBRANCH  15  16
ENDBRANCH  11  15
ENDBRANCH   9  11
ENDBRANCH   8   9
BRANCH   8  20
ATOM     20  C   UNL A   1      33.415  19.314  24.658  1.00  0.00     0.037 C 
ATOM     21  C   UNL A   1      32.545  19.255  23.373  1.00  0.00     0.034 C 
ATOM     22  C   UNL A   1      34.813  18.717  24.353  1.00  0.00     0.034 C 
ATOM     23  C   UNL A   1      32.776  18.336  25.666  1.00  0.00     0.034 C 
ENDBRANCH   8  20
ENDBRANCH   7   8
ENDBRANCH   5   7
ENDBRANCH   4   5
ENDBRANCH   3   4
ENDBRANCH   2   3
ENDBRANCH   1   2
BRANCH   1  24
ATOM     24  C   UNL A   1      40.081  21.976  26.526  1.00  0.00     0.188 C 
BRANCH  24  25
ATOM     25  C   UNL A   1      40.830  21.246  27.650  1.00  0.00     0.188 C 
BRANCH  25  26
ATOM     26  O   UNL A   1      42.091  20.683  27.313  1.00  0.00    -0.376 OA
BRANCH  26  27
ATOM     27  C   UNL A   1      42.342  20.457  25.928  1.00  0.00     0.202 C 
BRANCH  27  28
ATOM     28  C   UNL A   1      43.695  20.988  25.455  1.00  0.00     0.261 C 
BRANCH  28  29
ATOM     29  O   UNL A   1      44.065  22.133  26.248  1.00  0.00    -0.460 OA
BRANCH  29  30
ATOM     30  C   UNL A   1      43.566  23.305  25.805  1.00  0.00     0.338 C 
ATOM     31  O   UNL A   1      43.121  23.551  24.692  1.00  0.00    -0.246 OA
BRANCH  30  32
ATOM     32  C   UNL A   1      43.570  24.292  26.893  1.00  0.00     0.060 A 
ATOM     33  C   UNL A   1      43.044  23.939  28.136  1.00  0.00     0.016 A 
ATOM     34  C   UNL A   1      43.916  25.613  26.629  1.00  0.00     0.016 A 
ATOM     35  C   UNL A   1      42.764  24.918  29.090  1.00  0.00     0.010 A 
ATOM     36  C   UNL A   1      43.694  26.587  27.608  1.00  0.00     0.010 A 
ATOM     37  C   UNL A   1      43.064  26.259  28.825  1.00  0.00    -0.014 A 
BRANCH  37  38
ATOM     38  C   UNL A   1      42.600  27.349  29.726  1.00  0.00     0.031 A 
ATOM     39  C   UNL A   1      43.400  27.651  30.966  1.00  0.00     0.074 A 
ATOM     40  C   UNL A   1      41.500  28.078  29.460  1.00  0.00     0.049 A 
ATOM     41  N   UNL A   1      43.057  28.321  32.037  1.00  0.00    -0.248 NA
ATOM     42  C   UNL A   1      44.769  27.114  31.005  1.00  0.00     0.031 C 
ATOM     43  C   UNL A   1      40.687  27.986  28.251  1.00  0.00     0.029 A 
ATOM     44  N   UNL A   1      40.873  29.044  30.213  1.00  0.00    -0.354 N 
ATOM     45  C   UNL A   1      44.137  28.219  32.905  1.00  0.00     0.074 A 
ATOM     46  C   UNL A   1      45.156  27.447  32.228  1.00  0.00     0.031 C 
ATOM     47  C   UNL A   1      39.672  28.862  28.338  1.00  0.00     0.029 A 
ATOM     48  C   UNL A   1      39.713  29.512  29.645  1.00  0.00     0.049 A 
ATOM     49  H   UNL A   1      41.222  29.369  31.074  1.00  0.00     0.167 HD
ATOM     50  C   UNL A   1      44.256  28.713  34.160  1.00  0.00     0.037 A 
ATOM     51  C   UNL A   1      38.763  30.323  30.146  1.00  0.00     0.037 A 
ATOM     52  C   UNL A   1      43.264  29.533  34.804  1.00  0.00     0.049 A 
ATOM     53  C   UNL A   1      38.891  30.829  31.559  1.00  0.00     0.074 A 
ATOM     54  C   UNL A   1      43.274  30.064  36.082  1.00  0.00     0.029 A 
ATOM     55  N   UNL A   1      42.093  29.965  34.199  1.00  0.00    -0.354 N 
ATOM     56  N   UNL A   1      39.854  30.631  32.426  1.00  0.00    -0.248 NA
ATOM     57  C   UNL A   1      37.781  31.648  32.074  1.00  0.00     0.031 C 
ATOM     58  C   UNL A   1      42.097  30.801  36.259  1.00  0.00     0.029 A 
ATOM     59  C   UNL A   1      41.372  30.756  35.078  1.00  0.00     0.049 A 
ATOM     60  H   UNL A   1      41.815  29.742  33.281  1.00  0.00     0.167 HD
ATOM     61  C   UNL A   1      39.473  31.303  33.580  1.00  0.00     0.074 A 
ATOM     62  C   UNL A   1      38.200  31.933  33.298  1.00  0.00     0.031 C 
ATOM     63  C   UNL A   1      40.114  31.383  34.771  1.00  0.00     0.037 A 
BRANCH  50  64
ATOM     64  C   UNL A   1      45.477  28.334  34.941  1.00  0.00     0.064 A 
ATOM     65  C   UNL A   1      46.633  29.126  34.948  1.00  0.00     0.173 A 
ATOM     66  C   UNL A   1      45.476  27.164  35.718  1.00  0.00     0.173 A 
ATOM     67  F   UNL A   1      46.691  30.242  34.206  1.00  0.00    -0.203 F 
ATOM     68  C   UNL A   1      47.752  28.751  35.689  1.00  0.00     0.198 A 
ATOM     69  C   UNL A   1      46.586  26.805  36.477  1.00  0.00     0.198 A 
ATOM     70  F   UNL A   1      44.393  26.373  35.747  1.00  0.00    -0.203 F 
ATOM     71  F   UNL A   1      48.861  29.502  35.650  1.00  0.00    -0.200 F 
ATOM     72  C   UNL A   1      47.725  27.596  36.457  1.00  0.00     0.200 A 
ATOM     73  F   UNL A   1      46.555  25.693  37.224  1.00  0.00    -0.200 F 
ATOM     74  F   UNL A   1      48.801  27.239  37.173  1.00  0.00    -0.200 F 
ENDBRANCH  50  64
BRANCH  51  75
ATOM     75  C   UNL A   1      37.564  30.657  29.331  1.00  0.00     0.064 A 
ATOM     76  C   UNL A   1      36.585  29.691  29.060  1.00  0.00     0.173 A 
ATOM     77  C   UNL A   1      37.381  31.940  28.795  1.00  0.00     0.173 A 
ATOM     78  F   UNL A   1      36.732  28.441  29.524  1.00  0.00    -0.203 F 
ATOM     79  C   UNL A   1      35.473  29.994  28.278  1.00  0.00     0.198 A 
ATOM     80  C   UNL A   1      36.253  32.250  28.038  1.00  0.00     0.198 A 
ATOM     81  F   UNL A   1      38.293  32.897  29.019  1.00  0.00    -0.203 F 
ATOM     82  F   UNL A   1      34.572  29.042  27.998  1.00  0.00    -0.200 F 
ATOM     83  C   UNL A   1      35.304  31.276  27.774  1.00  0.00     0.200 A 
ATOM     84  F   UNL A   1      36.090  33.492  27.562  1.00  0.00    -0.200 F 
ATOM     85  F   UNL A   1      34.231  31.569  27.027  1.00  0.00    -0.200 F 
ENDBRANCH  51  75
BRANCH  63  86
ATOM     86  C   UNL A   1      39.467  32.205  35.844  1.00  0.00     0.064 A 
ATOM     87  C   UNL A   1      38.521  31.651  36.718  1.00  0.00     0.173 A 
ATOM     88  C   UNL A   1      39.830  33.547  36.026  1.00  0.00     0.173 A 
ATOM     89  F   UNL A   1      38.133  30.375  36.572  1.00  0.00    -0.203 F 
ATOM     90  C   UNL A   1      37.947  32.419  37.727  1.00  0.00     0.198 A 
ATOM     91  C   UNL A   1      39.269  34.306  37.049  1.00  0.00     0.198 A 
ATOM     92  F   UNL A   1      40.734  34.119  35.217  1.00  0.00    -0.203 F 
ATOM     93  F   UNL A   1      37.018  31.882  38.530  1.00  0.00    -0.200 F 
ATOM     94  C   UNL A   1      38.326  33.743  37.895  1.00  0.00     0.200 A 
ATOM     95  F   UNL A   1      39.640  35.584  37.215  1.00  0.00    -0.200 F 
ATOM     96  F   UNL A   1      37.774  34.480  38.869  1.00  0.00    -0.200 F 
ENDBRANCH  63  86
ENDBRANCH  37  38
ENDBRANCH  30  32
ENDBRANCH  29  30
ENDBRANCH  28  29
ENDBRANCH  27  28
ENDBRANCH  26  27
ENDBRANCH  25  26
ENDBRANCH  24  25
ENDBRANCH   1  24
TORSDOF 24
ENDMDL
MODEL 2
REMARK VINA RESULT:      -8.6      5.587      9.571
REMARK SMILES CC(C)N(CC(F)(F)F)C(=O)N(CC(=O)OCCOCCOCCOC(=O)c1ccc(-c2c3nc(c(-c4c(F)c(F)c(F)c(F)c4F)c4ccc([nH]4)c(-c4c(F)c(F)c(F)c(F)c4F)c4nc(c(-c5c(F)c(F)c(F)c(F)c5F)c5ccc2[nH]5)C=C4)C=C3)cc1)C(C)(C)C
REMARK SMILES IDX 19 1 18 2 17 3 16 4 14 5 15 6 13 7 12 8 10 9 11 10 4 11 2 12
REMARK SMILES IDX 1 13 3 14 5 15 6 16 7 17 8 18 9 19 91 20 92 21 93 22 94 23
REMARK SMILES IDX 20 24 21 25 22 26 23 27 24 28 25 29 26 30 27 31 28 32 29 33
REMARK SMILES IDX 90 34 30 35 89 36 31 37 32 38 33 39 83 40 34 41 88 42 82 43
REMARK SMILES IDX 84 44 35 45 87 46 81 47 80 48 36 50 68 51 48 52 67 53 49 54
REMARK SMILES IDX 52 55 66 56 85 57 50 58 51 59 65 61 86 62 53 63 37 64 38 65
REMARK SMILES IDX 46 66 39 67 40 68 44 69 47 70 41 71 42 72 45 73 43 74 69 75
REMARK SMILES IDX 70 76 78 77 71 78 72 79 76 80 79 81 73 82 74 83 77 84 75 85
REMARK SMILES IDX 54 86 55 87 63 88 56 89 57 90 61 91 64 92 58 93 59 94 62 95
REMARK SMILES IDX 60 96
REMARK H PARENT 84 49 52 60
REMARK Flexibility Score: inf
ROOT
ATOM      1  O   UNL A   1      40.311  23.761  26.818  1.00  0.00    -0.376 OA
ENDROOT
BRANCH   1   2
ATOM      2  C   UNL A   1      38.938  23.911  26.463  1.00  0.00     0.202 C 
BRANCH   2   3
ATOM      3  C   UNL A   1      38.289  22.653  25.876  1.00  0.00     0.261 C 
BRANCH   3   4
ATOM      4  O   UNL A   1      37.132  22.943  25.049  1.00  0.00    -0.462 OA
BRANCH   4   5
ATOM      5  C   UNL A   1      35.921  22.643  25.588  1.00  0.00     0.325 C 
ATOM      6  O   UNL A   1      35.528  23.064  26.672  1.00  0.00    -0.250 OA
BRANCH   5   7
ATOM      7  C   UNL A   1      35.048  21.695  24.737  1.00  0.00     0.244 C 
BRANCH   7   8
ATOM      8  N   UNL A   1      33.834  22.196  24.064  1.00  0.00    -0.309 N 
BRANCH   8   9
ATOM      9  C   UNL A   1      33.770  23.313  23.234  1.00  0.00     0.321 C 
ATOM     10  O   UNL A   1      34.449  23.325  22.203  1.00  0.00    -0.248 OA
BRANCH   9  11
ATOM     11  N   UNL A   1      33.067  24.465  23.555  1.00  0.00    -0.313 N 
BRANCH  11  12
ATOM     12  C   UNL A   1      33.795  25.476  24.379  1.00  0.00     0.081 C 
ATOM     13  C   UNL A   1      33.717  26.888  23.781  1.00  0.00     0.031 C 
ATOM     14  C   UNL A   1      33.406  25.472  25.863  1.00  0.00     0.031 C 
ENDBRANCH  11  12
BRANCH  11  15
ATOM     15  C   UNL A   1      31.838  24.994  22.922  1.00  0.00     0.237 C 
BRANCH  15  16
ATOM     16  C   UNL A   1      30.616  25.118  23.834  1.00  0.00     0.406 C 
ATOM     17  F   UNL A   1      30.493  26.351  24.365  1.00  0.00    -0.169 F 
ATOM     18  F   UNL A   1      29.489  24.870  23.126  1.00  0.00    -0.169 F 
ATOM     19  F   UNL A   1      30.660  24.223  24.843  1.00  0.00    -0.169 F 
ENDBRANCH  15  16
ENDBRANCH  11  15
ENDBRANCH   9  11
ENDBRANCH   8   9
BRANCH   8  20
ATOM     20  C   UNL A   1      32.622  21.265  24.012  1.00  0.00     0.037 C 
ATOM     21  C   UNL A   1      31.598  21.568  25.140  1.00  0.00     0.034 C 
ATOM     22  C   UNL A   1      31.915  21.391  22.638  1.00  0.00     0.034 C 
ATOM     23  C   UNL A   1      32.984  19.770  24.138  1.00  0.00     0.034 C 
ENDBRANCH   8  20
ENDBRANCH   7   8
ENDBRANCH   5   7
ENDBRANCH   4   5
ENDBRANCH   3   4
ENDBRANCH   2   3
ENDBRANCH   1   2
BRANCH   1  24
ATOM     24  C   UNL A   1      40.617  22.789  27.812  1.00  0.00     0.188 C 
BRANCH  24  25
ATOM     25  C   UNL A   1      42.107  22.540  28.080  1.00  0.00     0.188 C 
BRANCH  25  26
ATOM     26  O   UNL A   1      42.576  21.212  27.884  1.00  0.00    -0.376 OA
BRANCH  26  27
ATOM     27  C   UNL A   1      41.704  20.321  27.194  1.00  0.00     0.202 C 
BRANCH  27  28
ATOM     28  C   UNL A   1      42.304  19.746  25.910  1.00  0.00     0.261 C 
BRANCH  28  29
ATOM     29  O   UNL A   1      42.837  20.818  25.108  1.00  0.00    -0.460 OA
BRANCH  29  30
ATOM     30  C   UNL A   1      44.116  20.645  24.722  1.00  0.00     0.338 C 
ATOM     31  O   UNL A   1      44.590  19.689  24.123  1.00  0.00    -0.246 OA
BRANCH  30  32
ATOM     32  C   UNL A   1      44.910  21.830  25.075  1.00  0.00     0.060 A 
ATOM     33  C   UNL A   1      45.462  21.924  26.353  1.00  0.00     0.016 A 
ATOM     34  C   UNL A   1      44.946  22.922  24.215  1.00  0.00     0.016 A 
ATOM     35  C   UNL A   1      45.964  23.139  26.819  1.00  0.00     0.010 A 
ATOM     36  C   UNL A   1      45.506  24.125  24.659  1.00  0.00     0.010 A 
ATOM     37  C   UNL A   1      45.968  24.262  25.983  1.00  0.00    -0.014 A 
BRANCH  37  38
ATOM     38  C   UNL A   1      46.305  25.615  26.504  1.00  0.00     0.031 A 
ATOM     39  C   UNL A   1      45.211  26.444  27.125  1.00  0.00     0.074 A 
ATOM     40  C   UNL A   1      47.554  26.113  26.449  1.00  0.00     0.049 A 
ATOM     41  N   UNL A   1      45.174  27.729  27.369  1.00  0.00    -0.248 NA
ATOM     42  C   UNL A   1      43.988  25.723  27.512  1.00  0.00     0.031 C 
ATOM     43  C   UNL A   1      48.738  25.396  25.984  1.00  0.00     0.029 A 
ATOM     44  N   UNL A   1      48.027  27.360  26.784  1.00  0.00    -0.354 N 
ATOM     45  C   UNL A   1      43.901  27.981  27.865  1.00  0.00     0.074 A 
ATOM     46  C   UNL A   1      43.204  26.714  27.912  1.00  0.00     0.031 C 
ATOM     47  C   UNL A   1      49.804  26.209  26.070  1.00  0.00     0.029 A 
ATOM     48  C   UNL A   1      49.362  27.531  26.508  1.00  0.00     0.049 A 
ATOM     49  H   UNL A   1      47.464  28.062  27.183  1.00  0.00     0.167 HD
ATOM     50  C   UNL A   1      43.361  29.168  28.230  1.00  0.00     0.037 A 
ATOM     51  C   UNL A   1      50.126  28.638  26.547  1.00  0.00     0.037 A 
ATOM     52  C   UNL A   1      44.080  30.415  28.240  1.00  0.00     0.049 A 
ATOM     53  C   UNL A   1      49.499  29.957  26.915  1.00  0.00     0.074 A 
ATOM     54  C   UNL A   1      43.620  31.678  28.567  1.00  0.00     0.029 A 
ATOM     55  N   UNL A   1      45.425  30.544  27.931  1.00  0.00    -0.354 N 
ATOM     56  N   UNL A   1      48.263  30.218  27.264  1.00  0.00    -0.248 NA
ATOM     57  C   UNL A   1      50.369  31.143  26.863  1.00  0.00     0.031 C 
ATOM     58  C   UNL A   1      44.684  32.578  28.437  1.00  0.00     0.029 A 
ATOM     59  C   UNL A   1      45.813  31.867  28.062  1.00  0.00     0.049 A 
ATOM     60  H   UNL A   1      46.017  29.806  27.660  1.00  0.00     0.167 HD
ATOM     61  C   UNL A   1      48.209  31.589  27.481  1.00  0.00     0.074 A 
ATOM     62  C   UNL A   1      49.540  32.104  27.244  1.00  0.00     0.031 C 
ATOM     63  C   UNL A   1      47.148  32.355  27.833  1.00  0.00     0.037 A 
BRANCH  50  64
ATOM     64  C   UNL A   1      41.908  29.185  28.596  1.00  0.00     0.064 A 
ATOM     65  C   UNL A   1      41.475  29.153  29.928  1.00  0.00     0.173 A 
ATOM     66  C   UNL A   1      40.933  29.260  27.589  1.00  0.00     0.173 A 
ATOM     67  F   UNL A   1      42.367  29.060  30.926  1.00  0.00    -0.203 F 
ATOM     68  C   UNL A   1      40.116  29.175  30.239  1.00  0.00     0.198 A 
ATOM     69  C   UNL A   1      39.578  29.308  27.903  1.00  0.00     0.198 A 
ATOM     70  F   UNL A   1      41.297  29.295  26.298  1.00  0.00    -0.203 F 
ATOM     71  F   UNL A   1      39.722  29.104  31.518  1.00  0.00    -0.200 F 
ATOM     72  C   UNL A   1      39.171  29.259  29.227  1.00  0.00     0.200 A 
ATOM     73  F   UNL A   1      38.667  29.397  26.924  1.00  0.00    -0.200 F 
ATOM     74  F   UNL A   1      37.865  29.286  29.528  1.00  0.00    -0.200 F 
ENDBRANCH  50  64
BRANCH  51  75
ATOM     75  C   UNL A   1      51.561  28.566  26.160  1.00  0.00     0.064 A 
ATOM     76  C   UNL A   1      52.561  28.408  27.129  1.00  0.00     0.173 A 
ATOM     77  C   UNL A   1      51.960  28.669  24.819  1.00  0.00     0.173 A 
ATOM     78  F   UNL A   1      52.230  28.338  28.427  1.00  0.00    -0.203 F 
ATOM     79  C   UNL A   1      53.907  28.363  26.771  1.00  0.00     0.198 A 
ATOM     80  C   UNL A   1      53.305  28.594  24.461  1.00  0.00     0.198 A 
ATOM     81  F   UNL A   1      51.042  28.830  23.855  1.00  0.00    -0.203 F 
ATOM     82  F   UNL A   1      54.847  28.253  27.720  1.00  0.00    -0.200 F 
ATOM     83  C   UNL A   1      54.277  28.448  25.437  1.00  0.00     0.200 A 
ATOM     84  F   UNL A   1      53.656  28.667  23.170  1.00  0.00    -0.200 F 
ATOM     85  F   UNL A   1      55.572  28.399  25.093  1.00  0.00    -0.200 F 
ENDBRANCH  51  75
BRANCH  63  86
ATOM     86  C   UNL A   1      47.392  33.822  28.016  1.00  0.00     0.064 A 
ATOM     87  C   UNL A   1      47.203  34.731  26.966  1.00  0.00     0.173 A 
ATOM     88  C   UNL A   1      47.777  34.327  29.266  1.00  0.00     0.173 A 
ATOM     89  F   UNL A   1      46.850  34.291  25.749  1.00  0.00    -0.203 F 
ATOM     90  C   UNL A   1      47.409  36.095  27.157  1.00  0.00     0.198 A 
ATOM     91  C   UNL A   1      47.962  35.693  29.460  1.00  0.00     0.198 A 
ATOM     92  F   UNL A   1      47.966  33.496  30.303  1.00  0.00    -0.203 F 
ATOM     93  F   UNL A   1      47.258  36.944  26.131  1.00  0.00    -0.200 F 
ATOM     94  C   UNL A   1      47.782  36.574  28.404  1.00  0.00     0.200 A 
ATOM     95  F   UNL A   1      48.316  36.156  30.666  1.00  0.00    -0.200 F 
ATOM     96  F   UNL A   1      47.977  37.887  28.587  1.00  0.00    -0.200 F 
ENDBRANCH  63  86
ENDBRANCH  37  38
ENDBRANCH  30  32
ENDBRANCH  29  30
ENDBRANCH  28  29
ENDBRANCH  27  28
ENDBRANCH  26  27
ENDBRANCH  25  26
ENDBRANCH  24  25
ENDBRANCH   1  24
TORSDOF 24
ENDMDL
MODEL 3
REMARK VINA RESULT:      -8.2      5.753     12.535
REMARK SMILES CC(C)N(CC(F)(F)F)C(=O)N(CC(=O)OCCOCCOCCOC(=O)c1ccc(-c2c3nc(c(-c4c(F)c(F)c(F)c(F)c4F)c4ccc([nH]4)c(-c4c(F)c(F)c(F)c(F)c4F)c4nc(c(-c5c(F)c(F)c(F)c(F)c5F)c5ccc2[nH]5)C=C4)C=C3)cc1)C(C)(C)C
REMARK SMILES IDX 19 1 18 2 17 3 16 4 14 5 15 6 13 7 12 8 10 9 11 10 4 11 2 12
REMARK SMILES IDX 1 13 3 14 5 15 6 16 7 17 8 18 9 19 91 20 92 21 93 22 94 23
REMARK SMILES IDX 20 24 21 25 22 26 23 27 24 28 25 29 26 30 27 31 28 32 29 33
REMARK SMILES IDX 90 34 30 35 89 36 31 37 32 38 33 39 83 40 34 41 88 42 82 43
REMARK SMILES IDX 84 44 35 45 87 46 81 47 80 48 36 50 68 51 48 52 67 53 49 54
REMARK SMILES IDX 52 55 66 56 85 57 50 58 51 59 65 61 86 62 53 63 37 64 38 65
REMARK SMILES IDX 46 66 39 67 40 68 44 69 47 70 41 71 42 72 45 73 43 74 69 75
REMARK SMILES IDX 70 76 78 77 71 78 72 79 76 80 79 81 73 82 74 83 77 84 75 85
REMARK SMILES IDX 54 86 55 87 63 88 56 89 57 90 61 91 64 92 58 93 59 94 62 95
REMARK SMILES IDX 60 96
REMARK H PARENT 84 49 52 60
REMARK Flexibility Score: inf
ROOT
ATOM      1  O   UNL A   1      36.795  33.702  33.173  1.00  0.00    -0.376 OA
ENDROOT
BRANCH   1   2
ATOM      2  C   UNL A   1      37.252  34.513  34.253  1.00  0.00     0.202 C 
BRANCH   2   3
ATOM      3  C   UNL A   1      38.755  34.413  34.536  1.00  0.00     0.261 C 
BRANCH   3   4
ATOM      4  O   UNL A   1      39.344  35.678  34.936  1.00  0.00    -0.462 OA
BRANCH   4   5
ATOM      5  C   UNL A   1      39.805  35.746  36.212  1.00  0.00     0.325 C 
ATOM      6  O   UNL A   1      39.899  36.787  36.855  1.00  0.00    -0.250 OA
BRANCH   5   7
ATOM      7  C   UNL A   1      40.233  34.392  36.820  1.00  0.00     0.244 C 
BRANCH   7   8
ATOM      8  N   UNL A   1      40.099  34.144  38.268  1.00  0.00    -0.309 N 
BRANCH   8   9
ATOM      9  C   UNL A   1      38.898  34.094  38.974  1.00  0.00     0.321 C 
ATOM     10  O   UNL A   1      38.724  34.888  39.904  1.00  0.00    -0.248 OA
BRANCH   9  11
ATOM     11  N   UNL A   1      37.927  33.127  38.763  1.00  0.00    -0.313 N 
BRANCH  11  12
ATOM     12  C   UNL A   1      37.146  32.700  39.962  1.00  0.00     0.081 C 
ATOM     13  C   UNL A   1      35.660  32.477  39.647  1.00  0.00     0.031 C 
ATOM     14  C   UNL A   1      37.748  31.504  40.709  1.00  0.00     0.031 C 
ENDBRANCH  11  12
BRANCH  11  15
ATOM     15  C   UNL A   1      37.317  32.707  37.481  1.00  0.00     0.237 C 
BRANCH  15  16
ATOM     16  C   UNL A   1      37.911  31.453  36.836  1.00  0.00     0.406 C 
ATOM     17  F   UNL A   1      37.461  30.317  37.406  1.00  0.00    -0.169 F 
ATOM     18  F   UNL A   1      37.572  31.408  35.526  1.00  0.00    -0.169 F 
ATOM     19  F   UNL A   1      39.260  31.457  36.901  1.00  0.00    -0.169 F 
ENDBRANCH  15  16
ENDBRANCH  11  15
ENDBRANCH   9  11
ENDBRANCH   8   9
BRANCH   8  20
ATOM     20  C   UNL A   1      41.321  33.597  39.007  1.00  0.00     0.037 C 
ATOM     21  C   UNL A   1      41.956  32.382  38.275  1.00  0.00     0.034 C 
ATOM     22  C   UNL A   1      42.389  34.710  39.164  1.00  0.00     0.034 C 
ATOM     23  C   UNL A   1      41.016  33.132  40.446  1.00  0.00     0.034 C 
ENDBRANCH   8  20
ENDBRANCH   7   8
ENDBRANCH   5   7
ENDBRANCH   4   5
ENDBRANCH   3   4
ENDBRANCH   2   3
ENDBRANCH   1   2
BRANCH   1  24
ATOM     24  C   UNL A   1      37.788  33.157  32.311  1.00  0.00     0.188 C 
BRANCH  24  25
ATOM     25  C   UNL A   1      38.057  33.930  31.013  1.00  0.00     0.188 C 
BRANCH  25  26
ATOM     26  O   UNL A   1      37.526  33.372  29.818  1.00  0.00    -0.376 OA
BRANCH  26  27
ATOM     27  C   UNL A   1      36.394  34.028  29.252  1.00  0.00     0.202 C 
BRANCH  27  28
ATOM     28  C   UNL A   1      35.152  33.141  29.165  1.00  0.00     0.261 C 
BRANCH  28  29
ATOM     29  O   UNL A   1      35.159  32.427  27.913  1.00  0.00    -0.460 OA
BRANCH  29  30
ATOM     30  C   UNL A   1      34.791  31.134  28.005  1.00  0.00     0.338 C 
ATOM     31  O   UNL A   1      33.663  30.672  27.905  1.00  0.00    -0.246 OA
BRANCH  30  32
ATOM     32  C   UNL A   1      35.979  30.290  28.195  1.00  0.00     0.060 A 
ATOM     33  C   UNL A   1      36.154  29.623  29.408  1.00  0.00     0.016 A 
ATOM     34  C   UNL A   1      37.002  30.310  27.253  1.00  0.00     0.016 A 
ATOM     35  C   UNL A   1      37.388  29.058  29.733  1.00  0.00     0.010 A 
ATOM     36  C   UNL A   1      38.220  29.690  27.553  1.00  0.00     0.010 A 
ATOM     37  C   UNL A   1      38.444  29.108  28.817  1.00  0.00    -0.014 A 
BRANCH  37  38
ATOM     38  C   UNL A   1      39.823  28.700  29.200  1.00  0.00     0.031 A 
ATOM     39  C   UNL A   1      40.640  29.631  30.058  1.00  0.00     0.074 A 
ATOM     40  C   UNL A   1      40.355  27.525  28.816  1.00  0.00     0.049 A 
ATOM     41  N   UNL A   1      41.931  29.652  30.270  1.00  0.00    -0.248 NA
ATOM     42  C   UNL A   1      39.898  30.688  30.762  1.00  0.00     0.031 C 
ATOM     43  C   UNL A   1      39.658  26.472  28.083  1.00  0.00     0.029 A 
ATOM     44  N   UNL A   1      41.626  27.028  28.988  1.00  0.00    -0.354 N 
ATOM     45  C   UNL A   1      42.163  30.766  31.067  1.00  0.00     0.074 A 
ATOM     46  C   UNL A   1      40.878  31.381  31.323  1.00  0.00     0.031 C 
ATOM     47  C   UNL A   1      40.504  25.450  27.874  1.00  0.00     0.029 A 
ATOM     48  C   UNL A   1      41.826  25.814  28.377  1.00  0.00     0.049 A 
ATOM     49  H   UNL A   1      42.324  27.497  29.500  1.00  0.00     0.167 HD
ATOM     50  C   UNL A   1      43.345  31.238  31.528  1.00  0.00     0.037 A 
ATOM     51  C   UNL A   1      42.956  25.107  28.192  1.00  0.00     0.037 A 
ATOM     52  C   UNL A   1      44.612  30.588  31.323  1.00  0.00     0.049 A 
ATOM     53  C   UNL A   1      44.268  25.668  28.674  1.00  0.00     0.074 A 
ATOM     54  C   UNL A   1      45.871  30.996  31.725  1.00  0.00     0.029 A 
ATOM     55  N   UNL A   1      44.770  29.370  30.679  1.00  0.00    -0.354 N 
ATOM     56  N   UNL A   1      44.504  26.783  29.320  1.00  0.00    -0.248 NA
ATOM     57  C   UNL A   1      45.476  24.884  28.373  1.00  0.00     0.031 C 
ATOM     58  C   UNL A   1      46.797  30.032  31.305  1.00  0.00     0.029 A 
ATOM     59  C   UNL A   1      46.108  29.010  30.673  1.00  0.00     0.049 A 
ATOM     60  H   UNL A   1      44.040  28.839  30.285  1.00  0.00     0.167 HD
ATOM     61  C   UNL A   1      45.880  26.832  29.508  1.00  0.00     0.074 A 
ATOM     62  C   UNL A   1      46.425  25.623  28.927  1.00  0.00     0.031 C 
ATOM     63  C   UNL A   1      46.626  27.796  30.100  1.00  0.00     0.037 A 
BRANCH  50  64
ATOM     64  C   UNL A   1      43.332  32.551  32.252  1.00  0.00     0.064 A 
ATOM     65  C   UNL A   1      43.299  33.776  31.572  1.00  0.00     0.173 A 
ATOM     66  C   UNL A   1      43.326  32.576  33.655  1.00  0.00     0.173 A 
ATOM     67  F   UNL A   1      43.323  33.804  30.231  1.00  0.00    -0.203 F 
ATOM     68  C   UNL A   1      43.281  34.981  32.271  1.00  0.00     0.198 A 
ATOM     69  C   UNL A   1      43.283  33.781  34.351  1.00  0.00     0.198 A 
ATOM     70  F   UNL A   1      43.355  31.431  34.352  1.00  0.00    -0.203 F 
ATOM     71  F   UNL A   1      43.290  36.142  31.602  1.00  0.00    -0.200 F 
ATOM     72  C   UNL A   1      43.266  34.982  33.658  1.00  0.00     0.200 A 
ATOM     73  F   UNL A   1      43.261  33.780  35.692  1.00  0.00    -0.200 F 
ATOM     74  F   UNL A   1      43.244  36.142  34.330  1.00  0.00    -0.200 F 
ENDBRANCH  50  64
BRANCH  51  75
ATOM     75  C   UNL A   1      42.913  23.815  27.455  1.00  0.00     0.064 A 
ATOM     76  C   UNL A   1      43.223  23.754  26.089  1.00  0.00     0.173 A 
ATOM     77  C   UNL A   1      42.549  22.622  28.097  1.00  0.00     0.173 A 
ATOM     78  F   UNL A   1      43.545  24.874  25.426  1.00  0.00    -0.203 F 
ATOM     79  C   UNL A   1      43.161  22.549  25.392  1.00  0.00     0.198 A 
ATOM     80  C   UNL A   1      42.515  21.413  27.404  1.00  0.00     0.198 A 
ATOM     81  F   UNL A   1      42.235  22.629  29.400  1.00  0.00    -0.203 F 
ATOM     82  F   UNL A   1      43.421  22.524  24.077  1.00  0.00    -0.200 F 
ATOM     83  C   UNL A   1      42.815  21.379  26.051  1.00  0.00     0.200 A 
ATOM     84  F   UNL A   1      42.191  20.284  28.048  1.00  0.00    -0.200 F 
ATOM     85  F   UNL A   1      42.762  20.220  25.381  1.00  0.00    -0.200 F 
ENDBRANCH  51  75
BRANCH  63  86
ATOM     86  C   UNL A   1      48.104  27.567  30.178  1.00  0.00     0.064 A 
ATOM     87  C   UNL A   1      48.683  26.883  31.256  1.00  0.00     0.173 A 
ATOM     88  C   UNL A   1      48.945  28.000  29.142  1.00  0.00     0.173 A 
ATOM     89  F   UNL A   1      47.919  26.464  32.276  1.00  0.00    -0.203 F 
ATOM     90  C   UNL A   1      50.055  26.655  31.304  1.00  0.00     0.198 A 
ATOM     91  C   UNL A   1      50.314  27.751  29.182  1.00  0.00     0.198 A 
ATOM     92  F   UNL A   1      48.437  28.655  28.088  1.00  0.00    -0.203 F 
ATOM     93  F   UNL A   1      50.593  26.030  32.360  1.00  0.00    -0.200 F 
ATOM     94  C   UNL A   1      50.868  27.083  30.264  1.00  0.00     0.200 A 
ATOM     95  F   UNL A   1      51.098  28.161  28.175  1.00  0.00    -0.200 F 
ATOM     96  F   UNL A   1      52.189  26.860  30.310  1.00  0.00    -0.200 F 
ENDBRANCH  63  86
ENDBRANCH  37  38
ENDBRANCH  30  32
ENDBRANCH  29  30
ENDBRANCH  28  29
ENDBRANCH  27  28
ENDBRANCH  26  27
ENDBRANCH  25  26
ENDBRANCH  24  25
ENDBRANCH   1  24
TORSDOF 24
ENDMDL
