MODEL 1
REMARK VINA RESULT:     -12.0      0.000      0.000
REMARK SMILES O=C(OCCOCCOCCOC(=O)[C@@H]1Cc2[nH]cnc2CN1C(=O)c1csc(-c2cccs2)n1)c1ccc(-c2c3nc(c(-c4c(F)c(F)c(F)c(F)c4F)c4ccc([nH]4)c(-c4c(F)c(F)c(F)c(F)c4F)c4nc(c(-c5c(F)c(F)c(F)c(F)c5F)c5ccc2[nH]5)C=C4)C=C3)cc1
REMARK SMILES IDX 8 1 7 2 6 3 5 4 4 5 3 6 2 7 1 8 36 9 37 10 98 11 38 12 97 13
REMARK SMILES IDX 39 14 40 15 41 16 91 17 42 18 96 19 90 20 92 21 43 22 95 23
REMARK SMILES IDX 89 24 88 25 44 27 76 28 56 29 75 30 57 31 60 32 74 33 93 34
REMARK SMILES IDX 58 35 59 36 73 38 94 39 61 40 45 41 46 42 54 43 47 44 48 45
REMARK SMILES IDX 52 46 55 47 49 48 50 49 53 50 51 51 77 52 78 53 86 54 79 55
REMARK SMILES IDX 80 56 84 57 87 58 81 59 82 60 85 61 83 62 62 63 63 64 71 65
REMARK SMILES IDX 64 66 65 67 69 68 72 69 66 70 67 71 70 72 68 73 9 74 10 75
REMARK SMILES IDX 11 76 12 77 13 78 14 79 15 80 16 81 23 82 17 83 22 84 18 85
REMARK SMILES IDX 21 86 19 87 20 89 24 90 25 91 26 92 27 93 35 94 28 95 29 96
REMARK SMILES IDX 30 97 31 98 34 99 32 100 33 101
REMARK H PARENT 92 26 60 37 18 88
REMARK Flexibility Score: inf
ROOT
ATOM      1  C   UNL A   1      40.455  21.138  26.403  1.00  0.00     0.188 C 
ENDROOT
BRANCH   1   2
ATOM      2  C   UNL A   1      41.546  21.195  27.492  1.00  0.00     0.188 C 
BRANCH   2   3
ATOM      3  O   UNL A   1      42.453  20.108  27.404  1.00  0.00    -0.376 OA
BRANCH   3   4
ATOM      4  C   UNL A   1      42.155  19.021  26.550  1.00  0.00     0.202 C 
BRANCH   4   5
ATOM      5  C   UNL A   1      43.218  18.522  25.562  1.00  0.00     0.261 C 
BRANCH   5   6
ATOM      6  O   UNL A   1      43.755  19.483  24.640  1.00  0.00    -0.460 OA
BRANCH   6   7
ATOM      7  C   UNL A   1      44.807  20.318  24.623  1.00  0.00     0.338 C 
ATOM      8  O   UNL A   1      45.893  19.868  24.260  1.00  0.00    -0.246 OA
BRANCH   7   9
ATOM      9  C   UNL A   1      44.777  21.724  25.104  1.00  0.00     0.060 A 
ATOM     10  C   UNL A   1      45.655  22.294  26.023  1.00  0.00     0.016 A 
ATOM     11  C   UNL A   1      43.723  22.515  24.597  1.00  0.00     0.016 A 
ATOM     12  C   UNL A   1      45.405  23.569  26.524  1.00  0.00     0.010 A 
ATOM     13  C   UNL A   1      43.480  23.793  25.085  1.00  0.00     0.010 A 
ATOM     14  C   UNL A   1      44.282  24.290  26.103  1.00  0.00    -0.014 A 
BRANCH  14  15
ATOM     15  C   UNL A   1      43.985  25.543  26.790  1.00  0.00     0.031 A 
ATOM     16  C   UNL A   1      44.956  26.656  26.623  1.00  0.00     0.074 A 
ATOM     17  C   UNL A   1      42.861  25.752  27.501  1.00  0.00     0.049 A 
ATOM     18  N   UNL A   1      45.695  27.229  27.520  1.00  0.00    -0.248 NA
ATOM     19  C   UNL A   1      45.154  27.166  25.265  1.00  0.00     0.031 C 
ATOM     20  C   UNL A   1      41.655  24.926  27.577  1.00  0.00     0.029 A 
ATOM     21  N   UNL A   1      42.550  26.835  28.270  1.00  0.00    -0.354 N 
ATOM     22  C   UNL A   1      46.351  28.269  26.864  1.00  0.00     0.074 A 
ATOM     23  C   UNL A   1      46.075  28.108  25.463  1.00  0.00     0.031 C 
ATOM     24  C   UNL A   1      40.676  25.628  28.192  1.00  0.00     0.029 A 
ATOM     25  C   UNL A   1      41.224  26.887  28.667  1.00  0.00     0.049 A 
ATOM     26  H   UNL A   1      43.210  27.520  28.522  1.00  0.00     0.167 HD
ATOM     27  C   UNL A   1      46.933  29.309  27.523  1.00  0.00     0.037 A 
ATOM     28  C   UNL A   1      40.612  27.916  29.298  1.00  0.00     0.037 A 
ATOM     29  C   UNL A   1      47.196  28.995  28.897  1.00  0.00     0.049 A 
ATOM     30  C   UNL A   1      41.659  28.757  29.930  1.00  0.00     0.074 A 
ATOM     31  C   UNL A   1      47.933  28.018  29.538  1.00  0.00     0.029 A 
ATOM     32  N   UNL A   1      46.403  29.549  29.870  1.00  0.00    -0.354 N 
ATOM     33  N   UNL A   1      42.356  28.404  30.973  1.00  0.00    -0.248 NA
ATOM     34  C   UNL A   1      42.203  29.867  29.162  1.00  0.00     0.031 C 
ATOM     35  C   UNL A   1      47.171  27.690  30.698  1.00  0.00     0.029 A 
ATOM     36  C   UNL A   1      46.048  28.518  30.700  1.00  0.00     0.049 A 
ATOM     37  H   UNL A   1      46.142  30.494  29.954  1.00  0.00     0.167 HD
ATOM     38  C   UNL A   1      43.612  28.951  30.759  1.00  0.00     0.074 A 
ATOM     39  C   UNL A   1      43.426  29.930  29.694  1.00  0.00     0.031 C 
ATOM     40  C   UNL A   1      44.734  28.369  31.273  1.00  0.00     0.037 A 
BRANCH  27  41
ATOM     41  C   UNL A   1      46.995  30.719  26.991  1.00  0.00     0.064 A 
ATOM     42  C   UNL A   1      48.210  31.430  27.036  1.00  0.00     0.173 A 
ATOM     43  C   UNL A   1      45.845  31.489  26.717  1.00  0.00     0.173 A 
ATOM     44  F   UNL A   1      49.359  30.800  27.325  1.00  0.00    -0.203 F 
ATOM     45  C   UNL A   1      48.259  32.818  26.878  1.00  0.00     0.198 A 
ATOM     46  C   UNL A   1      45.904  32.867  26.504  1.00  0.00     0.198 A 
ATOM     47  F   UNL A   1      44.615  30.961  26.758  1.00  0.00    -0.203 F 
ATOM     48  F   UNL A   1      49.419  33.467  27.050  1.00  0.00    -0.200 F 
ATOM     49  C   UNL A   1      47.106  33.535  26.615  1.00  0.00     0.200 A 
ATOM     50  F   UNL A   1      44.773  33.548  26.276  1.00  0.00    -0.200 F 
ATOM     51  F   UNL A   1      47.142  34.870  26.526  1.00  0.00    -0.200 F 
ENDBRANCH  27  41
BRANCH  28  52
ATOM     52  C   UNL A   1      39.199  28.340  29.217  1.00  0.00     0.064 A 
ATOM     53  C   UNL A   1      38.408  28.457  30.370  1.00  0.00     0.173 A 
ATOM     54  C   UNL A   1      38.670  28.891  28.033  1.00  0.00     0.173 A 
ATOM     55  F   UNL A   1      38.858  27.997  31.547  1.00  0.00    -0.203 F 
ATOM     56  C   UNL A   1      37.172  29.109  30.346  1.00  0.00     0.198 A 
ATOM     57  C   UNL A   1      37.431  29.529  28.008  1.00  0.00     0.198 A 
ATOM     58  F   UNL A   1      39.386  28.902  26.899  1.00  0.00    -0.203 F 
ATOM     59  F   UNL A   1      36.474  29.258  31.480  1.00  0.00    -0.200 F 
ATOM     60  C   UNL A   1      36.689  29.652  29.167  1.00  0.00     0.200 A 
ATOM     61  F   UNL A   1      36.991  30.079  26.867  1.00  0.00    -0.200 F 
ATOM     62  F   UNL A   1      35.531  30.326  29.156  1.00  0.00    -0.200 F 
ENDBRANCH  28  52
BRANCH  40  63
ATOM     63  C   UNL A   1      44.567  27.294  32.308  1.00  0.00     0.064 A 
ATOM     64  C   UNL A   1      44.367  25.938  32.000  1.00  0.00     0.173 A 
ATOM     65  C   UNL A   1      44.774  27.628  33.654  1.00  0.00     0.173 A 
ATOM     66  F   UNL A   1      44.283  25.521  30.730  1.00  0.00    -0.203 F 
ATOM     67  C   UNL A   1      44.320  24.971  33.003  1.00  0.00     0.198 A 
ATOM     68  C   UNL A   1      44.768  26.655  34.648  1.00  0.00     0.198 A 
ATOM     69  F   UNL A   1      45.034  28.899  34.001  1.00  0.00    -0.203 F 
ATOM     70  F   UNL A   1      44.113  23.684  32.686  1.00  0.00    -0.200 F 
ATOM     71  C   UNL A   1      44.528  25.330  34.324  1.00  0.00     0.200 A 
ATOM     72  F   UNL A   1      45.028  26.997  35.918  1.00  0.00    -0.200 F 
ATOM     73  F   UNL A   1      44.529  24.393  35.283  1.00  0.00    -0.200 F 
ENDBRANCH  40  63
ENDBRANCH  14  15
ENDBRANCH   7   9
ENDBRANCH   6   7
ENDBRANCH   5   6
ENDBRANCH   4   5
ENDBRANCH   3   4
ENDBRANCH   2   3
ENDBRANCH   1   2
BRANCH   1  74
ATOM     74  O   UNL A   1      39.294  21.949  26.568  1.00  0.00    -0.376 OA
BRANCH  74  75
ATOM     75  C   UNL A   1      38.196  21.714  25.698  1.00  0.00     0.202 C 
BRANCH  75  76
ATOM     76  C   UNL A   1      37.377  22.996  25.486  1.00  0.00     0.261 C 
BRANCH  76  77
ATOM     77  O   UNL A   1      36.039  22.779  24.990  1.00  0.00    -0.462 OA
BRANCH  77  78
ATOM     78  C   UNL A   1      35.779  23.302  23.754  1.00  0.00     0.329 C 
ATOM     79  O   UNL A   1      36.335  22.954  22.717  1.00  0.00    -0.250 OA
BRANCH  78  80
ATOM     80  C   UNL A   1      34.614  24.334  23.770  1.00  0.00     0.201 C 
ATOM     81  C   UNL A   1      33.763  24.032  25.034  1.00  0.00     0.093 C 
ATOM     82  N   UNL A   1      33.706  24.317  22.570  1.00  0.00    -0.317 N 
ATOM     83  C   UNL A   1      33.104  22.729  24.758  1.00  0.00     0.042 A 
ATOM     84  C   UNL A   1      33.126  22.993  22.221  1.00  0.00     0.179 C 
ATOM     85  N   UNL A   1      32.902  21.690  25.613  1.00  0.00    -0.348 N 
ATOM     86  C   UNL A   1      32.831  22.247  23.493  1.00  0.00     0.081 A 
ATOM     87  C   UNL A   1      32.516  20.624  24.842  1.00  0.00     0.197 A 
ATOM     88  H   UNL A   1      33.011  21.701  26.591  1.00  0.00     0.167 HD
ATOM     89  N   UNL A   1      32.457  20.933  23.562  1.00  0.00    -0.240 NA
BRANCH  82  90
ATOM     90  C   UNL A   1      33.096  25.436  21.993  1.00  0.00     0.274 C 
ATOM     91  O   UNL A   1      33.272  25.736  20.816  1.00  0.00    -0.267 OA
BRANCH  90  92
ATOM     92  C   UNL A   1      32.223  26.277  22.824  1.00  0.00     0.140 A 
ATOM     93  C   UNL A   1      30.925  25.940  23.158  1.00  0.00     0.101 A 
ATOM     94  N   UNL A   1      32.705  27.418  23.483  1.00  0.00    -0.230 NA
ATOM     95  S   UNL A   1      30.265  27.099  24.223  1.00  0.00    -0.121 S 
ATOM     96  C   UNL A   1      31.800  27.871  24.327  1.00  0.00     0.134 A 
BRANCH  96  97
ATOM     97  C   UNL A   1      32.045  28.925  25.278  1.00  0.00     0.063 A 
ATOM     98  C   UNL A   1      31.407  30.147  25.389  1.00  0.00     0.023 A 
ATOM     99  S   UNL A   1      33.278  28.775  26.464  1.00  0.00    -0.141 S 
ATOM    100  C   UNL A   1      31.872  30.908  26.509  1.00  0.00     0.012 A 
ATOM    101  C   UNL A   1      32.882  30.267  27.189  1.00  0.00     0.065 A 
ENDBRANCH  96  97
ENDBRANCH  90  92
ENDBRANCH  82  90
ENDBRANCH  78  80
ENDBRANCH  77  78
ENDBRANCH  76  77
ENDBRANCH  75  76
ENDBRANCH  74  75
ENDBRANCH   1  74
TORSDOF 20
ENDMDL
MODEL 2
REMARK VINA RESULT:     -11.5      1.353      2.104
REMARK SMILES O=C(OCCOCCOCCOC(=O)[C@@H]1Cc2[nH]cnc2CN1C(=O)c1csc(-c2cccs2)n1)c1ccc(-c2c3nc(c(-c4c(F)c(F)c(F)c(F)c4F)c4ccc([nH]4)c(-c4c(F)c(F)c(F)c(F)c4F)c4nc(c(-c5c(F)c(F)c(F)c(F)c5F)c5ccc2[nH]5)C=C4)C=C3)cc1
REMARK SMILES IDX 8 1 7 2 6 3 5 4 4 5 3 6 2 7 1 8 36 9 37 10 98 11 38 12 97 13
REMARK SMILES IDX 39 14 40 15 41 16 91 17 42 18 96 19 90 20 92 21 43 22 95 23
REMARK SMILES IDX 89 24 88 25 44 27 76 28 56 29 75 30 57 31 60 32 74 33 93 34
REMARK SMILES IDX 58 35 59 36 73 38 94 39 61 40 45 41 46 42 54 43 47 44 48 45
REMARK SMILES IDX 52 46 55 47 49 48 50 49 53 50 51 51 77 52 78 53 86 54 79 55
REMARK SMILES IDX 80 56 84 57 87 58 81 59 82 60 85 61 83 62 62 63 63 64 71 65
REMARK SMILES IDX 64 66 65 67 69 68 72 69 66 70 67 71 70 72 68 73 9 74 10 75
REMARK SMILES IDX 11 76 12 77 13 78 14 79 15 80 16 81 23 82 17 83 22 84 18 85
REMARK SMILES IDX 21 86 19 87 20 89 24 90 25 91 26 92 27 93 35 94 28 95 29 96
REMARK SMILES IDX 30 97 31 98 34 99 32 100 33 101
REMARK H PARENT 92 26 60 37 18 88
REMARK Flexibility Score: inf
ROOT
ATOM      1  C   UNL A   1      39.930  20.515  26.138  1.00  0.00     0.188 C 
ENDROOT
BRANCH   1   2
ATOM      2  C   UNL A   1      41.379  20.232  26.585  1.00  0.00     0.188 C 
BRANCH   2   3
ATOM      3  O   UNL A   1      42.230  19.922  25.494  1.00  0.00    -0.376 OA
BRANCH   3   4
ATOM      4  C   UNL A   1      43.114  18.822  25.594  1.00  0.00     0.202 C 
BRANCH   4   5
ATOM      5  C   UNL A   1      44.364  18.774  24.704  1.00  0.00     0.261 C 
BRANCH   5   6
ATOM      6  O   UNL A   1      44.803  20.013  24.127  1.00  0.00    -0.460 OA
BRANCH   6   7
ATOM      7  C   UNL A   1      45.461  21.099  24.563  1.00  0.00     0.338 C 
ATOM      8  O   UNL A   1      46.686  21.117  24.442  1.00  0.00    -0.246 OA
BRANCH   7   9
ATOM      9  C   UNL A   1      44.829  22.243  25.270  1.00  0.00     0.060 A 
ATOM     10  C   UNL A   1      43.787  23.031  24.785  1.00  0.00     0.016 A 
ATOM     11  C   UNL A   1      45.388  22.564  26.526  1.00  0.00     0.016 A 
ATOM     12  C   UNL A   1      43.410  24.184  25.469  1.00  0.00     0.010 A 
ATOM     13  C   UNL A   1      45.005  23.706  27.218  1.00  0.00     0.010 A 
ATOM     14  C   UNL A   1      44.064  24.554  26.650  1.00  0.00    -0.014 A 
BRANCH  14  15
ATOM     15  C   UNL A   1      43.740  25.856  27.224  1.00  0.00     0.031 A 
ATOM     16  C   UNL A   1      44.680  26.974  26.947  1.00  0.00     0.074 A 
ATOM     17  C   UNL A   1      42.618  26.100  27.927  1.00  0.00     0.049 A 
ATOM     18  N   UNL A   1      45.413  27.644  27.780  1.00  0.00    -0.248 NA
ATOM     19  C   UNL A   1      44.853  27.364  25.547  1.00  0.00     0.031 C 
ATOM     20  C   UNL A   1      41.435  25.254  28.090  1.00  0.00     0.029 A 
ATOM     21  N   UNL A   1      42.286  27.239  28.599  1.00  0.00    -0.354 N 
ATOM     22  C   UNL A   1      46.035  28.636  27.026  1.00  0.00     0.074 A 
ATOM     23  C   UNL A   1      45.751  28.343  25.648  1.00  0.00     0.031 C 
ATOM     24  C   UNL A   1      40.444  25.983  28.651  1.00  0.00     0.029 A 
ATOM     25  C   UNL A   1      40.963  27.294  29.004  1.00  0.00     0.049 A 
ATOM     26  H   UNL A   1      42.930  27.961  28.780  1.00  0.00     0.167 HD
ATOM     27  C   UNL A   1      46.596  29.746  27.582  1.00  0.00     0.037 A 
ATOM     28  C   UNL A   1      40.330  28.360  29.547  1.00  0.00     0.037 A 
ATOM     29  C   UNL A   1      46.880  29.563  28.976  1.00  0.00     0.049 A 
ATOM     30  C   UNL A   1      41.360  29.280  30.089  1.00  0.00     0.074 A 
ATOM     31  C   UNL A   1      47.647  28.666  29.694  1.00  0.00     0.029 A 
ATOM     32  N   UNL A   1      46.082  30.183  29.904  1.00  0.00    -0.354 N 
ATOM     33  N   UNL A   1      42.076  29.040  31.152  1.00  0.00    -0.248 NA
ATOM     34  C   UNL A   1      41.869  30.330  29.219  1.00  0.00     0.031 C 
ATOM     35  C   UNL A   1      46.905  28.425  30.887  1.00  0.00     0.029 A 
ATOM     36  C   UNL A   1      45.761  29.222  30.828  1.00  0.00     0.049 A 
ATOM     37  H   UNL A   1      45.797  31.125  29.906  1.00  0.00     0.167 HD
ATOM     38  C   UNL A   1      43.315  29.597  30.875  1.00  0.00     0.074 A 
ATOM     39  C   UNL A   1      43.094  30.471  29.729  1.00  0.00     0.031 C 
ATOM     40  C   UNL A   1      44.456  29.092  31.427  1.00  0.00     0.037 A 
BRANCH  27  41
ATOM     41  C   UNL A   1      46.617  31.103  26.926  1.00  0.00     0.064 A 
ATOM     42  C   UNL A   1      47.813  31.846  26.893  1.00  0.00     0.173 A 
ATOM     43  C   UNL A   1      45.444  31.816  26.596  1.00  0.00     0.173 A 
ATOM     44  F   UNL A   1      48.981  31.274  27.225  1.00  0.00    -0.203 F 
ATOM     45  C   UNL A   1      47.824  33.215  26.611  1.00  0.00     0.198 A 
ATOM     46  C   UNL A   1      45.466  33.170  26.260  1.00  0.00     0.198 A 
ATOM     47  F   UNL A   1      44.229  31.263  26.697  1.00  0.00    -0.203 F 
ATOM     48  F   UNL A   1      48.968  33.906  26.712  1.00  0.00    -0.200 F 
ATOM     49  C   UNL A   1      46.650  33.875  26.297  1.00  0.00     0.200 A 
ATOM     50  F   UNL A   1      44.315  33.799  25.983  1.00  0.00    -0.200 F 
ATOM     51  F   UNL A   1      46.650  35.198  26.088  1.00  0.00    -0.200 F 
ENDBRANCH  27  41
BRANCH  28  52
ATOM     52  C   UNL A   1      38.906  28.739  29.445  1.00  0.00     0.064 A 
ATOM     53  C   UNL A   1      38.118  28.921  30.592  1.00  0.00     0.173 A 
ATOM     54  C   UNL A   1      38.356  29.186  28.227  1.00  0.00     0.173 A 
ATOM     55  F   UNL A   1      38.586  28.563  31.796  1.00  0.00    -0.203 F 
ATOM     56  C   UNL A   1      36.864  29.537  30.528  1.00  0.00     0.198 A 
ATOM     57  C   UNL A   1      37.100  29.788  28.162  1.00  0.00     0.198 A 
ATOM     58  F   UNL A   1      39.066  29.131  27.090  1.00  0.00    -0.203 F 
ATOM     59  F   UNL A   1      36.168  29.752  31.652  1.00  0.00    -0.200 F 
ATOM     60  C   UNL A   1      36.361  29.977  29.315  1.00  0.00     0.200 A 
ATOM     61  F   UNL A   1      36.640  30.239  26.987  1.00  0.00    -0.200 F 
ATOM     62  F   UNL A   1      35.186  30.618  29.261  1.00  0.00    -0.200 F 
ENDBRANCH  28  52
BRANCH  40  63
ATOM     63  C   UNL A   1      44.328  28.111  32.556  1.00  0.00     0.064 A 
ATOM     64  C   UNL A   1      44.120  28.483  33.895  1.00  0.00     0.173 A 
ATOM     65  C   UNL A   1      44.257  26.745  32.245  1.00  0.00     0.173 A 
ATOM     66  F   UNL A   1      44.052  29.772  34.253  1.00  0.00    -0.203 F 
ATOM     67  C   UNL A   1      43.908  27.524  34.884  1.00  0.00     0.198 A 
ATOM     68  C   UNL A   1      44.003  25.794  33.228  1.00  0.00     0.198 A 
ATOM     69  F   UNL A   1      44.383  26.336  30.972  1.00  0.00    -0.203 F 
ATOM     70  F   UNL A   1      43.727  27.902  36.158  1.00  0.00    -0.200 F 
ATOM     71  C   UNL A   1      43.843  26.182  34.548  1.00  0.00     0.200 A 
ATOM     72  F   UNL A   1      43.882  24.502  32.891  1.00  0.00    -0.200 F 
ATOM     73  F   UNL A   1      43.592  25.264  35.493  1.00  0.00    -0.200 F 
ENDBRANCH  40  63
ENDBRANCH  14  15
ENDBRANCH   7   9
ENDBRANCH   6   7
ENDBRANCH   5   6
ENDBRANCH   4   5
ENDBRANCH   3   4
ENDBRANCH   2   3
ENDBRANCH   1   2
BRANCH   1  74
ATOM     74  O   UNL A   1      39.224  19.488  25.445  1.00  0.00    -0.376 OA
BRANCH  74  75
ATOM     75  C   UNL A   1      37.939  19.802  24.929  1.00  0.00     0.202 C 
BRANCH  75  76
ATOM     76  C   UNL A   1      37.476  21.184  25.411  1.00  0.00     0.261 C 
BRANCH  76  77
ATOM     77  O   UNL A   1      36.076  21.262  25.756  1.00  0.00    -0.462 OA
BRANCH  77  78
ATOM     78  C   UNL A   1      35.408  22.347  25.261  1.00  0.00     0.329 C 
ATOM     79  O   UNL A   1      35.554  22.801  24.129  1.00  0.00    -0.250 OA
BRANCH  78  80
ATOM     80  C   UNL A   1      34.349  22.908  26.253  1.00  0.00     0.201 C 
ATOM     81  C   UNL A   1      33.966  21.742  27.207  1.00  0.00     0.093 C 
ATOM     82  N   UNL A   1      33.089  23.448  25.634  1.00  0.00    -0.317 N 
ATOM     83  C   UNL A   1      33.214  20.779  26.362  1.00  0.00     0.042 A 
ATOM     84  C   UNL A   1      32.385  22.528  24.701  1.00  0.00     0.179 C 
ATOM     85  N   UNL A   1      33.282  19.420  26.371  1.00  0.00    -0.348 N 
ATOM     86  C   UNL A   1      32.515  21.123  25.222  1.00  0.00     0.081 A 
ATOM     87  C   UNL A   1      32.626  18.993  25.246  1.00  0.00     0.197 A 
ATOM     88  H   UNL A   1      33.715  18.855  27.051  1.00  0.00     0.167 HD
ATOM     89  N   UNL A   1      32.147  19.996  24.538  1.00  0.00    -0.240 NA
BRANCH  82  90
ATOM     90  C   UNL A   1      32.354  24.542  26.101  1.00  0.00     0.274 C 
ATOM     91  O   UNL A   1      31.609  24.457  27.073  1.00  0.00    -0.267 OA
BRANCH  90  92
ATOM     92  C   UNL A   1      32.474  25.829  25.402  1.00  0.00     0.140 A 
ATOM     93  C   UNL A   1      33.562  26.182  24.627  1.00  0.00     0.101 A 
ATOM     94  N   UNL A   1      31.406  26.737  25.334  1.00  0.00    -0.230 NA
ATOM     95  S   UNL A   1      33.298  27.697  23.885  1.00  0.00    -0.121 S 
ATOM     96  C   UNL A   1      31.683  27.702  24.480  1.00  0.00     0.134 A 
BRANCH  96  97
ATOM     97  C   UNL A   1      30.732  28.697  24.055  1.00  0.00     0.063 A 
ATOM     98  C   UNL A   1      30.614  30.008  24.477  1.00  0.00     0.023 A 
ATOM     99  S   UNL A   1      29.523  28.323  22.896  1.00  0.00    -0.141 S 
ATOM    100  C   UNL A   1      29.593  30.721  23.772  1.00  0.00     0.012 A 
ATOM    101  C   UNL A   1      28.930  29.921  22.870  1.00  0.00     0.065 A 
ENDBRANCH  96  97
ENDBRANCH  90  92
ENDBRANCH  82  90
ENDBRANCH  78  80
ENDBRANCH  77  78
ENDBRANCH  76  77
ENDBRANCH  75  76
ENDBRANCH  74  75
ENDBRANCH   1  74
TORSDOF 20
ENDMDL
MODEL 3
REMARK VINA RESULT:     -11.3      1.386      2.268
REMARK SMILES O=C(OCCOCCOCCOC(=O)[C@@H]1Cc2[nH]cnc2CN1C(=O)c1csc(-c2cccs2)n1)c1ccc(-c2c3nc(c(-c4c(F)c(F)c(F)c(F)c4F)c4ccc([nH]4)c(-c4c(F)c(F)c(F)c(F)c4F)c4nc(c(-c5c(F)c(F)c(F)c(F)c5F)c5ccc2[nH]5)C=C4)C=C3)cc1
REMARK SMILES IDX 8 1 7 2 6 3 5 4 4 5 3 6 2 7 1 8 36 9 37 10 98 11 38 12 97 13
REMARK SMILES IDX 39 14 40 15 41 16 91 17 42 18 96 19 90 20 92 21 43 22 95 23
REMARK SMILES IDX 89 24 88 25 44 27 76 28 56 29 75 30 57 31 60 32 74 33 93 34
REMARK SMILES IDX 58 35 59 36 73 38 94 39 61 40 45 41 46 42 54 43 47 44 48 45
REMARK SMILES IDX 52 46 55 47 49 48 50 49 53 50 51 51 77 52 78 53 86 54 79 55
REMARK SMILES IDX 80 56 84 57 87 58 81 59 82 60 85 61 83 62 62 63 63 64 71 65
REMARK SMILES IDX 64 66 65 67 69 68 72 69 66 70 67 71 70 72 68 73 9 74 10 75
REMARK SMILES IDX 11 76 12 77 13 78 14 79 15 80 16 81 23 82 17 83 22 84 18 85
REMARK SMILES IDX 21 86 19 87 20 89 24 90 25 91 26 92 27 93 35 94 28 95 29 96
REMARK SMILES IDX 30 97 31 98 34 99 32 100 33 101
REMARK H PARENT 92 26 60 37 18 88
REMARK Flexibility Score: inf
ROOT
ATOM      1  C   UNL A   1      39.960  22.291  26.587  1.00  0.00     0.188 C 
ENDROOT
BRANCH   1   2
ATOM      2  C   UNL A   1      41.003  21.370  27.250  1.00  0.00     0.188 C 
BRANCH   2   3
ATOM      3  O   UNL A   1      40.663  19.998  27.136  1.00  0.00    -0.376 OA
BRANCH   3   4
ATOM      4  C   UNL A   1      41.260  19.217  26.118  1.00  0.00     0.202 C 
BRANCH   4   5
ATOM      5  C   UNL A   1      42.767  18.931  26.170  1.00  0.00     0.261 C 
BRANCH   5   6
ATOM      6  O   UNL A   1      43.499  19.060  24.941  1.00  0.00    -0.460 OA
BRANCH   6   7
ATOM      7  C   UNL A   1      44.288  19.992  24.383  1.00  0.00     0.338 C 
ATOM      8  O   UNL A   1      44.973  19.661  23.415  1.00  0.00    -0.246 OA
BRANCH   7   9
ATOM      9  C   UNL A   1      44.469  21.370  24.908  1.00  0.00     0.060 A 
ATOM     10  C   UNL A   1      45.528  21.814  25.696  1.00  0.00     0.016 A 
ATOM     11  C   UNL A   1      43.432  22.277  24.599  1.00  0.00     0.016 A 
ATOM     12  C   UNL A   1      45.483  23.081  26.272  1.00  0.00     0.010 A 
ATOM     13  C   UNL A   1      43.391  23.547  25.161  1.00  0.00     0.010 A 
ATOM     14  C   UNL A   1      44.385  23.920  26.056  1.00  0.00    -0.014 A 
BRANCH  14  15
ATOM     15  C   UNL A   1      44.319  25.161  26.822  1.00  0.00     0.031 A 
ATOM     16  C   UNL A   1      45.444  26.119  26.661  1.00  0.00     0.074 A 
ATOM     17  C   UNL A   1      43.275  25.499  27.602  1.00  0.00     0.049 A 
ATOM     18  N   UNL A   1      46.304  26.516  27.546  1.00  0.00    -0.248 NA
ATOM     19  C   UNL A   1      45.660  26.672  25.323  1.00  0.00     0.031 C 
ATOM     20  C   UNL A   1      41.959  24.866  27.700  1.00  0.00     0.029 A 
ATOM     21  N   UNL A   1      43.172  26.568  28.442  1.00  0.00    -0.354 N 
ATOM     22  C   UNL A   1      47.085  27.480  26.910  1.00  0.00     0.074 A 
ATOM     23  C   UNL A   1      46.725  27.447  25.520  1.00  0.00     0.031 C 
ATOM     24  C   UNL A   1      41.131  25.672  28.401  1.00  0.00     0.029 A 
ATOM     25  C   UNL A   1      41.891  26.801  28.911  1.00  0.00     0.049 A 
ATOM     26  H   UNL A   1      43.943  27.127  28.693  1.00  0.00     0.167 HD
ATOM     27  C   UNL A   1      47.852  28.376  27.590  1.00  0.00     0.037 A 
ATOM     28  C   UNL A   1      41.477  27.873  29.626  1.00  0.00     0.037 A 
ATOM     29  C   UNL A   1      48.124  27.944  28.930  1.00  0.00     0.049 A 
ATOM     30  C   UNL A   1      42.670  28.503  30.244  1.00  0.00     0.074 A 
ATOM     31  C   UNL A   1      48.726  26.828  29.480  1.00  0.00     0.029 A 
ATOM     32  N   UNL A   1      47.473  28.555  29.972  1.00  0.00    -0.354 N 
ATOM     33  N   UNL A   1      43.349  27.985  31.228  1.00  0.00    -0.248 NA
ATOM     34  C   UNL A   1      43.347  29.559  29.507  1.00  0.00     0.031 C 
ATOM     35  C   UNL A   1      47.975  26.554  30.660  1.00  0.00     0.029 A 
ATOM     36  C   UNL A   1      46.997  27.543  30.765  1.00  0.00     0.049 A 
ATOM     37  H   UNL A   1      47.367  29.522  30.118  1.00  0.00     0.167 HD
ATOM     38  C   UNL A   1      44.664  28.343  30.976  1.00  0.00     0.074 A 
ATOM     39  C   UNL A   1      44.587  29.400  29.975  1.00  0.00     0.031 C 
ATOM     40  C   UNL A   1      45.702  27.566  31.399  1.00  0.00     0.037 A 
BRANCH  27  41
ATOM     41  C   UNL A   1      48.111  29.788  27.130  1.00  0.00     0.064 A 
ATOM     42  C   UNL A   1      49.423  30.303  27.156  1.00  0.00     0.173 A 
ATOM     43  C   UNL A   1      47.084  30.739  26.948  1.00  0.00     0.173 A 
ATOM     44  F   UNL A   1      50.471  29.490  27.359  1.00  0.00    -0.203 F 
ATOM     45  C   UNL A   1      49.679  31.674  27.068  1.00  0.00     0.198 A 
ATOM     46  C   UNL A   1      47.348  32.102  26.805  1.00  0.00     0.198 A 
ATOM     47  F   UNL A   1      45.790  30.403  27.018  1.00  0.00    -0.203 F 
ATOM     48  F   UNL A   1      50.931  32.128  27.220  1.00  0.00    -0.200 F 
ATOM     49  C   UNL A   1      48.641  32.571  26.895  1.00  0.00     0.200 A 
ATOM     50  F   UNL A   1      46.327  32.960  26.664  1.00  0.00    -0.200 F 
ATOM     51  F   UNL A   1      48.880  33.889  26.873  1.00  0.00    -0.200 F 
ENDBRANCH  27  41
BRANCH  28  52
ATOM     52  C   UNL A   1      40.145  28.514  29.643  1.00  0.00     0.064 A 
ATOM     53  C   UNL A   1      39.557  28.996  28.463  1.00  0.00     0.173 A 
ATOM     54  C   UNL A   1      39.310  28.430  30.774  1.00  0.00     0.173 A 
ATOM     55  F   UNL A   1      40.272  29.065  27.331  1.00  0.00    -0.203 F 
ATOM     56  C   UNL A   1      38.205  29.350  28.412  1.00  0.00     0.198 A 
ATOM     57  C   UNL A   1      37.966  28.797  30.725  1.00  0.00     0.198 A 
ATOM     58  F   UNL A   1      39.759  27.905  31.924  1.00  0.00    -0.203 F 
ATOM     59  F   UNL A   1      37.662  29.745  27.253  1.00  0.00    -0.200 F 
ATOM     60  C   UNL A   1      37.410  29.242  29.541  1.00  0.00     0.200 A 
ATOM     61  F   UNL A   1      37.200  28.655  31.816  1.00  0.00    -0.200 F 
ATOM     62  F   UNL A   1      36.102  29.527  29.478  1.00  0.00    -0.200 F 
ENDBRANCH  28  52
BRANCH  40  63
ATOM     63  C   UNL A   1      45.416  26.469  32.384  1.00  0.00     0.064 A 
ATOM     64  C   UNL A   1      45.426  26.649  33.778  1.00  0.00     0.173 A 
ATOM     65  C   UNL A   1      44.964  25.236  31.894  1.00  0.00     0.173 A 
ATOM     66  F   UNL A   1      45.729  27.835  34.321  1.00  0.00    -0.203 F 
ATOM     67  C   UNL A   1      45.054  25.618  34.639  1.00  0.00     0.198 A 
ATOM     68  C   UNL A   1      44.552  24.224  32.756  1.00  0.00     0.198 A 
ATOM     69  F   UNL A   1      44.871  25.029  30.570  1.00  0.00    -0.203 F 
ATOM     70  F   UNL A   1      45.085  25.808  35.967  1.00  0.00    -0.200 F 
ATOM     71  C   UNL A   1      44.611  24.410  34.127  1.00  0.00     0.200 A 
ATOM     72  F   UNL A   1      44.069  23.078  32.256  1.00  0.00    -0.200 F 
ATOM     73  F   UNL A   1      44.208  23.435  34.955  1.00  0.00    -0.200 F 
ENDBRANCH  40  63
ENDBRANCH  14  15
ENDBRANCH   7   9
ENDBRANCH   6   7
ENDBRANCH   5   6
ENDBRANCH   4   5
ENDBRANCH   3   4
ENDBRANCH   2   3
ENDBRANCH   1   2
BRANCH   1  74
ATOM     74  O   UNL A   1      38.723  21.719  26.167  1.00  0.00    -0.376 OA
BRANCH  74  75
ATOM     75  C   UNL A   1      37.737  22.592  25.637  1.00  0.00     0.202 C 
BRANCH  75  76
ATOM     76  C   UNL A   1      37.328  22.165  24.220  1.00  0.00     0.261 C 
BRANCH  76  77
ATOM     77  O   UNL A   1      35.902  22.086  24.005  1.00  0.00    -0.462 OA
BRANCH  77  78
ATOM     78  C   UNL A   1      35.210  21.343  24.919  1.00  0.00     0.329 C 
ATOM     79  O   UNL A   1      35.595  20.275  25.387  1.00  0.00    -0.250 OA
BRANCH  78  80
ATOM     80  C   UNL A   1      33.904  22.040  25.398  1.00  0.00     0.201 C 
ATOM     81  C   UNL A   1      33.314  21.158  26.533  1.00  0.00     0.093 C 
ATOM     82  N   UNL A   1      32.843  22.238  24.350  1.00  0.00    -0.317 N 
ATOM     83  C   UNL A   1      32.851  19.917  25.862  1.00  0.00     0.042 A 
ATOM     84  C   UNL A   1      32.448  21.018  23.596  1.00  0.00     0.179 C 
ATOM     85  N   UNL A   1      32.956  18.633  26.299  1.00  0.00    -0.348 N 
ATOM     86  C   UNL A   1      32.476  19.843  24.534  1.00  0.00     0.081 A 
ATOM     87  C   UNL A   1      32.644  17.833  25.231  1.00  0.00     0.197 A 
ATOM     88  H   UNL A   1      33.207  18.337  27.204  1.00  0.00     0.167 HD
ATOM     89  N   UNL A   1      32.343  18.535  24.156  1.00  0.00    -0.240 NA
BRANCH  82  90
ATOM     90  C   UNL A   1      31.974  23.331  24.265  1.00  0.00     0.274 C 
ATOM     91  O   UNL A   1      30.757  23.201  24.359  1.00  0.00    -0.267 OA
BRANCH  90  92
ATOM     92  C   UNL A   1      32.537  24.671  24.049  1.00  0.00     0.140 A 
ATOM     93  C   UNL A   1      32.746  25.223  22.800  1.00  0.00     0.101 A 
ATOM     94  N   UNL A   1      32.752  25.563  25.111  1.00  0.00    -0.230 NA
ATOM     95  S   UNL A   1      33.304  26.829  22.945  1.00  0.00    -0.121 S 
ATOM     96  C   UNL A   1      33.051  26.759  24.646  1.00  0.00     0.134 A 
BRANCH  96  97
ATOM     97  C   UNL A   1      33.164  27.936  25.469  1.00  0.00     0.063 A 
ATOM     98  C   UNL A   1      34.130  28.236  26.410  1.00  0.00     0.023 A 
ATOM     99  S   UNL A   1      31.995  29.190  25.378  1.00  0.00    -0.141 S 
ATOM    100  C   UNL A   1      33.955  29.539  26.979  1.00  0.00     0.012 A 
ATOM    101  C   UNL A   1      32.835  30.172  26.490  1.00  0.00     0.065 A 
ENDBRANCH  96  97
ENDBRANCH  90  92
ENDBRANCH  82  90
ENDBRANCH  78  80
ENDBRANCH  77  78
ENDBRANCH  76  77
ENDBRANCH  75  76
ENDBRANCH  74  75
ENDBRANCH   1  74
TORSDOF 20
ENDMDL
