MODEL 1
REMARK VINA RESULT:     -10.2      0.000      0.000
REMARK SMILES CCC(C)(C)n1c(SCC(=O)OCCOCCOCCOC(=O)c2ccc(-c3c4nc(c(-c5c(F)c(F)c(F)c(F)c5F)c5ccc([nH]5)c(-c5c(F)c(F)c(F)c(F)c5F)c5nc(c(-c6c(F)c(F)c(F)c(F)c6F)c6ccc3[nH]6)C=C5)C=C4)cc2)nc2cccnc21
REMARK SMILES IDX 16 1 15 2 14 3 13 4 12 5 10 6 11 7 9 8 8 9 7 10 6 11 93 12
REMARK SMILES IDX 87 13 88 14 92 15 89 16 91 17 90 18 3 19 4 20 5 21 2 22 1 23
REMARK SMILES IDX 17 24 18 25 19 26 20 27 21 28 22 29 23 30 24 31 25 32 86 33
REMARK SMILES IDX 26 34 85 35 27 36 28 37 29 38 79 39 30 40 84 41 78 42 80 43
REMARK SMILES IDX 31 44 83 45 77 46 76 47 32 49 64 50 44 51 63 52 45 53 48 54
REMARK SMILES IDX 62 55 81 56 46 57 47 58 61 60 82 61 49 62 33 63 34 64 42 65
REMARK SMILES IDX 35 66 36 67 40 68 43 69 37 70 38 71 41 72 39 73 65 74 66 75
REMARK SMILES IDX 74 76 67 77 68 78 72 79 75 80 69 81 70 82 73 83 71 84 50 85
REMARK SMILES IDX 51 86 59 87 52 88 53 89 57 90 60 91 54 92 55 93 58 94 56 95
REMARK H PARENT 80 48 48 59
REMARK Flexibility Score: inf
ROOT
ATOM      1  C   UNL A   1      41.798  20.080  26.283  1.00  0.00     0.188 C 
ENDROOT
BRANCH   1   2
ATOM      2  O   UNL A   1      42.248  19.139  25.340  1.00  0.00    -0.376 OA
BRANCH   2   3
ATOM      3  C   UNL A   1      43.533  18.608  25.623  1.00  0.00     0.202 C 
BRANCH   3   4
ATOM      4  C   UNL A   1      44.637  18.908  24.591  1.00  0.00     0.261 C 
BRANCH   4   5
ATOM      5  O   UNL A   1      44.544  20.218  23.960  1.00  0.00    -0.463 OA
BRANCH   5   6
ATOM      6  C   UNL A   1      45.320  21.209  24.495  1.00  0.00     0.316 C 
ATOM      7  O   UNL A   1      46.322  20.986  25.171  1.00  0.00    -0.251 OA
BRANCH   6   8
ATOM      8  C   UNL A   1      44.901  22.646  24.212  1.00  0.00     0.200 C 
BRANCH   8   9
ATOM      9  S   UNL A   1      45.693  23.935  25.098  1.00  0.00    -0.076 SA
BRANCH   9  10
ATOM     10  C   UNL A   1      45.339  24.496  26.705  1.00  0.00     0.171 A 
ATOM     11  N   UNL A   1      45.042  25.676  27.460  1.00  0.00    -0.298 N 
ATOM     12  C   UNL A   1      44.876  25.165  28.783  1.00  0.00     0.161 A 
ATOM     13  N   UNL A   1      45.167  23.409  27.437  1.00  0.00    -0.221 NA
ATOM     14  C   UNL A   1      44.809  23.787  28.666  1.00  0.00     0.109 A 
ATOM     15  N   UNL A   1      44.748  25.818  29.964  1.00  0.00    -0.237 NA
ATOM     16  C   UNL A   1      44.422  22.989  29.748  1.00  0.00     0.034 A 
ATOM     17  C   UNL A   1      44.323  25.005  30.985  1.00  0.00     0.113 A 
ATOM     18  C   UNL A   1      44.108  23.637  30.929  1.00  0.00     0.022 A 
BRANCH  11  19
ATOM     19  C   UNL A   1      45.132  27.145  27.145  1.00  0.00     0.043 C 
ATOM     20  C   UNL A   1      46.046  27.840  28.157  1.00  0.00     0.035 C 
ATOM     21  C   UNL A   1      43.721  27.783  27.401  1.00  0.00     0.035 C 
BRANCH  19  22
ATOM     22  C   UNL A   1      45.460  27.823  25.689  1.00  0.00     0.025 C 
ATOM     23  C   UNL A   1      46.669  28.566  25.130  1.00  0.00     0.006 C 
ENDBRANCH  19  22
ENDBRANCH  11  19
ENDBRANCH   9  10
ENDBRANCH   8   9
ENDBRANCH   6   8
ENDBRANCH   5   6
ENDBRANCH   4   5
ENDBRANCH   3   4
ENDBRANCH   2   3
ENDBRANCH   1   2
BRANCH   1  24
ATOM     24  C   UNL A   1      40.359  20.613  26.179  1.00  0.00     0.188 C 
BRANCH  24  25
ATOM     25  O   UNL A   1      40.012  21.820  26.823  1.00  0.00    -0.376 OA
BRANCH  25  26
ATOM     26  C   UNL A   1      40.928  22.343  27.767  1.00  0.00     0.202 C 
BRANCH  26  27
ATOM     27  C   UNL A   1      41.599  23.640  27.337  1.00  0.00     0.261 C 
BRANCH  27  28
ATOM     28  O   UNL A   1      41.154  24.740  28.137  1.00  0.00    -0.460 OA
BRANCH  28  29
ATOM     29  C   UNL A   1      40.351  25.579  27.481  1.00  0.00     0.338 C 
ATOM     30  O   UNL A   1      40.330  25.790  26.264  1.00  0.00    -0.246 OA
BRANCH  29  31
ATOM     31  C   UNL A   1      39.508  26.329  28.401  1.00  0.00     0.060 A 
ATOM     32  C   UNL A   1      38.799  27.376  27.835  1.00  0.00     0.016 A 
ATOM     33  C   UNL A   1      39.705  26.254  29.772  1.00  0.00     0.016 A 
ATOM     34  C   UNL A   1      38.603  28.527  28.531  1.00  0.00     0.010 A 
ATOM     35  C   UNL A   1      39.489  27.403  30.501  1.00  0.00     0.010 A 
ATOM     36  C   UNL A   1      39.105  28.561  29.818  1.00  0.00    -0.014 A 
BRANCH  36  37
ATOM     37  C   UNL A   1      39.221  29.879  30.404  1.00  0.00     0.031 A 
ATOM     38  C   UNL A   1      40.605  30.401  30.320  1.00  0.00     0.074 A 
ATOM     39  C   UNL A   1      38.118  30.455  30.928  1.00  0.00     0.049 A 
ATOM     40  N   UNL A   1      41.334  30.890  31.266  1.00  0.00    -0.248 NA
ATOM     41  C   UNL A   1      41.343  30.151  29.062  1.00  0.00     0.031 C 
ATOM     42  C   UNL A   1      36.755  29.901  30.907  1.00  0.00     0.029 A 
ATOM     43  N   UNL A   1      37.930  31.706  31.440  1.00  0.00    -0.354 N 
ATOM     44  C   UNL A   1      42.529  31.242  30.646  1.00  0.00     0.074 A 
ATOM     45  C   UNL A   1      42.566  30.574  29.374  1.00  0.00     0.031 C 
ATOM     46  C   UNL A   1      35.865  30.894  31.102  1.00  0.00     0.029 A 
ATOM     47  C   UNL A   1      36.593  32.114  31.379  1.00  0.00     0.049 A 
ATOM     48  H   UNL A   1      38.654  32.260  31.812  1.00  0.00     0.167 HD
ATOM     49  C   UNL A   1      43.177  32.373  31.028  1.00  0.00     0.037 A 
ATOM     50  C   UNL A   1      36.177  33.404  31.387  1.00  0.00     0.037 A 
ATOM     51  C   UNL A   1      42.856  32.738  32.378  1.00  0.00     0.049 A 
ATOM     52  C   UNL A   1      37.275  34.204  31.978  1.00  0.00     0.074 A 
ATOM     53  C   UNL A   1      43.232  32.312  33.632  1.00  0.00     0.029 A 
ATOM     54  N   UNL A   1      41.676  33.417  32.510  1.00  0.00    -0.354 N 
ATOM     55  N   UNL A   1      37.636  34.117  33.228  1.00  0.00    -0.248 NA
ATOM     56  C   UNL A   1      38.228  34.868  31.092  1.00  0.00     0.031 C 
ATOM     57  C   UNL A   1      42.173  32.671  34.514  1.00  0.00     0.029 A 
ATOM     58  C   UNL A   1      41.190  33.338  33.788  1.00  0.00     0.049 A 
ATOM     59  H   UNL A   1      41.231  33.902  31.778  1.00  0.00     0.167 HD
ATOM     60  C   UNL A   1      39.000  34.332  33.199  1.00  0.00     0.074 A 
ATOM     61  C   UNL A   1      39.276  34.955  31.913  1.00  0.00     0.031 C 
ATOM     62  C   UNL A   1      39.820  33.685  34.072  1.00  0.00     0.037 A 
BRANCH  49  63
ATOM     63  C   UNL A   1      43.635  33.384  30.007  1.00  0.00     0.064 A 
ATOM     64  C   UNL A   1      44.981  33.775  29.956  1.00  0.00     0.173 A 
ATOM     65  C   UNL A   1      42.739  34.180  29.251  1.00  0.00     0.173 A 
ATOM     66  F   UNL A   1      45.900  33.144  30.703  1.00  0.00    -0.203 F 
ATOM     67  C   UNL A   1      45.397  34.869  29.189  1.00  0.00     0.198 A 
ATOM     68  C   UNL A   1      43.163  35.221  28.434  1.00  0.00     0.198 A 
ATOM     69  F   UNL A   1      41.411  34.057  29.366  1.00  0.00    -0.203 F 
ATOM     70  F   UNL A   1      46.674  35.269  29.236  1.00  0.00    -0.200 F 
ATOM     71  C   UNL A   1      44.491  35.579  28.415  1.00  0.00     0.200 A 
ATOM     72  F   UNL A   1      42.259  35.914  27.727  1.00  0.00    -0.200 F 
ATOM     73  F   UNL A   1      44.885  36.638  27.697  1.00  0.00    -0.200 F 
ENDBRANCH  49  63
BRANCH  50  74
ATOM     74  C   UNL A   1      35.094  34.034  30.589  1.00  0.00     0.064 A 
ATOM     75  C   UNL A   1      34.121  34.821  31.232  1.00  0.00     0.173 A 
ATOM     76  C   UNL A   1      35.163  34.151  29.187  1.00  0.00     0.173 A 
ATOM     77  F   UNL A   1      33.997  34.780  32.568  1.00  0.00    -0.203 F 
ATOM     78  C   UNL A   1      33.325  35.727  30.526  1.00  0.00     0.198 A 
ATOM     79  C   UNL A   1      34.357  35.048  28.483  1.00  0.00     0.198 A 
ATOM     80  F   UNL A   1      36.079  33.481  28.477  1.00  0.00    -0.203 F 
ATOM     81  F   UNL A   1      32.478  36.527  31.190  1.00  0.00    -0.200 F 
ATOM     82  C   UNL A   1      33.458  35.854  29.155  1.00  0.00     0.200 A 
ATOM     83  F   UNL A   1      34.513  35.179  27.157  1.00  0.00    -0.200 F 
ATOM     84  F   UNL A   1      32.757  36.781  28.489  1.00  0.00    -0.200 F 
ENDBRANCH  50  74
BRANCH  62  85
ATOM     85  C   UNL A   1      39.204  33.175  35.335  1.00  0.00     0.064 A 
ATOM     86  C   UNL A   1      38.925  33.969  36.457  1.00  0.00     0.173 A 
ATOM     87  C   UNL A   1      38.817  31.830  35.372  1.00  0.00     0.173 A 
ATOM     88  F   UNL A   1      39.207  35.280  36.458  1.00  0.00    -0.203 F 
ATOM     89  C   UNL A   1      38.310  33.423  37.583  1.00  0.00     0.198 A 
ATOM     90  C   UNL A   1      38.171  31.298  36.481  1.00  0.00     0.198 A 
ATOM     91  F   UNL A   1      39.033  31.040  34.309  1.00  0.00    -0.203 F 
ATOM     92  F   UNL A   1      38.063  34.193  38.654  1.00  0.00    -0.200 F 
ATOM     93  C   UNL A   1      37.927  32.091  37.590  1.00  0.00     0.200 A 
ATOM     94  F   UNL A   1      37.767  30.020  36.464  1.00  0.00    -0.200 F 
ATOM     95  F   UNL A   1      37.301  31.575  38.657  1.00  0.00    -0.200 F 
ENDBRANCH  62  85
ENDBRANCH  36  37
ENDBRANCH  29  31
ENDBRANCH  28  29
ENDBRANCH  27  28
ENDBRANCH  26  27
ENDBRANCH  25  26
ENDBRANCH  24  25
ENDBRANCH   1  24
TORSDOF 21
ENDMDL
MODEL 2
REMARK VINA RESULT:      -9.9      4.958      8.697
REMARK SMILES CCC(C)(C)n1c(SCC(=O)OCCOCCOCCOC(=O)c2ccc(-c3c4nc(c(-c5c(F)c(F)c(F)c(F)c5F)c5ccc([nH]5)c(-c5c(F)c(F)c(F)c(F)c5F)c5nc(c(-c6c(F)c(F)c(F)c(F)c6F)c6ccc3[nH]6)C=C5)C=C4)cc2)nc2cccnc21
REMARK SMILES IDX 16 1 15 2 14 3 13 4 12 5 10 6 11 7 9 8 8 9 7 10 6 11 93 12
REMARK SMILES IDX 87 13 88 14 92 15 89 16 91 17 90 18 3 19 4 20 5 21 2 22 1 23
REMARK SMILES IDX 17 24 18 25 19 26 20 27 21 28 22 29 23 30 24 31 25 32 86 33
REMARK SMILES IDX 26 34 85 35 27 36 28 37 29 38 79 39 30 40 84 41 78 42 80 43
REMARK SMILES IDX 31 44 83 45 77 46 76 47 32 49 64 50 44 51 63 52 45 53 48 54
REMARK SMILES IDX 62 55 81 56 46 57 47 58 61 60 82 61 49 62 33 63 34 64 42 65
REMARK SMILES IDX 35 66 36 67 40 68 43 69 37 70 38 71 41 72 39 73 65 74 66 75
REMARK SMILES IDX 74 76 67 77 68 78 72 79 75 80 69 81 70 82 73 83 71 84 50 85
REMARK SMILES IDX 51 86 59 87 52 88 53 89 57 90 60 91 54 92 55 93 58 94 56 95
REMARK H PARENT 80 48 48 59
REMARK Flexibility Score: inf
ROOT
ATOM      1  C   UNL A   1      38.704  23.301  26.485  1.00  0.00     0.188 C 
ENDROOT
BRANCH   1   2
ATOM      2  O   UNL A   1      38.013  23.701  25.327  1.00  0.00    -0.376 OA
BRANCH   2   3
ATOM      3  C   UNL A   1      36.873  22.910  25.034  1.00  0.00     0.202 C 
BRANCH   3   4
ATOM      4  C   UNL A   1      36.052  23.329  23.798  1.00  0.00     0.261 C 
BRANCH   4   5
ATOM      5  O   UNL A   1      34.802  22.602  23.620  1.00  0.00    -0.463 OA
BRANCH   5   6
ATOM      6  C   UNL A   1      33.722  23.336  23.218  1.00  0.00     0.316 C 
ATOM      7  O   UNL A   1      33.810  24.305  22.466  1.00  0.00    -0.251 OA
BRANCH   6   8
ATOM      8  C   UNL A   1      32.356  22.902  23.737  1.00  0.00     0.200 C 
BRANCH   8   9
ATOM      9  S   UNL A   1      31.464  24.008  24.762  1.00  0.00    -0.076 SA
BRANCH   9  10
ATOM     10  C   UNL A   1      31.238  25.718  24.541  1.00  0.00     0.171 A 
ATOM     11  N   UNL A   1      31.922  26.975  24.605  1.00  0.00    -0.298 N 
ATOM     12  C   UNL A   1      30.902  27.903  24.232  1.00  0.00     0.161 A 
ATOM     13  N   UNL A   1      30.039  25.857  24.003  1.00  0.00    -0.221 NA
ATOM     14  C   UNL A   1      29.851  27.151  23.735  1.00  0.00     0.109 A 
ATOM     15  N   UNL A   1      30.894  29.257  24.271  1.00  0.00    -0.237 NA
ATOM     16  C   UNL A   1      28.780  27.760  23.071  1.00  0.00     0.034 A 
ATOM     17  C   UNL A   1      29.852  29.810  23.569  1.00  0.00     0.113 A 
ATOM     18  C   UNL A   1      28.824  29.135  22.932  1.00  0.00     0.022 A 
BRANCH  11  19
ATOM     19  C   UNL A   1      33.253  27.391  25.171  1.00  0.00     0.043 C 
ATOM     20  C   UNL A   1      34.075  28.106  24.096  1.00  0.00     0.035 C 
ATOM     21  C   UNL A   1      34.076  26.092  25.481  1.00  0.00     0.035 C 
BRANCH  19  22
ATOM     22  C   UNL A   1      33.520  28.204  26.569  1.00  0.00     0.025 C 
ATOM     23  C   UNL A   1      32.789  29.343  27.273  1.00  0.00     0.006 C 
ENDBRANCH  19  22
ENDBRANCH  11  19
ENDBRANCH   9  10
ENDBRANCH   8   9
ENDBRANCH   6   8
ENDBRANCH   5   6
ENDBRANCH   4   5
ENDBRANCH   3   4
ENDBRANCH   2   3
ENDBRANCH   1   2
BRANCH   1  24
ATOM     24  C   UNL A   1      39.676  22.112  26.403  1.00  0.00     0.188 C 
BRANCH  24  25
ATOM     25  O   UNL A   1      40.168  21.528  27.590  1.00  0.00    -0.376 OA
BRANCH  25  26
ATOM     26  C   UNL A   1      41.252  20.625  27.472  1.00  0.00     0.202 C 
BRANCH  26  27
ATOM     27  C   UNL A   1      42.013  20.729  26.157  1.00  0.00     0.261 C 
BRANCH  27  28
ATOM     28  O   UNL A   1      43.311  21.298  26.358  1.00  0.00    -0.460 OA
BRANCH  28  29
ATOM     29  C   UNL A   1      43.945  21.581  25.219  1.00  0.00     0.338 C 
ATOM     30  O   UNL A   1      44.310  20.779  24.352  1.00  0.00    -0.246 OA
BRANCH  29  31
ATOM     31  C   UNL A   1      44.261  22.999  25.128  1.00  0.00     0.060 A 
ATOM     32  C   UNL A   1      45.354  23.412  25.873  1.00  0.00     0.016 A 
ATOM     33  C   UNL A   1      43.324  23.909  24.662  1.00  0.00     0.016 A 
ATOM     34  C   UNL A   1      45.350  24.628  26.478  1.00  0.00     0.010 A 
ATOM     35  C   UNL A   1      43.317  25.157  25.246  1.00  0.00     0.010 A 
ATOM     36  C   UNL A   1      44.235  25.417  26.269  1.00  0.00    -0.014 A 
BRANCH  36  37
ATOM     37  C   UNL A   1      44.073  26.520  27.191  1.00  0.00     0.031 A 
ATOM     38  C   UNL A   1      45.100  27.567  26.985  1.00  0.00     0.074 A 
ATOM     39  C   UNL A   1      43.061  26.476  28.083  1.00  0.00     0.049 A 
ATOM     40  N   UNL A   1      45.876  28.111  27.862  1.00  0.00    -0.248 NA
ATOM     41  C   UNL A   1      45.451  27.900  25.586  1.00  0.00     0.031 C 
ATOM     42  C   UNL A   1      42.030  25.431  28.179  1.00  0.00     0.029 A 
ATOM     43  N   UNL A   1      42.629  27.411  28.980  1.00  0.00    -0.354 N 
ATOM     44  C   UNL A   1      46.627  29.038  27.144  1.00  0.00     0.074 A 
ATOM     45  C   UNL A   1      46.491  28.714  25.751  1.00  0.00     0.031 C 
ATOM     46  C   UNL A   1      40.964  25.911  28.848  1.00  0.00     0.029 A 
ATOM     47  C   UNL A   1      41.284  27.240  29.326  1.00  0.00     0.049 A 
ATOM     48  H   UNL A   1      43.200  28.126  29.344  1.00  0.00     0.167 HD
ATOM     49  C   UNL A   1      46.938  30.232  27.709  1.00  0.00     0.037 A 
ATOM     50  C   UNL A   1      40.480  28.216  29.813  1.00  0.00     0.037 A 
ATOM     51  C   UNL A   1      46.948  30.155  29.141  1.00  0.00     0.049 A 
ATOM     52  C   UNL A   1      41.369  29.259  30.378  1.00  0.00     0.074 A 
ATOM     53  C   UNL A   1      47.815  29.679  30.099  1.00  0.00     0.029 A 
ATOM     54  N   UNL A   1      45.710  30.251  29.717  1.00  0.00    -0.354 N 
ATOM     55  N   UNL A   1      42.107  29.079  31.438  1.00  0.00    -0.248 NA
ATOM     56  C   UNL A   1      41.716  30.417  29.559  1.00  0.00     0.031 C 
ATOM     57  C   UNL A   1      47.025  29.388  31.249  1.00  0.00     0.029 A 
ATOM     58  C   UNL A   1      45.702  29.726  30.982  1.00  0.00     0.049 A 
ATOM     59  H   UNL A   1      44.924  30.648  29.277  1.00  0.00     0.167 HD
ATOM     60  C   UNL A   1      43.237  29.833  31.193  1.00  0.00     0.074 A 
ATOM     61  C   UNL A   1      42.873  30.759  30.131  1.00  0.00     0.031 C 
ATOM     62  C   UNL A   1      44.455  29.417  31.636  1.00  0.00     0.037 A 
BRANCH  49  63
ATOM     63  C   UNL A   1      46.687  31.525  26.974  1.00  0.00     0.064 A 
ATOM     64  C   UNL A   1      47.704  32.485  26.865  1.00  0.00     0.173 A 
ATOM     65  C   UNL A   1      45.392  31.963  26.600  1.00  0.00     0.173 A 
ATOM     66  F   UNL A   1      48.950  32.202  27.274  1.00  0.00    -0.203 F 
ATOM     67  C   UNL A   1      47.443  33.778  26.400  1.00  0.00     0.198 A 
ATOM     68  C   UNL A   1      45.148  33.225  26.071  1.00  0.00     0.198 A 
ATOM     69  F   UNL A   1      44.298  31.231  26.844  1.00  0.00    -0.203 F 
ATOM     70  F   UNL A   1      48.420  34.695  26.396  1.00  0.00    -0.200 F 
ATOM     71  C   UNL A   1      46.170  34.141  25.986  1.00  0.00     0.200 A 
ATOM     72  F   UNL A   1      43.900  33.560  25.716  1.00  0.00    -0.200 F 
ATOM     73  F   UNL A   1      45.916  35.385  25.560  1.00  0.00    -0.200 F 
ENDBRANCH  49  63
BRANCH  50  74
ATOM     74  C   UNL A   1      39.058  28.495  29.489  1.00  0.00     0.064 A 
ATOM     75  C   UNL A   1      38.125  28.656  30.529  1.00  0.00     0.173 A 
ATOM     76  C   UNL A   1      38.646  28.920  28.211  1.00  0.00     0.173 A 
ATOM     77  F   UNL A   1      38.440  28.290  31.780  1.00  0.00    -0.203 F 
ATOM     78  C   UNL A   1      36.890  29.278  30.318  1.00  0.00     0.198 A 
ATOM     79  C   UNL A   1      37.408  29.529  28.001  1.00  0.00     0.198 A 
ATOM     80  F   UNL A   1      39.470  28.852  27.156  1.00  0.00    -0.203 F 
ATOM     81  F   UNL A   1      36.071  29.499  31.356  1.00  0.00    -0.200 F 
ATOM     82  C   UNL A   1      36.542  29.732  29.059  1.00  0.00     0.200 A 
ATOM     83  F   UNL A   1      37.093  29.986  26.780  1.00  0.00    -0.200 F 
ATOM     84  F   UNL A   1      35.398  30.404  28.872  1.00  0.00    -0.200 F 
ENDBRANCH  50  74
BRANCH  62  85
ATOM     85  C   UNL A   1      44.472  28.458  32.782  1.00  0.00     0.064 A 
ATOM     86  C   UNL A   1      44.428  27.062  32.649  1.00  0.00     0.173 A 
ATOM     87  C   UNL A   1      44.610  28.988  34.072  1.00  0.00     0.173 A 
ATOM     88  F   UNL A   1      44.367  26.490  31.438  1.00  0.00    -0.203 F 
ATOM     89  C   UNL A   1      44.490  26.235  33.770  1.00  0.00     0.198 A 
ATOM     90  C   UNL A   1      44.708  28.161  35.183  1.00  0.00     0.198 A 
ATOM     91  F   UNL A   1      44.690  30.317  34.246  1.00  0.00    -0.203 F 
ATOM     92  F   UNL A   1      44.432  24.902  33.626  1.00  0.00    -0.200 F 
ATOM     93  C   UNL A   1      44.638  26.785  35.034  1.00  0.00     0.200 A 
ATOM     94  F   UNL A   1      44.893  28.698  36.397  1.00  0.00    -0.200 F 
ATOM     95  F   UNL A   1      44.736  25.990  36.108  1.00  0.00    -0.200 F 
ENDBRANCH  62  85
ENDBRANCH  36  37
ENDBRANCH  29  31
ENDBRANCH  28  29
ENDBRANCH  27  28
ENDBRANCH  26  27
ENDBRANCH  25  26
ENDBRANCH  24  25
ENDBRANCH   1  24
TORSDOF 21
ENDMDL
MODEL 3
REMARK VINA RESULT:      -9.8      5.015      9.252
REMARK SMILES CCC(C)(C)n1c(SCC(=O)OCCOCCOCCOC(=O)c2ccc(-c3c4nc(c(-c5c(F)c(F)c(F)c(F)c5F)c5ccc([nH]5)c(-c5c(F)c(F)c(F)c(F)c5F)c5nc(c(-c6c(F)c(F)c(F)c(F)c6F)c6ccc3[nH]6)C=C5)C=C4)cc2)nc2cccnc21
REMARK SMILES IDX 16 1 15 2 14 3 13 4 12 5 10 6 11 7 9 8 8 9 7 10 6 11 93 12
REMARK SMILES IDX 87 13 88 14 92 15 89 16 91 17 90 18 3 19 4 20 5 21 2 22 1 23
REMARK SMILES IDX 17 24 18 25 19 26 20 27 21 28 22 29 23 30 24 31 25 32 86 33
REMARK SMILES IDX 26 34 85 35 27 36 28 37 29 38 79 39 30 40 84 41 78 42 80 43
REMARK SMILES IDX 31 44 83 45 77 46 76 47 32 49 64 50 44 51 63 52 45 53 48 54
REMARK SMILES IDX 62 55 81 56 46 57 47 58 61 60 82 61 49 62 33 63 34 64 42 65
REMARK SMILES IDX 35 66 36 67 40 68 43 69 37 70 38 71 41 72 39 73 65 74 66 75
REMARK SMILES IDX 74 76 67 77 68 78 72 79 75 80 69 81 70 82 73 83 71 84 50 85
REMARK SMILES IDX 51 86 59 87 52 88 53 89 57 90 60 91 54 92 55 93 58 94 56 95
REMARK H PARENT 80 48 48 59
REMARK Flexibility Score: inf
ROOT
ATOM      1  C   UNL A   1      39.379  22.377  26.152  1.00  0.00     0.188 C 
ENDROOT
BRANCH   1   2
ATOM      2  O   UNL A   1      37.989  22.482  25.967  1.00  0.00    -0.376 OA
BRANCH   2   3
ATOM      3  C   UNL A   1      37.458  21.553  25.036  1.00  0.00     0.202 C 
BRANCH   3   4
ATOM      4  C   UNL A   1      35.977  21.170  25.223  1.00  0.00     0.261 C 
BRANCH   4   5
ATOM      5  O   UNL A   1      35.425  21.488  26.533  1.00  0.00    -0.463 OA
BRANCH   5   6
ATOM      6  C   UNL A   1      34.546  22.534  26.588  1.00  0.00     0.316 C 
ATOM      7  O   UNL A   1      34.811  23.657  26.163  1.00  0.00    -0.251 OA
BRANCH   6   8
ATOM      8  C   UNL A   1      33.179  22.259  27.201  1.00  0.00     0.200 C 
BRANCH   8   9
ATOM      9  S   UNL A   1      31.823  23.246  26.692  1.00  0.00    -0.076 SA
BRANCH   9  10
ATOM     10  C   UNL A   1      31.865  24.856  26.039  1.00  0.00     0.171 A 
ATOM     11  N   UNL A   1      31.738  25.595  24.818  1.00  0.00    -0.298 N 
ATOM     12  C   UNL A   1      31.917  26.944  25.250  1.00  0.00     0.161 A 
ATOM     13  N   UNL A   1      31.905  25.668  27.081  1.00  0.00    -0.221 NA
ATOM     14  C   UNL A   1      31.854  26.924  26.633  1.00  0.00     0.109 A 
ATOM     15  N   UNL A   1      32.070  28.081  24.530  1.00  0.00    -0.237 NA
ATOM     16  C   UNL A   1      31.765  28.111  27.368  1.00  0.00     0.034 A 
ATOM     17  C   UNL A   1      31.930  29.220  25.284  1.00  0.00     0.113 A 
ATOM     18  C   UNL A   1      31.738  29.295  26.653  1.00  0.00     0.022 A 
BRANCH  11  19
ATOM     19  C   UNL A   1      31.714  25.186  23.370  1.00  0.00     0.043 C 
ATOM     20  C   UNL A   1      31.172  26.332  22.513  1.00  0.00     0.035 C 
ATOM     21  C   UNL A   1      30.647  24.047  23.205  1.00  0.00     0.035 C 
BRANCH  19  22
ATOM     22  C   UNL A   1      32.940  24.514  22.514  1.00  0.00     0.025 C 
ATOM     23  C   UNL A   1      33.902  23.363  22.792  1.00  0.00     0.006 C 
ENDBRANCH  19  22
ENDBRANCH  11  19
ENDBRANCH   9  10
ENDBRANCH   8   9
ENDBRANCH   6   8
ENDBRANCH   5   6
ENDBRANCH   4   5
ENDBRANCH   3   4
ENDBRANCH   2   3
ENDBRANCH   1   2
BRANCH   1  24
ATOM     24  C   UNL A   1      40.010  20.982  26.297  1.00  0.00     0.188 C 
BRANCH  24  25
ATOM     25  O   UNL A   1      41.037  20.774  27.242  1.00  0.00    -0.376 OA
BRANCH  25  26
ATOM     26  C   UNL A   1      41.756  19.556  27.167  1.00  0.00     0.202 C 
BRANCH  26  27
ATOM     27  C   UNL A   1      42.477  19.335  25.844  1.00  0.00     0.261 C 
BRANCH  27  28
ATOM     28  O   UNL A   1      43.785  19.916  25.867  1.00  0.00    -0.460 OA
BRANCH  28  29
ATOM     29  C   UNL A   1      44.202  20.326  24.668  1.00  0.00     0.338 C 
ATOM     30  O   UNL A   1      44.269  19.653  23.634  1.00  0.00    -0.246 OA
BRANCH  29  31
ATOM     31  C   UNL A   1      44.678  21.700  24.717  1.00  0.00     0.060 A 
ATOM     32  C   UNL A   1      45.767  21.922  25.544  1.00  0.00     0.016 A 
ATOM     33  C   UNL A   1      43.875  22.748  24.291  1.00  0.00     0.016 A 
ATOM     34  C   UNL A   1      45.865  23.077  26.253  1.00  0.00     0.010 A 
ATOM     35  C   UNL A   1      43.975  23.936  24.981  1.00  0.00     0.010 A 
ATOM     36  C   UNL A   1      44.857  24.004  26.063  1.00  0.00    -0.014 A 
BRANCH  36  37
ATOM     37  C   UNL A   1      44.769  25.039  27.070  1.00  0.00     0.031 A 
ATOM     38  C   UNL A   1      45.981  25.890  27.094  1.00  0.00     0.074 A 
ATOM     39  C   UNL A   1      43.655  25.111  27.830  1.00  0.00     0.049 A 
ATOM     40  N   UNL A   1      46.715  26.207  28.107  1.00  0.00    -0.248 NA
ATOM     41  C   UNL A   1      46.567  26.265  25.788  1.00  0.00     0.031 C 
ATOM     42  C   UNL A   1      42.455  24.270  27.695  1.00  0.00     0.029 A 
ATOM     43  N   UNL A   1      43.277  26.033  28.763  1.00  0.00    -0.354 N 
ATOM     44  C   UNL A   1      47.704  27.035  27.582  1.00  0.00     0.074 A 
ATOM     45  C   UNL A   1      47.701  26.856  26.156  1.00  0.00     0.031 C 
ATOM     46  C   UNL A   1      41.409  24.884  28.283  1.00  0.00     0.029 A 
ATOM     47  C   UNL A   1      41.889  26.087  28.930  1.00  0.00     0.049 A 
ATOM     48  H   UNL A   1      43.911  26.598  29.263  1.00  0.00     0.167 HD
ATOM     49  C   UNL A   1      48.141  28.101  28.301  1.00  0.00     0.037 A 
ATOM     50  C   UNL A   1      41.210  27.152  29.420  1.00  0.00     0.037 A 
ATOM     51  C   UNL A   1      47.947  27.907  29.709  1.00  0.00     0.049 A 
ATOM     52  C   UNL A   1      42.183  27.963  30.190  1.00  0.00     0.074 A 
ATOM     53  C   UNL A   1      48.583  27.201  30.706  1.00  0.00     0.029 A 
ATOM     54  N   UNL A   1      46.680  28.183  30.144  1.00  0.00    -0.354 N 
ATOM     55  N   UNL A   1      42.731  27.563  31.304  1.00  0.00    -0.248 NA
ATOM     56  C   UNL A   1      42.832  29.100  29.542  1.00  0.00     0.031 C 
ATOM     57  C   UNL A   1      47.609  26.969  31.719  1.00  0.00     0.029 A 
ATOM     58  C   UNL A   1      46.412  27.567  31.337  1.00  0.00     0.049 A 
ATOM     59  H   UNL A   1      46.040  28.753  29.660  1.00  0.00     0.167 HD
ATOM     60  C   UNL A   1      43.997  28.112  31.271  1.00  0.00     0.074 A 
ATOM     61  C   UNL A   1      43.944  29.172  30.276  1.00  0.00     0.031 C 
ATOM     62  C   UNL A   1      45.055  27.443  31.807  1.00  0.00     0.037 A 
BRANCH  49  63
ATOM     63  C   UNL A   1      48.219  29.473  27.680  1.00  0.00     0.064 A 
ATOM     64  C   UNL A   1      49.411  30.209  27.739  1.00  0.00     0.173 A 
ATOM     65  C   UNL A   1      47.075  30.197  27.259  1.00  0.00     0.173 A 
ATOM     66  F   UNL A   1      50.534  29.643  28.207  1.00  0.00    -0.203 F 
ATOM     67  C   UNL A   1      49.454  31.562  27.386  1.00  0.00     0.198 A 
ATOM     68  C   UNL A   1      47.134  31.520  26.840  1.00  0.00     0.198 A 
ATOM     69  F   UNL A   1      45.840  29.688  27.350  1.00  0.00    -0.203 F 
ATOM     70  F   UNL A   1      50.589  32.255  27.543  1.00  0.00    -0.200 F 
ATOM     71  C   UNL A   1      48.321  32.211  26.920  1.00  0.00     0.200 A 
ATOM     72  F   UNL A   1      46.014  32.133  26.431  1.00  0.00    -0.200 F 
ATOM     73  F   UNL A   1      48.358  33.511  26.601  1.00  0.00    -0.200 F 
ENDBRANCH  49  63
BRANCH  50  74
ATOM     74  C   UNL A   1      39.913  27.715  28.965  1.00  0.00     0.064 A 
ATOM     75  C   UNL A   1      38.875  27.915  29.892  1.00  0.00     0.173 A 
ATOM     76  C   UNL A   1      39.767  28.356  27.718  1.00  0.00     0.173 A 
ATOM     77  F   UNL A   1      38.940  27.353  31.108  1.00  0.00    -0.203 F 
ATOM     78  C   UNL A   1      37.800  28.767  29.620  1.00  0.00     0.198 A 
ATOM     79  C   UNL A   1      38.687  29.196  27.444  1.00  0.00     0.198 A 
ATOM     80  F   UNL A   1      40.715  28.269  26.776  1.00  0.00    -0.203 F 
ATOM     81  F   UNL A   1      36.883  29.006  30.568  1.00  0.00    -0.200 F 
ATOM     82  C   UNL A   1      37.718  29.422  28.404  1.00  0.00     0.200 A 
ATOM     83  F   UNL A   1      38.631  29.843  26.271  1.00  0.00    -0.200 F 
ATOM     84  F   UNL A   1      36.736  30.303  28.173  1.00  0.00    -0.200 F 
ENDBRANCH  50  74
BRANCH  62  85
ATOM     85  C   UNL A   1      44.752  26.408  32.841  1.00  0.00     0.064 A 
ATOM     86  C   UNL A   1      44.523  25.052  32.563  1.00  0.00     0.173 A 
ATOM     87  C   UNL A   1      44.767  26.806  34.184  1.00  0.00     0.173 A 
ATOM     88  F   UNL A   1      44.565  24.593  31.303  1.00  0.00    -0.203 F 
ATOM     89  C   UNL A   1      44.288  24.141  33.591  1.00  0.00     0.198 A 
ATOM     90  C   UNL A   1      44.569  25.889  35.209  1.00  0.00     0.198 A 
ATOM     91  F   UNL A   1      45.016  28.086  34.501  1.00  0.00    -0.203 F 
ATOM     92  F   UNL A   1      44.056  22.850  33.307  1.00  0.00    -0.200 F 
ATOM     93  C   UNL A   1      44.319  24.559  34.913  1.00  0.00     0.200 A 
ATOM     94  F   UNL A   1      44.642  26.293  36.485  1.00  0.00    -0.200 F 
ATOM     95  F   UNL A   1      44.131  23.677  35.904  1.00  0.00    -0.200 F 
ENDBRANCH  62  85
ENDBRANCH  36  37
ENDBRANCH  29  31
ENDBRANCH  28  29
ENDBRANCH  27  28
ENDBRANCH  26  27
ENDBRANCH  25  26
ENDBRANCH  24  25
ENDBRANCH   1  24
TORSDOF 21
ENDMDL
