MODEL 1
REMARK VINA RESULT:     -10.1      0.000      0.000
REMARK SMILES Cc1cc(OCC(=O)Nc2sccc2C(=O)OCCOCCOCCOC(=O)c2ccc(-c3c4nc(c(-c5c(F)c(F)c(F)c(F)c5F)c5ccc([nH]5)c(-c5c(F)c(F)c(F)c(F)c5F)c5nc(c(-c6c(F)c(F)c(F)c(F)c6F)c6ccc3[nH]6)C=C5)C=C4)cc2)ccc1Cl
REMARK SMILES IDX 21 1 20 2 19 3 18 4 17 5 15 6 16 7 14 8 10 9 11 10 12 11
REMARK SMILES IDX 13 12 9 13 7 14 8 15 6 17 5 18 4 19 1 20 2 21 3 22 94 23
REMARK SMILES IDX 93 24 95 25 92 26 22 27 23 28 24 29 25 30 26 31 27 32 28 33
REMARK SMILES IDX 29 34 30 35 91 36 31 37 90 38 32 39 33 40 34 41 84 42 35 43
REMARK SMILES IDX 89 44 83 45 85 46 36 47 88 48 82 49 81 50 37 52 69 53 49 54
REMARK SMILES IDX 68 55 50 56 53 57 67 58 86 59 51 60 52 61 66 63 87 64 54 65
REMARK SMILES IDX 38 66 39 67 47 68 40 69 41 70 45 71 48 72 42 73 43 74 46 75
REMARK SMILES IDX 44 76 70 77 71 78 79 79 72 80 73 81 77 82 80 83 74 84 75 85
REMARK SMILES IDX 78 86 76 87 55 88 56 89 64 90 57 91 58 92 62 93 65 94 59 95
REMARK SMILES IDX 60 96 63 97 61 98
REMARK H PARENT 9 16 85 51 53 62
REMARK Flexibility Score: inf
ROOT
ATOM      1  C   UNL A   1      35.900  31.632  28.028  1.00  0.00     0.188 C 
ENDROOT
BRANCH   1   2
ATOM      2  O   UNL A   1      34.695  30.917  27.784  1.00  0.00    -0.376 OA
BRANCH   2   3
ATOM      3  C   UNL A   1      34.868  29.533  27.520  1.00  0.00     0.202 C 
BRANCH   3   4
ATOM      4  C   UNL A   1      33.680  28.959  26.781  1.00  0.00     0.261 C 
BRANCH   4   5
ATOM      5  O   UNL A   1      33.818  27.546  26.626  1.00  0.00    -0.460 OA
BRANCH   5   6
ATOM      6  C   UNL A   1      33.553  27.040  25.393  1.00  0.00     0.341 C 
ATOM      7  O   UNL A   1      34.037  27.433  24.342  1.00  0.00    -0.246 OA
BRANCH   6   8
ATOM      8  C   UNL A   1      32.721  25.859  25.502  1.00  0.00     0.094 A 
ATOM      9  C   UNL A   1      31.579  25.609  24.769  1.00  0.00     0.110 A 
ATOM     10  S   UNL A   1      30.657  24.325  25.416  1.00  0.00    -0.126 S 
ATOM     11  C   UNL A   1      31.833  23.989  26.605  1.00  0.00     0.068 A 
ATOM     12  C   UNL A   1      32.892  24.865  26.531  1.00  0.00     0.029 A 
BRANCH   9  13
ATOM     13  N   UNL A   1      30.937  26.216  23.718  1.00  0.00    -0.314 N 
ATOM     14  C   UNL A   1      31.348  26.478  22.441  1.00  0.00     0.262 C 
ATOM     15  O   UNL A   1      30.801  27.432  21.877  1.00  0.00    -0.271 OA
ATOM     16  H   UNL A   1      30.020  26.514  23.919  1.00  0.00     0.170 HD
BRANCH  14  17
ATOM     17  C   UNL A   1      32.235  25.466  21.643  1.00  0.00     0.329 C 
BRANCH  17  18
ATOM     18  O   UNL A   1      33.565  25.047  21.877  1.00  0.00    -0.484 OA
BRANCH  18  19
ATOM     19  C   UNL A   1      33.884  23.917  22.574  1.00  0.00     0.120 A 
ATOM     20  C   UNL A   1      35.956  22.799  25.544  1.00  0.00     0.046 C 
ATOM     21  C   UNL A   1      34.929  22.752  24.444  1.00  0.00    -0.029 A 
ATOM     22  C   UNL A   1      34.947  23.765  23.459  1.00  0.00     0.051 A 
ATOM     23  C   UNL A   1      33.872  21.830  24.452  1.00  0.00     0.044 A 
ATOM     24  C   UNL A   1      32.885  21.884  23.467  1.00  0.00     0.024 A 
ATOM     25  Cl  UNL A   1      33.692  20.663  25.713  1.00  0.00    -0.084 Cl
ATOM     26  C   UNL A   1      32.898  22.919  22.525  1.00  0.00     0.048 A 
ENDBRANCH  18  19
ENDBRANCH  17  18
ENDBRANCH  14  17
ENDBRANCH   9  13
ENDBRANCH   6   8
ENDBRANCH   5   6
ENDBRANCH   4   5
ENDBRANCH   3   4
ENDBRANCH   2   3
ENDBRANCH   1   2
BRANCH   1  27
ATOM     27  C   UNL A   1      35.744  33.020  28.673  1.00  0.00     0.188 C 
BRANCH  27  28
ATOM     28  O   UNL A   1      34.443  33.589  28.806  1.00  0.00    -0.376 OA
BRANCH  28  29
ATOM     29  C   UNL A   1      34.232  34.934  28.396  1.00  0.00     0.202 C 
BRANCH  29  30
ATOM     30  C   UNL A   1      33.182  35.625  29.274  1.00  0.00     0.261 C 
BRANCH  30  31
ATOM     31  O   UNL A   1      32.818  34.830  30.413  1.00  0.00    -0.460 OA
BRANCH  31  32
ATOM     32  C   UNL A   1      32.953  35.449  31.614  1.00  0.00     0.338 C 
ATOM     33  O   UNL A   1      32.211  36.272  32.121  1.00  0.00    -0.246 OA
BRANCH  32  34
ATOM     34  C   UNL A   1      34.107  34.857  32.327  1.00  0.00     0.060 A 
ATOM     35  C   UNL A   1      35.333  35.538  32.287  1.00  0.00     0.016 A 
ATOM     36  C   UNL A   1      33.973  33.679  33.072  1.00  0.00     0.016 A 
ATOM     37  C   UNL A   1      36.446  35.004  32.933  1.00  0.00     0.010 A 
ATOM     38  C   UNL A   1      35.091  33.131  33.699  1.00  0.00     0.010 A 
ATOM     39  C   UNL A   1      36.339  33.763  33.580  1.00  0.00    -0.014 A 
BRANCH  39  40
ATOM     40  C   UNL A   1      37.570  32.972  33.804  1.00  0.00     0.031 A 
ATOM     41  C   UNL A   1      38.323  33.245  35.079  1.00  0.00     0.074 A 
ATOM     42  C   UNL A   1      38.004  32.050  32.930  1.00  0.00     0.049 A 
ATOM     43  N   UNL A   1      39.416  32.695  35.540  1.00  0.00    -0.248 NA
ATOM     44  C   UNL A   1      37.758  34.285  35.957  1.00  0.00     0.031 C 
ATOM     45  C   UNL A   1      37.345  31.688  31.679  1.00  0.00     0.029 A 
ATOM     46  N   UNL A   1      39.118  31.249  32.972  1.00  0.00    -0.354 N 
ATOM     47  C   UNL A   1      39.651  33.308  36.763  1.00  0.00     0.074 A 
ATOM     48  C   UNL A   1      38.616  34.295  36.962  1.00  0.00     0.031 C 
ATOM     49  C   UNL A   1      38.076  30.742  31.061  1.00  0.00     0.029 A 
ATOM     50  C   UNL A   1      39.260  30.448  31.867  1.00  0.00     0.049 A 
ATOM     51  H   UNL A   1      39.754  31.251  33.722  1.00  0.00     0.167 HD
ATOM     52  C   UNL A   1      40.641  33.066  37.652  1.00  0.00     0.037 A 
ATOM     53  C   UNL A   1      40.248  29.587  31.551  1.00  0.00     0.037 A 
ATOM     54  C   UNL A   1      41.694  32.117  37.433  1.00  0.00     0.049 A 
ATOM     55  C   UNL A   1      41.392  29.397  32.516  1.00  0.00     0.074 A 
ATOM     56  C   UNL A   1      42.756  31.797  38.256  1.00  0.00     0.029 A 
ATOM     57  N   UNL A   1      41.824  31.350  36.284  1.00  0.00    -0.354 N 
ATOM     58  N   UNL A   1      41.586  29.945  33.692  1.00  0.00    -0.248 NA
ATOM     59  C   UNL A   1      42.456  28.468  32.108  1.00  0.00     0.031 C 
ATOM     60  C   UNL A   1      43.556  30.867  37.585  1.00  0.00     0.029 A 
ATOM     61  C   UNL A   1      42.966  30.573  36.365  1.00  0.00     0.049 A 
ATOM     62  H   UNL A   1      41.198  31.357  35.525  1.00  0.00     0.167 HD
ATOM     63  C   UNL A   1      42.772  29.410  34.176  1.00  0.00     0.074 A 
ATOM     64  C   UNL A   1      43.251  28.485  33.169  1.00  0.00     0.031 C 
ATOM     65  C   UNL A   1      43.411  29.657  35.347  1.00  0.00     0.037 A 
BRANCH  52  66
ATOM     66  C   UNL A   1      40.631  33.873  38.914  1.00  0.00     0.064 A 
ATOM     67  C   UNL A   1      41.404  35.037  39.045  1.00  0.00     0.173 A 
ATOM     68  C   UNL A   1      39.864  33.465  40.014  1.00  0.00     0.173 A 
ATOM     69  F   UNL A   1      42.177  35.452  38.029  1.00  0.00    -0.203 F 
ATOM     70  C   UNL A   1      41.432  35.747  40.242  1.00  0.00     0.198 A 
ATOM     71  C   UNL A   1      39.874  34.191  41.202  1.00  0.00     0.198 A 
ATOM     72  F   UNL A   1      39.116  32.353  39.942  1.00  0.00    -0.203 F 
ATOM     73  F   UNL A   1      42.220  36.824  40.364  1.00  0.00    -0.200 F 
ATOM     74  C   UNL A   1      40.664  35.326  41.317  1.00  0.00     0.200 A 
ATOM     75  F   UNL A   1      39.131  33.785  42.240  1.00  0.00    -0.200 F 
ATOM     76  F   UNL A   1      40.695  36.006  42.471  1.00  0.00    -0.200 F 
ENDBRANCH  52  66
BRANCH  53  77
ATOM     77  C   UNL A   1      40.204  28.840  30.266  1.00  0.00     0.064 A 
ATOM     78  C   UNL A   1      40.800  29.358  29.107  1.00  0.00     0.173 A 
ATOM     79  C   UNL A   1      39.552  27.603  30.166  1.00  0.00     0.173 A 
ATOM     80  F   UNL A   1      41.411  30.552  29.146  1.00  0.00    -0.203 F 
ATOM     81  C   UNL A   1      40.732  28.674  27.895  1.00  0.00     0.198 A 
ATOM     82  C   UNL A   1      39.506  26.908  28.958  1.00  0.00     0.198 A 
ATOM     83  F   UNL A   1      38.960  27.067  31.243  1.00  0.00    -0.203 F 
ATOM     84  F   UNL A   1      41.274  29.212  26.793  1.00  0.00    -0.200 F 
ATOM     85  C   UNL A   1      40.091  27.447  27.822  1.00  0.00     0.200 A 
ATOM     86  F   UNL A   1      38.889  25.721  28.894  1.00  0.00    -0.200 F 
ATOM     87  F   UNL A   1      40.027  26.789  26.657  1.00  0.00    -0.200 F 
ENDBRANCH  53  77
BRANCH  65  88
ATOM     88  C   UNL A   1      44.677  28.900  35.615  1.00  0.00     0.064 A 
ATOM     89  C   UNL A   1      45.930  29.414  35.257  1.00  0.00     0.173 A 
ATOM     90  C   UNL A   1      44.637  27.674  36.297  1.00  0.00     0.173 A 
ATOM     91  F   UNL A   1      46.019  30.578  34.594  1.00  0.00    -0.203 F 
ATOM     92  C   UNL A   1      47.099  28.720  35.557  1.00  0.00     0.198 A 
ATOM     93  C   UNL A   1      45.808  26.996  36.619  1.00  0.00     0.198 A 
ATOM     94  F   UNL A   1      43.461  27.146  36.670  1.00  0.00    -0.203 F 
ATOM     95  F   UNL A   1      48.285  29.212  35.174  1.00  0.00    -0.200 F 
ATOM     96  C   UNL A   1      47.037  27.517  36.245  1.00  0.00     0.200 A 
ATOM     97  F   UNL A   1      45.747  25.841  37.296  1.00  0.00    -0.200 F 
ATOM     98  F   UNL A   1      48.164  26.855  36.542  1.00  0.00    -0.200 F 
ENDBRANCH  65  88
ENDBRANCH  39  40
ENDBRANCH  32  34
ENDBRANCH  31  32
ENDBRANCH  30  31
ENDBRANCH  29  30
ENDBRANCH  28  29
ENDBRANCH  27  28
ENDBRANCH   1  27
TORSDOF 21
ENDMDL
MODEL 2
REMARK VINA RESULT:      -9.9      1.476      7.392
REMARK SMILES Cc1cc(OCC(=O)Nc2sccc2C(=O)OCCOCCOCCOC(=O)c2ccc(-c3c4nc(c(-c5c(F)c(F)c(F)c(F)c5F)c5ccc([nH]5)c(-c5c(F)c(F)c(F)c(F)c5F)c5nc(c(-c6c(F)c(F)c(F)c(F)c6F)c6ccc3[nH]6)C=C5)C=C4)cc2)ccc1Cl
REMARK SMILES IDX 21 1 20 2 19 3 18 4 17 5 15 6 16 7 14 8 10 9 11 10 12 11
REMARK SMILES IDX 13 12 9 13 7 14 8 15 6 17 5 18 4 19 1 20 2 21 3 22 94 23
REMARK SMILES IDX 93 24 95 25 92 26 22 27 23 28 24 29 25 30 26 31 27 32 28 33
REMARK SMILES IDX 29 34 30 35 91 36 31 37 90 38 32 39 33 40 34 41 84 42 35 43
REMARK SMILES IDX 89 44 83 45 85 46 36 47 88 48 82 49 81 50 37 52 69 53 49 54
REMARK SMILES IDX 68 55 50 56 53 57 67 58 86 59 51 60 52 61 66 63 87 64 54 65
REMARK SMILES IDX 38 66 39 67 47 68 40 69 41 70 45 71 48 72 42 73 43 74 46 75
REMARK SMILES IDX 44 76 70 77 71 78 79 79 72 80 73 81 77 82 80 83 74 84 75 85
REMARK SMILES IDX 78 86 76 87 55 88 56 89 64 90 57 91 58 92 62 93 65 94 59 95
REMARK SMILES IDX 60 96 63 97 61 98
REMARK H PARENT 9 16 85 51 53 62
REMARK Flexibility Score: inf
ROOT
ATOM      1  C   UNL A   1      35.830  33.060  28.006  1.00  0.00     0.188 C 
ENDROOT
BRANCH   1   2
ATOM      2  O   UNL A   1      34.944  32.192  27.309  1.00  0.00    -0.376 OA
BRANCH   2   3
ATOM      3  C   UNL A   1      34.616  30.997  28.002  1.00  0.00     0.202 C 
BRANCH   3   4
ATOM      4  C   UNL A   1      33.363  30.361  27.442  1.00  0.00     0.261 C 
BRANCH   4   5
ATOM      5  O   UNL A   1      33.643  29.698  26.208  1.00  0.00    -0.460 OA
BRANCH   5   6
ATOM      6  C   UNL A   1      32.605  29.558  25.343  1.00  0.00     0.341 C 
ATOM      7  O   UNL A   1      31.525  30.123  25.427  1.00  0.00    -0.246 OA
BRANCH   6   8
ATOM      8  C   UNL A   1      33.002  28.749  24.208  1.00  0.00     0.094 A 
ATOM      9  C   UNL A   1      32.380  28.731  22.976  1.00  0.00     0.110 A 
ATOM     10  S   UNL A   1      32.870  27.405  22.018  1.00  0.00    -0.126 S 
ATOM     11  C   UNL A   1      34.022  26.908  23.173  1.00  0.00     0.068 A 
ATOM     12  C   UNL A   1      34.007  27.718  24.285  1.00  0.00     0.029 A 
BRANCH   9  13
ATOM     13  N   UNL A   1      31.374  29.447  22.376  1.00  0.00    -0.314 N 
ATOM     14  C   UNL A   1      30.044  29.171  22.214  1.00  0.00     0.262 C 
ATOM     15  O   UNL A   1      29.489  29.708  21.250  1.00  0.00    -0.271 OA
ATOM     16  H   UNL A   1      31.660  30.309  21.994  1.00  0.00     0.170 HD
BRANCH  14  17
ATOM     17  C   UNL A   1      29.214  28.463  23.335  1.00  0.00     0.329 C 
BRANCH  17  18
ATOM     18  O   UNL A   1      28.881  27.096  23.489  1.00  0.00    -0.484 OA
BRANCH  18  19
ATOM     19  C   UNL A   1      29.698  26.188  24.098  1.00  0.00     0.120 A 
ATOM     20  C   UNL A   1      32.175  23.449  23.248  1.00  0.00     0.046 C 
ATOM     21  C   UNL A   1      31.429  24.471  24.063  1.00  0.00    -0.029 A 
ATOM     22  C   UNL A   1      30.277  25.070  23.506  1.00  0.00     0.051 A 
ATOM     23  C   UNL A   1      31.924  24.954  25.284  1.00  0.00     0.044 A 
ATOM     24  C   UNL A   1      31.253  25.974  25.960  1.00  0.00     0.024 A 
ATOM     25  Cl  UNL A   1      33.412  24.386  25.951  1.00  0.00    -0.084 Cl
ATOM     26  C   UNL A   1      30.137  26.582  25.372  1.00  0.00     0.048 A 
ENDBRANCH  18  19
ENDBRANCH  17  18
ENDBRANCH  14  17
ENDBRANCH   9  13
ENDBRANCH   6   8
ENDBRANCH   5   6
ENDBRANCH   4   5
ENDBRANCH   3   4
ENDBRANCH   2   3
ENDBRANCH   1   2
BRANCH   1  27
ATOM     27  C   UNL A   1      35.181  34.265  28.709  1.00  0.00     0.188 C 
BRANCH  27  28
ATOM     28  O   UNL A   1      33.872  34.134  29.257  1.00  0.00    -0.376 OA
BRANCH  28  29
ATOM     29  C   UNL A   1      32.904  35.139  28.980  1.00  0.00     0.202 C 
BRANCH  29  30
ATOM     30  C   UNL A   1      32.744  36.100  30.165  1.00  0.00     0.261 C 
BRANCH  30  31
ATOM     31  O   UNL A   1      32.321  35.423  31.359  1.00  0.00    -0.460 OA
BRANCH  31  32
ATOM     32  C   UNL A   1      33.014  35.749  32.480  1.00  0.00     0.338 C 
ATOM     33  O   UNL A   1      32.675  36.496  33.381  1.00  0.00    -0.246 OA
BRANCH  32  34
ATOM     34  C   UNL A   1      34.239  34.921  32.538  1.00  0.00     0.060 A 
ATOM     35  C   UNL A   1      34.137  33.619  33.052  1.00  0.00     0.016 A 
ATOM     36  C   UNL A   1      35.460  35.394  32.042  1.00  0.00     0.016 A 
ATOM     37  C   UNL A   1      35.271  32.815  33.137  1.00  0.00     0.010 A 
ATOM     38  C   UNL A   1      36.601  34.599  32.149  1.00  0.00     0.010 A 
ATOM     39  C   UNL A   1      36.516  33.333  32.749  1.00  0.00    -0.014 A 
BRANCH  39  40
ATOM     40  C   UNL A   1      37.744  32.715  33.298  1.00  0.00     0.031 A 
ATOM     41  C   UNL A   1      38.382  31.633  32.468  1.00  0.00     0.074 A 
ATOM     42  C   UNL A   1      38.280  33.091  34.471  1.00  0.00     0.049 A 
ATOM     43  N   UNL A   1      39.463  30.933  32.691  1.00  0.00    -0.248 NA
ATOM     44  C   UNL A   1      37.701  31.297  31.204  1.00  0.00     0.031 C 
ATOM     45  C   UNL A   1      37.761  34.139  35.344  1.00  0.00     0.029 A 
ATOM     46  N   UNL A   1      39.389  32.619  35.126  1.00  0.00    -0.354 N 
ATOM     47  C   UNL A   1      39.597  30.097  31.591  1.00  0.00     0.074 A 
ATOM     48  C   UNL A   1      38.474  30.343  30.718  1.00  0.00     0.031 C 
ATOM     49  C   UNL A   1      38.546  34.224  36.434  1.00  0.00     0.029 A 
ATOM     50  C   UNL A   1      39.610  33.223  36.338  1.00  0.00     0.049 A 
ATOM     51  H   UNL A   1      39.969  31.912  34.762  1.00  0.00     0.167 HD
ATOM     52  C   UNL A   1      40.577  29.203  31.325  1.00  0.00     0.037 A 
ATOM     53  C   UNL A   1      40.560  32.978  37.261  1.00  0.00     0.037 A 
ATOM     54  C   UNL A   1      41.667  28.927  32.215  1.00  0.00     0.049 A 
ATOM     55  C   UNL A   1      41.592  31.912  36.985  1.00  0.00     0.074 A 
ATOM     56  C   UNL A   1      42.709  28.034  32.057  1.00  0.00     0.029 A 
ATOM     57  N   UNL A   1      41.836  29.534  33.451  1.00  0.00    -0.354 N 
ATOM     58  N   UNL A   1      41.742  31.156  35.923  1.00  0.00    -0.248 NA
ATOM     59  C   UNL A   1      42.589  31.667  38.037  1.00  0.00     0.031 C 
ATOM     60  C   UNL A   1      43.486  28.069  33.220  1.00  0.00     0.029 A 
ATOM     61  C   UNL A   1      42.954  29.017  34.080  1.00  0.00     0.049 A 
ATOM     62  H   UNL A   1      41.248  30.230  33.825  1.00  0.00     0.167 HD
ATOM     63  C   UNL A   1      42.859  30.368  36.166  1.00  0.00     0.074 A 
ATOM     64  C   UNL A   1      43.357  30.744  37.473  1.00  0.00     0.031 C 
ATOM     65  C   UNL A   1      43.426  29.418  35.380  1.00  0.00     0.037 A 
BRANCH  52  66
ATOM     66  C   UNL A   1      40.472  28.448  30.035  1.00  0.00     0.064 A 
ATOM     67  C   UNL A   1      41.093  28.910  28.864  1.00  0.00     0.173 A 
ATOM     68  C   UNL A   1      39.720  27.268  29.961  1.00  0.00     0.173 A 
ATOM     69  F   UNL A   1      41.800  30.051  28.879  1.00  0.00    -0.203 F 
ATOM     70  C   UNL A   1      40.941  28.231  27.658  1.00  0.00     0.198 A 
ATOM     71  C   UNL A   1      39.591  26.578  28.759  1.00  0.00     0.198 A 
ATOM     72  F   UNL A   1      39.100  26.791  31.050  1.00  0.00    -0.203 F 
ATOM     73  F   UNL A   1      41.496  28.719  26.540  1.00  0.00    -0.200 F 
ATOM     74  C   UNL A   1      40.194  27.064  27.608  1.00  0.00     0.200 A 
ATOM     75  F   UNL A   1      38.870  25.449  28.710  1.00  0.00    -0.200 F 
ATOM     76  F   UNL A   1      40.043  26.414  26.446  1.00  0.00    -0.200 F 
ENDBRANCH  52  66
BRANCH  53  77
ATOM     77  C   UNL A   1      40.584  33.749  38.532  1.00  0.00     0.064 A 
ATOM     78  C   UNL A   1      39.770  33.386  39.614  1.00  0.00     0.173 A 
ATOM     79  C   UNL A   1      41.408  34.874  38.684  1.00  0.00     0.173 A 
ATOM     80  F   UNL A   1      38.945  32.335  39.506  1.00  0.00    -0.203 F 
ATOM     81  C   UNL A   1      39.768  34.127  40.794  1.00  0.00     0.198 A 
ATOM     82  C   UNL A   1      41.422  35.600  39.874  1.00  0.00     0.198 A 
ATOM     83  F   UNL A   1      42.200  35.267  37.677  1.00  0.00    -0.203 F 
ATOM     84  F   UNL A   1      38.949  33.782  41.798  1.00  0.00    -0.200 F 
ATOM     85  C   UNL A   1      40.599  35.230  40.926  1.00  0.00     0.200 A 
ATOM     86  F   UNL A   1      42.230  36.662  39.999  1.00  0.00    -0.200 F 
ATOM     87  F   UNL A   1      40.597  35.941  42.062  1.00  0.00    -0.200 F 
ENDBRANCH  53  77
BRANCH  65  88
ATOM     88  C   UNL A   1      44.660  28.742  35.898  1.00  0.00     0.064 A 
ATOM     89  C   UNL A   1      45.938  29.271  35.670  1.00  0.00     0.173 A 
ATOM     90  C   UNL A   1      44.555  27.587  36.688  1.00  0.00     0.173 A 
ATOM     91  F   UNL A   1      46.089  30.367  34.912  1.00  0.00    -0.203 F 
ATOM     92  C   UNL A   1      47.069  28.657  36.200  1.00  0.00     0.198 A 
ATOM     93  C   UNL A   1      45.685  26.992  37.239  1.00  0.00     0.198 A 
ATOM     94  F   UNL A   1      43.352  27.050  36.943  1.00  0.00    -0.203 F 
ATOM     95  F   UNL A   1      48.284  29.157  35.939  1.00  0.00    -0.200 F 
ATOM     96  C   UNL A   1      46.941  27.524  36.990  1.00  0.00     0.200 A 
ATOM     97  F   UNL A   1      45.558  25.906  38.013  1.00  0.00    -0.200 F 
ATOM     98  F   UNL A   1      48.031  26.940  37.508  1.00  0.00    -0.200 F 
ENDBRANCH  65  88
ENDBRANCH  39  40
ENDBRANCH  32  34
ENDBRANCH  31  32
ENDBRANCH  30  31
ENDBRANCH  29  30
ENDBRANCH  28  29
ENDBRANCH  27  28
ENDBRANCH   1  27
TORSDOF 21
ENDMDL
MODEL 3
REMARK VINA RESULT:      -9.7      2.751      4.837
REMARK SMILES Cc1cc(OCC(=O)Nc2sccc2C(=O)OCCOCCOCCOC(=O)c2ccc(-c3c4nc(c(-c5c(F)c(F)c(F)c(F)c5F)c5ccc([nH]5)c(-c5c(F)c(F)c(F)c(F)c5F)c5nc(c(-c6c(F)c(F)c(F)c(F)c6F)c6ccc3[nH]6)C=C5)C=C4)cc2)ccc1Cl
REMARK SMILES IDX 21 1 20 2 19 3 18 4 17 5 15 6 16 7 14 8 10 9 11 10 12 11
REMARK SMILES IDX 13 12 9 13 7 14 8 15 6 17 5 18 4 19 1 20 2 21 3 22 94 23
REMARK SMILES IDX 93 24 95 25 92 26 22 27 23 28 24 29 25 30 26 31 27 32 28 33
REMARK SMILES IDX 29 34 30 35 91 36 31 37 90 38 32 39 33 40 34 41 84 42 35 43
REMARK SMILES IDX 89 44 83 45 85 46 36 47 88 48 82 49 81 50 37 52 69 53 49 54
REMARK SMILES IDX 68 55 50 56 53 57 67 58 86 59 51 60 52 61 66 63 87 64 54 65
REMARK SMILES IDX 38 66 39 67 47 68 40 69 41 70 45 71 48 72 42 73 43 74 46 75
REMARK SMILES IDX 44 76 70 77 71 78 79 79 72 80 73 81 77 82 80 83 74 84 75 85
REMARK SMILES IDX 78 86 76 87 55 88 56 89 64 90 57 91 58 92 62 93 65 94 59 95
REMARK SMILES IDX 60 96 63 97 61 98
REMARK H PARENT 9 16 85 51 53 62
REMARK Flexibility Score: inf
ROOT
ATOM      1  C   UNL A   1      33.344  29.064  23.414  1.00  0.00     0.188 C 
ENDROOT
BRANCH   1   2
ATOM      2  O   UNL A   1      33.733  27.755  23.018  1.00  0.00    -0.376 OA
BRANCH   2   3
ATOM      3  C   UNL A   1      32.669  26.929  22.569  1.00  0.00     0.202 C 
BRANCH   3   4
ATOM      4  C   UNL A   1      33.182  25.750  21.773  1.00  0.00     0.261 C 
BRANCH   4   5
ATOM      5  O   UNL A   1      34.067  24.955  22.564  1.00  0.00    -0.460 OA
BRANCH   5   6
ATOM      6  C   UNL A   1      33.621  23.723  22.924  1.00  0.00     0.341 C 
ATOM      7  O   UNL A   1      32.492  23.292  22.743  1.00  0.00    -0.246 OA
BRANCH   6   8
ATOM      8  C   UNL A   1      34.716  22.919  23.426  1.00  0.00     0.094 A 
ATOM      9  C   UNL A   1      34.591  21.772  24.183  1.00  0.00     0.110 A 
ATOM     10  S   UNL A   1      36.065  21.306  24.910  1.00  0.00    -0.126 S 
ATOM     11  C   UNL A   1      36.926  22.547  24.118  1.00  0.00     0.068 A 
ATOM     12  C   UNL A   1      36.097  23.324  23.342  1.00  0.00     0.029 A 
BRANCH   9  13
ATOM     13  N   UNL A   1      33.549  20.979  24.596  1.00  0.00    -0.314 N 
ATOM     14  C   UNL A   1      33.304  20.365  25.793  1.00  0.00     0.262 C 
ATOM     15  O   UNL A   1      32.597  19.352  25.751  1.00  0.00    -0.271 OA
ATOM     16  H   UNL A   1      32.858  20.826  23.911  1.00  0.00     0.170 HD
BRANCH  14  17
ATOM     17  C   UNL A   1      33.647  21.056  27.153  1.00  0.00     0.329 C 
BRANCH  17  18
ATOM     18  O   UNL A   1      33.341  22.360  27.609  1.00  0.00    -0.484 OA
BRANCH  18  19
ATOM     19  C   UNL A   1      32.626  23.263  26.876  1.00  0.00     0.120 A 
ATOM     20  C   UNL A   1      29.095  24.586  26.501  1.00  0.00     0.046 C 
ATOM     21  C   UNL A   1      30.592  24.504  26.361  1.00  0.00    -0.029 A 
ATOM     22  C   UNL A   1      31.242  23.310  26.745  1.00  0.00     0.051 A 
ATOM     23  C   UNL A   1      31.367  25.618  26.009  1.00  0.00     0.044 A 
ATOM     24  C   UNL A   1      32.760  25.526  25.987  1.00  0.00     0.024 A 
ATOM     25  Cl  UNL A   1      30.655  27.157  25.682  1.00  0.00    -0.084 Cl
ATOM     26  C   UNL A   1      33.386  24.348  26.410  1.00  0.00     0.048 A 
ENDBRANCH  18  19
ENDBRANCH  17  18
ENDBRANCH  14  17
ENDBRANCH   9  13
ENDBRANCH   6   8
ENDBRANCH   5   6
ENDBRANCH   4   5
ENDBRANCH   3   4
ENDBRANCH   2   3
ENDBRANCH   1   2
BRANCH   1  27
ATOM     27  C   UNL A   1      33.146  29.283  24.923  1.00  0.00     0.188 C 
BRANCH  27  28
ATOM     28  O   UNL A   1      32.153  30.203  25.373  1.00  0.00    -0.376 OA
BRANCH  28  29
ATOM     29  C   UNL A   1      32.126  30.574  26.746  1.00  0.00     0.202 C 
BRANCH  29  30
ATOM     30  C   UNL A   1      32.003  32.094  26.909  1.00  0.00     0.261 C 
BRANCH  30  31
ATOM     31  O   UNL A   1      33.281  32.749  26.876  1.00  0.00    -0.460 OA
BRANCH  31  32
ATOM     32  C   UNL A   1      33.765  33.126  28.086  1.00  0.00     0.338 C 
ATOM     33  O   UNL A   1      33.221  33.817  28.930  1.00  0.00    -0.246 OA
BRANCH  32  34
ATOM     34  C   UNL A   1      35.052  32.433  28.320  1.00  0.00     0.060 A 
ATOM     35  C   UNL A   1      35.055  31.031  28.346  1.00  0.00     0.016 A 
ATOM     36  C   UNL A   1      36.247  33.149  28.454  1.00  0.00     0.016 A 
ATOM     37  C   UNL A   1      36.244  30.343  28.579  1.00  0.00     0.010 A 
ATOM     38  C   UNL A   1      37.435  32.463  28.711  1.00  0.00     0.010 A 
ATOM     39  C   UNL A   1      37.421  31.064  28.831  1.00  0.00    -0.014 A 
BRANCH  39  40
ATOM     40  C   UNL A   1      38.520  30.395  29.564  1.00  0.00     0.031 A 
ATOM     41  C   UNL A   1      38.718  30.805  30.999  1.00  0.00     0.074 A 
ATOM     42  C   UNL A   1      39.304  29.465  28.996  1.00  0.00     0.049 A 
ATOM     43  N   UNL A   1      39.586  30.378  31.879  1.00  0.00    -0.248 NA
ATOM     44  C   UNL A   1      37.804  31.841  31.511  1.00  0.00     0.031 C 
ATOM     45  C   UNL A   1      39.189  28.977  27.625  1.00  0.00     0.029 A 
ATOM     46  N   UNL A   1      40.364  28.767  29.518  1.00  0.00    -0.354 N 
ATOM     47  C   UNL A   1      39.305  31.079  33.044  1.00  0.00     0.074 A 
ATOM     48  C   UNL A   1      38.217  31.983  32.758  1.00  0.00     0.031 C 
ATOM     49  C   UNL A   1      40.153  28.064  27.407  1.00  0.00     0.029 A 
ATOM     50  C   UNL A   1      40.960  27.919  28.619  1.00  0.00     0.049 A 
ATOM     51  H   UNL A   1      40.669  28.867  30.448  1.00  0.00     0.167 HD
ATOM     52  C   UNL A   1      39.898  30.973  34.256  1.00  0.00     0.037 A 
ATOM     53  C   UNL A   1      42.042  27.130  28.768  1.00  0.00     0.037 A 
ATOM     54  C   UNL A   1      41.010  30.108  34.526  1.00  0.00     0.049 A 
ATOM     55  C   UNL A   1      42.746  27.095  30.102  1.00  0.00     0.074 A 
ATOM     56  C   UNL A   1      41.699  29.928  35.710  1.00  0.00     0.029 A 
ATOM     57  N   UNL A   1      41.609  29.290  33.579  1.00  0.00    -0.354 N 
ATOM     58  N   UNL A   1      42.448  27.723  31.214  1.00  0.00    -0.248 NA
ATOM     59  C   UNL A   1      43.937  26.238  30.201  1.00  0.00     0.031 C 
ATOM     60  C   UNL A   1      42.746  29.033  35.466  1.00  0.00     0.029 A 
ATOM     61  C   UNL A   1      42.678  28.620  34.145  1.00  0.00     0.049 A 
ATOM     62  H   UNL A   1      41.316  29.200  32.643  1.00  0.00     0.167 HD
ATOM     63  C   UNL A   1      43.394  27.320  32.149  1.00  0.00     0.074 A 
ATOM     64  C   UNL A   1      44.270  26.384  31.476  1.00  0.00     0.031 C 
ATOM     65  C   UNL A   1      43.527  27.689  33.448  1.00  0.00     0.037 A 
BRANCH  52  66
ATOM     66  C   UNL A   1      39.366  31.848  35.349  1.00  0.00     0.064 A 
ATOM     67  C   UNL A   1      38.464  31.357  36.306  1.00  0.00     0.173 A 
ATOM     68  C   UNL A   1      39.735  33.197  35.424  1.00  0.00     0.173 A 
ATOM     69  F   UNL A   1      38.058  30.079  36.258  1.00  0.00    -0.203 F 
ATOM     70  C   UNL A   1      37.930  32.194  37.282  1.00  0.00     0.198 A 
ATOM     71  C   UNL A   1      39.220  34.026  36.417  1.00  0.00     0.198 A 
ATOM     72  F   UNL A   1      40.586  33.717  34.526  1.00  0.00    -0.203 F 
ATOM     73  F   UNL A   1      37.029  31.718  38.152  1.00  0.00    -0.200 F 
ATOM     74  C   UNL A   1      38.312  33.526  37.339  1.00  0.00     0.200 A 
ATOM     75  F   UNL A   1      39.589  35.313  36.472  1.00  0.00    -0.200 F 
ATOM     76  F   UNL A   1      37.794  34.333  38.275  1.00  0.00    -0.200 F 
ENDBRANCH  52  66
BRANCH  53  77
ATOM     77  C   UNL A   1      42.530  26.309  27.628  1.00  0.00     0.064 A 
ATOM     78  C   UNL A   1      43.554  26.773  26.788  1.00  0.00     0.173 A 
ATOM     79  C   UNL A   1      41.973  25.054  27.344  1.00  0.00     0.173 A 
ATOM     80  F   UNL A   1      44.098  27.979  27.003  1.00  0.00    -0.203 F 
ATOM     81  C   UNL A   1      43.990  26.019  25.701  1.00  0.00     0.198 A 
ATOM     82  C   UNL A   1      42.427  24.290  26.270  1.00  0.00     0.198 A 
ATOM     83  F   UNL A   1      40.987  24.568  28.112  1.00  0.00    -0.203 F 
ATOM     84  F   UNL A   1      44.941  26.504  24.890  1.00  0.00    -0.200 F 
ATOM     85  C   UNL A   1      43.431  24.775  25.446  1.00  0.00     0.200 A 
ATOM     86  F   UNL A   1      41.888  23.088  26.030  1.00  0.00    -0.200 F 
ATOM     87  F   UNL A   1      43.852  24.050  24.401  1.00  0.00    -0.200 F 
ENDBRANCH  53  77
BRANCH  65  88
ATOM     88  C   UNL A   1      44.640  27.060  34.232  1.00  0.00     0.064 A 
ATOM     89  C   UNL A   1      45.908  27.651  34.311  1.00  0.00     0.173 A 
ATOM     90  C   UNL A   1      44.412  25.885  34.965  1.00  0.00     0.173 A 
ATOM     91  F   UNL A   1      46.176  28.769  33.619  1.00  0.00    -0.203 F 
ATOM     92  C   UNL A   1      46.915  27.079  35.083  1.00  0.00     0.198 A 
ATOM     93  C   UNL A   1      45.413  25.330  35.757  1.00  0.00     0.198 A 
ATOM     94  F   UNL A   1      43.211  25.288  34.929  1.00  0.00    -0.203 F 
ATOM     95  F   UNL A   1      48.131  27.639  35.116  1.00  0.00    -0.200 F 
ATOM     96  C   UNL A   1      46.664  25.924  35.811  1.00  0.00     0.200 A 
ATOM     97  F   UNL A   1      45.164  24.224  36.470  1.00  0.00    -0.200 F 
ATOM     98  F   UNL A   1      47.632  25.381  36.561  1.00  0.00    -0.200 F 
ENDBRANCH  65  88
ENDBRANCH  39  40
ENDBRANCH  32  34
ENDBRANCH  31  32
ENDBRANCH  30  31
ENDBRANCH  29  30
ENDBRANCH  28  29
ENDBRANCH  27  28
ENDBRANCH   1  27
TORSDOF 21
ENDMDL
