MODEL 1
REMARK VINA RESULT:      -9.9      0.000      0.000
REMARK SMILES CCC(CC)(NC(=O)N[C@H](C)C1CC1)C(=O)OCCOCCOCCOC(=O)c1ccc(-c2c3nc(c(-c4c(F)c(F)c(F)c(F)c4F)c4ccc([nH]4)c(-c4c(F)c(F)c(F)c(F)c4F)c4nc(c(-c5c(F)c(F)c(F)c(F)c5F)c5ccc2[nH]5)C=C4)C=C3)cc1
REMARK SMILES IDX 21 1 20 2 19 3 18 4 17 5 15 6 16 7 3 8 2 9 1 10 4 11 5 12
REMARK SMILES IDX 6 13 7 14 8 16 9 17 10 19 11 20 12 21 13 22 14 23 22 24
REMARK SMILES IDX 23 25 24 26 25 27 26 28 27 29 28 30 29 31 30 32 91 33 31 34
REMARK SMILES IDX 90 35 32 36 33 37 34 38 84 39 35 40 89 41 83 42 85 43 36 44
REMARK SMILES IDX 88 45 82 46 81 47 37 49 69 50 49 51 68 52 50 53 53 54 67 55
REMARK SMILES IDX 86 56 51 57 52 58 66 60 87 61 54 62 38 63 39 64 47 65 40 66
REMARK SMILES IDX 41 67 45 68 48 69 42 70 43 71 46 72 44 73 70 74 71 75 79 76
REMARK SMILES IDX 72 77 73 78 77 79 80 80 74 81 75 82 78 83 76 84 55 85 56 86
REMARK SMILES IDX 64 87 57 88 58 89 62 90 65 91 59 92 60 93 63 94 61 95
REMARK H PARENT 6 15 9 18 85 48 53 59
REMARK Flexibility Score: inf
ROOT
ATOM      1  C   UNL A   1      35.129  31.594  28.563  1.00  0.00     0.188 C 
ENDROOT
BRANCH   1   2
ATOM      2  O   UNL A   1      35.097  30.463  27.673  1.00  0.00    -0.376 OA
BRANCH   2   3
ATOM      3  C   UNL A   1      33.931  30.013  26.970  1.00  0.00     0.202 C 
BRANCH   3   4
ATOM      4  C   UNL A   1      34.032  28.474  26.559  1.00  0.00     0.261 C 
BRANCH   4   5
ATOM      5  O   UNL A   1      32.788  27.978  25.938  1.00  0.00    -0.461 OA
BRANCH   5   6
ATOM      6  C   UNL A   1      31.897  27.040  26.470  1.00  0.00     0.331 C 
ATOM      7  O   UNL A   1      31.015  27.331  27.270  1.00  0.00    -0.249 OA
BRANCH   6   8
ATOM      8  C   UNL A   1      32.219  25.502  25.977  1.00  0.00     0.139 C 
BRANCH   8   9
ATOM      9  C   UNL A   1      33.533  24.636  26.123  1.00  0.00     0.037 C 
ATOM     10  C   UNL A   1      34.794  24.778  25.315  1.00  0.00     0.007 C 
ENDBRANCH   8   9
BRANCH   8  11
ATOM     11  C   UNL A   1      31.733  25.459  24.498  1.00  0.00     0.037 C 
ATOM     12  C   UNL A   1      32.487  26.320  23.486  1.00  0.00     0.007 C 
ENDBRANCH   8  11
BRANCH   8  13
ATOM     13  N   UNL A   1      31.364  24.765  26.876  1.00  0.00    -0.322 N 
ATOM     14  C   UNL A   1      30.996  23.499  26.619  1.00  0.00     0.315 C 
ATOM     15  H   UNL A   1      31.044  25.200  27.699  1.00  0.00     0.166 HD
ATOM     16  O   UNL A   1      30.266  22.944  27.440  1.00  0.00    -0.249 OA
ATOM     17  N   UNL A   1      31.489  22.771  25.602  1.00  0.00    -0.335 N 
ATOM     18  H   UNL A   1      31.188  21.872  25.864  1.00  0.00     0.165 HD
BRANCH  17  19
ATOM     19  C   UNL A   1      32.212  22.453  24.310  1.00  0.00     0.083 C 
ATOM     20  C   UNL A   1      31.683  22.485  22.880  1.00  0.00     0.031 C 
BRANCH  19  21
ATOM     21  C   UNL A   1      33.241  21.384  24.594  1.00  0.00     0.011 C 
ATOM     22  C   UNL A   1      33.527  20.796  25.958  1.00  0.00     0.006 C 
ATOM     23  C   UNL A   1      32.700  20.018  24.984  1.00  0.00     0.006 C 
ENDBRANCH  19  21
ENDBRANCH  17  19
ENDBRANCH   8  13
ENDBRANCH   6   8
ENDBRANCH   5   6
ENDBRANCH   4   5
ENDBRANCH   3   4
ENDBRANCH   2   3
ENDBRANCH   1   2
BRANCH   1  24
ATOM     24  C   UNL A   1      35.052  33.014  27.996  1.00  0.00     0.188 C 
BRANCH  24  25
ATOM     25  O   UNL A   1      34.683  33.990  28.964  1.00  0.00    -0.376 OA
BRANCH  25  26
ATOM     26  C   UNL A   1      34.272  35.256  28.448  1.00  0.00     0.202 C 
BRANCH  26  27
ATOM     27  C   UNL A   1      33.042  35.905  29.106  1.00  0.00     0.261 C 
BRANCH  27  28
ATOM     28  O   UNL A   1      32.533  35.193  30.263  1.00  0.00    -0.460 OA
BRANCH  28  29
ATOM     29  C   UNL A   1      32.732  35.812  31.461  1.00  0.00     0.338 C 
ATOM     30  O   UNL A   1      32.148  36.794  31.884  1.00  0.00    -0.246 OA
BRANCH  29  31
ATOM     31  C   UNL A   1      33.783  35.141  32.259  1.00  0.00     0.060 A 
ATOM     32  C   UNL A   1      35.095  35.632  32.236  1.00  0.00     0.016 A 
ATOM     33  C   UNL A   1      33.511  33.907  32.853  1.00  0.00     0.016 A 
ATOM     34  C   UNL A   1      36.146  34.876  32.788  1.00  0.00     0.010 A 
ATOM     35  C   UNL A   1      34.560  33.154  33.397  1.00  0.00     0.010 A 
ATOM     36  C   UNL A   1      35.891  33.613  33.346  1.00  0.00    -0.014 A 
BRANCH  36  37
ATOM     37  C   UNL A   1      36.975  32.679  33.771  1.00  0.00     0.031 A 
ATOM     38  C   UNL A   1      37.719  32.960  35.051  1.00  0.00     0.074 A 
ATOM     39  C   UNL A   1      37.386  31.671  32.980  1.00  0.00     0.049 A 
ATOM     40  N   UNL A   1      38.868  32.489  35.469  1.00  0.00    -0.248 NA
ATOM     41  C   UNL A   1      37.085  33.910  35.977  1.00  0.00     0.031 C 
ATOM     42  C   UNL A   1      36.734  31.247  31.744  1.00  0.00     0.029 A 
ATOM     43  N   UNL A   1      38.492  30.855  33.074  1.00  0.00    -0.354 N 
ATOM     44  C   UNL A   1      39.114  33.116  36.685  1.00  0.00     0.074 A 
ATOM     45  C   UNL A   1      37.992  33.992  36.942  1.00  0.00     0.031 C 
ATOM     46  C   UNL A   1      37.480  30.289  31.165  1.00  0.00     0.029 A 
ATOM     47  C   UNL A   1      38.690  30.073  31.959  1.00  0.00     0.049 A 
ATOM     48  H   UNL A   1      39.082  30.834  33.862  1.00  0.00     0.167 HD
ATOM     49  C   UNL A   1      40.186  32.981  37.503  1.00  0.00     0.037 A 
ATOM     50  C   UNL A   1      39.751  29.323  31.591  1.00  0.00     0.037 A 
ATOM     51  C   UNL A   1      41.294  32.094  37.259  1.00  0.00     0.049 A 
ATOM     52  C   UNL A   1      40.970  29.253  32.482  1.00  0.00     0.074 A 
ATOM     53  C   UNL A   1      42.393  31.848  38.066  1.00  0.00     0.029 A 
ATOM     54  N   UNL A   1      41.452  31.319  36.123  1.00  0.00    -0.354 N 
ATOM     55  N   UNL A   1      41.185  29.821  33.643  1.00  0.00    -0.248 NA
ATOM     56  C   UNL A   1      42.103  28.444  32.000  1.00  0.00     0.031 C 
ATOM     57  C   UNL A   1      43.248  30.976  37.387  1.00  0.00     0.029 A 
ATOM     58  C   UNL A   1      42.654  30.631  36.185  1.00  0.00     0.049 A 
ATOM     59  H   UNL A   1      40.808  31.266  35.380  1.00  0.00     0.167 HD
ATOM     60  C   UNL A   1      42.457  29.421  34.038  1.00  0.00     0.074 A 
ATOM     61  C   UNL A   1      42.963  28.547  33.004  1.00  0.00     0.031 C 
ATOM     62  C   UNL A   1      43.147  29.753  35.157  1.00  0.00     0.037 A 
BRANCH  49  63
ATOM     63  C   UNL A   1      40.253  33.841  38.730  1.00  0.00     0.064 A 
ATOM     64  C   UNL A   1      39.669  33.452  39.943  1.00  0.00     0.173 A 
ATOM     65  C   UNL A   1      40.998  35.032  38.712  1.00  0.00     0.173 A 
ATOM     66  F   UNL A   1      38.943  32.326  40.012  1.00  0.00    -0.203 F 
ATOM     67  C   UNL A   1      39.820  34.228  41.091  1.00  0.00     0.198 A 
ATOM     68  C   UNL A   1      41.169  35.790  39.866  1.00  0.00     0.198 A 
ATOM     69  F   UNL A   1      41.586  35.444  37.578  1.00  0.00    -0.203 F 
ATOM     70  F   UNL A   1      39.234  33.848  42.235  1.00  0.00    -0.200 F 
ATOM     71  C   UNL A   1      40.579  35.388  41.054  1.00  0.00     0.200 A 
ATOM     72  F   UNL A   1      41.918  36.902  39.831  1.00  0.00    -0.200 F 
ATOM     73  F   UNL A   1      40.740  36.121  42.165  1.00  0.00    -0.200 F 
ENDBRANCH  49  63
BRANCH  50  74
ATOM     74  C   UNL A   1      39.757  28.626  30.274  1.00  0.00     0.064 A 
ATOM     75  C   UNL A   1      39.235  27.331  30.136  1.00  0.00     0.173 A 
ATOM     76  C   UNL A   1      40.348  29.210  29.143  1.00  0.00     0.173 A 
ATOM     77  F   UNL A   1      38.693  26.712  31.196  1.00  0.00    -0.203 F 
ATOM     78  C   UNL A   1      39.334  26.638  28.931  1.00  0.00     0.198 A 
ATOM     79  C   UNL A   1      40.413  28.530  27.929  1.00  0.00     0.198 A 
ATOM     80  F   UNL A   1      40.873  30.442  29.218  1.00  0.00    -0.203 F 
ATOM     81  F   UNL A   1      38.892  25.375  28.849  1.00  0.00    -0.200 F 
ATOM     82  C   UNL A   1      39.917  27.239  27.826  1.00  0.00     0.200 A 
ATOM     83  F   UNL A   1      40.970  29.119  26.862  1.00  0.00    -0.200 F 
ATOM     84  F   UNL A   1      40.019  26.570  26.670  1.00  0.00    -0.200 F 
ENDBRANCH  50  74
BRANCH  62  85
ATOM     85  C   UNL A   1      44.510  29.149  35.348  1.00  0.00     0.064 A 
ATOM     86  C   UNL A   1      45.672  29.808  34.921  1.00  0.00     0.173 A 
ATOM     87  C   UNL A   1      44.660  27.928  36.025  1.00  0.00     0.173 A 
ATOM     88  F   UNL A   1      45.586  30.969  34.256  1.00  0.00    -0.203 F 
ATOM     89  C   UNL A   1      46.933  29.258  35.151  1.00  0.00     0.198 A 
ATOM     90  C   UNL A   1      45.921  27.397  36.280  1.00  0.00     0.198 A 
ATOM     91  F   UNL A   1      43.581  27.260  36.462  1.00  0.00    -0.203 F 
ATOM     92  F   UNL A   1      48.027  29.886  34.700  1.00  0.00    -0.200 F 
ATOM     93  C   UNL A   1      47.056  28.060  35.838  1.00  0.00     0.200 A 
ATOM     94  F   UNL A   1      46.039  26.248  36.959  1.00  0.00    -0.200 F 
ATOM     95  F   UNL A   1      48.269  27.541  36.072  1.00  0.00    -0.200 F 
ENDBRANCH  62  85
ENDBRANCH  36  37
ENDBRANCH  29  31
ENDBRANCH  28  29
ENDBRANCH  27  28
ENDBRANCH  26  27
ENDBRANCH  25  26
ENDBRANCH  24  25
ENDBRANCH   1  24
TORSDOF 22
ENDMDL
MODEL 2
REMARK VINA RESULT:      -9.9      6.802     12.101
REMARK SMILES CCC(CC)(NC(=O)N[C@H](C)C1CC1)C(=O)OCCOCCOCCOC(=O)c1ccc(-c2c3nc(c(-c4c(F)c(F)c(F)c(F)c4F)c4ccc([nH]4)c(-c4c(F)c(F)c(F)c(F)c4F)c4nc(c(-c5c(F)c(F)c(F)c(F)c5F)c5ccc2[nH]5)C=C4)C=C3)cc1
REMARK SMILES IDX 21 1 20 2 19 3 18 4 17 5 15 6 16 7 3 8 2 9 1 10 4 11 5 12
REMARK SMILES IDX 6 13 7 14 8 16 9 17 10 19 11 20 12 21 13 22 14 23 22 24
REMARK SMILES IDX 23 25 24 26 25 27 26 28 27 29 28 30 29 31 30 32 91 33 31 34
REMARK SMILES IDX 90 35 32 36 33 37 34 38 84 39 35 40 89 41 83 42 85 43 36 44
REMARK SMILES IDX 88 45 82 46 81 47 37 49 69 50 49 51 68 52 50 53 53 54 67 55
REMARK SMILES IDX 86 56 51 57 52 58 66 60 87 61 54 62 38 63 39 64 47 65 40 66
REMARK SMILES IDX 41 67 45 68 48 69 42 70 43 71 46 72 44 73 70 74 71 75 79 76
REMARK SMILES IDX 72 77 73 78 77 79 80 80 74 81 75 82 78 83 76 84 55 85 56 86
REMARK SMILES IDX 64 87 57 88 58 89 62 90 65 91 59 92 60 93 63 94 61 95
REMARK H PARENT 6 15 9 18 85 48 53 59
REMARK Flexibility Score: inf
ROOT
ATOM      1  C   UNL A   1      39.393  22.235  26.202  1.00  0.00     0.188 C 
ENDROOT
BRANCH   1   2
ATOM      2  O   UNL A   1      38.013  22.376  25.818  1.00  0.00    -0.376 OA
BRANCH   2   3
ATOM      3  C   UNL A   1      37.403  23.608  25.412  1.00  0.00     0.202 C 
BRANCH   3   4
ATOM      4  C   UNL A   1      36.030  23.372  24.633  1.00  0.00     0.261 C 
BRANCH   4   5
ATOM      5  O   UNL A   1      35.003  24.370  24.993  1.00  0.00    -0.461 OA
BRANCH   5   6
ATOM      6  C   UNL A   1      34.067  24.279  26.029  1.00  0.00     0.331 C 
ATOM      7  O   UNL A   1      34.181  23.502  26.970  1.00  0.00    -0.249 OA
BRANCH   6   8
ATOM      8  C   UNL A   1      32.764  25.259  25.799  1.00  0.00     0.139 C 
BRANCH   8   9
ATOM      9  C   UNL A   1      31.792  25.394  24.559  1.00  0.00     0.037 C 
ATOM     10  C   UNL A   1      30.416  26.002  24.561  1.00  0.00     0.007 C 
ENDBRANCH   8   9
BRANCH   8  11
ATOM     11  C   UNL A   1      33.261  26.673  26.221  1.00  0.00     0.037 C 
ATOM     12  C   UNL A   1      33.588  27.665  25.107  1.00  0.00     0.007 C 
ENDBRANCH   8  11
BRANCH   8  13
ATOM     13  N   UNL A   1      31.841  24.677  26.743  1.00  0.00    -0.322 N 
ATOM     14  C   UNL A   1      31.304  23.462  26.546  1.00  0.00     0.315 C 
ATOM     15  H   UNL A   1      31.601  25.183  27.553  1.00  0.00     0.166 HD
ATOM     16  O   UNL A   1      30.527  23.041  27.403  1.00  0.00    -0.249 OA
ATOM     17  N   UNL A   1      31.672  22.637  25.551  1.00  0.00    -0.335 N 
ATOM     18  H   UNL A   1      31.262  21.796  25.856  1.00  0.00     0.165 HD
BRANCH  17  19
ATOM     19  C   UNL A   1      32.316  22.176  24.260  1.00  0.00     0.083 C 
ATOM     20  C   UNL A   1      31.764  22.230  22.839  1.00  0.00     0.031 C 
BRANCH  19  21
ATOM     21  C   UNL A   1      33.193  20.986  24.567  1.00  0.00     0.011 C 
ATOM     22  C   UNL A   1      33.226  20.249  25.888  1.00  0.00     0.006 C 
ATOM     23  C   UNL A   1      32.483  19.652  24.735  1.00  0.00     0.006 C 
ENDBRANCH  19  21
ENDBRANCH  17  19
ENDBRANCH   8  13
ENDBRANCH   6   8
ENDBRANCH   5   6
ENDBRANCH   4   5
ENDBRANCH   3   4
ENDBRANCH   2   3
ENDBRANCH   1   2
BRANCH   1  24
ATOM     24  C   UNL A   1      40.050  20.852  26.197  1.00  0.00     0.188 C 
BRANCH  24  25
ATOM     25  O   UNL A   1      41.378  20.855  26.707  1.00  0.00    -0.376 OA
BRANCH  25  26
ATOM     26  C   UNL A   1      41.850  19.612  27.227  1.00  0.00     0.202 C 
BRANCH  26  27
ATOM     27  C   UNL A   1      42.700  18.746  26.282  1.00  0.00     0.261 C 
BRANCH  27  28
ATOM     28  O   UNL A   1      42.900  19.313  24.962  1.00  0.00    -0.460 OA
BRANCH  28  29
ATOM     29  C   UNL A   1      44.200  19.434  24.572  1.00  0.00     0.338 C 
ATOM     30  O   UNL A   1      44.904  18.564  24.091  1.00  0.00    -0.246 OA
BRANCH  29  31
ATOM     31  C   UNL A   1      44.714  20.805  24.789  1.00  0.00     0.060 A 
ATOM     32  C   UNL A   1      45.092  21.212  26.076  1.00  0.00     0.016 A 
ATOM     33  C   UNL A   1      44.618  21.746  23.761  1.00  0.00     0.016 A 
ATOM     34  C   UNL A   1      45.351  22.568  26.344  1.00  0.00     0.010 A 
ATOM     35  C   UNL A   1      44.872  23.097  24.033  1.00  0.00     0.010 A 
ATOM     36  C   UNL A   1      45.212  23.528  25.330  1.00  0.00    -0.014 A 
BRANCH  36  37
ATOM     37  C   UNL A   1      45.281  24.997  25.587  1.00  0.00     0.031 A 
ATOM     38  C   UNL A   1      46.622  25.683  25.545  1.00  0.00     0.074 A 
ATOM     39  C   UNL A   1      44.199  25.695  25.979  1.00  0.00     0.049 A 
ATOM     40  N   UNL A   1      46.978  26.851  26.019  1.00  0.00    -0.248 NA
ATOM     41  C   UNL A   1      47.711  24.942  24.891  1.00  0.00     0.031 C 
ATOM     42  C   UNL A   1      42.832  25.184  26.016  1.00  0.00     0.029 A 
ATOM     43  N   UNL A   1      44.093  26.976  26.476  1.00  0.00    -0.354 N 
ATOM     44  C   UNL A   1      48.338  26.968  25.757  1.00  0.00     0.074 A 
ATOM     45  C   UNL A   1      48.741  25.758  25.075  1.00  0.00     0.031 C 
ATOM     46  C   UNL A   1      42.033  26.118  26.561  1.00  0.00     0.029 A 
ATOM     47  C   UNL A   1      42.840  27.270  26.964  1.00  0.00     0.049 A 
ATOM     48  H   UNL A   1      44.840  27.617  26.482  1.00  0.00     0.167 HD
ATOM     49  C   UNL A   1      49.174  27.987  26.071  1.00  0.00     0.037 A 
ATOM     50  C   UNL A   1      42.411  28.314  27.705  1.00  0.00     0.037 A 
ATOM     51  C   UNL A   1      48.771  29.203  26.730  1.00  0.00     0.049 A 
ATOM     52  C   UNL A   1      43.380  29.398  28.113  1.00  0.00     0.074 A 
ATOM     53  C   UNL A   1      49.540  30.315  27.031  1.00  0.00     0.029 A 
ATOM     54  N   UNL A   1      47.495  29.460  27.202  1.00  0.00    -0.354 N 
ATOM     55  N   UNL A   1      44.656  29.520  27.837  1.00  0.00    -0.248 NA
ATOM     56  C   UNL A   1      42.850  30.488  28.951  1.00  0.00     0.031 C 
ATOM     57  C   UNL A   1      48.746  31.216  27.746  1.00  0.00     0.029 A 
ATOM     58  C   UNL A   1      47.467  30.693  27.835  1.00  0.00     0.049 A 
ATOM     59  H   UNL A   1      46.723  28.857  27.105  1.00  0.00     0.167 HD
ATOM     60  C   UNL A   1      45.070  30.702  28.441  1.00  0.00     0.074 A 
ATOM     61  C   UNL A   1      43.909  31.274  29.085  1.00  0.00     0.031 C 
ATOM     62  C   UNL A   1      46.304  31.263  28.464  1.00  0.00     0.037 A 
BRANCH  49  63
ATOM     63  C   UNL A   1      50.631  27.833  25.749  1.00  0.00     0.064 A 
ATOM     64  C   UNL A   1      51.568  27.442  26.715  1.00  0.00     0.173 A 
ATOM     65  C   UNL A   1      51.077  27.990  24.426  1.00  0.00     0.173 A 
ATOM     66  F   UNL A   1      51.194  27.284  27.993  1.00  0.00    -0.203 F 
ATOM     67  C   UNL A   1      52.900  27.222  26.370  1.00  0.00     0.198 A 
ATOM     68  C   UNL A   1      52.402  27.743  24.081  1.00  0.00     0.198 A 
ATOM     69  F   UNL A   1      50.218  28.354  23.462  1.00  0.00    -0.203 F 
ATOM     70  F   UNL A   1      53.785  26.870  27.314  1.00  0.00    -0.200 F 
ATOM     71  C   UNL A   1      53.313  27.361  25.054  1.00  0.00     0.200 A 
ATOM     72  F   UNL A   1      52.794  27.861  22.805  1.00  0.00    -0.200 F 
ATOM     73  F   UNL A   1      54.591  27.127  24.721  1.00  0.00    -0.200 F 
ENDBRANCH  49  63
BRANCH  50  74
ATOM     74  C   UNL A   1      41.002  28.362  28.189  1.00  0.00     0.064 A 
ATOM     75  C   UNL A   1      39.986  28.933  27.408  1.00  0.00     0.173 A 
ATOM     76  C   UNL A   1      40.655  27.904  29.469  1.00  0.00     0.173 A 
ATOM     77  F   UNL A   1      40.272  29.421  26.192  1.00  0.00    -0.203 F 
ATOM     78  C   UNL A   1      38.689  29.073  27.901  1.00  0.00     0.198 A 
ATOM     79  C   UNL A   1      39.350  28.011  29.946  1.00  0.00     0.198 A 
ATOM     80  F   UNL A   1      41.587  27.358  30.264  1.00  0.00    -0.203 F 
ATOM     81  F   UNL A   1      37.757  29.688  27.160  1.00  0.00    -0.200 F 
ATOM     82  C   UNL A   1      38.371  28.607  29.167  1.00  0.00     0.200 A 
ATOM     83  F   UNL A   1      39.045  27.550  31.167  1.00  0.00    -0.200 F 
ATOM     84  F   UNL A   1      37.127  28.748  29.643  1.00  0.00    -0.200 F 
ENDBRANCH  50  74
BRANCH  62  85
ATOM     85  C   UNL A   1      46.469  32.575  29.178  1.00  0.00     0.064 A 
ATOM     86  C   UNL A   1      46.233  33.798  28.532  1.00  0.00     0.173 A 
ATOM     87  C   UNL A   1      46.803  32.608  30.541  1.00  0.00     0.173 A 
ATOM     88  F   UNL A   1      45.926  33.825  27.227  1.00  0.00    -0.203 F 
ATOM     89  C   UNL A   1      46.341  35.005  29.221  1.00  0.00     0.198 A 
ATOM     90  C   UNL A   1      46.880  33.813  31.234  1.00  0.00     0.198 A 
ATOM     91  F   UNL A   1      47.031  31.466  31.209  1.00  0.00    -0.203 F 
ATOM     92  F   UNL A   1      46.149  36.162  28.575  1.00  0.00    -0.200 F 
ATOM     93  C   UNL A   1      46.654  35.010  30.572  1.00  0.00     0.200 A 
ATOM     94  F   UNL A   1      47.166  33.815  32.543  1.00  0.00    -0.200 F 
ATOM     95  F   UNL A   1      46.742  36.170  31.238  1.00  0.00    -0.200 F 
ENDBRANCH  62  85
ENDBRANCH  36  37
ENDBRANCH  29  31
ENDBRANCH  28  29
ENDBRANCH  27  28
ENDBRANCH  26  27
ENDBRANCH  25  26
ENDBRANCH  24  25
ENDBRANCH   1  24
TORSDOF 22
ENDMDL
MODEL 3
REMARK VINA RESULT:      -9.7      1.289      2.649
REMARK SMILES CCC(CC)(NC(=O)N[C@H](C)C1CC1)C(=O)OCCOCCOCCOC(=O)c1ccc(-c2c3nc(c(-c4c(F)c(F)c(F)c(F)c4F)c4ccc([nH]4)c(-c4c(F)c(F)c(F)c(F)c4F)c4nc(c(-c5c(F)c(F)c(F)c(F)c5F)c5ccc2[nH]5)C=C4)C=C3)cc1
REMARK SMILES IDX 21 1 20 2 19 3 18 4 17 5 15 6 16 7 3 8 2 9 1 10 4 11 5 12
REMARK SMILES IDX 6 13 7 14 8 16 9 17 10 19 11 20 12 21 13 22 14 23 22 24
REMARK SMILES IDX 23 25 24 26 25 27 26 28 27 29 28 30 29 31 30 32 91 33 31 34
REMARK SMILES IDX 90 35 32 36 33 37 34 38 84 39 35 40 89 41 83 42 85 43 36 44
REMARK SMILES IDX 88 45 82 46 81 47 37 49 69 50 49 51 68 52 50 53 53 54 67 55
REMARK SMILES IDX 86 56 51 57 52 58 66 60 87 61 54 62 38 63 39 64 47 65 40 66
REMARK SMILES IDX 41 67 45 68 48 69 42 70 43 71 46 72 44 73 70 74 71 75 79 76
REMARK SMILES IDX 72 77 73 78 77 79 80 80 74 81 75 82 78 83 76 84 55 85 56 86
REMARK SMILES IDX 64 87 57 88 58 89 62 90 65 91 59 92 60 93 63 94 61 95
REMARK H PARENT 6 15 9 18 85 48 53 59
REMARK Flexibility Score: inf
ROOT
ATOM      1  C   UNL A   1      34.056  31.562  28.287  1.00  0.00     0.188 C 
ENDROOT
BRANCH   1   2
ATOM      2  O   UNL A   1      34.087  30.466  27.354  1.00  0.00    -0.376 OA
BRANCH   2   3
ATOM      3  C   UNL A   1      33.033  30.149  26.435  1.00  0.00     0.202 C 
BRANCH   3   4
ATOM      4  C   UNL A   1      32.094  28.977  26.977  1.00  0.00     0.261 C 
BRANCH   4   5
ATOM      5  O   UNL A   1      32.344  27.695  26.288  1.00  0.00    -0.461 OA
BRANCH   5   6
ATOM      6  C   UNL A   1      33.213  27.471  25.214  1.00  0.00     0.331 C 
ATOM      7  O   UNL A   1      33.770  28.375  24.602  1.00  0.00    -0.249 OA
BRANCH   6   8
ATOM      8  C   UNL A   1      33.329  25.878  24.810  1.00  0.00     0.139 C 
BRANCH   8   9
ATOM      9  C   UNL A   1      32.206  24.775  24.669  1.00  0.00     0.037 C 
ATOM     10  C   UNL A   1      31.387  24.182  25.783  1.00  0.00     0.007 C 
ENDBRANCH   8   9
BRANCH   8  11
ATOM     11  C   UNL A   1      34.479  25.333  25.708  1.00  0.00     0.037 C 
ATOM     12  C   UNL A   1      35.032  23.948  25.378  1.00  0.00     0.007 C 
ENDBRANCH   8  11
BRANCH   8  13
ATOM     13  N   UNL A   1      33.702  25.998  23.421  1.00  0.00    -0.322 N 
ATOM     14  C   UNL A   1      32.840  26.453  22.497  1.00  0.00     0.315 C 
ATOM     15  H   UNL A   1      34.610  25.740  23.144  1.00  0.00     0.166 HD
ATOM     16  O   UNL A   1      33.241  26.525  21.336  1.00  0.00    -0.249 OA
ATOM     17  N   UNL A   1      31.630  26.960  22.792  1.00  0.00    -0.335 N 
ATOM     18  H   UNL A   1      31.403  27.388  21.935  1.00  0.00     0.165 HD
BRANCH  17  19
ATOM     19  C   UNL A   1      30.394  27.292  23.601  1.00  0.00     0.083 C 
ATOM     20  C   UNL A   1      29.185  26.416  23.911  1.00  0.00     0.031 C 
BRANCH  19  21
ATOM     21  C   UNL A   1      30.098  28.764  23.431  1.00  0.00     0.011 C 
ATOM     22  C   UNL A   1      30.178  29.520  22.123  1.00  0.00     0.006 C 
ATOM     23  C   UNL A   1      28.840  29.111  22.653  1.00  0.00     0.006 C 
ENDBRANCH  19  21
ENDBRANCH  17  19
ENDBRANCH   8  13
ENDBRANCH   6   8
ENDBRANCH   5   6
ENDBRANCH   4   5
ENDBRANCH   3   4
ENDBRANCH   2   3
ENDBRANCH   1   2
BRANCH   1  24
ATOM     24  C   UNL A   1      34.449  32.967  27.825  1.00  0.00     0.188 C 
BRANCH  24  25
ATOM     25  O   UNL A   1      34.528  33.910  28.888  1.00  0.00    -0.376 OA
BRANCH  25  26
ATOM     26  C   UNL A   1      34.283  35.272  28.534  1.00  0.00     0.202 C 
BRANCH  26  27
ATOM     27  C   UNL A   1      33.128  35.978  29.265  1.00  0.00     0.261 C 
BRANCH  27  28
ATOM     28  O   UNL A   1      32.526  35.202  30.332  1.00  0.00    -0.460 OA
BRANCH  28  29
ATOM     29  C   UNL A   1      32.646  35.738  31.580  1.00  0.00     0.338 C 
ATOM     30  O   UNL A   1      31.983  36.642  32.056  1.00  0.00    -0.246 OA
BRANCH  29  31
ATOM     31  C   UNL A   1      33.717  35.077  32.360  1.00  0.00     0.060 A 
ATOM     32  C   UNL A   1      35.023  35.583  32.318  1.00  0.00     0.016 A 
ATOM     33  C   UNL A   1      33.468  33.839  32.956  1.00  0.00     0.016 A 
ATOM     34  C   UNL A   1      36.090  34.838  32.852  1.00  0.00     0.010 A 
ATOM     35  C   UNL A   1      34.534  33.097  33.483  1.00  0.00     0.010 A 
ATOM     36  C   UNL A   1      35.858  33.572  33.412  1.00  0.00    -0.014 A 
BRANCH  36  37
ATOM     37  C   UNL A   1      36.960  32.650  33.818  1.00  0.00     0.031 A 
ATOM     38  C   UNL A   1      37.717  32.934  35.090  1.00  0.00     0.074 A 
ATOM     39  C   UNL A   1      37.374  31.651  33.017  1.00  0.00     0.049 A 
ATOM     40  N   UNL A   1      38.877  32.475  35.491  1.00  0.00    -0.248 NA
ATOM     41  C   UNL A   1      37.083  33.872  36.028  1.00  0.00     0.031 C 
ATOM     42  C   UNL A   1      36.712  31.225  31.788  1.00  0.00     0.029 A 
ATOM     43  N   UNL A   1      38.491  30.848  33.093  1.00  0.00    -0.354 N 
ATOM     44  C   UNL A   1      39.131  33.100  36.707  1.00  0.00     0.074 A 
ATOM     45  C   UNL A   1      38.001  33.960  36.983  1.00  0.00     0.031 C 
ATOM     46  C   UNL A   1      37.462  30.279  31.195  1.00  0.00     0.029 A 
ATOM     47  C   UNL A   1      38.685  30.074  31.972  1.00  0.00     0.049 A 
ATOM     48  H   UNL A   1      39.091  30.831  33.873  1.00  0.00     0.167 HD
ATOM     49  C   UNL A   1      40.214  32.975  37.510  1.00  0.00     0.037 A 
ATOM     50  C   UNL A   1      39.750  29.339  31.587  1.00  0.00     0.037 A 
ATOM     51  C   UNL A   1      41.330  32.103  37.249  1.00  0.00     0.049 A 
ATOM     52  C   UNL A   1      40.981  29.281  32.462  1.00  0.00     0.074 A 
ATOM     53  C   UNL A   1      42.443  31.867  38.040  1.00  0.00     0.029 A 
ATOM     54  N   UNL A   1      41.484  31.336  36.106  1.00  0.00    -0.354 N 
ATOM     55  N   UNL A   1      41.204  29.846  33.623  1.00  0.00    -0.248 NA
ATOM     56  C   UNL A   1      42.118  28.489  31.962  1.00  0.00     0.031 C 
ATOM     57  C   UNL A   1      43.300  31.010  37.346  1.00  0.00     0.029 A 
ATOM     58  C   UNL A   1      42.694  30.662  36.150  1.00  0.00     0.049 A 
ATOM     59  H   UNL A   1      40.830  31.278  35.372  1.00  0.00     0.167 HD
ATOM     60  C   UNL A   1      42.486  29.461  34.000  1.00  0.00     0.074 A 
ATOM     61  C   UNL A   1      42.989  28.597  32.955  1.00  0.00     0.031 C 
ATOM     62  C   UNL A   1      43.185  29.795  35.111  1.00  0.00     0.037 A 
BRANCH  49  63
ATOM     63  C   UNL A   1      40.286  33.830  38.741  1.00  0.00     0.064 A 
ATOM     64  C   UNL A   1      39.711  33.433  39.955  1.00  0.00     0.173 A 
ATOM     65  C   UNL A   1      41.027  35.023  38.724  1.00  0.00     0.173 A 
ATOM     66  F   UNL A   1      38.988  32.305  40.024  1.00  0.00    -0.203 F 
ATOM     67  C   UNL A   1      39.866  34.205  41.106  1.00  0.00     0.198 A 
ATOM     68  C   UNL A   1      41.204  35.776  39.880  1.00  0.00     0.198 A 
ATOM     69  F   UNL A   1      41.607  35.441  37.588  1.00  0.00    -0.203 F 
ATOM     70  F   UNL A   1      39.288  33.819  42.252  1.00  0.00    -0.200 F 
ATOM     71  C   UNL A   1      40.621  35.368  41.069  1.00  0.00     0.200 A 
ATOM     72  F   UNL A   1      41.949  36.890  39.846  1.00  0.00    -0.200 F 
ATOM     73  F   UNL A   1      40.787  36.096  42.183  1.00  0.00    -0.200 F 
ENDBRANCH  49  63
BRANCH  50  74
ATOM     74  C   UNL A   1      39.748  28.649  30.266  1.00  0.00     0.064 A 
ATOM     75  C   UNL A   1      39.257  27.341  30.133  1.00  0.00     0.173 A 
ATOM     76  C   UNL A   1      40.302  29.253  29.127  1.00  0.00     0.173 A 
ATOM     77  F   UNL A   1      38.752  26.704  31.199  1.00  0.00    -0.203 F 
ATOM     78  C   UNL A   1      39.349  26.656  28.922  1.00  0.00     0.198 A 
ATOM     79  C   UNL A   1      40.361  28.580  27.908  1.00  0.00     0.198 A 
ATOM     80  F   UNL A   1      40.797  30.498  29.199  1.00  0.00    -0.203 F 
ATOM     81  F   UNL A   1      38.938  25.383  28.843  1.00  0.00    -0.200 F 
ATOM     82  C   UNL A   1      39.896  27.278  27.809  1.00  0.00     0.200 A 
ATOM     83  F   UNL A   1      40.881  29.188  26.834  1.00  0.00    -0.200 F 
ATOM     84  F   UNL A   1      39.992  26.616  26.648  1.00  0.00    -0.200 F 
ENDBRANCH  50  74
BRANCH  62  85
ATOM     85  C   UNL A   1      44.559  29.208  35.283  1.00  0.00     0.064 A 
ATOM     86  C   UNL A   1      44.754  27.962  35.897  1.00  0.00     0.173 A 
ATOM     87  C   UNL A   1      45.685  29.870  34.769  1.00  0.00     0.173 A 
ATOM     88  F   UNL A   1      43.715  27.295  36.419  1.00  0.00    -0.203 F 
ATOM     89  C   UNL A   1      46.029  27.408  36.003  1.00  0.00     0.198 A 
ATOM     90  C   UNL A   1      46.952  29.300  34.849  1.00  0.00     0.198 A 
ATOM     91  F   UNL A   1      45.553  31.061  34.165  1.00  0.00    -0.203 F 
ATOM     92  F   UNL A   1      46.197  26.235  36.628  1.00  0.00    -0.200 F 
ATOM     93  C   UNL A   1      47.124  28.072  35.471  1.00  0.00     0.200 A 
ATOM     94  F   UNL A   1      48.007  29.935  34.320  1.00  0.00    -0.200 F 
ATOM     95  F   UNL A   1      48.347  27.531  35.560  1.00  0.00    -0.200 F 
ENDBRANCH  62  85
ENDBRANCH  36  37
ENDBRANCH  29  31
ENDBRANCH  28  29
ENDBRANCH  27  28
ENDBRANCH  26  27
ENDBRANCH  25  26
ENDBRANCH  24  25
ENDBRANCH   1  24
TORSDOF 22
ENDMDL
