MODEL 1
REMARK VINA RESULT:     -11.6      0.000      0.000
REMARK SMILES O=C(Cc1ccc(F)c(F)c1)NC1(C(=O)OCCOCCOCCOC(=O)c2ccc(-c3c4nc(c(-c5c(F)c(F)c(F)c(F)c5F)c5ccc([nH]5)c(-c5c(F)c(F)c(F)c(F)c5F)c5nc(c(-c6c(F)c(F)c(F)c(F)c6F)c6ccc3[nH]6)C=C5)C=C4)cc2)CCCC1
REMARK SMILES IDX 20 1 19 2 18 3 17 4 16 5 14 6 15 7 13 8 91 9 94 10 92 11
REMARK SMILES IDX 93 12 12 13 1 14 2 15 3 17 4 18 5 19 11 20 6 21 9 22 7 23
REMARK SMILES IDX 10 24 8 25 21 26 22 27 23 28 24 29 25 30 26 31 27 32 28 33
REMARK SMILES IDX 29 34 90 35 30 36 89 37 31 38 32 39 33 40 83 41 34 42 88 43
REMARK SMILES IDX 82 44 84 45 35 46 87 47 81 48 80 49 36 51 68 52 48 53 67 54
REMARK SMILES IDX 49 55 52 56 66 57 85 58 50 59 51 60 65 62 86 63 53 64 37 65
REMARK SMILES IDX 38 66 46 67 39 68 40 69 44 70 47 71 41 72 42 73 45 74 43 75
REMARK SMILES IDX 69 76 70 77 78 78 71 79 72 80 76 81 79 82 73 83 74 84 77 85
REMARK SMILES IDX 75 86 54 87 55 88 63 89 56 90 57 91 61 92 64 93 58 94 59 95
REMARK SMILES IDX 62 96 60 97
REMARK H PARENT 12 16 84 50 52 61
REMARK Flexibility Score: inf
ROOT
ATOM      1  C   UNL A   1      31.962  27.080  22.760  1.00  0.00     0.188 C 
ENDROOT
BRANCH   1   2
ATOM      2  O   UNL A   1      31.959  26.523  21.462  1.00  0.00    -0.376 OA
BRANCH   2   3
ATOM      3  C   UNL A   1      32.801  25.404  21.194  1.00  0.00     0.202 C 
BRANCH   3   4
ATOM      4  C   UNL A   1      33.021  24.300  22.253  1.00  0.00     0.261 C 
BRANCH   4   5
ATOM      5  O   UNL A   1      34.373  24.128  22.752  1.00  0.00    -0.461 OA
BRANCH   5   6
ATOM      6  C   UNL A   1      34.518  24.167  24.104  1.00  0.00     0.331 C 
ATOM      7  O   UNL A   1      34.096  25.094  24.793  1.00  0.00    -0.249 OA
BRANCH   6   8
ATOM      8  C   UNL A   1      35.218  22.916  24.734  1.00  0.00     0.138 C 
ATOM      9  C   UNL A   1      35.720  23.310  26.129  1.00  0.00     0.040 C 
ATOM     10  C   UNL A   1      36.518  22.346  24.134  1.00  0.00     0.040 C 
ATOM     11  C   UNL A   1      37.089  23.937  25.861  1.00  0.00     0.003 C 
ATOM     12  C   UNL A   1      37.668  23.174  24.681  1.00  0.00     0.003 C 
BRANCH   8  13
ATOM     13  N   UNL A   1      34.201  21.838  24.673  1.00  0.00    -0.340 N 
ATOM     14  O   UNL A   1      32.931  22.379  26.520  1.00  0.00    -0.275 OA
ATOM     15  C   UNL A   1      33.093  21.734  25.490  1.00  0.00     0.225 C 
ATOM     16  H   UNL A   1      34.326  21.138  23.992  1.00  0.00     0.164 HD
BRANCH  15  17
ATOM     17  C   UNL A   1      32.063  20.724  24.998  1.00  0.00     0.135 C 
BRANCH  17  18
ATOM     18  C   UNL A   1      32.706  19.527  24.334  1.00  0.00    -0.036 A 
ATOM     19  C   UNL A   1      32.228  19.051  23.103  1.00  0.00     0.007 A 
ATOM     20  C   UNL A   1      33.766  18.850  24.954  1.00  0.00     0.046 A 
ATOM     21  C   UNL A   1      32.771  17.901  22.523  1.00  0.00     0.043 A 
ATOM     22  C   UNL A   1      34.331  17.731  24.348  1.00  0.00     0.159 A 
ATOM     23  C   UNL A   1      33.832  17.255  23.144  1.00  0.00     0.158 A 
ATOM     24  F   UNL A   1      35.378  17.124  24.924  1.00  0.00    -0.204 F 
ATOM     25  F   UNL A   1      34.401  16.202  22.542  1.00  0.00    -0.204 F 
ENDBRANCH  17  18
ENDBRANCH  15  17
ENDBRANCH   8  13
ENDBRANCH   6   8
ENDBRANCH   5   6
ENDBRANCH   4   5
ENDBRANCH   3   4
ENDBRANCH   2   3
ENDBRANCH   1   2
BRANCH   1  26
ATOM     26  C   UNL A   1      30.817  28.005  23.168  1.00  0.00     0.188 C 
BRANCH  26  27
ATOM     27  O   UNL A   1      30.761  28.386  24.516  1.00  0.00    -0.376 OA
BRANCH  27  28
ATOM     28  C   UNL A   1      31.330  29.612  24.947  1.00  0.00     0.202 C 
BRANCH  28  29
ATOM     29  C   UNL A   1      32.731  29.758  25.575  1.00  0.00     0.261 C 
BRANCH  29  30
ATOM     30  O   UNL A   1      32.823  30.122  26.957  1.00  0.00    -0.460 OA
BRANCH  30  31
ATOM     31  C   UNL A   1      33.415  31.303  27.248  1.00  0.00     0.338 C 
ATOM     32  O   UNL A   1      32.901  32.410  27.250  1.00  0.00    -0.246 OA
BRANCH  31  33
ATOM     33  C   UNL A   1      34.737  30.988  27.835  1.00  0.00     0.060 A 
ATOM     34  C   UNL A   1      35.064  29.650  28.115  1.00  0.00     0.016 A 
ATOM     35  C   UNL A   1      35.667  32.003  28.059  1.00  0.00     0.016 A 
ATOM     36  C   UNL A   1      36.321  29.328  28.633  1.00  0.00     0.010 A 
ATOM     37  C   UNL A   1      36.907  31.684  28.612  1.00  0.00     0.010 A 
ATOM     38  C   UNL A   1      37.230  30.352  28.924  1.00  0.00    -0.014 A 
BRANCH  38  39
ATOM     39  C   UNL A   1      38.442  30.083  29.733  1.00  0.00     0.031 A 
ATOM     40  C   UNL A   1      39.464  29.143  29.176  1.00  0.00     0.074 A 
ATOM     41  C   UNL A   1      38.611  30.609  30.956  1.00  0.00     0.049 A 
ATOM     42  N   UNL A   1      40.498  28.603  29.763  1.00  0.00    -0.248 NA
ATOM     43  C   UNL A   1      39.282  28.744  27.772  1.00  0.00     0.031 C 
ATOM     44  C   UNL A   1      37.699  31.554  31.579  1.00  0.00     0.029 A 
ATOM     45  N   UNL A   1      39.588  30.410  31.899  1.00  0.00    -0.354 N 
ATOM     46  C   UNL A   1      41.071  27.774  28.813  1.00  0.00     0.074 A 
ATOM     47  C   UNL A   1      40.269  27.874  27.613  1.00  0.00     0.031 C 
ATOM     48  C   UNL A   1      38.151  31.857  32.807  1.00  0.00     0.029 A 
ATOM     49  C   UNL A   1      39.353  31.075  33.079  1.00  0.00     0.049 A 
ATOM     50  H   UNL A   1      40.381  29.845  31.746  1.00  0.00     0.167 HD
ATOM     51  C   UNL A   1      42.166  26.991  28.943  1.00  0.00     0.037 A 
ATOM     52  C   UNL A   1      40.001  31.022  34.260  1.00  0.00     0.037 A 
ATOM     53  C   UNL A   1      42.950  26.896  30.146  1.00  0.00     0.049 A 
ATOM     54  C   UNL A   1      41.185  30.101  34.399  1.00  0.00     0.074 A 
ATOM     55  C   UNL A   1      44.086  26.139  30.371  1.00  0.00     0.029 A 
ATOM     56  N   UNL A   1      42.676  27.569  31.328  1.00  0.00    -0.354 N 
ATOM     57  N   UNL A   1      41.724  29.311  33.501  1.00  0.00    -0.248 NA
ATOM     58  C   UNL A   1      41.839  30.049  35.713  1.00  0.00     0.031 C 
ATOM     59  C   UNL A   1      44.463  26.307  31.706  1.00  0.00     0.029 A 
ATOM     60  C   UNL A   1      43.606  27.223  32.297  1.00  0.00     0.049 A 
ATOM     61  H   UNL A   1      41.931  28.200  31.460  1.00  0.00     0.167 HD
ATOM     62  C   UNL A   1      42.783  28.674  34.135  1.00  0.00     0.074 A 
ATOM     63  C   UNL A   1      42.829  29.193  35.487  1.00  0.00     0.031 C 
ATOM     64  C   UNL A   1      43.634  27.740  33.644  1.00  0.00     0.037 A 
BRANCH  51  65
ATOM     65  C   UNL A   1      42.552  26.145  27.768  1.00  0.00     0.064 A 
ATOM     66  C   UNL A   1      43.531  26.593  26.868  1.00  0.00     0.173 A 
ATOM     67  C   UNL A   1      41.936  24.911  27.509  1.00  0.00     0.173 A 
ATOM     68  F   UNL A   1      44.157  27.761  27.076  1.00  0.00    -0.203 F 
ATOM     69  C   UNL A   1      43.864  25.847  25.742  1.00  0.00     0.198 A 
ATOM     70  C   UNL A   1      42.297  24.152  26.399  1.00  0.00     0.198 A 
ATOM     71  F   UNL A   1      41.014  24.426  28.353  1.00  0.00    -0.203 F 
ATOM     72  F   UNL A   1      44.779  26.311  24.880  1.00  0.00    -0.200 F 
ATOM     73  C   UNL A   1      43.251  24.625  25.510  1.00  0.00     0.200 A 
ATOM     74  F   UNL A   1      41.728  22.956  26.196  1.00  0.00    -0.200 F 
ATOM     75  F   UNL A   1      43.584  23.900  24.434  1.00  0.00    -0.200 F 
ENDBRANCH  51  65
BRANCH  52  76
ATOM     76  C   UNL A   1      39.529  31.850  35.404  1.00  0.00     0.064 A 
ATOM     77  C   UNL A   1      38.604  31.354  36.338  1.00  0.00     0.173 A 
ATOM     78  C   UNL A   1      39.977  33.167  35.576  1.00  0.00     0.173 A 
ATOM     79  F   UNL A   1      38.151  30.096  36.230  1.00  0.00    -0.203 F 
ATOM     80  C   UNL A   1      38.125  32.152  37.375  1.00  0.00     0.198 A 
ATOM     81  C   UNL A   1      39.522  33.953  36.634  1.00  0.00     0.198 A 
ATOM     82  F   UNL A   1      40.888  33.677  34.734  1.00  0.00    -0.203 F 
ATOM     83  F   UNL A   1      37.220  31.659  38.233  1.00  0.00    -0.200 F 
ATOM     84  C   UNL A   1      38.587  33.449  37.525  1.00  0.00     0.200 A 
ATOM     85  F   UNL A   1      40.003  35.194  36.797  1.00  0.00    -0.200 F 
ATOM     86  F   UNL A   1      38.145  34.209  38.537  1.00  0.00    -0.200 F 
ENDBRANCH  52  76
BRANCH  64  87
ATOM     87  C   UNL A   1      44.702  27.220  34.564  1.00  0.00     0.064 A 
ATOM     88  C   UNL A   1      45.957  27.848  34.626  1.00  0.00     0.173 A 
ATOM     89  C   UNL A   1      44.508  26.067  35.340  1.00  0.00     0.173 A 
ATOM     90  F   UNL A   1      46.200  28.948  33.897  1.00  0.00    -0.203 F 
ATOM     91  C   UNL A   1      46.980  27.333  35.418  1.00  0.00     0.198 A 
ATOM     92  C   UNL A   1      45.522  25.576  36.159  1.00  0.00     0.198 A 
ATOM     93  F   UNL A   1      43.326  25.435  35.326  1.00  0.00    -0.203 F 
ATOM     94  F   UNL A   1      48.180  27.928  35.428  1.00  0.00    -0.200 F 
ATOM     95  C   UNL A   1      46.759  26.203  36.190  1.00  0.00     0.200 A 
ATOM     96  F   UNL A   1      45.299  24.500  36.926  1.00  0.00    -0.200 F 
ATOM     97  F   UNL A   1      47.738  25.719  36.966  1.00  0.00    -0.200 F 
ENDBRANCH  64  87
ENDBRANCH  38  39
ENDBRANCH  31  33
ENDBRANCH  30  31
ENDBRANCH  29  30
ENDBRANCH  28  29
ENDBRANCH  27  28
ENDBRANCH  26  27
ENDBRANCH   1  26
TORSDOF 20
ENDMDL
MODEL 2
REMARK VINA RESULT:     -11.3      3.663      9.343
REMARK SMILES O=C(Cc1ccc(F)c(F)c1)NC1(C(=O)OCCOCCOCCOC(=O)c2ccc(-c3c4nc(c(-c5c(F)c(F)c(F)c(F)c5F)c5ccc([nH]5)c(-c5c(F)c(F)c(F)c(F)c5F)c5nc(c(-c6c(F)c(F)c(F)c(F)c6F)c6ccc3[nH]6)C=C5)C=C4)cc2)CCCC1
REMARK SMILES IDX 20 1 19 2 18 3 17 4 16 5 14 6 15 7 13 8 91 9 94 10 92 11
REMARK SMILES IDX 93 12 12 13 1 14 2 15 3 17 4 18 5 19 11 20 6 21 9 22 7 23
REMARK SMILES IDX 10 24 8 25 21 26 22 27 23 28 24 29 25 30 26 31 27 32 28 33
REMARK SMILES IDX 29 34 90 35 30 36 89 37 31 38 32 39 33 40 83 41 34 42 88 43
REMARK SMILES IDX 82 44 84 45 35 46 87 47 81 48 80 49 36 51 68 52 48 53 67 54
REMARK SMILES IDX 49 55 52 56 66 57 85 58 50 59 51 60 65 62 86 63 53 64 37 65
REMARK SMILES IDX 38 66 46 67 39 68 40 69 44 70 47 71 41 72 42 73 45 74 43 75
REMARK SMILES IDX 69 76 70 77 78 78 71 79 72 80 76 81 79 82 73 83 74 84 77 85
REMARK SMILES IDX 75 86 54 87 55 88 63 89 56 90 57 91 61 92 64 93 58 94 59 95
REMARK SMILES IDX 62 96 60 97
REMARK H PARENT 12 16 84 50 52 61
REMARK Flexibility Score: inf
ROOT
ATOM      1  C   UNL A   1      35.050  32.018  28.028  1.00  0.00     0.188 C 
ENDROOT
BRANCH   1   2
ATOM      2  O   UNL A   1      33.827  31.469  27.583  1.00  0.00    -0.376 OA
BRANCH   2   3
ATOM      3  C   UNL A   1      33.848  30.234  26.871  1.00  0.00     0.202 C 
BRANCH   3   4
ATOM      4  C   UNL A   1      33.366  28.923  27.533  1.00  0.00     0.261 C 
BRANCH   4   5
ATOM      5  O   UNL A   1      33.529  27.702  26.767  1.00  0.00    -0.461 OA
BRANCH   5   6
ATOM      6  C   UNL A   1      32.401  26.967  26.571  1.00  0.00     0.331 C 
ATOM      7  O   UNL A   1      31.409  27.065  27.291  1.00  0.00    -0.249 OA
BRANCH   6   8
ATOM      8  C   UNL A   1      32.434  26.019  25.326  1.00  0.00     0.138 C 
ATOM      9  C   UNL A   1      32.152  24.592  25.813  1.00  0.00     0.040 C 
ATOM     10  C   UNL A   1      33.740  25.779  24.543  1.00  0.00     0.040 C 
ATOM     11  C   UNL A   1      33.525  24.072  26.241  1.00  0.00     0.003 C 
ATOM     12  C   UNL A   1      34.521  24.710  25.287  1.00  0.00     0.003 C 
BRANCH   8  13
ATOM     13  N   UNL A   1      31.457  26.602  24.375  1.00  0.00    -0.340 N 
ATOM     14  O   UNL A   1      32.782  28.198  23.367  1.00  0.00    -0.275 OA
ATOM     15  C   UNL A   1      31.744  27.547  23.410  1.00  0.00     0.225 C 
ATOM     16  H   UNL A   1      30.525  26.290  24.437  1.00  0.00     0.164 HD
BRANCH  15  17
ATOM     17  C   UNL A   1      30.636  27.723  22.377  1.00  0.00     0.135 C 
BRANCH  17  18
ATOM     18  C   UNL A   1      29.615  28.754  22.803  1.00  0.00    -0.036 A 
ATOM     19  C   UNL A   1      28.245  28.448  22.796  1.00  0.00     0.007 A 
ATOM     20  C   UNL A   1      30.017  30.046  23.173  1.00  0.00     0.046 A 
ATOM     21  C   UNL A   1      27.294  29.421  23.116  1.00  0.00     0.043 A 
ATOM     22  C   UNL A   1      29.065  30.997  23.534  1.00  0.00     0.159 A 
ATOM     23  C   UNL A   1      27.713  30.689  23.498  1.00  0.00     0.158 A 
ATOM     24  F   UNL A   1      29.465  32.211  23.938  1.00  0.00    -0.204 F 
ATOM     25  F   UNL A   1      26.802  31.593  23.883  1.00  0.00    -0.204 F 
ENDBRANCH  17  18
ENDBRANCH  15  17
ENDBRANCH   8  13
ENDBRANCH   6   8
ENDBRANCH   5   6
ENDBRANCH   4   5
ENDBRANCH   3   4
ENDBRANCH   2   3
ENDBRANCH   1   2
BRANCH   1  26
ATOM     26  C   UNL A   1      35.197  33.537  28.092  1.00  0.00     0.188 C 
BRANCH  26  27
ATOM     27  O   UNL A   1      34.607  34.184  29.187  1.00  0.00    -0.376 OA
BRANCH  27  28
ATOM     28  C   UNL A   1      33.287  34.696  29.100  1.00  0.00     0.202 C 
BRANCH  28  29
ATOM     29  C   UNL A   1      32.854  36.098  29.578  1.00  0.00     0.261 C 
BRANCH  29  30
ATOM     30  O   UNL A   1      33.202  36.500  30.908  1.00  0.00    -0.460 OA
BRANCH  30  31
ATOM     31  C   UNL A   1      32.720  35.752  31.927  1.00  0.00     0.338 C 
ATOM     32  O   UNL A   1      31.550  35.534  32.197  1.00  0.00    -0.246 OA
BRANCH  31  33
ATOM     33  C   UNL A   1      33.868  35.015  32.499  1.00  0.00     0.060 A 
ATOM     34  C   UNL A   1      35.143  35.608  32.487  1.00  0.00     0.016 A 
ATOM     35  C   UNL A   1      33.677  33.766  33.091  1.00  0.00     0.016 A 
ATOM     36  C   UNL A   1      36.232  34.944  33.056  1.00  0.00     0.010 A 
ATOM     37  C   UNL A   1      34.773  33.088  33.625  1.00  0.00     0.010 A 
ATOM     38  C   UNL A   1      36.056  33.661  33.588  1.00  0.00    -0.014 A 
BRANCH  38  39
ATOM     39  C   UNL A   1      37.224  32.817  33.933  1.00  0.00     0.031 A 
ATOM     40  C   UNL A   1      37.915  33.072  35.236  1.00  0.00     0.074 A 
ATOM     41  C   UNL A   1      37.701  31.886  33.092  1.00  0.00     0.049 A 
ATOM     42  N   UNL A   1      39.056  32.609  35.670  1.00  0.00    -0.248 NA
ATOM     43  C   UNL A   1      37.235  33.989  36.163  1.00  0.00     0.031 C 
ATOM     44  C   UNL A   1      37.091  31.537  31.819  1.00  0.00     0.029 A 
ATOM     45  N   UNL A   1      38.812  31.084  33.166  1.00  0.00    -0.354 N 
ATOM     46  C   UNL A   1      39.249  33.204  36.906  1.00  0.00     0.074 A 
ATOM     47  C   UNL A   1      38.114  34.066  37.151  1.00  0.00     0.031 C 
ATOM     48  C   UNL A   1      37.833  30.590  31.222  1.00  0.00     0.029 A 
ATOM     49  C   UNL A   1      39.007  30.314  32.044  1.00  0.00     0.049 A 
ATOM     50  H   UNL A   1      39.412  31.061  33.947  1.00  0.00     0.167 HD
ATOM     51  C   UNL A   1      40.293  33.046  37.752  1.00  0.00     0.037 A 
ATOM     52  C   UNL A   1      40.037  29.518  31.694  1.00  0.00     0.037 A 
ATOM     53  C   UNL A   1      41.419  32.190  37.491  1.00  0.00     0.049 A 
ATOM     54  C   UNL A   1      41.214  29.401  32.627  1.00  0.00     0.074 A 
ATOM     55  C   UNL A   1      42.520  31.954  38.294  1.00  0.00     0.029 A 
ATOM     56  N   UNL A   1      41.595  31.437  36.338  1.00  0.00    -0.354 N 
ATOM     57  N   UNL A   1      41.400  29.970  33.794  1.00  0.00    -0.248 NA
ATOM     58  C   UNL A   1      42.330  28.552  32.190  1.00  0.00     0.031 C 
ATOM     59  C   UNL A   1      43.391  31.108  37.601  1.00  0.00     0.029 A 
ATOM     60  C   UNL A   1      42.802  30.758  36.396  1.00  0.00     0.049 A 
ATOM     61  H   UNL A   1      40.957  31.393  35.589  1.00  0.00     0.167 HD
ATOM     62  C   UNL A   1      42.645  29.542  34.237  1.00  0.00     0.074 A 
ATOM     63  C   UNL A   1      43.158  28.642  33.223  1.00  0.00     0.031 C 
ATOM     64  C   UNL A   1      43.306  29.871  35.375  1.00  0.00     0.037 A 
BRANCH  51  65
ATOM     65  C   UNL A   1      40.282  33.850  39.017  1.00  0.00     0.064 A 
ATOM     66  C   UNL A   1      39.573  33.392  40.137  1.00  0.00     0.173 A 
ATOM     67  C   UNL A   1      40.940  35.085  39.115  1.00  0.00     0.173 A 
ATOM     68  F   UNL A   1      38.935  32.212  40.098  1.00  0.00    -0.203 F 
ATOM     69  C   UNL A   1      39.506  34.149  41.303  1.00  0.00     0.198 A 
ATOM     70  C   UNL A   1      40.899  35.825  40.294  1.00  0.00     0.198 A 
ATOM     71  F   UNL A   1      41.654  35.555  38.082  1.00  0.00    -0.203 F 
ATOM     72  F   UNL A   1      38.797  33.705  42.348  1.00  0.00    -0.200 F 
ATOM     73  C   UNL A   1      40.173  35.363  41.382  1.00  0.00     0.200 A 
ATOM     74  F   UNL A   1      41.573  36.980  40.381  1.00  0.00    -0.200 F 
ATOM     75  F   UNL A   1      40.122  36.084  42.510  1.00  0.00    -0.200 F 
ENDBRANCH  51  65
BRANCH  52  76
ATOM     76  C   UNL A   1      40.006  28.791  30.395  1.00  0.00     0.064 A 
ATOM     77  C   UNL A   1      39.424  27.518  30.279  1.00  0.00     0.173 A 
ATOM     78  C   UNL A   1      40.581  29.346  29.243  1.00  0.00     0.173 A 
ATOM     79  F   UNL A   1      38.848  26.944  31.346  1.00  0.00    -0.203 F 
ATOM     80  C   UNL A   1      39.446  26.820  29.073  1.00  0.00     0.198 A 
ATOM     81  C   UNL A   1      40.572  28.661  28.029  1.00  0.00     0.198 A 
ATOM     82  F   UNL A   1      41.118  30.574  29.291  1.00  0.00    -0.203 F 
ATOM     83  F   UNL A   1      38.907  25.594  29.001  1.00  0.00    -0.200 F 
ATOM     84  C   UNL A   1      40.017  27.393  27.948  1.00  0.00     0.200 A 
ATOM     85  F   UNL A   1      41.090  29.237  26.935  1.00  0.00    -0.200 F 
ATOM     86  F   UNL A   1      40.016  26.732  26.781  1.00  0.00    -0.200 F 
ENDBRANCH  52  76
BRANCH  64  87
ATOM     87  C   UNL A   1      44.655  29.249  35.600  1.00  0.00     0.064 A 
ATOM     88  C   UNL A   1      44.771  28.028  36.284  1.00  0.00     0.173 A 
ATOM     89  C   UNL A   1      45.837  29.886  35.194  1.00  0.00     0.173 A 
ATOM     90  F   UNL A   1      43.673  27.381  36.703  1.00  0.00    -0.203 F 
ATOM     91  C   UNL A   1      46.018  27.477  36.565  1.00  0.00     0.198 A 
ATOM     92  C   UNL A   1      47.082  29.314  35.445  1.00  0.00     0.198 A 
ATOM     93  F   UNL A   1      45.783  31.049  34.529  1.00  0.00    -0.203 F 
ATOM     94  F   UNL A   1      46.102  26.332  37.255  1.00  0.00    -0.200 F 
ATOM     95  C   UNL A   1      47.172  28.117  36.139  1.00  0.00     0.200 A 
ATOM     96  F   UNL A   1      48.195  29.918  35.008  1.00  0.00    -0.200 F 
ATOM     97  F   UNL A   1      48.371  27.576  36.394  1.00  0.00    -0.200 F 
ENDBRANCH  64  87
ENDBRANCH  38  39
ENDBRANCH  31  33
ENDBRANCH  30  31
ENDBRANCH  29  30
ENDBRANCH  28  29
ENDBRANCH  27  28
ENDBRANCH  26  27
ENDBRANCH   1  26
TORSDOF 20
ENDMDL
MODEL 3
REMARK VINA RESULT:     -11.3      4.563     10.242
REMARK SMILES O=C(Cc1ccc(F)c(F)c1)NC1(C(=O)OCCOCCOCCOC(=O)c2ccc(-c3c4nc(c(-c5c(F)c(F)c(F)c(F)c5F)c5ccc([nH]5)c(-c5c(F)c(F)c(F)c(F)c5F)c5nc(c(-c6c(F)c(F)c(F)c(F)c6F)c6ccc3[nH]6)C=C5)C=C4)cc2)CCCC1
REMARK SMILES IDX 20 1 19 2 18 3 17 4 16 5 14 6 15 7 13 8 91 9 94 10 92 11
REMARK SMILES IDX 93 12 12 13 1 14 2 15 3 17 4 18 5 19 11 20 6 21 9 22 7 23
REMARK SMILES IDX 10 24 8 25 21 26 22 27 23 28 24 29 25 30 26 31 27 32 28 33
REMARK SMILES IDX 29 34 90 35 30 36 89 37 31 38 32 39 33 40 83 41 34 42 88 43
REMARK SMILES IDX 82 44 84 45 35 46 87 47 81 48 80 49 36 51 68 52 48 53 67 54
REMARK SMILES IDX 49 55 52 56 66 57 85 58 50 59 51 60 65 62 86 63 53 64 37 65
REMARK SMILES IDX 38 66 46 67 39 68 40 69 44 70 47 71 41 72 42 73 45 74 43 75
REMARK SMILES IDX 69 76 70 77 78 78 71 79 72 80 76 81 79 82 73 83 74 84 77 85
REMARK SMILES IDX 75 86 54 87 55 88 63 89 56 90 57 91 61 92 64 93 58 94 59 95
REMARK SMILES IDX 62 96 60 97
REMARK H PARENT 12 16 84 50 52 61
REMARK Flexibility Score: inf
ROOT
ATOM      1  C   UNL A   1      34.006  23.982  23.096  1.00  0.00     0.188 C 
ENDROOT
BRANCH   1   2
ATOM      2  O   UNL A   1      32.973  23.188  22.551  1.00  0.00    -0.376 OA
BRANCH   2   3
ATOM      3  C   UNL A   1      31.702  23.179  23.195  1.00  0.00     0.202 C 
BRANCH   3   4
ATOM      4  C   UNL A   1      31.241  24.369  24.068  1.00  0.00     0.261 C 
BRANCH   4   5
ATOM      5  O   UNL A   1      30.320  25.311  23.461  1.00  0.00    -0.461 OA
BRANCH   5   6
ATOM      6  C   UNL A   1      30.875  26.450  22.963  1.00  0.00     0.331 C 
ATOM      7  O   UNL A   1      31.568  26.464  21.948  1.00  0.00    -0.249 OA
BRANCH   6   8
ATOM      8  C   UNL A   1      30.523  27.758  23.748  1.00  0.00     0.138 C 
ATOM      9  C   UNL A   1      28.999  27.930  23.715  1.00  0.00     0.040 C 
ATOM     10  C   UNL A   1      30.958  29.141  23.225  1.00  0.00     0.040 C 
ATOM     11  C   UNL A   1      28.740  28.657  22.394  1.00  0.00     0.003 C 
ATOM     12  C   UNL A   1      29.935  29.573  22.189  1.00  0.00     0.003 C 
BRANCH   8  13
ATOM     13  N   UNL A   1      31.144  27.582  25.083  1.00  0.00    -0.340 N 
ATOM     14  O   UNL A   1      33.370  27.534  24.487  1.00  0.00    -0.275 OA
ATOM     15  C   UNL A   1      32.499  27.604  25.346  1.00  0.00     0.225 C 
ATOM     16  H   UNL A   1      30.539  27.437  25.846  1.00  0.00     0.164 HD
BRANCH  15  17
ATOM     17  C   UNL A   1      32.833  27.721  26.829  1.00  0.00     0.135 C 
BRANCH  17  18
ATOM     18  C   UNL A   1      33.602  28.984  27.144  1.00  0.00    -0.036 A 
ATOM     19  C   UNL A   1      32.936  30.213  27.272  1.00  0.00     0.007 A 
ATOM     20  C   UNL A   1      34.999  28.956  27.274  1.00  0.00     0.046 A 
ATOM     21  C   UNL A   1      33.652  31.394  27.488  1.00  0.00     0.043 A 
ATOM     22  C   UNL A   1      35.700  30.130  27.534  1.00  0.00     0.159 A 
ATOM     23  C   UNL A   1      35.032  31.342  27.633  1.00  0.00     0.158 A 
ATOM     24  F   UNL A   1      37.028  30.082  27.710  1.00  0.00    -0.204 F 
ATOM     25  F   UNL A   1      35.704  32.465  27.921  1.00  0.00    -0.204 F 
ENDBRANCH  17  18
ENDBRANCH  15  17
ENDBRANCH   8  13
ENDBRANCH   6   8
ENDBRANCH   5   6
ENDBRANCH   4   5
ENDBRANCH   3   4
ENDBRANCH   2   3
ENDBRANCH   1   2
BRANCH   1  26
ATOM     26  C   UNL A   1      35.040  23.323  24.008  1.00  0.00     0.188 C 
BRANCH  26  27
ATOM     27  O   UNL A   1      34.565  22.368  24.917  1.00  0.00    -0.376 OA
BRANCH  27  28
ATOM     28  C   UNL A   1      35.467  21.594  25.692  1.00  0.00     0.202 C 
BRANCH  28  29
ATOM     29  C   UNL A   1      36.845  21.100  25.204  1.00  0.00     0.261 C 
BRANCH  29  30
ATOM     30  O   UNL A   1      37.967  21.981  25.330  1.00  0.00    -0.460 OA
BRANCH  30  31
ATOM     31  C   UNL A   1      38.986  21.575  26.122  1.00  0.00     0.338 C 
ATOM     32  O   UNL A   1      39.440  20.447  26.227  1.00  0.00    -0.246 OA
BRANCH  31  33
ATOM     33  C   UNL A   1      39.641  22.798  26.639  1.00  0.00     0.060 A 
ATOM     34  C   UNL A   1      39.170  24.057  26.229  1.00  0.00     0.016 A 
ATOM     35  C   UNL A   1      40.682  22.701  27.561  1.00  0.00     0.016 A 
ATOM     36  C   UNL A   1      39.750  25.223  26.736  1.00  0.00     0.010 A 
ATOM     37  C   UNL A   1      41.286  23.865  28.037  1.00  0.00     0.010 A 
ATOM     38  C   UNL A   1      40.840  25.127  27.609  1.00  0.00    -0.014 A 
BRANCH  38  39
ATOM     39  C   UNL A   1      41.657  26.321  27.935  1.00  0.00     0.031 A 
ATOM     40  C   UNL A   1      41.028  27.398  28.760  1.00  0.00     0.074 A 
ATOM     41  C   UNL A   1      42.904  26.477  27.465  1.00  0.00     0.049 A 
ATOM     42  N   UNL A   1      41.459  28.605  29.012  1.00  0.00    -0.248 NA
ATOM     43  C   UNL A   1      39.727  27.076  29.366  1.00  0.00     0.031 C 
ATOM     44  C   UNL A   1      43.620  25.483  26.682  1.00  0.00     0.029 A 
ATOM     45  N   UNL A   1      43.779  27.531  27.556  1.00  0.00    -0.354 N 
ATOM     46  C   UNL A   1      40.468  29.199  29.776  1.00  0.00     0.074 A 
ATOM     47  C   UNL A   1      39.411  28.226  29.943  1.00  0.00     0.031 C 
ATOM     48  C   UNL A   1      44.829  25.968  26.356  1.00  0.00     0.029 A 
ATOM     49  C   UNL A   1      44.945  27.335  26.854  1.00  0.00     0.049 A 
ATOM     50  H   UNL A   1      43.591  28.347  28.073  1.00  0.00     0.167 HD
ATOM     51  C   UNL A   1      40.447  30.454  30.281  1.00  0.00     0.037 A 
ATOM     52  C   UNL A   1      45.967  28.177  26.599  1.00  0.00     0.037 A 
ATOM     53  C   UNL A   1      41.504  31.413  30.101  1.00  0.00     0.049 A 
ATOM     54  C   UNL A   1      45.896  29.586  27.125  1.00  0.00     0.074 A 
ATOM     55  C   UNL A   1      41.580  32.706  30.586  1.00  0.00     0.029 A 
ATOM     56  N   UNL A   1      42.664  31.190  29.371  1.00  0.00    -0.354 N 
ATOM     57  N   UNL A   1      44.954  30.152  27.843  1.00  0.00    -0.248 NA
ATOM     58  C   UNL A   1      47.013  30.479  26.792  1.00  0.00     0.031 C 
ATOM     59  C   UNL A   1      42.755  33.285  30.100  1.00  0.00     0.029 A 
ATOM     60  C   UNL A   1      43.449  32.333  29.369  1.00  0.00     0.049 A 
ATOM     61  H   UNL A   1      42.895  30.345  28.921  1.00  0.00     0.167 HD
ATOM     62  C   UNL A   1      45.368  31.460  28.057  1.00  0.00     0.074 A 
ATOM     63  C   UNL A   1      46.660  31.596  27.416  1.00  0.00     0.031 C 
ATOM     64  C   UNL A   1      44.731  32.458  28.718  1.00  0.00     0.037 A 
BRANCH  51  65
ATOM     65  C   UNL A   1      39.224  30.870  31.040  1.00  0.00     0.064 A 
ATOM     66  C   UNL A   1      39.070  30.505  32.386  1.00  0.00     0.173 A 
ATOM     67  C   UNL A   1      38.189  31.599  30.435  1.00  0.00     0.173 A 
ATOM     68  F   UNL A   1      40.036  29.816  33.014  1.00  0.00    -0.203 F 
ATOM     69  C   UNL A   1      37.918  30.835  33.092  1.00  0.00     0.198 A 
ATOM     70  C   UNL A   1      37.052  31.956  31.154  1.00  0.00     0.198 A 
ATOM     71  F   UNL A   1      38.299  31.995  29.158  1.00  0.00    -0.203 F 
ATOM     72  F   UNL A   1      37.781  30.448  34.366  1.00  0.00    -0.200 F 
ATOM     73  C   UNL A   1      36.912  31.565  32.477  1.00  0.00     0.200 A 
ATOM     74  F   UNL A   1      36.096  32.692  30.568  1.00  0.00    -0.200 F 
ATOM     75  F   UNL A   1      35.809  31.897  33.162  1.00  0.00    -0.200 F 
ENDBRANCH  51  65
BRANCH  52  76
ATOM     76  C   UNL A   1      47.128  27.712  25.790  1.00  0.00     0.064 A 
ATOM     77  C   UNL A   1      48.276  27.174  26.394  1.00  0.00     0.173 A 
ATOM     78  C   UNL A   1      47.121  27.817  24.392  1.00  0.00     0.173 A 
ATOM     79  F   UNL A   1      48.331  27.038  27.727  1.00  0.00    -0.203 F 
ATOM     80  C   UNL A   1      49.380  26.791  25.634  1.00  0.00     0.198 A 
ATOM     81  C   UNL A   1      48.214  27.402  23.631  1.00  0.00     0.198 A 
ATOM     82  F   UNL A   1      46.035  28.290  23.763  1.00  0.00    -0.203 F 
ATOM     83  F   UNL A   1      50.473  26.308  26.243  1.00  0.00    -0.200 F 
ATOM     84  C   UNL A   1      49.347  26.901  24.254  1.00  0.00     0.200 A 
ATOM     85  F   UNL A   1      48.160  27.474  22.294  1.00  0.00    -0.200 F 
ATOM     86  F   UNL A   1      50.399  26.510  23.521  1.00  0.00    -0.200 F 
ENDBRANCH  52  76
BRANCH  64  87
ATOM     87  C   UNL A   1      45.422  33.791  28.797  1.00  0.00     0.064 A 
ATOM     88  C   UNL A   1      45.206  34.764  27.809  1.00  0.00     0.173 A 
ATOM     89  C   UNL A   1      46.343  34.084  29.814  1.00  0.00     0.173 A 
ATOM     90  F   UNL A   1      44.344  34.532  26.807  1.00  0.00    -0.203 F 
ATOM     91  C   UNL A   1      45.896  35.973  27.828  1.00  0.00     0.198 A 
ATOM     92  C   UNL A   1      47.004  35.309  29.851  1.00  0.00     0.198 A 
ATOM     93  F   UNL A   1      46.579  33.193  30.789  1.00  0.00    -0.203 F 
ATOM     94  F   UNL A   1      45.702  36.869  26.851  1.00  0.00    -0.200 F 
ATOM     95  C   UNL A   1      46.788  36.248  28.853  1.00  0.00     0.200 A 
ATOM     96  F   UNL A   1      47.844  35.585  30.858  1.00  0.00    -0.200 F 
ATOM     97  F   UNL A   1      47.438  37.420  28.882  1.00  0.00    -0.200 F 
ENDBRANCH  64  87
ENDBRANCH  38  39
ENDBRANCH  31  33
ENDBRANCH  30  31
ENDBRANCH  29  30
ENDBRANCH  28  29
ENDBRANCH  27  28
ENDBRANCH  26  27
ENDBRANCH   1  26
TORSDOF 20
ENDMDL
