MODEL 1
REMARK VINA RESULT:     -11.0      0.000      0.000
REMARK SMILES O=C1NC[C@H](COc2c(F)cc(C(=O)OCCOCCOCCOC(=O)c3ccc(-c4c5nc(c(-c6c(F)c(F)c(F)c(F)c6F)c6ccc([nH]6)c(-c6c(F)c(F)c(F)c(F)c6F)c6nc(c(-c7c(F)c(F)c(F)c(F)c7F)c7ccc4[nH]7)C=C6)C=C5)cc3)cc2F)O1
REMARK SMILES IDX 19 1 18 2 17 3 16 4 15 5 13 6 14 7 12 8 8 9 9 10 91 11 10 12
REMARK SMILES IDX 11 13 90 14 92 15 7 16 6 17 5 18 1 19 2 20 3 21 93 22 4 23
REMARK SMILES IDX 20 25 21 26 22 27 23 28 24 29 25 30 26 31 27 32 28 33 89 34
REMARK SMILES IDX 29 35 88 36 30 37 31 38 32 39 82 40 33 41 87 42 81 43 83 44
REMARK SMILES IDX 34 45 86 46 80 47 79 48 35 50 67 51 47 52 66 53 48 54 51 55
REMARK SMILES IDX 65 56 84 57 49 58 50 59 64 61 85 62 52 63 36 64 37 65 45 66
REMARK SMILES IDX 38 67 39 68 43 69 46 70 40 71 41 72 44 73 42 74 68 75 69 76
REMARK SMILES IDX 77 77 70 78 71 79 75 80 78 81 72 82 73 83 76 84 74 85 53 86
REMARK SMILES IDX 54 87 62 88 55 89 56 90 60 91 63 92 57 93 58 94 61 95 59 96
REMARK H PARENT 3 24 83 49 51 60
REMARK Flexibility Score: inf
ROOT
ATOM      1  C   UNL A   1      33.708  26.651  26.130  1.00  0.00     0.188 C 
ENDROOT
BRANCH   1   2
ATOM      2  O   UNL A   1      34.364  25.564  25.499  1.00  0.00    -0.376 OA
BRANCH   2   3
ATOM      3  C   UNL A   1      34.060  24.224  25.862  1.00  0.00     0.202 C 
BRANCH   3   4
ATOM      4  C   UNL A   1      33.886  23.110  24.813  1.00  0.00     0.261 C 
BRANCH   4   5
ATOM      5  O   UNL A   1      32.778  23.283  23.923  1.00  0.00    -0.460 OA
BRANCH   5   6
ATOM      6  C   UNL A   1      33.036  23.923  22.759  1.00  0.00     0.338 C 
ATOM      7  O   UNL A   1      33.569  23.462  21.765  1.00  0.00    -0.246 OA
BRANCH   6   8
ATOM      8  C   UNL A   1      32.412  25.268  22.788  1.00  0.00     0.066 A 
ATOM      9  C   UNL A   1      31.317  27.826  22.863  1.00  0.00     0.190 A 
ATOM     10  C   UNL A   1      30.511  26.713  23.048  1.00  0.00     0.169 A 
ATOM     11  C   UNL A   1      32.635  27.649  22.457  1.00  0.00     0.169 A 
ATOM     12  F   UNL A   1      29.201  26.870  23.289  1.00  0.00    -0.203 F 
ATOM     13  C   UNL A   1      31.060  25.443  23.104  1.00  0.00     0.059 A 
ATOM     14  C   UNL A   1      33.186  26.372  22.402  1.00  0.00     0.059 A 
ATOM     15  F   UNL A   1      33.398  28.703  22.142  1.00  0.00    -0.203 F 
BRANCH   9  16
ATOM     16  O   UNL A   1      30.810  29.062  23.155  1.00  0.00    -0.484 OA
BRANCH  16  17
ATOM     17  C   UNL A   1      30.258  29.673  21.966  1.00  0.00     0.277 C 
BRANCH  17  18
ATOM     18  C   UNL A   1      28.898  30.364  22.187  1.00  0.00     0.235 C 
ATOM     19  O   UNL A   1      27.678  33.420  21.115  1.00  0.00    -0.225 OA
ATOM     20  C   UNL A   1      28.112  32.467  21.725  1.00  0.00     0.407 C 
ATOM     21  N   UNL A   1      28.122  32.346  23.081  1.00  0.00    -0.318 N 
ATOM     22  O   UNL A   1      28.689  31.363  21.163  1.00  0.00    -0.441 OA
ATOM     23  C   UNL A   1      28.771  31.155  23.481  1.00  0.00     0.168 C 
ATOM     24  H   UNL A   1      27.729  33.001  23.702  1.00  0.00     0.167 HD
ENDBRANCH  17  18
ENDBRANCH  16  17
ENDBRANCH   9  16
ENDBRANCH   6   8
ENDBRANCH   5   6
ENDBRANCH   4   5
ENDBRANCH   3   4
ENDBRANCH   2   3
ENDBRANCH   1   2
BRANCH   1  25
ATOM     25  C   UNL A   1      32.230  26.531  26.545  1.00  0.00     0.188 C 
BRANCH  25  26
ATOM     26  O   UNL A   1      31.432  27.653  26.275  1.00  0.00    -0.376 OA
BRANCH  26  27
ATOM     27  C   UNL A   1      31.405  28.711  27.222  1.00  0.00     0.202 C 
BRANCH  27  28
ATOM     28  C   UNL A   1      31.744  30.191  26.921  1.00  0.00     0.261 C 
BRANCH  28  29
ATOM     29  O   UNL A   1      33.095  30.550  26.604  1.00  0.00    -0.460 OA
BRANCH  29  30
ATOM     30  C   UNL A   1      33.626  31.580  27.308  1.00  0.00     0.338 C 
ATOM     31  O   UNL A   1      33.062  32.603  27.656  1.00  0.00    -0.246 OA
BRANCH  30  32
ATOM     32  C   UNL A   1      34.965  31.186  27.794  1.00  0.00     0.060 A 
ATOM     33  C   UNL A   1      35.220  29.836  28.079  1.00  0.00     0.016 A 
ATOM     34  C   UNL A   1      35.948  32.151  28.013  1.00  0.00     0.016 A 
ATOM     35  C   UNL A   1      36.445  29.452  28.624  1.00  0.00     0.010 A 
ATOM     36  C   UNL A   1      37.166  31.770  28.583  1.00  0.00     0.010 A 
ATOM     37  C   UNL A   1      37.404  30.426  28.929  1.00  0.00    -0.014 A 
BRANCH  37  38
ATOM     38  C   UNL A   1      38.553  30.081  29.804  1.00  0.00     0.031 A 
ATOM     39  C   UNL A   1      39.585  29.121  29.276  1.00  0.00     0.074 A 
ATOM     40  C   UNL A   1      38.696  30.618  31.028  1.00  0.00     0.049 A 
ATOM     41  N   UNL A   1      40.634  28.615  29.871  1.00  0.00    -0.248 NA
ATOM     42  C   UNL A   1      39.403  28.665  27.887  1.00  0.00     0.031 C 
ATOM     43  C   UNL A   1      37.795  31.596  31.630  1.00  0.00     0.029 A 
ATOM     44  N   UNL A   1      39.656  30.404  31.987  1.00  0.00    -0.354 N 
ATOM     45  C   UNL A   1      41.228  27.777  28.935  1.00  0.00     0.074 A 
ATOM     46  C   UNL A   1      40.402  27.810  27.748  1.00  0.00     0.031 C 
ATOM     47  C   UNL A   1      38.240  31.893  32.864  1.00  0.00     0.029 A 
ATOM     48  C   UNL A   1      39.435  31.098  33.151  1.00  0.00     0.049 A 
ATOM     49  H   UNL A   1      40.428  29.809  31.853  1.00  0.00     0.167 HD
ATOM     50  C   UNL A   1      42.367  27.056  29.052  1.00  0.00     0.037 A 
ATOM     51  C   UNL A   1      40.108  31.076  34.318  1.00  0.00     0.037 A 
ATOM     52  C   UNL A   1      43.191  27.033  30.231  1.00  0.00     0.049 A 
ATOM     53  C   UNL A   1      41.327  30.199  34.457  1.00  0.00     0.074 A 
ATOM     54  C   UNL A   1      44.376  26.353  30.439  1.00  0.00     0.029 A 
ATOM     55  N   UNL A   1      42.908  27.717  31.405  1.00  0.00    -0.354 N 
ATOM     56  N   UNL A   1      41.897  29.427  33.562  1.00  0.00    -0.248 NA
ATOM     57  C   UNL A   1      41.997  30.188  35.766  1.00  0.00     0.031 C 
ATOM     58  C   UNL A   1      44.779  26.571  31.758  1.00  0.00     0.029 A 
ATOM     59  C   UNL A   1      43.880  27.442  32.354  1.00  0.00     0.049 A 
ATOM     60  H   UNL A   1      42.134  28.308  31.543  1.00  0.00     0.167 HD
ATOM     61  C   UNL A   1      43.000  28.859  34.189  1.00  0.00     0.074 A 
ATOM     62  C   UNL A   1      43.030  29.387  35.538  1.00  0.00     0.031 C 
ATOM     63  C   UNL A   1      43.903  27.978  33.693  1.00  0.00     0.037 A 
BRANCH  50  64
ATOM     64  C   UNL A   1      42.788  26.215  27.880  1.00  0.00     0.064 A 
ATOM     65  C   UNL A   1      43.682  26.726  26.926  1.00  0.00     0.173 A 
ATOM     66  C   UNL A   1      42.269  24.929  27.669  1.00  0.00     0.173 A 
ATOM     67  F   UNL A   1      44.206  27.952  27.077  1.00  0.00    -0.203 F 
ATOM     68  C   UNL A   1      44.027  25.987  25.798  1.00  0.00     0.198 A 
ATOM     69  C   UNL A   1      42.644  24.179  26.557  1.00  0.00     0.198 A 
ATOM     70  F   UNL A   1      41.422  24.388  28.557  1.00  0.00    -0.203 F 
ATOM     71  F   UNL A   1      44.854  26.511  24.883  1.00  0.00    -0.200 F 
ATOM     72  C   UNL A   1      43.513  24.712  25.617  1.00  0.00     0.200 A 
ATOM     73  F   UNL A   1      42.169  22.935  26.399  1.00  0.00    -0.200 F 
ATOM     74  F   UNL A   1      43.859  23.996  24.539  1.00  0.00    -0.200 F 
ENDBRANCH  50  64
BRANCH  51  75
ATOM     75  C   UNL A   1      39.641  31.921  35.451  1.00  0.00     0.064 A 
ATOM     76  C   UNL A   1      38.672  31.459  36.355  1.00  0.00     0.173 A 
ATOM     77  C   UNL A   1      40.138  33.217  35.638  1.00  0.00     0.173 A 
ATOM     78  F   UNL A   1      38.167  30.222  36.227  1.00  0.00    -0.203 F 
ATOM     79  C   UNL A   1      38.198  32.273  37.382  1.00  0.00     0.198 A 
ATOM     80  C   UNL A   1      39.685  34.019  36.683  1.00  0.00     0.198 A 
ATOM     81  F   UNL A   1      41.086  33.694  34.817  1.00  0.00    -0.203 F 
ATOM     82  F   UNL A   1      37.244  31.820  38.208  1.00  0.00    -0.200 F 
ATOM     83  C   UNL A   1      38.707  33.551  37.548  1.00  0.00     0.200 A 
ATOM     84  F   UNL A   1      40.201  35.244  36.856  1.00  0.00    -0.200 F 
ATOM     85  F   UNL A   1      38.259  34.330  38.542  1.00  0.00    -0.200 F 
ENDBRANCH  51  75
BRANCH  63  86
ATOM     86  C   UNL A   1      45.018  27.524  34.593  1.00  0.00     0.064 A 
ATOM     87  C   UNL A   1      46.245  28.208  34.606  1.00  0.00     0.173 A 
ATOM     88  C   UNL A   1      44.912  26.356  35.360  1.00  0.00     0.173 A 
ATOM     89  F   UNL A   1      46.405  29.325  33.881  1.00  0.00    -0.203 F 
ATOM     90  C   UNL A   1      47.330  27.723  35.332  1.00  0.00     0.198 A 
ATOM     91  C   UNL A   1      45.988  25.892  36.112  1.00  0.00     0.198 A 
ATOM     92  F   UNL A   1      43.758  25.671  35.390  1.00  0.00    -0.203 F 
ATOM     93  F   UNL A   1      48.505  28.365  35.288  1.00  0.00    -0.200 F 
ATOM     94  C   UNL A   1      47.199  26.567  36.087  1.00  0.00     0.200 A 
ATOM     95  F   UNL A   1      45.854  24.788  36.860  1.00  0.00    -0.200 F 
ATOM     96  F   UNL A   1      48.242  26.103  36.790  1.00  0.00    -0.200 F 
ENDBRANCH  63  86
ENDBRANCH  37  38
ENDBRANCH  30  32
ENDBRANCH  29  30
ENDBRANCH  28  29
ENDBRANCH  27  28
ENDBRANCH  26  27
ENDBRANCH  25  26
ENDBRANCH   1  25
TORSDOF 20
ENDMDL
MODEL 2
REMARK VINA RESULT:     -11.0      4.570      7.996
REMARK SMILES O=C1NC[C@H](COc2c(F)cc(C(=O)OCCOCCOCCOC(=O)c3ccc(-c4c5nc(c(-c6c(F)c(F)c(F)c(F)c6F)c6ccc([nH]6)c(-c6c(F)c(F)c(F)c(F)c6F)c6nc(c(-c7c(F)c(F)c(F)c(F)c7F)c7ccc4[nH]7)C=C6)C=C5)cc3)cc2F)O1
REMARK SMILES IDX 19 1 18 2 17 3 16 4 15 5 13 6 14 7 12 8 8 9 9 10 91 11 10 12
REMARK SMILES IDX 11 13 90 14 92 15 7 16 6 17 5 18 1 19 2 20 3 21 93 22 4 23
REMARK SMILES IDX 20 25 21 26 22 27 23 28 24 29 25 30 26 31 27 32 28 33 89 34
REMARK SMILES IDX 29 35 88 36 30 37 31 38 32 39 82 40 33 41 87 42 81 43 83 44
REMARK SMILES IDX 34 45 86 46 80 47 79 48 35 50 67 51 47 52 66 53 48 54 51 55
REMARK SMILES IDX 65 56 84 57 49 58 50 59 64 61 85 62 52 63 36 64 37 65 45 66
REMARK SMILES IDX 38 67 39 68 43 69 46 70 40 71 41 72 44 73 42 74 68 75 69 76
REMARK SMILES IDX 77 77 70 78 71 79 75 80 78 81 72 82 73 83 76 84 74 85 53 86
REMARK SMILES IDX 54 87 62 88 55 89 56 90 60 91 63 92 57 93 58 94 61 95 59 96
REMARK H PARENT 3 24 83 49 51 60
REMARK Flexibility Score: inf
ROOT
ATOM      1  C   UNL A   1      33.266  36.961  31.027  1.00  0.00     0.188 C 
ENDROOT
BRANCH   1   2
ATOM      2  O   UNL A   1      32.724  36.392  29.846  1.00  0.00    -0.376 OA
BRANCH   2   3
ATOM      3  C   UNL A   1      33.552  35.681  28.937  1.00  0.00     0.202 C 
BRANCH   3   4
ATOM      4  C   UNL A   1      33.986  34.225  29.190  1.00  0.00     0.261 C 
BRANCH   4   5
ATOM      5  O   UNL A   1      34.047  33.398  28.024  1.00  0.00    -0.460 OA
BRANCH   5   6
ATOM      6  C   UNL A   1      32.872  32.892  27.584  1.00  0.00     0.338 C 
ATOM      7  O   UNL A   1      31.843  33.504  27.357  1.00  0.00    -0.246 OA
BRANCH   6   8
ATOM      8  C   UNL A   1      33.050  31.460  27.239  1.00  0.00     0.066 A 
ATOM      9  C   UNL A   1      33.468  28.790  26.576  1.00  0.00     0.190 A 
ATOM     10  C   UNL A   1      32.199  29.342  26.492  1.00  0.00     0.169 A 
ATOM     11  C   UNL A   1      34.489  29.524  27.169  1.00  0.00     0.169 A 
ATOM     12  F   UNL A   1      31.172  28.594  26.065  1.00  0.00    -0.203 F 
ATOM     13  C   UNL A   1      31.998  30.691  26.731  1.00  0.00     0.059 A 
ATOM     14  C   UNL A   1      34.284  30.855  27.518  1.00  0.00     0.059 A 
ATOM     15  F   UNL A   1      35.689  28.969  27.385  1.00  0.00    -0.203 F 
BRANCH   9  16
ATOM     16  O   UNL A   1      33.692  27.566  26.009  1.00  0.00    -0.484 OA
BRANCH  16  17
ATOM     17  C   UNL A   1      33.864  27.697  24.578  1.00  0.00     0.277 C 
BRANCH  17  18
ATOM     18  C   UNL A   1      32.887  26.843  23.746  1.00  0.00     0.235 C 
ATOM     19  O   UNL A   1      33.185  25.433  20.599  1.00  0.00    -0.225 OA
ATOM     20  C   UNL A   1      32.914  26.090  21.581  1.00  0.00     0.407 C 
ATOM     21  N   UNL A   1      31.867  26.955  21.678  1.00  0.00    -0.318 N 
ATOM     22  O   UNL A   1      33.623  26.098  22.749  1.00  0.00    -0.441 OA
ATOM     23  C   UNL A   1      31.875  27.627  22.923  1.00  0.00     0.168 C 
ATOM     24  H   UNL A   1      31.193  27.095  20.974  1.00  0.00     0.167 HD
ENDBRANCH  17  18
ENDBRANCH  16  17
ENDBRANCH   9  16
ENDBRANCH   6   8
ENDBRANCH   5   6
ENDBRANCH   4   5
ENDBRANCH   3   4
ENDBRANCH   2   3
ENDBRANCH   1   2
BRANCH   1  25
ATOM     25  C   UNL A   1      33.330  36.140  32.327  1.00  0.00     0.188 C 
BRANCH  25  26
ATOM     26  O   UNL A   1      34.605  36.000  32.894  1.00  0.00    -0.376 OA
BRANCH  26  27
ATOM     27  C   UNL A   1      35.286  34.763  32.739  1.00  0.00     0.202 C 
BRANCH  27  28
ATOM     28  C   UNL A   1      34.661  33.364  32.958  1.00  0.00     0.261 C 
BRANCH  28  29
ATOM     29  O   UNL A   1      35.417  32.197  32.607  1.00  0.00    -0.460 OA
BRANCH  29  30
ATOM     30  C   UNL A   1      36.564  31.991  33.300  1.00  0.00     0.338 C 
ATOM     31  O   UNL A   1      36.744  32.157  34.493  1.00  0.00    -0.246 OA
BRANCH  30  32
ATOM     32  C   UNL A   1      37.540  31.316  32.417  1.00  0.00     0.060 A 
ATOM     33  C   UNL A   1      38.644  30.666  32.990  1.00  0.00     0.016 A 
ATOM     34  C   UNL A   1      37.391  31.369  31.032  1.00  0.00     0.016 A 
ATOM     35  C   UNL A   1      39.625  30.101  32.175  1.00  0.00     0.010 A 
ATOM     36  C   UNL A   1      38.387  30.825  30.216  1.00  0.00     0.010 A 
ATOM     37  C   UNL A   1      39.529  30.226  30.784  1.00  0.00    -0.014 A 
BRANCH  37  38
ATOM     38  C   UNL A   1      40.710  29.935  29.933  1.00  0.00     0.031 A 
ATOM     39  C   UNL A   1      40.831  28.560  29.333  1.00  0.00     0.074 A 
ATOM     40  C   UNL A   1      41.645  30.866  29.677  1.00  0.00     0.049 A 
ATOM     41  N   UNL A   1      41.798  28.045  28.617  1.00  0.00    -0.248 NA
ATOM     42  C   UNL A   1      39.710  27.638  29.580  1.00  0.00     0.031 C 
ATOM     43  C   UNL A   1      41.614  32.245  30.156  1.00  0.00     0.029 A 
ATOM     44  N   UNL A   1      42.809  30.783  28.954  1.00  0.00    -0.354 N 
ATOM     45  C   UNL A   1      41.405  26.742  28.339  1.00  0.00     0.074 A 
ATOM     46  C   UNL A   1      40.134  26.529  28.996  1.00  0.00     0.031 C 
ATOM     47  C   UNL A   1      42.716  32.880  29.720  1.00  0.00     0.029 A 
ATOM     48  C   UNL A   1      43.547  31.941  28.964  1.00  0.00     0.049 A 
ATOM     49  H   UNL A   1      43.089  29.971  28.474  1.00  0.00     0.167 HD
ATOM     50  C   UNL A   1      42.042  25.810  27.593  1.00  0.00     0.037 A 
ATOM     51  C   UNL A   1      44.761  32.205  28.441  1.00  0.00     0.037 A 
ATOM     52  C   UNL A   1      43.302  26.027  26.934  1.00  0.00     0.049 A 
ATOM     53  C   UNL A   1      45.495  31.125  27.685  1.00  0.00     0.074 A 
ATOM     54  C   UNL A   1      44.017  25.155  26.134  1.00  0.00     0.029 A 
ATOM     55  N   UNL A   1      44.039  27.202  27.005  1.00  0.00    -0.354 N 
ATOM     56  N   UNL A   1      45.109  29.903  27.406  1.00  0.00    -0.248 NA
ATOM     57  C   UNL A   1      46.831  31.459  27.172  1.00  0.00     0.031 C 
ATOM     58  C   UNL A   1      45.216  25.774  25.775  1.00  0.00     0.029 A 
ATOM     59  C   UNL A   1      45.220  27.060  26.294  1.00  0.00     0.049 A 
ATOM     60  H   UNL A   1      43.764  28.014  27.488  1.00  0.00     0.167 HD
ATOM     61  C   UNL A   1      46.140  29.332  26.668  1.00  0.00     0.074 A 
ATOM     62  C   UNL A   1      47.163  30.347  26.529  1.00  0.00     0.031 C 
ATOM     63  C   UNL A   1      46.230  28.080  26.157  1.00  0.00     0.037 A 
BRANCH  50  64
ATOM     64  C   UNL A   1      41.399  24.460  27.457  1.00  0.00     0.064 A 
ATOM     65  C   UNL A   1      41.959  23.340  28.090  1.00  0.00     0.173 A 
ATOM     66  C   UNL A   1      40.263  24.260  26.658  1.00  0.00     0.173 A 
ATOM     67  F   UNL A   1      43.047  23.473  28.862  1.00  0.00    -0.203 F 
ATOM     68  C   UNL A   1      41.415  22.069  27.916  1.00  0.00     0.198 A 
ATOM     69  C   UNL A   1      39.701  22.994  26.515  1.00  0.00     0.198 A 
ATOM     70  F   UNL A   1      39.679  25.300  26.042  1.00  0.00    -0.203 F 
ATOM     71  F   UNL A   1      41.990  21.010  28.502  1.00  0.00    -0.200 F 
ATOM     72  C   UNL A   1      40.283  21.899  27.133  1.00  0.00     0.200 A 
ATOM     73  F   UNL A   1      38.589  22.835  25.782  1.00  0.00    -0.200 F 
ATOM     74  F   UNL A   1      39.751  20.678  26.980  1.00  0.00    -0.200 F 
ENDBRANCH  50  64
BRANCH  51  75
ATOM     75  C   UNL A   1      45.358  33.557  28.615  1.00  0.00     0.064 A 
ATOM     76  C   UNL A   1      46.199  33.850  29.700  1.00  0.00     0.173 A 
ATOM     77  C   UNL A   1      45.079  34.590  27.711  1.00  0.00     0.173 A 
ATOM     78  F   UNL A   1      46.505  32.895  30.591  1.00  0.00    -0.203 F 
ATOM     79  C   UNL A   1      46.712  35.132  29.888  1.00  0.00     0.198 A 
ATOM     80  C   UNL A   1      45.617  35.864  27.884  1.00  0.00     0.198 A 
ATOM     81  F   UNL A   1      44.303  34.353  26.642  1.00  0.00    -0.203 F 
ATOM     82  F   UNL A   1      47.482  35.394  30.954  1.00  0.00    -0.200 F 
ATOM     83  C   UNL A   1      46.424  36.138  28.979  1.00  0.00     0.200 A 
ATOM     84  F   UNL A   1      45.358  36.825  26.986  1.00  0.00    -0.200 F 
ATOM     85  F   UNL A   1      46.925  37.367  29.153  1.00  0.00    -0.200 F 
ENDBRANCH  51  75
BRANCH  63  86
ATOM     86  C   UNL A   1      47.467  27.719  25.382  1.00  0.00     0.064 A 
ATOM     87  C   UNL A   1      47.493  27.847  23.983  1.00  0.00     0.173 A 
ATOM     88  C   UNL A   1      48.583  27.148  26.008  1.00  0.00     0.173 A 
ATOM     89  F   UNL A   1      46.446  28.376  23.333  1.00  0.00    -0.203 F 
ATOM     90  C   UNL A   1      48.580  27.393  23.241  1.00  0.00     0.198 A 
ATOM     91  C   UNL A   1      49.683  26.725  25.266  1.00  0.00     0.198 A 
ATOM     92  F   UNL A   1      48.613  27.012  27.343  1.00  0.00    -0.203 F 
ATOM     93  F   UNL A   1      48.560  27.479  21.905  1.00  0.00    -0.200 F 
ATOM     94  C   UNL A   1      49.676  26.836  23.884  1.00  0.00     0.200 A 
ATOM     95  F   UNL A   1      50.751  26.208  25.889  1.00  0.00    -0.200 F 
ATOM     96  F   UNL A   1      50.724  26.402  23.169  1.00  0.00    -0.200 F 
ENDBRANCH  63  86
ENDBRANCH  37  38
ENDBRANCH  30  32
ENDBRANCH  29  30
ENDBRANCH  28  29
ENDBRANCH  27  28
ENDBRANCH  26  27
ENDBRANCH  25  26
ENDBRANCH   1  25
TORSDOF 20
ENDMDL
MODEL 3
REMARK VINA RESULT:     -10.4      2.488      7.520
REMARK SMILES O=C1NC[C@H](COc2c(F)cc(C(=O)OCCOCCOCCOC(=O)c3ccc(-c4c5nc(c(-c6c(F)c(F)c(F)c(F)c6F)c6ccc([nH]6)c(-c6c(F)c(F)c(F)c(F)c6F)c6nc(c(-c7c(F)c(F)c(F)c(F)c7F)c7ccc4[nH]7)C=C6)C=C5)cc3)cc2F)O1
REMARK SMILES IDX 19 1 18 2 17 3 16 4 15 5 13 6 14 7 12 8 8 9 9 10 91 11 10 12
REMARK SMILES IDX 11 13 90 14 92 15 7 16 6 17 5 18 1 19 2 20 3 21 93 22 4 23
REMARK SMILES IDX 20 25 21 26 22 27 23 28 24 29 25 30 26 31 27 32 28 33 89 34
REMARK SMILES IDX 29 35 88 36 30 37 31 38 32 39 82 40 33 41 87 42 81 43 83 44
REMARK SMILES IDX 34 45 86 46 80 47 79 48 35 50 67 51 47 52 66 53 48 54 51 55
REMARK SMILES IDX 65 56 84 57 49 58 50 59 64 61 85 62 52 63 36 64 37 65 45 66
REMARK SMILES IDX 38 67 39 68 43 69 46 70 40 71 41 72 44 73 42 74 68 75 69 76
REMARK SMILES IDX 77 77 70 78 71 79 75 80 78 81 72 82 73 83 76 84 74 85 53 86
REMARK SMILES IDX 54 87 62 88 55 89 56 90 60 91 63 92 57 93 58 94 61 95 59 96
REMARK H PARENT 3 24 83 49 51 60
REMARK Flexibility Score: inf
ROOT
ATOM      1  C   UNL A   1      33.938  26.526  25.849  1.00  0.00     0.188 C 
ENDROOT
BRANCH   1   2
ATOM      2  O   UNL A   1      34.252  25.147  25.739  1.00  0.00    -0.376 OA
BRANCH   2   3
ATOM      3  C   UNL A   1      33.310  24.156  26.128  1.00  0.00     0.202 C 
BRANCH   3   4
ATOM      4  C   UNL A   1      33.000  22.931  25.250  1.00  0.00     0.261 C 
BRANCH   4   5
ATOM      5  O   UNL A   1      31.987  23.134  24.259  1.00  0.00    -0.460 OA
BRANCH   5   6
ATOM      6  C   UNL A   1      32.393  23.682  23.090  1.00  0.00     0.338 C 
ATOM      7  O   UNL A   1      32.919  23.111  22.151  1.00  0.00    -0.246 OA
BRANCH   6   8
ATOM      8  C   UNL A   1      31.946  25.095  23.026  1.00  0.00     0.066 A 
ATOM      9  C   UNL A   1      31.190  27.771  22.920  1.00  0.00     0.190 A 
ATOM     10  C   UNL A   1      30.268  26.796  23.271  1.00  0.00     0.169 A 
ATOM     11  C   UNL A   1      32.438  27.385  22.443  1.00  0.00     0.169 A 
ATOM     12  F   UNL A   1      29.013  27.146  23.585  1.00  0.00    -0.203 F 
ATOM     13  C   UNL A   1      30.657  25.475  23.415  1.00  0.00     0.059 A 
ATOM     14  C   UNL A   1      32.818  26.047  22.478  1.00  0.00     0.059 A 
ATOM     15  F   UNL A   1      33.298  28.296  21.971  1.00  0.00    -0.203 F 
BRANCH   9  16
ATOM     16  O   UNL A   1      30.867  29.084  23.120  1.00  0.00    -0.484 OA
BRANCH  16  17
ATOM     17  C   UNL A   1      30.296  29.652  21.918  1.00  0.00     0.277 C 
BRANCH  17  18
ATOM     18  C   UNL A   1      28.913  30.301  22.124  1.00  0.00     0.235 C 
ATOM     19  O   UNL A   1      27.662  33.383  21.164  1.00  0.00    -0.225 OA
ATOM     20  C   UNL A   1      28.096  32.409  21.741  1.00  0.00     0.407 C 
ATOM     21  N   UNL A   1      28.061  32.217  23.088  1.00  0.00    -0.318 N 
ATOM     22  O   UNL A   1      28.719  31.348  21.145  1.00  0.00    -0.441 OA
ATOM     23  C   UNL A   1      28.722  31.021  23.451  1.00  0.00     0.168 C 
ATOM     24  H   UNL A   1      27.630  32.831  23.726  1.00  0.00     0.167 HD
ENDBRANCH  17  18
ENDBRANCH  16  17
ENDBRANCH   9  16
ENDBRANCH   6   8
ENDBRANCH   5   6
ENDBRANCH   4   5
ENDBRANCH   3   4
ENDBRANCH   2   3
ENDBRANCH   1   2
BRANCH   1  25
ATOM     25  C   UNL A   1      32.596  26.972  26.458  1.00  0.00     0.188 C 
BRANCH  25  26
ATOM     26  O   UNL A   1      32.144  28.240  26.065  1.00  0.00    -0.376 OA
BRANCH  26  27
ATOM     27  C   UNL A   1      31.857  29.201  27.070  1.00  0.00     0.202 C 
BRANCH  27  28
ATOM     28  C   UNL A   1      32.649  30.509  27.310  1.00  0.00     0.261 C 
BRANCH  28  29
ATOM     29  O   UNL A   1      34.076  30.500  27.171  1.00  0.00    -0.460 OA
BRANCH  29  30
ATOM     30  C   UNL A   1      34.784  31.066  28.180  1.00  0.00     0.338 C 
ATOM     31  O   UNL A   1      34.412  31.942  28.940  1.00  0.00    -0.246 OA
BRANCH  30  32
ATOM     32  C   UNL A   1      36.035  30.302  28.372  1.00  0.00     0.060 A 
ATOM     33  C   UNL A   1      36.263  29.659  29.598  1.00  0.00     0.016 A 
ATOM     34  C   UNL A   1      36.999  30.263  27.365  1.00  0.00     0.016 A 
ATOM     35  C   UNL A   1      37.474  29.010  29.836  1.00  0.00     0.010 A 
ATOM     36  C   UNL A   1      38.222  29.634  27.613  1.00  0.00     0.010 A 
ATOM     37  C   UNL A   1      38.481  29.041  28.864  1.00  0.00    -0.014 A 
BRANCH  37  38
ATOM     38  C   UNL A   1      39.868  28.656  29.225  1.00  0.00     0.031 A 
ATOM     39  C   UNL A   1      40.660  29.589  30.101  1.00  0.00     0.074 A 
ATOM     40  C   UNL A   1      40.412  27.500  28.807  1.00  0.00     0.049 A 
ATOM     41  N   UNL A   1      41.905  29.508  30.494  1.00  0.00    -0.248 NA
ATOM     42  C   UNL A   1      39.949  30.779  30.597  1.00  0.00     0.031 C 
ATOM     43  C   UNL A   1      39.732  26.492  28.000  1.00  0.00     0.029 A 
ATOM     44  N   UNL A   1      41.672  26.987  29.003  1.00  0.00    -0.354 N 
ATOM     45  C   UNL A   1      42.127  30.638  31.271  1.00  0.00     0.074 A 
ATOM     46  C   UNL A   1      40.903  31.410  31.263  1.00  0.00     0.031 C 
ATOM     47  C   UNL A   1      40.587  25.480  27.760  1.00  0.00     0.029 A 
ATOM     48  C   UNL A   1      41.883  25.790  28.365  1.00  0.00     0.049 A 
ATOM     49  H   UNL A   1      42.358  27.436  29.548  1.00  0.00     0.167 HD
ATOM     50  C   UNL A   1      43.247  30.993  31.942  1.00  0.00     0.037 A 
ATOM     51  C   UNL A   1      43.000  25.042  28.265  1.00  0.00     0.037 A 
ATOM     52  C   UNL A   1      44.459  30.219  31.957  1.00  0.00     0.049 A 
ATOM     53  C   UNL A   1      44.264  25.499  28.950  1.00  0.00     0.074 A 
ATOM     54  C   UNL A   1      45.640  30.481  32.626  1.00  0.00     0.029 A 
ATOM     55  N   UNL A   1      44.647  29.032  31.262  1.00  0.00    -0.354 N 
ATOM     56  N   UNL A   1      44.462  26.555  29.702  1.00  0.00    -0.248 NA
ATOM     57  C   UNL A   1      45.460  24.662  28.773  1.00  0.00     0.031 C 
ATOM     58  C   UNL A   1      46.564  29.492  32.286  1.00  0.00     0.029 A 
ATOM     59  C   UNL A   1      45.939  28.572  31.457  1.00  0.00     0.049 A 
ATOM     60  H   UNL A   1      43.964  28.584  30.712  1.00  0.00     0.167 HD
ATOM     61  C   UNL A   1      45.791  26.499  30.105  1.00  0.00     0.074 A 
ATOM     62  C   UNL A   1      46.350  25.294  29.527  1.00  0.00     0.031 C 
ATOM     63  C   UNL A   1      46.484  27.368  30.880  1.00  0.00     0.037 A 
BRANCH  50  64
ATOM     64  C   UNL A   1      43.226  32.285  32.709  1.00  0.00     0.064 A 
ATOM     65  C   UNL A   1      42.796  32.310  34.045  1.00  0.00     0.173 A 
ATOM     66  C   UNL A   1      43.576  33.505  32.111  1.00  0.00     0.173 A 
ATOM     67  F   UNL A   1      42.445  31.173  34.664  1.00  0.00    -0.203 F 
ATOM     68  C   UNL A   1      42.703  33.509  34.747  1.00  0.00     0.198 A 
ATOM     69  C   UNL A   1      43.516  34.697  32.827  1.00  0.00     0.198 A 
ATOM     70  F   UNL A   1      44.008  33.535  30.841  1.00  0.00    -0.203 F 
ATOM     71  F   UNL A   1      42.254  33.511  36.009  1.00  0.00    -0.200 F 
ATOM     72  C   UNL A   1      43.069  34.701  34.139  1.00  0.00     0.200 A 
ATOM     73  F   UNL A   1      43.898  35.845  32.248  1.00  0.00    -0.200 F 
ATOM     74  F   UNL A   1      42.994  35.851  34.822  1.00  0.00    -0.200 F 
ENDBRANCH  50  64
BRANCH  51  75
ATOM     75  C   UNL A   1      42.969  23.776  27.484  1.00  0.00     0.064 A 
ATOM     76  C   UNL A   1      43.376  23.736  26.141  1.00  0.00     0.173 A 
ATOM     77  C   UNL A   1      42.508  22.584  28.059  1.00  0.00     0.173 A 
ATOM     78  F   UNL A   1      43.832  24.846  25.543  1.00  0.00    -0.203 F 
ATOM     79  C   UNL A   1      43.294  22.559  25.398  1.00  0.00     0.198 A 
ATOM     80  C   UNL A   1      42.455  21.402  27.324  1.00  0.00     0.198 A 
ATOM     81  F   UNL A   1      42.135  22.564  29.348  1.00  0.00    -0.203 F 
ATOM     82  F   UNL A   1      43.652  22.559  24.106  1.00  0.00    -0.200 F 
ATOM     83  C   UNL A   1      42.836  21.392  25.990  1.00  0.00     0.200 A 
ATOM     84  F   UNL A   1      42.039  20.270  27.909  1.00  0.00    -0.200 F 
ATOM     85  F   UNL A   1      42.767  20.259  25.279  1.00  0.00    -0.200 F 
ENDBRANCH  51  75
BRANCH  63  86
ATOM     86  C   UNL A   1      47.927  27.060  31.173  1.00  0.00     0.064 A 
ATOM     87  C   UNL A   1      48.944  27.560  30.344  1.00  0.00     0.173 A 
ATOM     88  C   UNL A   1      48.294  26.188  32.207  1.00  0.00     0.173 A 
ATOM     89  F   UNL A   1      48.646  28.390  29.333  1.00  0.00    -0.203 F 
ATOM     90  C   UNL A   1      50.270  27.176  30.523  1.00  0.00     0.198 A 
ATOM     91  C   UNL A   1      49.626  25.832  32.405  1.00  0.00     0.198 A 
ATOM     92  F   UNL A   1      47.362  25.690  33.034  1.00  0.00    -0.203 F 
ATOM     93  F   UNL A   1      51.215  27.626  29.688  1.00  0.00    -0.200 F 
ATOM     94  C   UNL A   1      50.610  26.315  31.556  1.00  0.00     0.200 A 
ATOM     95  F   UNL A   1      49.957  25.018  33.417  1.00  0.00    -0.200 F 
ATOM     96  F   UNL A   1      51.888  25.949  31.730  1.00  0.00    -0.200 F 
ENDBRANCH  63  86
ENDBRANCH  37  38
ENDBRANCH  30  32
ENDBRANCH  29  30
ENDBRANCH  28  29
ENDBRANCH  27  28
ENDBRANCH  26  27
ENDBRANCH  25  26
ENDBRANCH   1  25
TORSDOF 20
ENDMDL
