MODEL 1
REMARK VINA RESULT:     -10.4      0.000      0.000
REMARK SMILES C[C@H](NC(=O)N(C)C)c1ccc(/C=C/C(=O)OCCOCCOCCOC(=O)c2ccc(-c3c4nc(c(-c5c(F)c(F)c(F)c(F)c5F)c5ccc([nH]5)c(-c5c(F)c(F)c(F)c(F)c5F)c5nc(c(-c6c(F)c(F)c(F)c(F)c6F)c6ccc3[nH]6)C=C5)C=C4)cc2)cc1
REMARK SMILES IDX 21 1 20 2 19 3 18 4 17 5 15 6 16 7 14 8 13 9 12 10 9 11
REMARK SMILES IDX 10 12 93 13 11 14 92 15 2 16 1 17 3 18 4 19 5 21 6 22 7 23
REMARK SMILES IDX 8 24 22 25 23 26 24 27 25 28 26 29 27 30 28 31 29 32 30 33
REMARK SMILES IDX 91 34 31 35 90 36 32 37 33 38 34 39 84 40 35 41 89 42 83 43
REMARK SMILES IDX 85 44 36 45 88 46 82 47 81 48 37 50 69 51 49 52 68 53 50 54
REMARK SMILES IDX 53 55 67 56 86 57 51 58 52 59 66 61 87 62 54 63 38 64 39 65
REMARK SMILES IDX 47 66 40 67 41 68 45 69 48 70 42 71 43 72 46 73 44 74 70 75
REMARK SMILES IDX 71 76 79 77 72 78 73 79 77 80 80 81 74 82 75 83 78 84 76 85
REMARK SMILES IDX 55 86 56 87 64 88 57 89 58 90 62 91 65 92 59 93 60 94 63 95
REMARK SMILES IDX 61 96
REMARK H PARENT 3 20 85 49 53 60
REMARK Flexibility Score: inf
ROOT
ATOM      1  C   UNL A   1      44.154  23.420  31.295  1.00  0.00     0.188 C 
ENDROOT
BRANCH   1   2
ATOM      2  O   UNL A   1      44.382  22.954  29.976  1.00  0.00    -0.376 OA
BRANCH   2   3
ATOM      3  C   UNL A   1      43.584  23.423  28.897  1.00  0.00     0.202 C 
BRANCH   3   4
ATOM      4  C   UNL A   1      42.106  23.033  28.679  1.00  0.00     0.261 C 
BRANCH   4   5
ATOM      5  O   UNL A   1      41.724  22.588  27.369  1.00  0.00    -0.460 OA
BRANCH   5   6
ATOM      6  C   UNL A   1      40.733  21.669  27.345  1.00  0.00     0.330 C 
ATOM      7  O   UNL A   1      40.768  20.555  27.849  1.00  0.00    -0.247 OA
BRANCH   6   8
ATOM      8  C   UNL A   1      39.477  22.188  26.768  1.00  0.00     0.094 C 
ATOM      9  C   UNL A   1      38.769  21.719  25.726  1.00  0.00     0.015 C 
BRANCH   9  10
ATOM     10  C   UNL A   1      37.569  22.431  25.241  1.00  0.00    -0.025 A 
ATOM     11  C   UNL A   1      35.184  23.760  24.392  1.00  0.00    -0.026 A 
ATOM     12  C   UNL A   1      35.856  24.136  25.564  1.00  0.00     0.006 A 
ATOM     13  C   UNL A   1      35.761  22.726  23.629  1.00  0.00     0.006 A 
ATOM     14  C   UNL A   1      37.040  23.509  25.960  1.00  0.00     0.008 A 
ATOM     15  C   UNL A   1      36.935  22.068  24.049  1.00  0.00     0.008 A 
BRANCH  11  16
ATOM     16  C   UNL A   1      33.894  24.465  23.928  1.00  0.00     0.111 C 
ATOM     17  C   UNL A   1      33.215  23.724  22.780  1.00  0.00     0.036 C 
BRANCH  16  18
ATOM     18  N   UNL A   1      34.141  25.909  23.781  1.00  0.00    -0.331 N 
ATOM     19  C   UNL A   1      33.630  27.111  24.080  1.00  0.00     0.317 C 
ATOM     20  H   UNL A   1      34.982  26.038  23.286  1.00  0.00     0.165 HD
ATOM     21  O   UNL A   1      34.043  28.035  23.369  1.00  0.00    -0.249 OA
ATOM     22  N   UNL A   1      32.744  27.350  25.085  1.00  0.00    -0.331 N 
ATOM     23  C   UNL A   1      32.681  26.647  26.346  1.00  0.00     0.148 C 
ATOM     24  C   UNL A   1      32.068  28.641  25.080  1.00  0.00     0.148 C 
ENDBRANCH  16  18
ENDBRANCH  11  16
ENDBRANCH   9  10
ENDBRANCH   6   8
ENDBRANCH   5   6
ENDBRANCH   4   5
ENDBRANCH   3   4
ENDBRANCH   2   3
ENDBRANCH   1   2
BRANCH   1  25
ATOM     25  C   UNL A   1      44.865  24.700  31.768  1.00  0.00     0.188 C 
BRANCH  25  26
ATOM     26  O   UNL A   1      45.890  24.462  32.703  1.00  0.00    -0.376 OA
BRANCH  26  27
ATOM     27  C   UNL A   1      45.685  23.494  33.719  1.00  0.00     0.202 C 
BRANCH  27  28
ATOM     28  C   UNL A   1      46.386  23.502  35.097  1.00  0.00     0.261 C 
BRANCH  28  29
ATOM     29  O   UNL A   1      47.122  24.666  35.490  1.00  0.00    -0.460 OA
BRANCH  29  30
ATOM     30  C   UNL A   1      46.587  25.442  36.455  1.00  0.00     0.338 C 
ATOM     31  O   UNL A   1      46.966  25.554  37.615  1.00  0.00    -0.246 OA
BRANCH  30  32
ATOM     32  C   UNL A   1      45.544  26.283  35.842  1.00  0.00     0.060 A 
ATOM     33  C   UNL A   1      44.199  25.923  35.997  1.00  0.00     0.016 A 
ATOM     34  C   UNL A   1      45.893  27.418  35.105  1.00  0.00     0.016 A 
ATOM     35  C   UNL A   1      43.196  26.692  35.403  1.00  0.00     0.010 A 
ATOM     36  C   UNL A   1      44.887  28.175  34.495  1.00  0.00     0.010 A 
ATOM     37  C   UNL A   1      43.536  27.803  34.620  1.00  0.00    -0.014 A 
BRANCH  37  38
ATOM     38  C   UNL A   1      42.499  28.480  33.803  1.00  0.00     0.031 A 
ATOM     39  C   UNL A   1      41.543  29.421  34.484  1.00  0.00     0.074 A 
ATOM     40  C   UNL A   1      42.409  28.275  32.477  1.00  0.00     0.049 A 
ATOM     41  N   UNL A   1      40.526  30.079  33.990  1.00  0.00    -0.248 NA
ATOM     42  C   UNL A   1      41.765  29.646  35.920  1.00  0.00     0.031 C 
ATOM     43  C   UNL A   1      43.295  27.421  31.692  1.00  0.00     0.029 A 
ATOM     44  N   UNL A   1      41.513  28.768  31.558  1.00  0.00    -0.354 N 
ATOM     45  C   UNL A   1      39.983  30.788  35.053  1.00  0.00     0.074 A 
ATOM     46  C   UNL A   1      40.762  30.455  36.226  1.00  0.00     0.031 C 
ATOM     47  C   UNL A   1      42.891  27.437  30.409  1.00  0.00     0.029 A 
ATOM     48  C   UNL A   1      41.698  28.273  30.291  1.00  0.00     0.049 A 
ATOM     49  H   UNL A   1      40.807  29.414  31.787  1.00  0.00     0.167 HD
ATOM     50  C   UNL A   1      38.934  31.646  35.051  1.00  0.00     0.037 A 
ATOM     51  C   UNL A   1      40.969  28.456  29.172  1.00  0.00     0.037 A 
ATOM     52  C   UNL A   1      38.155  31.971  33.885  1.00  0.00     0.049 A 
ATOM     53  C   UNL A   1      39.755  29.349  29.213  1.00  0.00     0.074 A 
ATOM     54  C   UNL A   1      37.088  32.846  33.778  1.00  0.00     0.029 A 
ATOM     55  N   UNL A   1      38.351  31.424  32.626  1.00  0.00    -0.354 N 
ATOM     56  N   UNL A   1      39.268  30.044  30.213  1.00  0.00    -0.248 NA
ATOM     57  C   UNL A   1      38.988  29.485  27.965  1.00  0.00     0.031 C 
ATOM     58  C   UNL A   1      36.598  32.780  32.470  1.00  0.00     0.029 A 
ATOM     59  C   UNL A   1      37.402  31.917  31.743  1.00  0.00     0.049 A 
ATOM     60  H   UNL A   1      39.059  30.780  32.393  1.00  0.00     0.167 HD
ATOM     61  C   UNL A   1      38.163  30.721  29.709  1.00  0.00     0.074 A 
ATOM     62  C   UNL A   1      38.060  30.367  28.310  1.00  0.00     0.031 C 
ATOM     63  C   UNL A   1      37.312  31.562  30.349  1.00  0.00     0.037 A 
BRANCH  50  64
ATOM     64  C   UNL A   1      38.547  32.269  36.362  1.00  0.00     0.064 A 
ATOM     65  C   UNL A   1      37.838  31.556  37.340  1.00  0.00     0.173 A 
ATOM     66  C   UNL A   1      38.915  33.591  36.653  1.00  0.00     0.173 A 
ATOM     67  F   UNL A   1      37.450  30.292  37.106  1.00  0.00    -0.203 F 
ATOM     68  C   UNL A   1      37.486  32.151  38.548  1.00  0.00     0.198 A 
ATOM     69  C   UNL A   1      38.591  34.173  37.876  1.00  0.00     0.198 A 
ATOM     70  F   UNL A   1      39.597  34.318  35.756  1.00  0.00    -0.203 F 
ATOM     71  F   UNL A   1      36.763  31.467  39.445  1.00  0.00    -0.200 F 
ATOM     72  C   UNL A   1      37.869  33.457  38.818  1.00  0.00     0.200 A 
ATOM     73  F   UNL A   1      38.976  35.430  38.141  1.00  0.00    -0.200 F 
ATOM     74  F   UNL A   1      37.537  34.027  39.985  1.00  0.00    -0.200 F 
ENDBRANCH  50  64
BRANCH  51  75
ATOM     75  C   UNL A   1      41.354  27.765  27.911  1.00  0.00     0.064 A 
ATOM     76  C   UNL A   1      40.631  26.659  27.441  1.00  0.00     0.173 A 
ATOM     77  C   UNL A   1      42.469  28.177  27.166  1.00  0.00     0.173 A 
ATOM     78  F   UNL A   1      39.574  26.208  28.133  1.00  0.00    -0.203 F 
ATOM     79  C   UNL A   1      41.020  25.981  26.287  1.00  0.00     0.198 A 
ATOM     80  C   UNL A   1      42.839  27.517  25.995  1.00  0.00     0.198 A 
ATOM     81  F   UNL A   1      43.201  29.224  27.574  1.00  0.00    -0.203 F 
ATOM     82  F   UNL A   1      40.342  24.894  25.893  1.00  0.00    -0.200 F 
ATOM     83  C   UNL A   1      42.120  26.414  25.562  1.00  0.00     0.200 A 
ATOM     84  F   UNL A   1      43.896  27.945  25.293  1.00  0.00    -0.200 F 
ATOM     85  F   UNL A   1      42.492  25.761  24.453  1.00  0.00    -0.200 F 
ENDBRANCH  51  75
BRANCH  63  86
ATOM     86  C   UNL A   1      36.216  32.195  29.536  1.00  0.00     0.064 A 
ATOM     87  C   UNL A   1      35.140  31.447  29.032  1.00  0.00     0.173 A 
ATOM     88  C   UNL A   1      36.220  33.578  29.294  1.00  0.00     0.173 A 
ATOM     89  F   UNL A   1      35.093  30.119  29.222  1.00  0.00    -0.203 F 
ATOM     90  C   UNL A   1      34.127  32.056  28.294  1.00  0.00     0.198 A 
ATOM     91  C   UNL A   1      35.187  34.187  28.587  1.00  0.00     0.198 A 
ATOM     92  F   UNL A   1      37.219  34.343  29.760  1.00  0.00    -0.203 F 
ATOM     93  F   UNL A   1      33.139  31.312  27.777  1.00  0.00    -0.200 F 
ATOM     94  C   UNL A   1      34.148  33.425  28.079  1.00  0.00     0.200 A 
ATOM     95  F   UNL A   1      35.200  35.515  28.397  1.00  0.00    -0.200 F 
ATOM     96  F   UNL A   1      33.167  34.010  27.378  1.00  0.00    -0.200 F 
ENDBRANCH  63  86
ENDBRANCH  37  38
ENDBRANCH  30  32
ENDBRANCH  29  30
ENDBRANCH  28  29
ENDBRANCH  27  28
ENDBRANCH  26  27
ENDBRANCH  25  26
ENDBRANCH   1  25
TORSDOF 20
ENDMDL
MODEL 2
REMARK VINA RESULT:     -10.2      5.650      9.681
REMARK SMILES C[C@H](NC(=O)N(C)C)c1ccc(/C=C/C(=O)OCCOCCOCCOC(=O)c2ccc(-c3c4nc(c(-c5c(F)c(F)c(F)c(F)c5F)c5ccc([nH]5)c(-c5c(F)c(F)c(F)c(F)c5F)c5nc(c(-c6c(F)c(F)c(F)c(F)c6F)c6ccc3[nH]6)C=C5)C=C4)cc2)cc1
REMARK SMILES IDX 21 1 20 2 19 3 18 4 17 5 15 6 16 7 14 8 13 9 12 10 9 11
REMARK SMILES IDX 10 12 93 13 11 14 92 15 2 16 1 17 3 18 4 19 5 21 6 22 7 23
REMARK SMILES IDX 8 24 22 25 23 26 24 27 25 28 26 29 27 30 28 31 29 32 30 33
REMARK SMILES IDX 91 34 31 35 90 36 32 37 33 38 34 39 84 40 35 41 89 42 83 43
REMARK SMILES IDX 85 44 36 45 88 46 82 47 81 48 37 50 69 51 49 52 68 53 50 54
REMARK SMILES IDX 53 55 67 56 86 57 51 58 52 59 66 61 87 62 54 63 38 64 39 65
REMARK SMILES IDX 47 66 40 67 41 68 45 69 48 70 42 71 43 72 46 73 44 74 70 75
REMARK SMILES IDX 71 76 79 77 72 78 73 79 77 80 80 81 74 82 75 83 78 84 76 85
REMARK SMILES IDX 55 86 56 87 64 88 57 89 58 90 62 91 65 92 59 93 60 94 63 95
REMARK SMILES IDX 61 96
REMARK H PARENT 3 20 85 49 53 60
REMARK Flexibility Score: inf
ROOT
ATOM      1  C   UNL A   1      40.478  22.248  26.509  1.00  0.00     0.188 C 
ENDROOT
BRANCH   1   2
ATOM      2  O   UNL A   1      39.225  21.717  26.111  1.00  0.00    -0.376 OA
BRANCH   2   3
ATOM      3  C   UNL A   1      38.152  22.582  25.762  1.00  0.00     0.202 C 
BRANCH   3   4
ATOM      4  C   UNL A   1      36.880  22.126  25.015  1.00  0.00     0.261 C 
BRANCH   4   5
ATOM      5  O   UNL A   1      35.923  21.347  25.749  1.00  0.00    -0.460 OA
BRANCH   5   6
ATOM      6  C   UNL A   1      34.831  20.973  25.046  1.00  0.00     0.330 C 
ATOM      7  O   UNL A   1      34.587  19.847  24.636  1.00  0.00    -0.247 OA
BRANCH   6   8
ATOM      8  C   UNL A   1      33.820  22.043  24.935  1.00  0.00     0.094 C 
ATOM      9  C   UNL A   1      33.292  22.593  23.828  1.00  0.00     0.015 C 
BRANCH   9  10
ATOM     10  C   UNL A   1      32.344  23.722  23.919  1.00  0.00    -0.025 A 
ATOM     11  C   UNL A   1      30.516  25.920  23.975  1.00  0.00    -0.026 A 
ATOM     12  C   UNL A   1      30.155  24.680  23.430  1.00  0.00     0.006 A 
ATOM     13  C   UNL A   1      31.806  26.021  24.532  1.00  0.00     0.006 A 
ATOM     14  C   UNL A   1      31.037  23.596  23.434  1.00  0.00     0.008 A 
ATOM     15  C   UNL A   1      32.709  24.939  24.502  1.00  0.00     0.008 A 
BRANCH  11  16
ATOM     16  C   UNL A   1      29.542  27.115  24.006  1.00  0.00     0.111 C 
ATOM     17  C   UNL A   1      28.092  26.679  23.818  1.00  0.00     0.036 C 
BRANCH  16  18
ATOM     18  N   UNL A   1      30.062  28.203  23.160  1.00  0.00    -0.331 N 
ATOM     19  C   UNL A   1      29.676  29.174  22.321  1.00  0.00     0.317 C 
ATOM     20  H   UNL A   1      31.042  28.224  23.239  1.00  0.00     0.165 HD
ATOM     21  O   UNL A   1      30.563  29.572  21.557  1.00  0.00    -0.249 OA
ATOM     22  N   UNL A   1      28.432  29.723  22.288  1.00  0.00    -0.331 N 
ATOM     23  C   UNL A   1      27.554  29.906  23.422  1.00  0.00     0.148 C 
ATOM     24  C   UNL A   1      28.099  30.543  21.131  1.00  0.00     0.148 C 
ENDBRANCH  16  18
ENDBRANCH  11  16
ENDBRANCH   9  10
ENDBRANCH   6   8
ENDBRANCH   5   6
ENDBRANCH   4   5
ENDBRANCH   3   4
ENDBRANCH   2   3
ENDBRANCH   1   2
BRANCH   1  25
ATOM     25  C   UNL A   1      41.649  21.283  26.766  1.00  0.00     0.188 C 
BRANCH  25  26
ATOM     26  O   UNL A   1      41.462  20.007  26.201  1.00  0.00    -0.376 OA
BRANCH  26  27
ATOM     27  C   UNL A   1      42.416  18.990  26.464  1.00  0.00     0.202 C 
BRANCH  27  28
ATOM     28  C   UNL A   1      43.440  18.458  25.436  1.00  0.00     0.261 C 
BRANCH  28  29
ATOM     29  O   UNL A   1      43.767  19.271  24.303  1.00  0.00    -0.460 OA
BRANCH  29  30
ATOM     30  C   UNL A   1      45.039  19.710  24.201  1.00  0.00     0.338 C 
ATOM     31  O   UNL A   1      45.974  19.158  23.633  1.00  0.00    -0.246 OA
BRANCH  30  32
ATOM     32  C   UNL A   1      45.098  21.076  24.752  1.00  0.00     0.060 A 
ATOM     33  C   UNL A   1      44.899  22.167  23.895  1.00  0.00     0.016 A 
ATOM     34  C   UNL A   1      45.363  21.280  26.109  1.00  0.00     0.016 A 
ATOM     35  C   UNL A   1      44.976  23.469  24.392  1.00  0.00     0.010 A 
ATOM     36  C   UNL A   1      45.459  22.587  26.600  1.00  0.00     0.010 A 
ATOM     37  C   UNL A   1      45.291  23.688  25.740  1.00  0.00    -0.014 A 
BRANCH  37  38
ATOM     38  C   UNL A   1      45.601  25.058  26.217  1.00  0.00     0.031 A 
ATOM     39  C   UNL A   1      44.491  25.889  26.801  1.00  0.00     0.074 A 
ATOM     40  C   UNL A   1      46.846  25.559  26.143  1.00  0.00     0.049 A 
ATOM     41  N   UNL A   1      44.511  27.125  27.229  1.00  0.00    -0.248 NA
ATOM     42  C   UNL A   1      43.180  25.233  26.915  1.00  0.00     0.031 C 
ATOM     43  C   UNL A   1      48.015  24.846  25.636  1.00  0.00     0.029 A 
ATOM     44  N   UNL A   1      47.331  26.798  26.490  1.00  0.00    -0.354 N 
ATOM     45  C   UNL A   1      43.217  27.397  27.654  1.00  0.00     0.074 A 
ATOM     46  C   UNL A   1      42.429  26.210  27.403  1.00  0.00     0.031 C 
ATOM     47  C   UNL A   1      49.082  25.664  25.690  1.00  0.00     0.029 A 
ATOM     48  C   UNL A   1      48.662  26.968  26.202  1.00  0.00     0.049 A 
ATOM     49  H   UNL A   1      46.775  27.497  26.905  1.00  0.00     0.167 HD
ATOM     50  C   UNL A   1      42.730  28.533  28.211  1.00  0.00     0.037 A 
ATOM     51  C   UNL A   1      49.444  28.060  26.316  1.00  0.00     0.037 A 
ATOM     52  C   UNL A   1      43.513  29.716  28.454  1.00  0.00     0.049 A 
ATOM     53  C   UNL A   1      48.858  29.340  26.860  1.00  0.00     0.074 A 
ATOM     54  C   UNL A   1      43.115  30.908  29.034  1.00  0.00     0.029 A 
ATOM     55  N   UNL A   1      44.850  29.862  28.117  1.00  0.00    -0.354 N 
ATOM     56  N   UNL A   1      47.644  29.580  27.293  1.00  0.00    -0.248 NA
ATOM     57  C   UNL A   1      49.757  30.502  26.934  1.00  0.00     0.031 C 
ATOM     58  C   UNL A   1      44.194  31.797  28.990  1.00  0.00     0.029 A 
ATOM     59  C   UNL A   1      45.284  31.138  28.447  1.00  0.00     0.049 A 
ATOM     60  H   UNL A   1      45.409  29.165  27.705  1.00  0.00     0.167 HD
ATOM     61  C   UNL A   1      47.642  30.904  27.717  1.00  0.00     0.074 A 
ATOM     62  C   UNL A   1      48.980  31.411  27.505  1.00  0.00     0.031 C 
ATOM     63  C   UNL A   1      46.622  31.632  28.237  1.00  0.00     0.037 A 
BRANCH  50  64
ATOM     64  C   UNL A   1      41.271  28.560  28.566  1.00  0.00     0.064 A 
ATOM     65  C   UNL A   1      40.291  28.947  27.639  1.00  0.00     0.173 A 
ATOM     66  C   UNL A   1      40.845  28.166  29.843  1.00  0.00     0.173 A 
ATOM     67  F   UNL A   1      40.645  29.345  26.408  1.00  0.00    -0.203 F 
ATOM     68  C   UNL A   1      38.943  28.967  27.988  1.00  0.00     0.198 A 
ATOM     69  C   UNL A   1      39.494  28.154  30.178  1.00  0.00     0.198 A 
ATOM     70  F   UNL A   1      41.740  27.783  30.767  1.00  0.00    -0.203 F 
ATOM     71  F   UNL A   1      38.030  29.391  27.103  1.00  0.00    -0.200 F 
ATOM     72  C   UNL A   1      38.545  28.564  29.254  1.00  0.00     0.200 A 
ATOM     73  F   UNL A   1      39.110  27.750  31.397  1.00  0.00    -0.200 F 
ATOM     74  F   UNL A   1      37.247  28.576  29.586  1.00  0.00    -0.200 F 
ENDBRANCH  50  64
BRANCH  51  75
ATOM     75  C   UNL A   1      50.869  28.005  25.890  1.00  0.00     0.064 A 
ATOM     76  C   UNL A   1      51.899  27.847  26.828  1.00  0.00     0.173 A 
ATOM     77  C   UNL A   1      51.231  28.138  24.542  1.00  0.00     0.173 A 
ATOM     78  F   UNL A   1      51.606  27.745  28.133  1.00  0.00    -0.203 F 
ATOM     79  C   UNL A   1      53.237  27.845  26.436  1.00  0.00     0.198 A 
ATOM     80  C   UNL A   1      52.568  28.104  24.147  1.00  0.00     0.198 A 
ATOM     81  F   UNL A   1      50.286  28.299  23.604  1.00  0.00    -0.203 F 
ATOM     82  F   UNL A   1      54.202  27.749  27.361  1.00  0.00    -0.200 F 
ATOM     83  C   UNL A   1      53.570  27.968  25.096  1.00  0.00     0.200 A 
ATOM     84  F   UNL A   1      52.884  28.213  22.850  1.00  0.00    -0.200 F 
ATOM     85  F   UNL A   1      54.856  27.965  24.720  1.00  0.00    -0.200 F 
ENDBRANCH  51  75
BRANCH  63  86
ATOM     86  C   UNL A   1      46.919  33.046  28.656  1.00  0.00     0.064 A 
ATOM     87  C   UNL A   1      46.753  34.129  27.778  1.00  0.00     0.173 A 
ATOM     88  C   UNL A   1      47.333  33.325  29.967  1.00  0.00     0.173 A 
ATOM     89  F   UNL A   1      46.372  33.918  26.509  1.00  0.00    -0.203 F 
ATOM     90  C   UNL A   1      47.019  35.433  28.191  1.00  0.00     0.198 A 
ATOM     91  C   UNL A   1      47.564  34.633  30.386  1.00  0.00     0.198 A 
ATOM     92  F   UNL A   1      47.499  32.329  30.851  1.00  0.00    -0.203 F 
ATOM     93  F   UNL A   1      46.905  36.445  27.319  1.00  0.00    -0.200 F 
ATOM     94  C   UNL A   1      47.416  35.684  29.495  1.00  0.00     0.200 A 
ATOM     95  F   UNL A   1      47.929  34.875  31.653  1.00  0.00    -0.200 F 
ATOM     96  F   UNL A   1      47.661  36.941  29.893  1.00  0.00    -0.200 F 
ENDBRANCH  63  86
ENDBRANCH  37  38
ENDBRANCH  30  32
ENDBRANCH  29  30
ENDBRANCH  28  29
ENDBRANCH  27  28
ENDBRANCH  26  27
ENDBRANCH  25  26
ENDBRANCH   1  25
TORSDOF 20
ENDMDL
MODEL 3
REMARK VINA RESULT:     -10.1      2.941      7.798
REMARK SMILES C[C@H](NC(=O)N(C)C)c1ccc(/C=C/C(=O)OCCOCCOCCOC(=O)c2ccc(-c3c4nc(c(-c5c(F)c(F)c(F)c(F)c5F)c5ccc([nH]5)c(-c5c(F)c(F)c(F)c(F)c5F)c5nc(c(-c6c(F)c(F)c(F)c(F)c6F)c6ccc3[nH]6)C=C5)C=C4)cc2)cc1
REMARK SMILES IDX 21 1 20 2 19 3 18 4 17 5 15 6 16 7 14 8 13 9 12 10 9 11
REMARK SMILES IDX 10 12 93 13 11 14 92 15 2 16 1 17 3 18 4 19 5 21 6 22 7 23
REMARK SMILES IDX 8 24 22 25 23 26 24 27 25 28 26 29 27 30 28 31 29 32 30 33
REMARK SMILES IDX 91 34 31 35 90 36 32 37 33 38 34 39 84 40 35 41 89 42 83 43
REMARK SMILES IDX 85 44 36 45 88 46 82 47 81 48 37 50 69 51 49 52 68 53 50 54
REMARK SMILES IDX 53 55 67 56 86 57 51 58 52 59 66 61 87 62 54 63 38 64 39 65
REMARK SMILES IDX 47 66 40 67 41 68 45 69 48 70 42 71 43 72 46 73 44 74 70 75
REMARK SMILES IDX 71 76 79 77 72 78 73 79 77 80 80 81 74 82 75 83 78 84 76 85
REMARK SMILES IDX 55 86 56 87 64 88 57 89 58 90 62 91 65 92 59 93 60 94 63 95
REMARK SMILES IDX 61 96
REMARK H PARENT 3 20 85 49 53 60
REMARK Flexibility Score: inf
ROOT
ATOM      1  C   UNL A   1      40.966  22.182  27.237  1.00  0.00     0.188 C 
ENDROOT
BRANCH   1   2
ATOM      2  O   UNL A   1      40.101  22.945  26.414  1.00  0.00    -0.376 OA
BRANCH   2   3
ATOM      3  C   UNL A   1      38.725  22.604  26.301  1.00  0.00     0.202 C 
BRANCH   3   4
ATOM      4  C   UNL A   1      38.161  21.613  25.260  1.00  0.00     0.261 C 
BRANCH   4   5
ATOM      5  O   UNL A   1      37.233  20.621  25.724  1.00  0.00    -0.460 OA
BRANCH   5   6
ATOM      6  C   UNL A   1      36.075  20.553  25.029  1.00  0.00     0.330 C 
ATOM      7  O   UNL A   1      35.452  19.535  24.760  1.00  0.00    -0.247 OA
BRANCH   6   8
ATOM      8  C   UNL A   1      35.500  21.880  24.732  1.00  0.00     0.094 C 
ATOM      9  C   UNL A   1      34.312  22.180  24.180  1.00  0.00     0.015 C 
BRANCH   9  10
ATOM     10  C   UNL A   1      33.944  23.580  23.882  1.00  0.00    -0.025 A 
ATOM     11  C   UNL A   1      33.315  26.289  23.219  1.00  0.00    -0.026 A 
ATOM     12  C   UNL A   1      32.981  25.229  22.365  1.00  0.00     0.006 A 
ATOM     13  C   UNL A   1      33.936  25.955  24.439  1.00  0.00     0.006 A 
ATOM     14  C   UNL A   1      33.258  23.902  22.706  1.00  0.00     0.008 A 
ATOM     15  C   UNL A   1      34.249  24.620  24.765  1.00  0.00     0.008 A 
BRANCH  11  16
ATOM     16  C   UNL A   1      32.987  27.754  22.870  1.00  0.00     0.111 C 
ATOM     17  C   UNL A   1      34.186  28.487  22.275  1.00  0.00     0.036 C 
BRANCH  16  18
ATOM     18  N   UNL A   1      32.266  28.384  23.989  1.00  0.00    -0.331 N 
ATOM     19  C   UNL A   1      31.268  29.233  24.268  1.00  0.00     0.317 C 
ATOM     20  H   UNL A   1      32.656  28.068  24.835  1.00  0.00     0.165 HD
ATOM     21  O   UNL A   1      31.322  29.734  25.397  1.00  0.00    -0.249 OA
ATOM     22  N   UNL A   1      30.248  29.537  23.421  1.00  0.00    -0.331 N 
ATOM     23  C   UNL A   1      29.652  28.642  22.454  1.00  0.00     0.148 C 
ATOM     24  C   UNL A   1      29.425  30.691  23.759  1.00  0.00     0.148 C 
ENDBRANCH  16  18
ENDBRANCH  11  16
ENDBRANCH   9  10
ENDBRANCH   6   8
ENDBRANCH   5   6
ENDBRANCH   4   5
ENDBRANCH   3   4
ENDBRANCH   2   3
ENDBRANCH   1   2
BRANCH   1  25
ATOM     25  C   UNL A   1      41.353  20.759  26.795  1.00  0.00     0.188 C 
BRANCH  25  26
ATOM     26  O   UNL A   1      42.105  20.725  25.604  1.00  0.00    -0.376 OA
BRANCH  26  27
ATOM     27  C   UNL A   1      43.500  20.974  25.663  1.00  0.00     0.202 C 
BRANCH  27  28
ATOM     28  C   UNL A   1      44.175  22.300  25.244  1.00  0.00     0.261 C 
BRANCH  28  29
ATOM     29  O   UNL A   1      44.572  23.225  26.264  1.00  0.00    -0.460 OA
BRANCH  29  30
ATOM     30  C   UNL A   1      44.719  24.517  25.905  1.00  0.00     0.338 C 
ATOM     31  O   UNL A   1      45.212  24.950  24.870  1.00  0.00    -0.246 OA
BRANCH  30  32
ATOM     32  C   UNL A   1      44.029  25.352  26.904  1.00  0.00     0.060 A 
ATOM     33  C   UNL A   1      44.288  26.729  26.937  1.00  0.00     0.016 A 
ATOM     34  C   UNL A   1      43.139  24.777  27.813  1.00  0.00     0.016 A 
ATOM     35  C   UNL A   1      43.665  27.535  27.892  1.00  0.00     0.010 A 
ATOM     36  C   UNL A   1      42.530  25.584  28.781  1.00  0.00     0.010 A 
ATOM     37  C   UNL A   1      42.808  26.961  28.842  1.00  0.00    -0.014 A 
BRANCH  37  38
ATOM     38  C   UNL A   1      42.330  27.768  29.992  1.00  0.00     0.031 A 
ATOM     39  C   UNL A   1      41.060  28.560  29.841  1.00  0.00     0.074 A 
ATOM     40  C   UNL A   1      43.002  27.793  31.156  1.00  0.00     0.049 A 
ATOM     41  N   UNL A   1      40.481  29.376  30.683  1.00  0.00    -0.248 NA
ATOM     42  C   UNL A   1      40.350  28.411  28.562  1.00  0.00     0.031 C 
ATOM     43  C   UNL A   1      44.221  27.042  31.444  1.00  0.00     0.029 A 
ATOM     44  N   UNL A   1      42.753  28.491  32.314  1.00  0.00    -0.354 N 
ATOM     45  C   UNL A   1      39.345  29.844  30.035  1.00  0.00     0.074 A 
ATOM     46  C   UNL A   1      39.334  29.246  28.717  1.00  0.00     0.031 C 
ATOM     47  C   UNL A   1      44.624  27.331  32.695  1.00  0.00     0.029 A 
ATOM     48  C   UNL A   1      43.712  28.312  33.280  1.00  0.00     0.049 A 
ATOM     49  H   UNL A   1      41.963  29.064  32.438  1.00  0.00     0.167 HD
ATOM     50  C   UNL A   1      38.393  30.689  30.499  1.00  0.00     0.037 A 
ATOM     51  C   UNL A   1      43.849  28.895  34.487  1.00  0.00     0.037 A 
ATOM     52  C   UNL A   1      38.409  31.288  31.808  1.00  0.00     0.049 A 
ATOM     53  C   UNL A   1      42.821  29.899  34.948  1.00  0.00     0.074 A 
ATOM     54  C   UNL A   1      37.479  32.140  32.377  1.00  0.00     0.029 A 
ATOM     55  N   UNL A   1      39.415  31.110  32.746  1.00  0.00    -0.354 N 
ATOM     56  N   UNL A   1      41.731  30.309  34.346  1.00  0.00    -0.248 NA
ATOM     57  C   UNL A   1      43.043  30.518  36.264  1.00  0.00     0.031 C 
ATOM     58  C   UNL A   1      37.953  32.527  33.635  1.00  0.00     0.029 A 
ATOM     59  C   UNL A   1      39.144  31.863  33.878  1.00  0.00     0.049 A 
ATOM     60  H   UNL A   1      40.205  30.535  32.626  1.00  0.00     0.167 HD
ATOM     61  C   UNL A   1      41.124  31.207  35.217  1.00  0.00     0.074 A 
ATOM     62  C   UNL A   1      41.958  31.269  36.398  1.00  0.00     0.031 C 
ATOM     63  C   UNL A   1      39.978  31.914  35.053  1.00  0.00     0.037 A 
BRANCH  50  64
ATOM     64  C   UNL A   1      37.268  31.042  29.569  1.00  0.00     0.064 A 
ATOM     65  C   UNL A   1      36.228  30.143  29.291  1.00  0.00     0.173 A 
ATOM     66  C   UNL A   1      37.216  32.309  28.970  1.00  0.00     0.173 A 
ATOM     67  F   UNL A   1      36.236  28.913  29.827  1.00  0.00    -0.203 F 
ATOM     68  C   UNL A   1      35.194  30.488  28.424  1.00  0.00     0.198 A 
ATOM     69  C   UNL A   1      36.163  32.664  28.131  1.00  0.00     0.198 A 
ATOM     70  F   UNL A   1      38.183  33.210  29.204  1.00  0.00    -0.203 F 
ATOM     71  F   UNL A   1      34.239  29.594  28.132  1.00  0.00    -0.200 F 
ATOM     72  C   UNL A   1      35.158  31.751  27.850  1.00  0.00     0.200 A 
ATOM     73  F   UNL A   1      36.123  33.890  27.590  1.00  0.00    -0.200 F 
ATOM     74  F   UNL A   1      34.159  32.085  27.023  1.00  0.00    -0.200 F 
ENDBRANCH  50  64
BRANCH  51  75
ATOM     75  C   UNL A   1      45.016  28.563  35.348  1.00  0.00     0.064 A 
ATOM     76  C   UNL A   1      44.948  27.529  36.293  1.00  0.00     0.173 A 
ATOM     77  C   UNL A   1      46.213  29.289  35.265  1.00  0.00     0.173 A 
ATOM     78  F   UNL A   1      43.815  26.824  36.432  1.00  0.00    -0.203 F 
ATOM     79  C   UNL A   1      46.023  27.248  37.134  1.00  0.00     0.198 A 
ATOM     80  C   UNL A   1      47.300  28.987  36.084  1.00  0.00     0.198 A 
ATOM     81  F   UNL A   1      46.330  30.293  34.383  1.00  0.00    -0.203 F 
ATOM     82  F   UNL A   1      45.910  26.292  38.066  1.00  0.00    -0.200 F 
ATOM     83  C   UNL A   1      47.200  27.974  37.025  1.00  0.00     0.200 A 
ATOM     84  F   UNL A   1      48.437  29.685  35.969  1.00  0.00    -0.200 F 
ATOM     85  F   UNL A   1      48.233  27.703  37.834  1.00  0.00    -0.200 F 
ENDBRANCH  51  75
BRANCH  63  86
ATOM     86  C   UNL A   1      39.529  32.787  36.192  1.00  0.00     0.064 A 
ATOM     87  C   UNL A   1      38.636  32.326  37.172  1.00  0.00     0.173 A 
ATOM     88  C   UNL A   1      40.034  34.089  36.330  1.00  0.00     0.173 A 
ATOM     89  F   UNL A   1      38.112  31.093  37.082  1.00  0.00    -0.203 F 
ATOM     90  C   UNL A   1      38.244  33.146  38.228  1.00  0.00     0.198 A 
ATOM     91  C   UNL A   1      39.668  34.893  37.406  1.00  0.00     0.198 A 
ATOM     92  F   UNL A   1      40.899  34.579  35.427  1.00  0.00    -0.203 F 
ATOM     93  F   UNL A   1      37.349  32.703  39.121  1.00  0.00    -0.200 F 
ATOM     94  C   UNL A   1      38.767  34.425  38.348  1.00  0.00     0.200 A 
ATOM     95  F   UNL A   1      40.190  36.122  37.530  1.00  0.00    -0.200 F 
ATOM     96  F   UNL A   1      38.396  35.208  39.371  1.00  0.00    -0.200 F 
ENDBRANCH  63  86
ENDBRANCH  37  38
ENDBRANCH  30  32
ENDBRANCH  29  30
ENDBRANCH  28  29
ENDBRANCH  27  28
ENDBRANCH  26  27
ENDBRANCH  25  26
ENDBRANCH   1  25
TORSDOF 20
ENDMDL
