MODEL 1
REMARK VINA RESULT:     -12.7      0.000      0.000
REMARK SMILES Cc1cccc(CS[C@@H]2CC[C@]([NH3+])(C(=O)OCCOCCOCCOC(=O)c3ccc(-c4c5nc(c(-c6c(F)c(F)c(F)c(F)c6F)c6ccc([nH]6)c(-c6c(F)c(F)c(F)c(F)c6F)c6nc(c(-c7c(F)c(F)c(F)c(F)c7F)c7ccc4[nH]7)C=C6)C=C5)cc3)C2)c1
REMARK SMILES IDX 20 1 19 2 18 3 17 4 16 5 14 6 15 7 12 8 9 9 10 10 91 11
REMARK SMILES IDX 11 12 8 13 7 14 6 15 1 16 2 17 3 18 92 19 4 20 5 21 13 22
REMARK SMILES IDX 21 26 22 27 23 28 24 29 25 30 26 31 27 32 28 33 29 34 90 35
REMARK SMILES IDX 30 36 89 37 31 38 32 39 33 40 83 41 34 42 88 43 82 44 84 45
REMARK SMILES IDX 35 46 87 47 81 48 80 49 36 51 68 52 48 53 67 54 49 55 52 56
REMARK SMILES IDX 66 57 85 58 50 59 51 60 65 62 86 63 53 64 37 65 38 66 46 67
REMARK SMILES IDX 39 68 40 69 44 70 47 71 41 72 42 73 45 74 43 75 69 76 70 77
REMARK SMILES IDX 78 78 71 79 72 80 76 81 79 82 73 83 74 84 77 85 75 86 54 87
REMARK SMILES IDX 55 88 63 89 56 90 57 91 61 92 64 93 58 94 59 95 62 96 60 97
REMARK H PARENT 13 23 13 24 13 25 84 50 52 61
REMARK Flexibility Score: inf
ROOT
ATOM      1  C   UNL A   1      32.904  35.047  29.478  1.00  0.00     0.188 C 
ENDROOT
BRANCH   1   2
ATOM      2  O   UNL A   1      33.216  34.436  28.212  1.00  0.00    -0.376 OA
BRANCH   2   3
ATOM      3  C   UNL A   1      34.071  33.298  28.007  1.00  0.00     0.202 C 
BRANCH   3   4
ATOM      4  C   UNL A   1      33.795  31.613  27.773  1.00  0.00     0.261 C 
BRANCH   4   5
ATOM      5  O   UNL A   1      32.565  30.548  27.004  1.00  0.00    -0.459 OA
BRANCH   5   6
ATOM      6  C   UNL A   1      31.779  30.390  25.792  1.00  0.00     0.368 C 
ATOM      7  O   UNL A   1      30.898  31.149  25.383  1.00  0.00    -0.245 OA
BRANCH   6   8
ATOM      8  C   UNL A   1      31.925  29.210  24.822  1.00  0.00     0.193 C 
ATOM      9  C   UNL A   1      32.130  26.723  24.873  1.00  0.00     0.054 C 
ATOM     10  C   UNL A   1      33.348  27.317  24.163  1.00  0.00     0.022 C 
ATOM     11  C   UNL A   1      31.548  27.883  25.647  1.00  0.00     0.095 C 
ATOM     12  C   UNL A   1      33.360  28.830  24.473  1.00  0.00     0.082 C 
BRANCH   9  13
ATOM     13  S   UNL A   1      32.327  25.124  25.780  1.00  0.00    -0.154 SA
BRANCH  13  14
ATOM     14  C   UNL A   1      32.299  23.790  24.514  1.00  0.00     0.105 C 
BRANCH  14  15
ATOM     15  C   UNL A   1      33.261  22.637  24.700  1.00  0.00    -0.038 A 
ATOM     16  C   UNL A   1      37.024  21.947  24.415  1.00  0.00     0.044 C 
ATOM     17  C   UNL A   1      35.548  21.765  24.589  1.00  0.00    -0.051 A 
ATOM     18  C   UNL A   1      35.083  20.513  24.999  1.00  0.00     0.003 A 
ATOM     19  C   UNL A   1      34.630  22.816  24.421  1.00  0.00     0.008 A 
ATOM     20  C   UNL A   1      33.749  20.344  25.349  1.00  0.00     0.001 A 
ATOM     21  C   UNL A   1      32.862  21.412  25.249  1.00  0.00     0.004 A 
ENDBRANCH  14  15
ENDBRANCH  13  14
ENDBRANCH   9  13
BRANCH   8  22
ATOM     22  N   UNL A   1      31.005  29.342  23.686  1.00  0.00    -0.343 N 
ATOM     23  H   UNL A   1      30.373  28.542  23.666  1.00  0.00     0.345 HD
ATOM     24  H   UNL A   1      31.539  29.377  22.818  1.00  0.00     0.345 HD
ATOM     25  H   UNL A   1      30.463  30.201  23.785  1.00  0.00     0.345 HD
ENDBRANCH   8  22
ENDBRANCH   6   8
ENDBRANCH   5   6
ENDBRANCH   4   5
ENDBRANCH   3   4
ENDBRANCH   2   3
ENDBRANCH   1   2
BRANCH   1  26
ATOM     26  C   UNL A   1      32.984  36.549  29.691  1.00  0.00     0.188 C 
BRANCH  26  27
ATOM     27  O   UNL A   1      32.554  36.842  31.002  1.00  0.00    -0.376 OA
BRANCH  27  28
ATOM     28  C   UNL A   1      33.578  37.183  31.913  1.00  0.00     0.202 C 
BRANCH  28  29
ATOM     29  C   UNL A   1      33.825  36.053  32.917  1.00  0.00     0.261 C 
BRANCH  29  30
ATOM     30  O   UNL A   1      34.837  35.148  32.411  1.00  0.00    -0.460 OA
BRANCH  30  31
ATOM     31  C   UNL A   1      34.526  33.811  32.424  1.00  0.00     0.338 C 
ATOM     32  O   UNL A   1      33.886  33.254  33.305  1.00  0.00    -0.246 OA
BRANCH  31  33
ATOM     33  C   UNL A   1      35.282  33.103  31.345  1.00  0.00     0.060 A 
ATOM     34  C   UNL A   1      35.364  31.713  31.178  1.00  0.00     0.016 A 
ATOM     35  C   UNL A   1      36.214  33.831  30.694  1.00  0.00     0.016 A 
ATOM     36  C   UNL A   1      36.541  31.071  30.611  1.00  0.00     0.010 A 
ATOM     37  C   UNL A   1      37.390  33.167  30.352  1.00  0.00     0.010 A 
ATOM     38  C   UNL A   1      37.728  31.762  30.321  1.00  0.00    -0.014 A 
BRANCH  38  39
ATOM     39  C   UNL A   1      39.298  30.953  30.090  1.00  0.00     0.031 A 
ATOM     40  C   UNL A   1      39.800  29.423  29.316  1.00  0.00     0.074 A 
ATOM     41  C   UNL A   1      40.356  31.448  30.783  1.00  0.00     0.049 A 
ATOM     42  N   UNL A   1      40.830  28.690  29.716  1.00  0.00    -0.248 NA
ATOM     43  C   UNL A   1      39.172  28.581  28.217  1.00  0.00     0.031 C 
ATOM     44  C   UNL A   1      41.768  31.110  30.604  1.00  0.00     0.029 A 
ATOM     45  N   UNL A   1      40.373  32.349  31.860  1.00  0.00    -0.354 N 
ATOM     46  C   UNL A   1      41.018  27.595  28.856  1.00  0.00     0.074 A 
ATOM     47  C   UNL A   1      39.901  27.509  28.022  1.00  0.00     0.031 C 
ATOM     48  C   UNL A   1      42.453  31.517  31.680  1.00  0.00     0.029 A 
ATOM     49  C   UNL A   1      41.488  32.009  32.640  1.00  0.00     0.049 A 
ATOM     50  H   UNL A   1      39.730  33.074  32.032  1.00  0.00     0.167 HD
ATOM     51  C   UNL A   1      42.145  26.853  28.742  1.00  0.00     0.037 A 
ATOM     52  C   UNL A   1      41.399  31.690  33.960  1.00  0.00     0.037 A 
ATOM     53  C   UNL A   1      43.104  27.249  29.728  1.00  0.00     0.049 A 
ATOM     54  C   UNL A   1      42.132  30.426  34.319  1.00  0.00     0.074 A 
ATOM     55  C   UNL A   1      44.257  28.004  29.724  1.00  0.00     0.029 A 
ATOM     56  N   UNL A   1      42.716  27.139  31.048  1.00  0.00    -0.354 N 
ATOM     57  N   UNL A   1      42.615  29.610  33.426  1.00  0.00    -0.248 NA
ATOM     58  C   UNL A   1      42.355  29.944  35.680  1.00  0.00     0.031 C 
ATOM     59  C   UNL A   1      44.604  28.269  31.077  1.00  0.00     0.029 A 
ATOM     60  C   UNL A   1      43.668  27.650  31.885  1.00  0.00     0.049 A 
ATOM     61  H   UNL A   1      41.866  26.742  31.348  1.00  0.00     0.167 HD
ATOM     62  C   UNL A   1      43.104  28.495  34.037  1.00  0.00     0.074 A 
ATOM     63  C   UNL A   1      42.963  28.766  35.451  1.00  0.00     0.031 C 
ATOM     64  C   UNL A   1      43.509  27.422  33.305  1.00  0.00     0.037 A 
BRANCH  51  65
ATOM     65  C   UNL A   1      42.379  25.930  27.548  1.00  0.00     0.064 A 
ATOM     66  C   UNL A   1      41.747  24.678  27.472  1.00  0.00     0.173 A 
ATOM     67  C   UNL A   1      43.272  26.201  26.480  1.00  0.00     0.173 A 
ATOM     68  F   UNL A   1      40.828  24.314  28.374  1.00  0.00    -0.203 F 
ATOM     69  C   UNL A   1      42.053  23.739  26.477  1.00  0.00     0.198 A 
ATOM     70  C   UNL A   1      43.638  25.235  25.532  1.00  0.00     0.198 A 
ATOM     71  F   UNL A   1      43.801  27.423  26.314  1.00  0.00    -0.203 F 
ATOM     72  F   UNL A   1      41.408  22.564  26.453  1.00  0.00    -0.200 F 
ATOM     73  C   UNL A   1      43.029  24.000  25.534  1.00  0.00     0.200 A 
ATOM     74  F   UNL A   1      44.589  25.509  24.626  1.00  0.00    -0.200 F 
ATOM     75  F   UNL A   1      43.364  23.073  24.625  1.00  0.00    -0.200 F 
ENDBRANCH  51  65
BRANCH  52  76
ATOM     76  C   UNL A   1      40.203  32.269  34.629  1.00  0.00     0.064 A 
ATOM     77  C   UNL A   1      40.300  33.600  35.096  1.00  0.00     0.173 A 
ATOM     78  C   UNL A   1      38.916  31.738  34.472  1.00  0.00     0.173 A 
ATOM     79  F   UNL A   1      41.507  34.171  35.241  1.00  0.00    -0.203 F 
ATOM     80  C   UNL A   1      39.171  34.397  35.275  1.00  0.00     0.198 A 
ATOM     81  C   UNL A   1      37.781  32.534  34.684  1.00  0.00     0.198 A 
ATOM     82  F   UNL A   1      38.749  30.495  34.001  1.00  0.00    -0.203 F 
ATOM     83  F   UNL A   1      39.312  35.699  35.562  1.00  0.00    -0.200 F 
ATOM     84  C   UNL A   1      37.913  33.867  35.055  1.00  0.00     0.200 A 
ATOM     85  F   UNL A   1      36.561  32.050  34.410  1.00  0.00    -0.200 F 
ATOM     86  F   UNL A   1      36.834  34.662  35.116  1.00  0.00    -0.200 F 
ENDBRANCH  52  76
BRANCH  64  87
ATOM     87  C   UNL A   1      43.695  26.015  33.809  1.00  0.00     0.064 A 
ATOM     88  C   UNL A   1      44.925  25.344  33.778  1.00  0.00     0.173 A 
ATOM     89  C   UNL A   1      42.673  25.395  34.571  1.00  0.00     0.173 A 
ATOM     90  F   UNL A   1      46.002  25.887  33.194  1.00  0.00    -0.203 F 
ATOM     91  C   UNL A   1      45.111  24.121  34.426  1.00  0.00     0.198 A 
ATOM     92  C   UNL A   1      42.881  24.206  35.266  1.00  0.00     0.198 A 
ATOM     93  F   UNL A   1      41.463  25.959  34.710  1.00  0.00    -0.203 F 
ATOM     94  F   UNL A   1      46.298  23.505  34.346  1.00  0.00    -0.200 F 
ATOM     95  C   UNL A   1      44.098  23.561  35.182  1.00  0.00     0.200 A 
ATOM     96  F   UNL A   1      41.912  23.716  36.050  1.00  0.00    -0.200 F 
ATOM     97  F   UNL A   1      44.300  22.418  35.847  1.00  0.00    -0.200 F 
ENDBRANCH  64  87
ENDBRANCH  38  39
ENDBRANCH  31  33
ENDBRANCH  30  31
ENDBRANCH  29  30
ENDBRANCH  28  29
ENDBRANCH  27  28
ENDBRANCH  26  27
ENDBRANCH   1  26
TORSDOF 21
ENDMDL
MODEL 2
REMARK VINA RESULT:     -12.7      4.981     10.947
REMARK SMILES Cc1cccc(CS[C@@H]2CC[C@]([NH3+])(C(=O)OCCOCCOCCOC(=O)c3ccc(-c4c5nc(c(-c6c(F)c(F)c(F)c(F)c6F)c6ccc([nH]6)c(-c6c(F)c(F)c(F)c(F)c6F)c6nc(c(-c7c(F)c(F)c(F)c(F)c7F)c7ccc4[nH]7)C=C6)C=C5)cc3)C2)c1
REMARK SMILES IDX 20 1 19 2 18 3 17 4 16 5 14 6 15 7 12 8 9 9 10 10 91 11
REMARK SMILES IDX 11 12 8 13 7 14 6 15 1 16 2 17 3 18 92 19 4 20 5 21 13 22
REMARK SMILES IDX 21 26 22 27 23 28 24 29 25 30 26 31 27 32 28 33 29 34 90 35
REMARK SMILES IDX 30 36 89 37 31 38 32 39 33 40 83 41 34 42 88 43 82 44 84 45
REMARK SMILES IDX 35 46 87 47 81 48 80 49 36 51 68 52 48 53 67 54 49 55 52 56
REMARK SMILES IDX 66 57 85 58 50 59 51 60 65 62 86 63 53 64 37 65 38 66 46 67
REMARK SMILES IDX 39 68 40 69 44 70 47 71 41 72 42 73 45 74 43 75 69 76 70 77
REMARK SMILES IDX 78 78 71 79 72 80 76 81 79 82 73 83 74 84 77 85 75 86 54 87
REMARK SMILES IDX 55 88 63 89 56 90 57 91 61 92 64 93 58 94 59 95 62 96 60 97
REMARK H PARENT 13 23 13 24 13 25 84 50 52 61
REMARK Flexibility Score: inf
ROOT
ATOM      1  C   UNL A   1      43.875  18.422  25.162  1.00  0.00     0.188 C 
ENDROOT
BRANCH   1   2
ATOM      2  O   UNL A   1      42.644  19.167  25.116  1.00  0.00    -0.376 OA
BRANCH   2   3
ATOM      3  C   UNL A   1      41.821  19.514  26.243  1.00  0.00     0.202 C 
BRANCH   3   4
ATOM      4  C   UNL A   1      40.896  20.903  26.673  1.00  0.00     0.261 C 
BRANCH   4   5
ATOM      5  O   UNL A   1      39.275  21.601  26.318  1.00  0.00    -0.459 OA
BRANCH   5   6
ATOM      6  C   UNL A   1      38.139  21.469  25.422  1.00  0.00     0.368 C 
ATOM      7  O   UNL A   1      37.764  20.439  24.857  1.00  0.00    -0.245 OA
BRANCH   6   8
ATOM      8  C   UNL A   1      37.219  22.631  25.025  1.00  0.00     0.193 C 
ATOM      9  C   UNL A   1      34.799  23.239  25.075  1.00  0.00     0.054 C 
ATOM     10  C   UNL A   1      35.304  23.289  23.631  1.00  0.00     0.022 C 
ATOM     11  C   UNL A   1      35.829  22.406  25.801  1.00  0.00     0.095 C 
ATOM     12  C   UNL A   1      36.669  22.567  23.604  1.00  0.00     0.082 C 
BRANCH   9  13
ATOM     13  S   UNL A   1      33.022  22.826  25.376  1.00  0.00    -0.154 SA
BRANCH  13  14
ATOM     14  C   UNL A   1      32.363  22.140  23.802  1.00  0.00     0.105 C 
BRANCH  14  15
ATOM     15  C   UNL A   1      32.430  20.640  23.617  1.00  0.00    -0.038 A 
ATOM     16  C   UNL A   1      32.765  17.481  25.770  1.00  0.00     0.044 C 
ATOM     17  C   UNL A   1      32.681  18.408  24.596  1.00  0.00    -0.051 A 
ATOM     18  C   UNL A   1      32.593  17.846  23.320  1.00  0.00     0.003 A 
ATOM     19  C   UNL A   1      32.620  19.805  24.735  1.00  0.00     0.008 A 
ATOM     20  C   UNL A   1      32.332  18.652  22.219  1.00  0.00     0.001 A 
ATOM     21  C   UNL A   1      32.200  20.028  22.378  1.00  0.00     0.004 A 
ENDBRANCH  14  15
ENDBRANCH  13  14
ENDBRANCH   9  13
BRANCH   8  22
ATOM     22  N   UNL A   1      37.789  23.920  25.433  1.00  0.00    -0.343 N 
ATOM     23  H   UNL A   1      37.037  24.556  25.695  1.00  0.00     0.345 HD
ATOM     24  H   UNL A   1      38.318  24.318  24.657  1.00  0.00     0.345 HD
ATOM     25  H   UNL A   1      38.410  23.780  26.230  1.00  0.00     0.345 HD
ENDBRANCH   8  22
ENDBRANCH   6   8
ENDBRANCH   5   6
ENDBRANCH   4   5
ENDBRANCH   3   4
ENDBRANCH   2   3
ENDBRANCH   1   2
BRANCH   1  26
ATOM     26  C   UNL A   1      45.233  19.102  25.124  1.00  0.00     0.188 C 
BRANCH  26  27
ATOM     27  O   UNL A   1      45.046  20.463  24.804  1.00  0.00    -0.376 OA
BRANCH  27  28
ATOM     28  C   UNL A   1      46.117  21.318  25.148  1.00  0.00     0.202 C 
BRANCH  28  29
ATOM     29  C   UNL A   1      45.605  22.675  25.641  1.00  0.00     0.261 C 
BRANCH  29  30
ATOM     30  O   UNL A   1      44.184  22.604  25.913  1.00  0.00    -0.460 OA
BRANCH  30  31
ATOM     31  C   UNL A   1      43.430  23.682  25.521  1.00  0.00     0.338 C 
ATOM     32  O   UNL A   1      43.620  24.330  24.501  1.00  0.00    -0.246 OA
BRANCH  31  33
ATOM     33  C   UNL A   1      42.512  24.090  26.629  1.00  0.00     0.060 A 
ATOM     34  C   UNL A   1      41.283  24.749  26.475  1.00  0.00     0.016 A 
ATOM     35  C   UNL A   1      43.052  24.130  27.866  1.00  0.00     0.016 A 
ATOM     36  C   UNL A   1      40.772  25.674  27.476  1.00  0.00     0.010 A 
ATOM     37  C   UNL A   1      42.629  25.169  28.693  1.00  0.00     0.010 A 
ATOM     38  C   UNL A   1      41.518  26.088  28.592  1.00  0.00    -0.014 A 
BRANCH  38  39
ATOM     39  C   UNL A   1      41.126  27.541  29.544  1.00  0.00     0.031 A 
ATOM     40  C   UNL A   1      39.890  28.822  29.396  1.00  0.00     0.074 A 
ATOM     41  C   UNL A   1      42.027  27.924  30.485  1.00  0.00     0.049 A 
ATOM     42  N   UNL A   1      40.072  30.079  29.776  1.00  0.00    -0.248 NA
ATOM     43  C   UNL A   1      38.517  28.846  28.742  1.00  0.00     0.031 C 
ATOM     44  C   UNL A   1      41.842  28.932  31.529  1.00  0.00     0.029 A 
ATOM     45  N   UNL A   1      43.355  27.507  30.670  1.00  0.00    -0.354 N 
ATOM     46  C   UNL A   1      38.890  30.820  29.608  1.00  0.00     0.074 A 
ATOM     47  C   UNL A   1      38.002  30.045  28.859  1.00  0.00     0.031 C 
ATOM     48  C   UNL A   1      43.040  29.277  32.019  1.00  0.00     0.029 A 
ATOM     49  C   UNL A   1      44.039  28.602  31.217  1.00  0.00     0.049 A 
ATOM     50  H   UNL A   1      43.730  26.623  30.456  1.00  0.00     0.167 HD
ATOM     51  C   UNL A   1      38.599  32.004  30.198  1.00  0.00     0.037 A 
ATOM     52  C   UNL A   1      45.144  29.150  30.641  1.00  0.00     0.037 A 
ATOM     53  C   UNL A   1      39.729  32.486  30.931  1.00  0.00     0.049 A 
ATOM     54  C   UNL A   1      45.074  30.648  30.521  1.00  0.00     0.074 A 
ATOM     55  C   UNL A   1      40.084  32.536  32.262  1.00  0.00     0.029 A 
ATOM     56  N   UNL A   1      40.888  32.703  30.212  1.00  0.00    -0.354 N 
ATOM     57  N   UNL A   1      43.984  31.326  30.744  1.00  0.00    -0.248 NA
ATOM     58  C   UNL A   1      46.180  31.508  30.110  1.00  0.00     0.031 C 
ATOM     59  C   UNL A   1      41.463  32.876  32.329  1.00  0.00     0.029 A 
ATOM     60  C   UNL A   1      41.920  33.051  31.036  1.00  0.00     0.049 A 
ATOM     61  H   UNL A   1      40.959  32.618  29.233  1.00  0.00     0.167 HD
ATOM     62  C   UNL A   1      44.185  32.637  30.432  1.00  0.00     0.074 A 
ATOM     63  C   UNL A   1      45.586  32.715  30.083  1.00  0.00     0.031 C 
ATOM     64  C   UNL A   1      43.145  33.514  30.421  1.00  0.00     0.037 A 
BRANCH  51  65
ATOM     65  C   UNL A   1      37.172  32.548  30.240  1.00  0.00     0.064 A 
ATOM     66  C   UNL A   1      36.727  33.475  29.283  1.00  0.00     0.173 A 
ATOM     67  C   UNL A   1      36.220  32.241  31.245  1.00  0.00     0.173 A 
ATOM     68  F   UNL A   1      37.493  33.808  28.239  1.00  0.00    -0.203 F 
ATOM     69  C   UNL A   1      35.483  34.115  29.377  1.00  0.00     0.198 A 
ATOM     70  C   UNL A   1      35.011  32.936  31.385  1.00  0.00     0.198 A 
ATOM     71  F   UNL A   1      36.429  31.237  32.112  1.00  0.00    -0.203 F 
ATOM     72  F   UNL A   1      35.111  34.983  28.426  1.00  0.00    -0.200 F 
ATOM     73  C   UNL A   1      34.645  33.879  30.450  1.00  0.00     0.200 A 
ATOM     74  F   UNL A   1      34.213  32.692  32.436  1.00  0.00    -0.200 F 
ATOM     75  F   UNL A   1      33.485  34.542  30.568  1.00  0.00    -0.200 F 
ENDBRANCH  51  65
BRANCH  52  76
ATOM     76  C   UNL A   1      45.887  28.201  29.768  1.00  0.00     0.064 A 
ATOM     77  C   UNL A   1      46.850  27.369  30.384  1.00  0.00     0.173 A 
ATOM     78  C   UNL A   1      45.427  27.818  28.501  1.00  0.00     0.173 A 
ATOM     79  F   UNL A   1      47.308  27.672  31.609  1.00  0.00    -0.203 F 
ATOM     80  C   UNL A   1      47.237  26.156  29.819  1.00  0.00     0.198 A 
ATOM     81  C   UNL A   1      45.844  26.611  27.922  1.00  0.00     0.198 A 
ATOM     82  F   UNL A   1      44.489  28.541  27.874  1.00  0.00    -0.203 F 
ATOM     83  F   UNL A   1      48.027  25.321  30.510  1.00  0.00    -0.200 F 
ATOM     84  C   UNL A   1      46.722  25.771  28.595  1.00  0.00     0.200 A 
ATOM     85  F   UNL A   1      45.301  26.199  26.767  1.00  0.00    -0.200 F 
ATOM     86  F   UNL A   1      47.005  24.554  28.105  1.00  0.00    -0.200 F 
ENDBRANCH  52  76
BRANCH  64  87
ATOM     87  C   UNL A   1      43.118  34.858  29.740  1.00  0.00     0.064 A 
ATOM     88  C   UNL A   1      43.286  36.070  30.424  1.00  0.00     0.173 A 
ATOM     89  C   UNL A   1      43.169  34.935  28.325  1.00  0.00     0.173 A 
ATOM     90  F   UNL A   1      43.379  36.110  31.760  1.00  0.00    -0.203 F 
ATOM     91  C   UNL A   1      43.451  37.280  29.745  1.00  0.00     0.198 A 
ATOM     92  C   UNL A   1      43.394  36.135  27.654  1.00  0.00     0.198 A 
ATOM     93  F   UNL A   1      43.061  33.839  27.559  1.00  0.00    -0.203 F 
ATOM     94  F   UNL A   1      43.581  38.415  30.444  1.00  0.00    -0.200 F 
ATOM     95  C   UNL A   1      43.521  37.311  28.365  1.00  0.00     0.200 A 
ATOM     96  F   UNL A   1      43.531  36.136  26.321  1.00  0.00    -0.200 F 
ATOM     97  F   UNL A   1      43.736  38.465  27.723  1.00  0.00    -0.200 F 
ENDBRANCH  64  87
ENDBRANCH  38  39
ENDBRANCH  31  33
ENDBRANCH  30  31
ENDBRANCH  29  30
ENDBRANCH  28  29
ENDBRANCH  27  28
ENDBRANCH  26  27
ENDBRANCH   1  26
TORSDOF 21
ENDMDL
MODEL 3
REMARK VINA RESULT:     -12.7      5.261     11.438
REMARK SMILES Cc1cccc(CS[C@@H]2CC[C@]([NH3+])(C(=O)OCCOCCOCCOC(=O)c3ccc(-c4c5nc(c(-c6c(F)c(F)c(F)c(F)c6F)c6ccc([nH]6)c(-c6c(F)c(F)c(F)c(F)c6F)c6nc(c(-c7c(F)c(F)c(F)c(F)c7F)c7ccc4[nH]7)C=C6)C=C5)cc3)C2)c1
REMARK SMILES IDX 20 1 19 2 18 3 17 4 16 5 14 6 15 7 12 8 9 9 10 10 91 11
REMARK SMILES IDX 11 12 8 13 7 14 6 15 1 16 2 17 3 18 92 19 4 20 5 21 13 22
REMARK SMILES IDX 21 26 22 27 23 28 24 29 25 30 26 31 27 32 28 33 29 34 90 35
REMARK SMILES IDX 30 36 89 37 31 38 32 39 33 40 83 41 34 42 88 43 82 44 84 45
REMARK SMILES IDX 35 46 87 47 81 48 80 49 36 51 68 52 48 53 67 54 49 55 52 56
REMARK SMILES IDX 66 57 85 58 50 59 51 60 65 62 86 63 53 64 37 65 38 66 46 67
REMARK SMILES IDX 39 68 40 69 44 70 47 71 41 72 42 73 45 74 43 75 69 76 70 77
REMARK SMILES IDX 78 78 71 79 72 80 76 81 79 82 73 83 74 84 77 85 75 86 54 87
REMARK SMILES IDX 55 88 63 89 56 90 57 91 61 92 64 93 58 94 59 95 62 96 60 97
REMARK H PARENT 13 23 13 24 13 25 84 50 52 61
REMARK Flexibility Score: inf
ROOT
ATOM      1  C   UNL A   1      40.867  20.525  27.175  1.00  0.00     0.188 C 
ENDROOT
BRANCH   1   2
ATOM      2  O   UNL A   1      40.168  21.747  27.482  1.00  0.00    -0.376 OA
BRANCH   2   3
ATOM      3  C   UNL A   1      39.645  22.687  26.528  1.00  0.00     0.202 C 
BRANCH   3   4
ATOM      4  C   UNL A   1      38.256  23.704  26.480  1.00  0.00     0.261 C 
BRANCH   4   5
ATOM      5  O   UNL A   1      36.760  23.890  25.497  1.00  0.00    -0.459 OA
BRANCH   5   6
ATOM      6  C   UNL A   1      36.119  23.418  24.281  1.00  0.00     0.368 C 
ATOM      7  O   UNL A   1      36.645  22.764  23.378  1.00  0.00    -0.245 OA
BRANCH   6   8
ATOM      8  C   UNL A   1      34.650  23.687  23.925  1.00  0.00     0.193 C 
ATOM      9  C   UNL A   1      32.414  23.772  25.030  1.00  0.00     0.054 C 
ATOM     10  C   UNL A   1      32.384  22.735  23.904  1.00  0.00     0.022 C 
ATOM     11  C   UNL A   1      33.884  23.976  25.309  1.00  0.00     0.095 C 
ATOM     12  C   UNL A   1      33.850  22.459  23.504  1.00  0.00     0.082 C 
BRANCH   9  13
ATOM     13  S   UNL A   1      31.309  23.523  26.491  1.00  0.00    -0.154 SA
BRANCH  13  14
ATOM     14  C   UNL A   1      30.071  24.883  26.457  1.00  0.00     0.105 C 
BRANCH  14  15
ATOM     15  C   UNL A   1      30.492  26.187  25.816  1.00  0.00    -0.038 A 
ATOM     16  C   UNL A   1      32.896  29.097  26.507  1.00  0.00     0.044 C 
ATOM     17  C   UNL A   1      31.830  28.238  25.899  1.00  0.00    -0.051 A 
ATOM     18  C   UNL A   1      31.279  28.638  24.679  1.00  0.00     0.003 A 
ATOM     19  C   UNL A   1      31.417  27.023  26.472  1.00  0.00     0.008 A 
ATOM     20  C   UNL A   1      30.424  27.790  23.988  1.00  0.00     0.001 A 
ATOM     21  C   UNL A   1      30.077  26.556  24.530  1.00  0.00     0.004 A 
ENDBRANCH  14  15
ENDBRANCH  13  14
ENDBRANCH   9  13
BRANCH   8  22
ATOM     22  N   UNL A   1      34.524  24.862  23.056  1.00  0.00    -0.343 N 
ATOM     23  H   UNL A   1      35.008  24.688  22.176  1.00  0.00     0.345 HD
ATOM     24  H   UNL A   1      34.937  25.672  23.518  1.00  0.00     0.345 HD
ATOM     25  H   UNL A   1      33.537  25.044  22.872  1.00  0.00     0.345 HD
ENDBRANCH   8  22
ENDBRANCH   6   8
ENDBRANCH   5   6
ENDBRANCH   4   5
ENDBRANCH   3   4
ENDBRANCH   2   3
ENDBRANCH   1   2
BRANCH   1  26
ATOM     26  C   UNL A   1      40.466  19.636  26.011  1.00  0.00     0.188 C 
BRANCH  26  27
ATOM     27  O   UNL A   1      41.593  18.895  25.600  1.00  0.00    -0.376 OA
BRANCH  27  28
ATOM     28  C   UNL A   1      42.844  19.487  25.884  1.00  0.00     0.202 C 
BRANCH  28  29
ATOM     29  C   UNL A   1      43.997  18.546  25.522  1.00  0.00     0.261 C 
BRANCH  29  30
ATOM     30  O   UNL A   1      45.129  19.307  25.035  1.00  0.00    -0.460 OA
BRANCH  30  31
ATOM     31  C   UNL A   1      44.885  20.174  23.999  1.00  0.00     0.338 C 
ATOM     32  O   UNL A   1      44.594  19.833  22.861  1.00  0.00    -0.246 OA
BRANCH  31  33
ATOM     33  C   UNL A   1      45.260  21.565  24.401  1.00  0.00     0.060 A 
ATOM     34  C   UNL A   1      46.024  21.916  25.523  1.00  0.00     0.016 A 
ATOM     35  C   UNL A   1      44.541  22.561  23.841  1.00  0.00     0.016 A 
ATOM     36  C   UNL A   1      45.823  23.173  26.232  1.00  0.00     0.010 A 
ATOM     37  C   UNL A   1      44.243  23.647  24.662  1.00  0.00     0.010 A 
ATOM     38  C   UNL A   1      44.771  24.057  25.943  1.00  0.00    -0.014 A 
BRANCH  38  39
ATOM     39  C   UNL A   1      44.223  25.323  27.070  1.00  0.00     0.031 A 
ATOM     40  C   UNL A   1      42.714  26.264  27.234  1.00  0.00     0.074 A 
ATOM     41  C   UNL A   1      45.161  25.874  27.883  1.00  0.00     0.049 A 
ATOM     42  N   UNL A   1      42.659  27.509  27.688  1.00  0.00    -0.248 NA
ATOM     43  C   UNL A   1      41.281  25.978  26.815  1.00  0.00     0.031 C 
ATOM     44  C   UNL A   1      44.931  26.758  29.027  1.00  0.00     0.029 A 
ATOM     45  N   UNL A   1      46.560  25.791  27.814  1.00  0.00    -0.354 N 
ATOM     46  C   UNL A   1      41.325  27.941  27.778  1.00  0.00     0.074 A 
ATOM     47  C   UNL A   1      40.526  27.006  27.117  1.00  0.00     0.031 C 
ATOM     48  C   UNL A   1      46.082  27.365  29.346  1.00  0.00     0.029 A 
ATOM     49  C   UNL A   1      47.053  26.995  28.338  1.00  0.00     0.049 A 
ATOM     50  H   UNL A   1      47.089  25.038  27.467  1.00  0.00     0.167 HD
ATOM     51  C   UNL A   1      40.872  28.989  28.508  1.00  0.00     0.037 A 
ATOM     52  C   UNL A   1      47.877  27.825  27.642  1.00  0.00     0.037 A 
ATOM     53  C   UNL A   1      41.968  29.702  29.089  1.00  0.00     0.049 A 
ATOM     54  C   UNL A   1      47.436  29.263  27.666  1.00  0.00     0.074 A 
ATOM     55  C   UNL A   1      42.532  29.777  30.345  1.00  0.00     0.029 A 
ATOM     56  N   UNL A   1      42.896  30.230  28.214  1.00  0.00    -0.354 N 
ATOM     57  N   UNL A   1      46.274  29.639  28.119  1.00  0.00    -0.248 NA
ATOM     58  C   UNL A   1      48.217  30.388  27.158  1.00  0.00     0.031 C 
ATOM     59  C   UNL A   1      43.781  30.444  30.218  1.00  0.00     0.029 A 
ATOM     60  C   UNL A   1      43.947  30.786  28.888  1.00  0.00     0.049 A 
ATOM     61  H   UNL A   1      42.811  30.211  27.233  1.00  0.00     0.167 HD
ATOM     62  C   UNL A   1      46.101  30.972  27.894  1.00  0.00     0.074 A 
ATOM     63  C   UNL A   1      47.360  31.410  27.332  1.00  0.00     0.031 C 
ATOM     64  C   UNL A   1      44.899  31.565  28.127  1.00  0.00     0.037 A 
BRANCH  51  65
ATOM     65  C   UNL A   1      39.388  29.160  28.827  1.00  0.00     0.064 A 
ATOM     66  C   UNL A   1      38.491  29.620  27.849  1.00  0.00     0.173 A 
ATOM     67  C   UNL A   1      38.806  28.950  30.103  1.00  0.00     0.173 A 
ATOM     68  F   UNL A   1      38.884  29.797  26.583  1.00  0.00    -0.203 F 
ATOM     69  C   UNL A   1      37.158  29.940  28.141  1.00  0.00     0.198 A 
ATOM     70  C   UNL A   1      37.498  29.344  30.416  1.00  0.00     0.198 A 
ATOM     71  F   UNL A   1      39.489  28.336  31.082  1.00  0.00    -0.203 F 
ATOM     72  F   UNL A   1      36.348  30.365  27.162  1.00  0.00    -0.200 F 
ATOM     73  C   UNL A   1      36.673  29.843  29.432  1.00  0.00     0.200 A 
ATOM     74  F   UNL A   1      37.049  29.243  31.676  1.00  0.00    -0.200 F 
ATOM     75  F   UNL A   1      35.416  30.212  29.718  1.00  0.00    -0.200 F 
ENDBRANCH  51  65
BRANCH  52  76
ATOM     76  C   UNL A   1      48.657  27.130  26.581  1.00  0.00     0.064 A 
ATOM     77  C   UNL A   1      48.199  27.257  25.250  1.00  0.00     0.173 A 
ATOM     78  C   UNL A   1      49.981  26.711  26.765  1.00  0.00     0.173 A 
ATOM     79  F   UNL A   1      46.947  27.680  25.012  1.00  0.00    -0.203 F 
ATOM     80  C   UNL A   1      49.055  27.096  24.163  1.00  0.00     0.198 A 
ATOM     81  C   UNL A   1      50.832  26.520  25.667  1.00  0.00     0.198 A 
ATOM     82  F   UNL A   1      50.492  26.603  27.999  1.00  0.00    -0.203 F 
ATOM     83  F   UNL A   1      48.624  27.384  22.926  1.00  0.00    -0.200 F 
ATOM     84  C   UNL A   1      50.375  26.742  24.373  1.00  0.00     0.200 A 
ATOM     85  F   UNL A   1      52.128  26.241  25.863  1.00  0.00    -0.200 F 
ATOM     86  F   UNL A   1      51.228  26.699  23.338  1.00  0.00    -0.200 F 
ENDBRANCH  52  76
BRANCH  64  87
ATOM     87  C   UNL A   1      44.435  32.889  27.579  1.00  0.00     0.064 A 
ATOM     88  C   UNL A   1      44.079  33.083  26.237  1.00  0.00     0.173 A 
ATOM     89  C   UNL A   1      44.101  33.944  28.465  1.00  0.00     0.173 A 
ATOM     90  F   UNL A   1      44.232  32.112  25.327  1.00  0.00    -0.203 F 
ATOM     91  C   UNL A   1      43.470  34.263  25.802  1.00  0.00     0.198 A 
ATOM     92  C   UNL A   1      43.438  35.092  28.037  1.00  0.00     0.198 A 
ATOM     93  F   UNL A   1      44.353  33.861  29.780  1.00  0.00    -0.203 F 
ATOM     94  F   UNL A   1      43.172  34.412  24.504  1.00  0.00    -0.200 F 
ATOM     95  C   UNL A   1      43.136  35.258  26.702  1.00  0.00     0.200 A 
ATOM     96  F   UNL A   1      43.058  36.013  28.933  1.00  0.00    -0.200 F 
ATOM     97  F   UNL A   1      42.501  36.361  26.287  1.00  0.00    -0.200 F 
ENDBRANCH  64  87
ENDBRANCH  38  39
ENDBRANCH  31  33
ENDBRANCH  30  31
ENDBRANCH  29  30
ENDBRANCH  28  29
ENDBRANCH  27  28
ENDBRANCH  26  27
ENDBRANCH   1  26
TORSDOF 21
ENDMDL
