MODEL 1
REMARK VINA RESULT:     -11.1      0.000      0.000
REMARK SMILES Cc1cc2c(c(C)c1Br)C=C(C(=O)OCCOCCOCCOC(=O)c1ccc(-c3c4nc(c(-c5c(F)c(F)c(F)c(F)c5F)c5ccc([nH]5)c(-c5c(F)c(F)c(F)c(F)c5F)c5nc(c(-c6c(F)c(F)c(F)c(F)c6F)c6ccc3[nH]6)C=C5)C=C4)cc1)[C@@H](C(F)(F)F)O2
REMARK SMILES IDX 19 1 18 2 17 3 16 4 15 5 14 6 12 7 13 8 11 9 1 10 2 11 3 12
REMARK SMILES IDX 8 13 4 14 6 15 9 16 5 17 94 18 7 19 10 20 89 21 90 22 91 23
REMARK SMILES IDX 92 24 93 25 20 26 21 27 22 28 23 29 24 30 25 31 26 32 27 33
REMARK SMILES IDX 88 34 28 35 87 36 29 37 30 38 31 39 81 40 32 41 86 42 80 43
REMARK SMILES IDX 82 44 33 45 85 46 79 47 78 48 34 50 66 51 46 52 65 53 47 54
REMARK SMILES IDX 50 55 64 56 83 57 48 58 49 59 63 61 84 62 51 63 35 64 36 65
REMARK SMILES IDX 44 66 37 67 38 68 42 69 45 70 39 71 40 72 43 73 41 74 67 75
REMARK SMILES IDX 68 76 76 77 69 78 70 79 74 80 77 81 71 82 72 83 75 84 73 85
REMARK SMILES IDX 52 86 53 87 61 88 54 89 55 90 59 91 62 92 56 93 57 94 60 95
REMARK SMILES IDX 58 96
REMARK H PARENT 82 49 50 60
REMARK Flexibility Score: inf
ROOT
ATOM      1  C   UNL A   1      29.156  31.071  23.582  1.00  0.00     0.188 C 
ENDROOT
BRANCH   1   2
ATOM      2  C   UNL A   1      29.160  30.573  22.123  1.00  0.00     0.188 C 
BRANCH   2   3
ATOM      3  O   UNL A   1      29.107  29.191  21.843  1.00  0.00    -0.376 OA
BRANCH   3   4
ATOM      4  C   UNL A   1      29.703  28.244  22.713  1.00  0.00     0.202 C 
BRANCH   4   5
ATOM      5  C   UNL A   1      28.911  27.228  23.551  1.00  0.00     0.261 C 
BRANCH   5   6
ATOM      6  O   UNL A   1      29.508  25.937  23.710  1.00  0.00    -0.460 OA
BRANCH   6   7
ATOM      7  C   UNL A   1      30.213  25.764  24.854  1.00  0.00     0.338 C 
ATOM      8  O   UNL A   1      29.800  25.891  25.994  1.00  0.00    -0.246 OA
BRANCH   7   9
ATOM      9  C   UNL A   1      31.549  25.223  24.532  1.00  0.00     0.087 C 
ATOM     10  C   UNL A   1      37.095  21.926  24.386  1.00  0.00     0.046 C 
ATOM     11  C   UNL A   1      35.646  22.330  24.291  1.00  0.00    -0.033 A 
ATOM     12  C   UNL A   1      35.367  23.686  24.071  1.00  0.00     0.051 A 
ATOM     13  C   UNL A   1      34.572  21.440  24.502  1.00  0.00     0.024 A 
ATOM     14  C   UNL A   1      34.062  24.169  24.120  1.00  0.00     0.128 A 
ATOM     15  C   UNL A   1      33.232  21.905  24.501  1.00  0.00    -0.026 A 
ATOM     16  Br  UNL A   1      34.961  19.599  24.854  1.00  0.00    -0.050 Br
ATOM     17  C   UNL A   1      32.997  23.299  24.373  1.00  0.00     0.021 A 
ATOM     18  O   UNL A   1      33.937  25.513  23.918  1.00  0.00    -0.475 OA
ATOM     19  C   UNL A   1      32.054  20.969  24.657  1.00  0.00     0.046 C 
ATOM     20  C   UNL A   1      31.677  23.890  24.581  1.00  0.00     0.027 C 
ATOM     21  C   UNL A   1      32.665  26.161  24.177  1.00  0.00     0.316 C 
BRANCH  21  22
ATOM     22  C   UNL A   1      32.878  27.245  25.240  1.00  0.00     0.430 C 
ATOM     23  F   UNL A   1      32.837  26.726  26.491  1.00  0.00    -0.167 F 
ATOM     24  F   UNL A   1      34.086  27.843  25.108  1.00  0.00    -0.167 F 
ATOM     25  F   UNL A   1      31.938  28.214  25.171  1.00  0.00    -0.167 F 
ENDBRANCH  21  22
ENDBRANCH   7   9
ENDBRANCH   6   7
ENDBRANCH   5   6
ENDBRANCH   4   5
ENDBRANCH   3   4
ENDBRANCH   2   3
ENDBRANCH   1   2
BRANCH   1  26
ATOM     26  O   UNL A   1      30.236  30.752  24.427  1.00  0.00    -0.376 OA
BRANCH  26  27
ATOM     27  C   UNL A   1      30.665  31.678  25.412  1.00  0.00     0.202 C 
BRANCH  27  28
ATOM     28  C   UNL A   1      31.379  31.309  26.729  1.00  0.00     0.261 C 
BRANCH  28  29
ATOM     29  O   UNL A   1      32.811  31.278  26.723  1.00  0.00    -0.460 OA
BRANCH  29  30
ATOM     30  C   UNL A   1      33.420  32.319  27.347  1.00  0.00     0.338 C 
ATOM     31  O   UNL A   1      32.966  33.427  27.557  1.00  0.00    -0.246 OA
BRANCH  30  32
ATOM     32  C   UNL A   1      34.688  31.843  27.934  1.00  0.00     0.060 A 
ATOM     33  C   UNL A   1      34.781  30.501  28.331  1.00  0.00     0.016 A 
ATOM     34  C   UNL A   1      35.764  32.711  28.111  1.00  0.00     0.016 A 
ATOM     35  C   UNL A   1      35.956  30.023  28.907  1.00  0.00     0.010 A 
ATOM     36  C   UNL A   1      36.931  32.239  28.719  1.00  0.00     0.010 A 
ATOM     37  C   UNL A   1      37.026  30.899  29.137  1.00  0.00    -0.014 A 
BRANCH  37  38
ATOM     38  C   UNL A   1      38.157  30.455  29.985  1.00  0.00     0.031 A 
ATOM     39  C   UNL A   1      39.154  29.497  29.396  1.00  0.00     0.074 A 
ATOM     40  C   UNL A   1      38.328  30.924  31.233  1.00  0.00     0.049 A 
ATOM     41  N   UNL A   1      40.208  28.949  29.947  1.00  0.00    -0.248 NA
ATOM     42  C   UNL A   1      38.936  29.107  27.994  1.00  0.00     0.031 C 
ATOM     43  C   UNL A   1      37.467  31.902  31.893  1.00  0.00     0.029 A 
ATOM     44  N   UNL A   1      39.290  30.635  32.170  1.00  0.00    -0.354 N 
ATOM     45  C   UNL A   1      40.779  28.160  28.958  1.00  0.00     0.074 A 
ATOM     46  C   UNL A   1      39.938  28.267  27.786  1.00  0.00     0.031 C 
ATOM     47  C   UNL A   1      37.937  32.129  33.132  1.00  0.00     0.029 A 
ATOM     48  C   UNL A   1      39.112  31.287  33.364  1.00  0.00     0.049 A 
ATOM     49  H   UNL A   1      40.037  30.016  32.001  1.00  0.00     0.167 HD
ATOM     50  C   UNL A   1      41.913  27.424  29.019  1.00  0.00     0.037 A 
ATOM     51  C   UNL A   1      39.806  31.197  34.517  1.00  0.00     0.037 A 
ATOM     52  C   UNL A   1      42.744  27.310  30.186  1.00  0.00     0.049 A 
ATOM     53  C   UNL A   1      41.001  30.278  34.595  1.00  0.00     0.074 A 
ATOM     54  C   UNL A   1      43.911  26.585  30.344  1.00  0.00     0.029 A 
ATOM     55  N   UNL A   1      42.492  27.934  31.399  1.00  0.00    -0.354 N 
ATOM     56  N   UNL A   1      41.545  29.544  33.654  1.00  0.00    -0.248 NA
ATOM     57  C   UNL A   1      41.677  30.171  35.898  1.00  0.00     0.031 C 
ATOM     58  C   UNL A   1      44.334  26.721  31.668  1.00  0.00     0.029 A 
ATOM     59  C   UNL A   1      43.466  27.583  32.320  1.00  0.00     0.049 A 
ATOM     60  H   UNL A   1      41.735  28.538  31.579  1.00  0.00     0.167 HD
ATOM     61  C   UNL A   1      42.637  28.914  34.239  1.00  0.00     0.074 A 
ATOM     62  C   UNL A   1      42.689  29.360  35.615  1.00  0.00     0.031 C 
ATOM     63  C   UNL A   1      43.515  28.042  33.685  1.00  0.00     0.037 A 
BRANCH  50  64
ATOM     64  C   UNL A   1      42.318  26.667  27.789  1.00  0.00     0.064 A 
ATOM     65  C   UNL A   1      43.252  27.189  26.881  1.00  0.00     0.173 A 
ATOM     66  C   UNL A   1      41.816  25.380  27.548  1.00  0.00     0.173 A 
ATOM     67  F   UNL A   1      43.750  28.423  27.058  1.00  0.00    -0.203 F 
ATOM     68  C   UNL A   1      43.656  26.455  25.770  1.00  0.00     0.198 A 
ATOM     69  C   UNL A   1      42.246  24.636  26.453  1.00  0.00     0.198 A 
ATOM     70  F   UNL A   1      40.923  24.834  28.387  1.00  0.00    -0.203 F 
ATOM     71  F   UNL A   1      44.522  26.988  24.896  1.00  0.00    -0.200 F 
ATOM     72  C   UNL A   1      43.162  25.176  25.563  1.00  0.00     0.200 A 
ATOM     73  F   UNL A   1      41.779  23.394  26.263  1.00  0.00    -0.200 F 
ATOM     74  F   UNL A   1      43.568  24.462  24.503  1.00  0.00    -0.200 F 
ENDBRANCH  50  64
BRANCH  51  75
ATOM     75  C   UNL A   1      39.391  32.001  35.699  1.00  0.00     0.064 A 
ATOM     76  C   UNL A   1      39.954  33.259  35.950  1.00  0.00     0.173 A 
ATOM     77  C   UNL A   1      38.431  31.526  36.605  1.00  0.00     0.173 A 
ATOM     78  F   UNL A   1      40.900  33.744  35.131  1.00  0.00    -0.203 F 
ATOM     79  C   UNL A   1      39.580  34.008  37.064  1.00  0.00     0.198 A 
ATOM     80  C   UNL A   1      38.034  32.288  37.702  1.00  0.00     0.198 A 
ATOM     81  F   UNL A   1      37.867  30.324  36.417  1.00  0.00    -0.203 F 
ATOM     82  F   UNL A   1      40.166  35.189  37.303  1.00  0.00    -0.200 F 
ATOM     83  C   UNL A   1      38.614  33.526  37.934  1.00  0.00     0.200 A 
ATOM     84  F   UNL A   1      37.094  31.822  38.535  1.00  0.00    -0.200 F 
ATOM     85  F   UNL A   1      38.247  34.251  39.000  1.00  0.00    -0.200 F 
ENDBRANCH  51  75
BRANCH  63  86
ATOM     86  C   UNL A   1      44.629  27.516  34.545  1.00  0.00     0.064 A 
ATOM     87  C   UNL A   1      44.518  26.293  35.223  1.00  0.00     0.173 A 
ATOM     88  C   UNL A   1      45.860  28.190  34.605  1.00  0.00     0.173 A 
ATOM     89  F   UNL A   1      43.361  25.614  35.205  1.00  0.00    -0.203 F 
ATOM     90  C   UNL A   1      45.595  25.768  35.933  1.00  0.00     0.198 A 
ATOM     91  C   UNL A   1      46.944  27.647  35.290  1.00  0.00     0.198 A 
ATOM     92  F   UNL A   1      46.024  29.358  33.966  1.00  0.00    -0.203 F 
ATOM     93  F   UNL A   1      45.458  24.611  36.595  1.00  0.00    -0.200 F 
ATOM     94  C   UNL A   1      46.810  26.437  35.955  1.00  0.00     0.200 A 
ATOM     95  F   UNL A   1      48.122  28.284  35.292  1.00  0.00    -0.200 F 
ATOM     96  F   UNL A   1      47.852  25.917  36.617  1.00  0.00    -0.200 F 
ENDBRANCH  63  86
ENDBRANCH  37  38
ENDBRANCH  30  32
ENDBRANCH  29  30
ENDBRANCH  28  29
ENDBRANCH  27  28
ENDBRANCH  26  27
ENDBRANCH   1  26
TORSDOF 18
ENDMDL
MODEL 2
REMARK VINA RESULT:     -11.0      2.445      8.075
REMARK SMILES Cc1cc2c(c(C)c1Br)C=C(C(=O)OCCOCCOCCOC(=O)c1ccc(-c3c4nc(c(-c5c(F)c(F)c(F)c(F)c5F)c5ccc([nH]5)c(-c5c(F)c(F)c(F)c(F)c5F)c5nc(c(-c6c(F)c(F)c(F)c(F)c6F)c6ccc3[nH]6)C=C5)C=C4)cc1)[C@@H](C(F)(F)F)O2
REMARK SMILES IDX 19 1 18 2 17 3 16 4 15 5 14 6 12 7 13 8 11 9 1 10 2 11 3 12
REMARK SMILES IDX 8 13 4 14 6 15 9 16 5 17 94 18 7 19 10 20 89 21 90 22 91 23
REMARK SMILES IDX 92 24 93 25 20 26 21 27 22 28 23 29 24 30 25 31 26 32 27 33
REMARK SMILES IDX 88 34 28 35 87 36 29 37 30 38 31 39 81 40 32 41 86 42 80 43
REMARK SMILES IDX 82 44 33 45 85 46 79 47 78 48 34 50 66 51 46 52 65 53 47 54
REMARK SMILES IDX 50 55 64 56 83 57 48 58 49 59 63 61 84 62 51 63 35 64 36 65
REMARK SMILES IDX 44 66 37 67 38 68 42 69 45 70 39 71 40 72 43 73 41 74 67 75
REMARK SMILES IDX 68 76 76 77 69 78 70 79 74 80 77 81 71 82 72 83 75 84 73 85
REMARK SMILES IDX 52 86 53 87 61 88 54 89 55 90 59 91 62 92 56 93 57 94 60 95
REMARK SMILES IDX 58 96
REMARK H PARENT 82 49 50 60
REMARK Flexibility Score: inf
ROOT
ATOM      1  C   UNL A   1      34.711  33.640  28.317  1.00  0.00     0.188 C 
ENDROOT
BRANCH   1   2
ATOM      2  C   UNL A   1      33.665  32.534  28.076  1.00  0.00     0.188 C 
BRANCH   2   3
ATOM      3  O   UNL A   1      33.972  31.432  27.250  1.00  0.00    -0.376 OA
BRANCH   3   4
ATOM      4  C   UNL A   1      34.901  30.444  27.662  1.00  0.00     0.202 C 
BRANCH   4   5
ATOM      5  C   UNL A   1      34.843  28.972  27.222  1.00  0.00     0.261 C 
BRANCH   5   6
ATOM      6  O   UNL A   1      33.579  28.505  26.738  1.00  0.00    -0.460 OA
BRANCH   6   7
ATOM      7  C   UNL A   1      33.623  27.848  25.554  1.00  0.00     0.338 C 
ATOM      8  O   UNL A   1      33.964  28.305  24.476  1.00  0.00    -0.246 OA
BRANCH   7   9
ATOM      9  C   UNL A   1      33.353  26.413  25.777  1.00  0.00     0.087 C 
ATOM     10  C   UNL A   1      33.100  19.972  25.465  1.00  0.00     0.046 C 
ATOM     11  C   UNL A   1      33.550  21.398  25.657  1.00  0.00    -0.033 A 
ATOM     12  C   UNL A   1      32.567  22.350  25.955  1.00  0.00     0.051 A 
ATOM     13  C   UNL A   1      34.879  21.828  25.465  1.00  0.00     0.024 A 
ATOM     14  C   UNL A   1      32.872  23.708  26.000  1.00  0.00     0.128 A 
ATOM     15  C   UNL A   1      35.220  23.202  25.561  1.00  0.00    -0.026 A 
ATOM     16  Br  UNL A   1      36.209  20.529  25.008  1.00  0.00    -0.050 Br
ATOM     17  C   UNL A   1      34.180  24.146  25.767  1.00  0.00     0.021 A 
ATOM     18  O   UNL A   1      31.814  24.528  26.271  1.00  0.00    -0.475 OA
ATOM     19  C   UNL A   1      36.644  23.691  25.427  1.00  0.00     0.046 C 
ATOM     20  C   UNL A   1      34.400  25.587  25.659  1.00  0.00     0.027 C 
ATOM     21  C   UNL A   1      31.962  25.963  26.113  1.00  0.00     0.316 C 
BRANCH  21  22
ATOM     22  C   UNL A   1      30.926  26.448  25.090  1.00  0.00     0.430 C 
ATOM     23  F   UNL A   1      29.757  25.777  25.215  1.00  0.00    -0.167 F 
ATOM     24  F   UNL A   1      30.640  27.761  25.255  1.00  0.00    -0.167 F 
ATOM     25  F   UNL A   1      31.356  26.286  23.819  1.00  0.00    -0.167 F 
ENDBRANCH  21  22
ENDBRANCH   7   9
ENDBRANCH   6   7
ENDBRANCH   5   6
ENDBRANCH   4   5
ENDBRANCH   3   4
ENDBRANCH   2   3
ENDBRANCH   1   2
BRANCH   1  26
ATOM     26  O   UNL A   1      34.488  34.930  27.799  1.00  0.00    -0.376 OA
BRANCH  26  27
ATOM     27  C   UNL A   1      34.026  35.966  28.650  1.00  0.00     0.202 C 
BRANCH  27  28
ATOM     28  C   UNL A   1      32.886  35.829  29.681  1.00  0.00     0.261 C 
BRANCH  28  29
ATOM     29  O   UNL A   1      33.089  36.404  30.977  1.00  0.00    -0.460 OA
BRANCH  29  30
ATOM     30  C   UNL A   1      32.720  35.625  32.026  1.00  0.00     0.338 C 
ATOM     31  O   UNL A   1      31.592  35.364  32.397  1.00  0.00    -0.246 OA
BRANCH  30  32
ATOM     32  C   UNL A   1      33.920  34.949  32.558  1.00  0.00     0.060 A 
ATOM     33  C   UNL A   1      35.166  35.574  32.405  1.00  0.00     0.016 A 
ATOM     34  C   UNL A   1      33.822  33.705  33.180  1.00  0.00     0.016 A 
ATOM     35  C   UNL A   1      36.321  34.955  32.877  1.00  0.00     0.010 A 
ATOM     36  C   UNL A   1      34.986  33.069  33.624  1.00  0.00     0.010 A 
ATOM     37  C   UNL A   1      36.242  33.682  33.457  1.00  0.00    -0.014 A 
BRANCH  37  38
ATOM     38  C   UNL A   1      37.488  32.920  33.710  1.00  0.00     0.031 A 
ATOM     39  C   UNL A   1      38.235  33.181  34.987  1.00  0.00     0.074 A 
ATOM     40  C   UNL A   1      37.926  31.984  32.851  1.00  0.00     0.049 A 
ATOM     41  N   UNL A   1      39.356  32.660  35.416  1.00  0.00    -0.248 NA
ATOM     42  C   UNL A   1      37.633  34.158  35.908  1.00  0.00     0.031 C 
ATOM     43  C   UNL A   1      37.258  31.595  31.611  1.00  0.00     0.029 A 
ATOM     44  N   UNL A   1      39.045  31.188  32.895  1.00  0.00    -0.354 N 
ATOM     45  C   UNL A   1      39.587  33.241  36.657  1.00  0.00     0.074 A 
ATOM     46  C   UNL A   1      38.514  34.179  36.896  1.00  0.00     0.031 C 
ATOM     47  C   UNL A   1      37.984  30.637  31.009  1.00  0.00     0.029 A 
ATOM     48  C   UNL A   1      39.184  30.369  31.802  1.00  0.00     0.049 A 
ATOM     49  H   UNL A   1      39.688  31.204  33.641  1.00  0.00     0.167 HD
ATOM     50  C   UNL A   1      40.597  32.999  37.524  1.00  0.00     0.037 A 
ATOM     51  C   UNL A   1      40.177  29.517  31.474  1.00  0.00     0.037 A 
ATOM     52  C   UNL A   1      41.669  32.072  37.283  1.00  0.00     0.049 A 
ATOM     53  C   UNL A   1      41.353  29.352  32.405  1.00  0.00     0.074 A 
ATOM     54  C   UNL A   1      42.740  31.762  38.102  1.00  0.00     0.029 A 
ATOM     55  N   UNL A   1      41.810  31.310  36.132  1.00  0.00    -0.354 N 
ATOM     56  N   UNL A   1      41.561  29.893  33.582  1.00  0.00    -0.248 NA
ATOM     57  C   UNL A   1      42.437  28.461  31.962  1.00  0.00     0.031 C 
ATOM     58  C   UNL A   1      43.560  30.858  37.424  1.00  0.00     0.029 A 
ATOM     59  C   UNL A   1      42.970  30.555  36.207  1.00  0.00     0.049 A 
ATOM     60  H   UNL A   1      41.180  31.306  35.375  1.00  0.00     0.167 HD
ATOM     61  C   UNL A   1      42.776  29.389  34.030  1.00  0.00     0.074 A 
ATOM     62  C   UNL A   1      43.258  28.488  33.004  1.00  0.00     0.031 C 
ATOM     63  C   UNL A   1      43.434  29.652  35.185  1.00  0.00     0.037 A 
BRANCH  50  64
ATOM     64  C   UNL A   1      40.602  33.761  38.816  1.00  0.00     0.064 A 
ATOM     65  C   UNL A   1      41.357  34.933  38.973  1.00  0.00     0.173 A 
ATOM     66  C   UNL A   1      39.795  33.351  39.888  1.00  0.00     0.173 A 
ATOM     67  F   UNL A   1      42.156  35.359  37.983  1.00  0.00    -0.203 F 
ATOM     68  C   UNL A   1      41.313  35.658  40.160  1.00  0.00     0.198 A 
ATOM     69  C   UNL A   1      39.731  34.094  41.062  1.00  0.00     0.198 A 
ATOM     70  F   UNL A   1      39.053  32.237  39.788  1.00  0.00    -0.203 F 
ATOM     71  F   UNL A   1      42.070  36.755  40.301  1.00  0.00    -0.200 F 
ATOM     72  C   UNL A   1      40.493  35.245  41.199  1.00  0.00     0.200 A 
ATOM     73  F   UNL A   1      38.926  33.702  42.060  1.00  0.00    -0.200 F 
ATOM     74  F   UNL A   1      40.438  35.955  42.335  1.00  0.00    -0.200 F 
ENDBRANCH  50  64
BRANCH  51  75
ATOM     75  C   UNL A   1      40.107  28.750  30.200  1.00  0.00     0.064 A 
ATOM     76  C   UNL A   1      39.482  27.497  30.146  1.00  0.00     0.173 A 
ATOM     77  C   UNL A   1      40.669  29.248  29.015  1.00  0.00     0.173 A 
ATOM     78  F   UNL A   1      38.958  26.962  31.259  1.00  0.00    -0.203 F 
ATOM     79  C   UNL A   1      39.428  26.769  28.959  1.00  0.00     0.198 A 
ATOM     80  C   UNL A   1      40.588  28.534  27.822  1.00  0.00     0.198 A 
ATOM     81  F   UNL A   1      41.287  30.439  29.013  1.00  0.00    -0.203 F 
ATOM     82  F   UNL A   1      38.861  25.555  28.945  1.00  0.00    -0.200 F 
ATOM     83  C   UNL A   1      39.973  27.291  27.796  1.00  0.00     0.200 A 
ATOM     84  F   UNL A   1      41.108  29.047  26.699  1.00  0.00    -0.200 F 
ATOM     85  F   UNL A   1      39.912  26.595  26.653  1.00  0.00    -0.200 F 
ENDBRANCH  51  75
BRANCH  63  86
ATOM     86  C   UNL A   1      44.740  28.951  35.433  1.00  0.00     0.064 A 
ATOM     87  C   UNL A   1      44.791  27.693  36.051  1.00  0.00     0.173 A 
ATOM     88  C   UNL A   1      45.942  29.494  34.951  1.00  0.00     0.173 A 
ATOM     89  F   UNL A   1      43.673  27.134  36.537  1.00  0.00    -0.203 F 
ATOM     90  C   UNL A   1      45.996  27.008  36.183  1.00  0.00     0.198 A 
ATOM     91  C   UNL A   1      47.141  28.793  35.057  1.00  0.00     0.198 A 
ATOM     92  F   UNL A   1      45.949  30.690  34.343  1.00  0.00    -0.203 F 
ATOM     93  F   UNL A   1      46.026  25.819  36.800  1.00  0.00    -0.200 F 
ATOM     94  C   UNL A   1      47.167  27.552  35.675  1.00  0.00     0.200 A 
ATOM     95  F   UNL A   1      48.266  29.311  34.546  1.00  0.00    -0.200 F 
ATOM     96  F   UNL A   1      48.321  26.879  35.778  1.00  0.00    -0.200 F 
ENDBRANCH  63  86
ENDBRANCH  37  38
ENDBRANCH  30  32
ENDBRANCH  29  30
ENDBRANCH  28  29
ENDBRANCH  27  28
ENDBRANCH  26  27
ENDBRANCH   1  26
TORSDOF 18
ENDMDL
MODEL 3
REMARK VINA RESULT:     -11.0      4.321      8.427
REMARK SMILES Cc1cc2c(c(C)c1Br)C=C(C(=O)OCCOCCOCCOC(=O)c1ccc(-c3c4nc(c(-c5c(F)c(F)c(F)c(F)c5F)c5ccc([nH]5)c(-c5c(F)c(F)c(F)c(F)c5F)c5nc(c(-c6c(F)c(F)c(F)c(F)c6F)c6ccc3[nH]6)C=C5)C=C4)cc1)[C@@H](C(F)(F)F)O2
REMARK SMILES IDX 19 1 18 2 17 3 16 4 15 5 14 6 12 7 13 8 11 9 1 10 2 11 3 12
REMARK SMILES IDX 8 13 4 14 6 15 9 16 5 17 94 18 7 19 10 20 89 21 90 22 91 23
REMARK SMILES IDX 92 24 93 25 20 26 21 27 22 28 23 29 24 30 25 31 26 32 27 33
REMARK SMILES IDX 88 34 28 35 87 36 29 37 30 38 31 39 81 40 32 41 86 42 80 43
REMARK SMILES IDX 82 44 33 45 85 46 79 47 78 48 34 50 66 51 46 52 65 53 47 54
REMARK SMILES IDX 50 55 64 56 83 57 48 58 49 59 63 61 84 62 51 63 35 64 36 65
REMARK SMILES IDX 44 66 37 67 38 68 42 69 45 70 39 71 40 72 43 73 41 74 67 75
REMARK SMILES IDX 68 76 76 77 69 78 70 79 74 80 77 81 71 82 72 83 75 84 73 85
REMARK SMILES IDX 52 86 53 87 61 88 54 89 55 90 59 91 62 92 56 93 57 94 60 95
REMARK SMILES IDX 58 96
REMARK H PARENT 82 49 50 60
REMARK Flexibility Score: inf
ROOT
ATOM      1  C   UNL A   1      33.413  34.804  28.486  1.00  0.00     0.188 C 
ENDROOT
BRANCH   1   2
ATOM      2  C   UNL A   1      33.910  33.409  28.058  1.00  0.00     0.188 C 
BRANCH   2   3
ATOM      3  O   UNL A   1      32.987  32.405  27.699  1.00  0.00    -0.376 OA
BRANCH   3   4
ATOM      4  C   UNL A   1      33.390  31.052  27.566  1.00  0.00     0.202 C 
BRANCH   4   5
ATOM      5  C   UNL A   1      32.532  29.959  26.909  1.00  0.00     0.261 C 
BRANCH   5   6
ATOM      6  O   UNL A   1      33.059  28.629  26.952  1.00  0.00    -0.460 OA
BRANCH   6   7
ATOM      7  C   UNL A   1      33.200  28.026  25.747  1.00  0.00     0.338 C 
ATOM      8  O   UNL A   1      33.601  28.538  24.716  1.00  0.00    -0.246 OA
BRANCH   7   9
ATOM      9  C   UNL A   1      32.953  26.577  25.889  1.00  0.00     0.087 C 
ATOM     10  C   UNL A   1      32.882  20.153  25.279  1.00  0.00     0.046 C 
ATOM     11  C   UNL A   1      33.283  21.578  25.562  1.00  0.00    -0.033 A 
ATOM     12  C   UNL A   1      32.260  22.494  25.839  1.00  0.00     0.051 A 
ATOM     13  C   UNL A   1      34.610  22.047  25.472  1.00  0.00     0.024 A 
ATOM     14  C   UNL A   1      32.527  23.855  25.963  1.00  0.00     0.128 A 
ATOM     15  C   UNL A   1      34.909  23.422  25.649  1.00  0.00    -0.026 A 
ATOM     16  Br  UNL A   1      35.998  20.800  25.041  1.00  0.00    -0.050 Br
ATOM     17  C   UNL A   1      33.836  24.332  25.831  1.00  0.00     0.021 A 
ATOM     18  O   UNL A   1      31.435  24.638  26.204  1.00  0.00    -0.475 OA
ATOM     19  C   UNL A   1      36.327  23.949  25.626  1.00  0.00     0.046 C 
ATOM     20  C   UNL A   1      34.026  25.781  25.800  1.00  0.00     0.027 C 
ATOM     21  C   UNL A   1      31.556  26.081  26.118  1.00  0.00     0.316 C 
BRANCH  21  22
ATOM     22  C   UNL A   1      30.573  26.589  25.056  1.00  0.00     0.430 C 
ATOM     23  F   UNL A   1      29.327  26.098  25.260  1.00  0.00    -0.167 F 
ATOM     24  F   UNL A   1      30.466  27.939  25.079  1.00  0.00    -0.167 F 
ATOM     25  F   UNL A   1      30.950  26.236  23.807  1.00  0.00    -0.167 F 
ENDBRANCH  21  22
ENDBRANCH   7   9
ENDBRANCH   6   7
ENDBRANCH   5   6
ENDBRANCH   4   5
ENDBRANCH   3   4
ENDBRANCH   2   3
ENDBRANCH   1   2
BRANCH   1  26
ATOM     26  O   UNL A   1      34.015  35.448  29.584  1.00  0.00    -0.376 OA
BRANCH  26  27
ATOM     27  C   UNL A   1      33.521  35.225  30.895  1.00  0.00     0.202 C 
BRANCH  27  28
ATOM     28  C   UNL A   1      34.122  34.236  31.916  1.00  0.00     0.261 C 
BRANCH  28  29
ATOM     29  O   UNL A   1      35.008  33.225  31.420  1.00  0.00    -0.460 OA
BRANCH  29  30
ATOM     30  C   UNL A   1      35.719  32.558  32.365  1.00  0.00     0.338 C 
ATOM     31  O   UNL A   1      35.443  32.417  33.540  1.00  0.00    -0.246 OA
BRANCH  30  32
ATOM     32  C   UNL A   1      36.817  31.827  31.701  1.00  0.00     0.060 A 
ATOM     33  C   UNL A   1      37.851  31.307  32.493  1.00  0.00     0.016 A 
ATOM     34  C   UNL A   1      36.840  31.677  30.315  1.00  0.00     0.016 A 
ATOM     35  C   UNL A   1      38.914  30.630  31.898  1.00  0.00     0.010 A 
ATOM     36  C   UNL A   1      37.923  31.026  29.717  1.00  0.00     0.010 A 
ATOM     37  C   UNL A   1      38.974  30.517  30.502  1.00  0.00    -0.014 A 
BRANCH  37  38
ATOM     38  C   UNL A   1      40.224  30.040  29.866  1.00  0.00     0.031 A 
ATOM     39  C   UNL A   1      41.370  31.005  29.736  1.00  0.00     0.074 A 
ATOM     40  C   UNL A   1      40.362  28.769  29.452  1.00  0.00     0.049 A 
ATOM     41  N   UNL A   1      42.548  30.828  29.196  1.00  0.00    -0.248 NA
ATOM     42  C   UNL A   1      41.158  32.348  30.298  1.00  0.00     0.031 C 
ATOM     43  C   UNL A   1      39.349  27.725  29.578  1.00  0.00     0.029 A 
ATOM     44  N   UNL A   1      41.418  28.142  28.837  1.00  0.00    -0.354 N 
ATOM     45  C   UNL A   1      43.219  32.034  29.360  1.00  0.00     0.074 A 
ATOM     46  C   UNL A   1      42.306  32.945  30.014  1.00  0.00     0.031 C 
ATOM     47  C   UNL A   1      39.832  26.585  29.053  1.00  0.00     0.029 A 
ATOM     48  C   UNL A   1      41.174  26.828  28.522  1.00  0.00     0.049 A 
ATOM     49  H   UNL A   1      42.272  28.592  28.641  1.00  0.00     0.167 HD
ATOM     50  C   UNL A   1      44.488  32.345  29.010  1.00  0.00     0.037 A 
ATOM     51  C   UNL A   1      41.939  25.935  27.863  1.00  0.00     0.037 A 
ATOM     52  C   UNL A   1      45.392  31.442  28.351  1.00  0.00     0.049 A 
ATOM     53  C   UNL A   1      43.309  26.344  27.377  1.00  0.00     0.074 A 
ATOM     54  C   UNL A   1      46.697  31.670  27.953  1.00  0.00     0.029 A 
ATOM     55  N   UNL A   1      45.083  30.139  27.987  1.00  0.00    -0.354 N 
ATOM     56  N   UNL A   1      43.943  27.479  27.546  1.00  0.00    -0.248 NA
ATOM     57  C   UNL A   1      44.069  25.347  26.606  1.00  0.00     0.031 C 
ATOM     58  C   UNL A   1      47.158  30.527  27.296  1.00  0.00     0.029 A 
ATOM     59  C   UNL A   1      46.163  29.563  27.339  1.00  0.00     0.049 A 
ATOM     60  H   UNL A   1      44.224  29.692  28.164  1.00  0.00     0.167 HD
ATOM     61  C   UNL A   1      45.179  27.326  26.931  1.00  0.00     0.074 A 
ATOM     62  C   UNL A   1      45.215  25.982  26.394  1.00  0.00     0.031 C 
ATOM     63  C   UNL A   1      46.192  28.220  26.818  1.00  0.00     0.037 A 
BRANCH  50  64
ATOM     64  C   UNL A   1      44.975  33.730  29.317  1.00  0.00     0.064 A 
ATOM     65  C   UNL A   1      45.678  34.015  30.497  1.00  0.00     0.173 A 
ATOM     66  C   UNL A   1      44.792  34.770  28.394  1.00  0.00     0.173 A 
ATOM     67  F   UNL A   1      45.865  33.058  31.419  1.00  0.00    -0.203 F 
ATOM     68  C   UNL A   1      46.167  35.294  30.747  1.00  0.00     0.198 A 
ATOM     69  C   UNL A   1      45.309  36.040  28.633  1.00  0.00     0.198 A 
ATOM     70  F   UNL A   1      44.128  34.549  27.249  1.00  0.00    -0.203 F 
ATOM     71  F   UNL A   1      46.804  35.553  31.897  1.00  0.00    -0.200 F 
ATOM     72  C   UNL A   1      45.993  36.302  29.810  1.00  0.00     0.200 A 
ATOM     73  F   UNL A   1      45.152  37.008  27.719  1.00  0.00    -0.200 F 
ATOM     74  F   UNL A   1      46.482  37.528  30.043  1.00  0.00    -0.200 F 
ENDBRANCH  50  64
BRANCH  51  75
ATOM     75  C   UNL A   1      41.429  24.557  27.618  1.00  0.00     0.064 A 
ATOM     76  C   UNL A   1      41.977  23.456  28.289  1.00  0.00     0.173 A 
ATOM     77  C   UNL A   1      40.393  24.313  26.705  1.00  0.00     0.173 A 
ATOM     78  F   UNL A   1      42.993  23.633  29.148  1.00  0.00    -0.203 F 
ATOM     79  C   UNL A   1      41.514  22.163  28.052  1.00  0.00     0.198 A 
ATOM     80  C   UNL A   1      39.909  23.024  26.490  1.00  0.00     0.198 A 
ATOM     81  F   UNL A   1      39.839  25.331  26.029  1.00  0.00    -0.203 F 
ATOM     82  F   UNL A   1      42.084  21.124  28.676  1.00  0.00    -0.200 F 
ATOM     83  C   UNL A   1      40.474  21.949  27.160  1.00  0.00     0.200 A 
ATOM     84  F   UNL A   1      38.898  22.824  25.635  1.00  0.00    -0.200 F 
ATOM     85  F   UNL A   1      40.022  20.707  26.939  1.00  0.00    -0.200 F 
ENDBRANCH  51  75
BRANCH  63  86
ATOM     86  C   UNL A   1      47.444  27.788  26.110  1.00  0.00     0.064 A 
ATOM     87  C   UNL A   1      48.521  27.218  26.804  1.00  0.00     0.173 A 
ATOM     88  C   UNL A   1      47.525  27.846  24.709  1.00  0.00     0.173 A 
ATOM     89  F   UNL A   1      48.498  27.147  28.144  1.00  0.00    -0.203 F 
ATOM     90  C   UNL A   1      49.633  26.728  26.125  1.00  0.00     0.198 A 
ATOM     91  C   UNL A   1      48.625  27.327  24.030  1.00  0.00     0.198 A 
ATOM     92  F   UNL A   1      46.519  28.372  23.994  1.00  0.00    -0.203 F 
ATOM     93  F   UNL A   1      50.662  26.211  26.811  1.00  0.00    -0.200 F 
ATOM     94  C   UNL A   1      49.679  26.770  24.739  1.00  0.00     0.200 A 
ATOM     95  F   UNL A   1      48.657  27.349  22.691  1.00  0.00    -0.200 F 
ATOM     96  F   UNL A   1      50.738  26.273  24.085  1.00  0.00    -0.200 F 
ENDBRANCH  63  86
ENDBRANCH  37  38
ENDBRANCH  30  32
ENDBRANCH  29  30
ENDBRANCH  28  29
ENDBRANCH  27  28
ENDBRANCH  26  27
ENDBRANCH   1  26
TORSDOF 18
ENDMDL
