MODEL 1
REMARK VINA RESULT:     -12.6      0.000      0.000
REMARK SMILES Cc1ccc(N[C@](C)(C(=O)OCCOCCOCCOC(=O)c2ccc(-c3c4nc(c(-c5c(F)c(F)c(F)c(F)c5F)c5ccc([nH]5)c(-c5c(F)c(F)c(F)c(F)c5F)c5nc(c(-c6c(F)c(F)c(F)c(F)c6F)c6ccc3[nH]6)C=C5)C=C4)cc2)c2cc(F)cc(F)c2)cc1
REMARK SMILES IDX 15 1 14 2 13 3 12 4 11 5 9 6 10 7 7 8 8 9 6 10 5 12 1 13
REMARK SMILES IDX 2 14 3 15 95 16 4 17 94 18 86 19 87 20 93 21 88 22 91 23
REMARK SMILES IDX 89 24 90 25 92 26 16 27 17 28 18 29 19 30 20 31 21 32 22 33
REMARK SMILES IDX 23 34 24 35 85 36 25 37 84 38 26 39 27 40 28 41 78 42 29 43
REMARK SMILES IDX 83 44 77 45 79 46 30 47 82 48 76 49 75 50 31 52 63 53 43 54
REMARK SMILES IDX 62 55 44 56 47 57 61 58 80 59 45 60 46 61 60 63 81 64 48 65
REMARK SMILES IDX 32 66 33 67 41 68 34 69 35 70 39 71 42 72 36 73 37 74 40 75
REMARK SMILES IDX 38 76 64 77 65 78 73 79 66 80 67 81 71 82 74 83 68 84 69 85
REMARK SMILES IDX 72 86 70 87 49 88 50 89 58 90 51 91 52 92 56 93 59 94 53 95
REMARK SMILES IDX 54 96 57 97 55 98
REMARK H PARENT 6 11 79 51 47 62
REMARK Flexibility Score: inf
ROOT
ATOM      1  C   UNL A   1      35.205  32.400  28.007  1.00  0.00     0.188 C 
ENDROOT
BRANCH   1   2
ATOM      2  O   UNL A   1      34.566  31.194  28.370  1.00  0.00    -0.376 OA
BRANCH   2   3
ATOM      3  C   UNL A   1      34.494  30.245  27.317  1.00  0.00     0.202 C 
BRANCH   3   4
ATOM      4  C   UNL A   1      33.207  30.112  26.438  1.00  0.00     0.261 C 
BRANCH   4   5
ATOM      5  O   UNL A   1      33.170  29.461  24.977  1.00  0.00    -0.461 OA
BRANCH   5   6
ATOM      6  C   UNL A   1      32.667  28.909  23.815  1.00  0.00     0.336 C 
ATOM      7  O   UNL A   1      33.358  29.241  22.831  1.00  0.00    -0.249 OA
BRANCH   6   8
ATOM      8  C   UNL A   1      31.278  27.918  23.394  1.00  0.00     0.159 C 
ATOM      9  C   UNL A   1      31.229  26.842  22.308  1.00  0.00     0.053 C 
BRANCH   8  10
ATOM     10  N   UNL A   1      30.970  27.191  24.684  1.00  0.00    -0.366 N 
ATOM     11  H   UNL A   1      30.257  27.616  25.213  1.00  0.00     0.162 HD
BRANCH  10  12
ATOM     12  C   UNL A   1      31.483  26.048  25.273  1.00  0.00     0.035 A 
ATOM     13  C   UNL A   1      32.691  22.625  27.655  1.00  0.00     0.044 C 
ATOM     14  C   UNL A   1      32.271  23.688  26.687  1.00  0.00    -0.051 A 
ATOM     15  C   UNL A   1      33.218  24.558  26.156  1.00  0.00     0.005 A 
ATOM     16  C   UNL A   1      30.929  23.935  26.414  1.00  0.00     0.005 A 
ATOM     17  C   UNL A   1      32.827  25.720  25.469  1.00  0.00     0.026 A 
ATOM     18  C   UNL A   1      30.554  25.079  25.694  1.00  0.00     0.026 A 
ENDBRANCH  10  12
ENDBRANCH   8  10
BRANCH   8  19
ATOM     19  C   UNL A   1      29.963  28.832  23.204  1.00  0.00    -0.006 A 
ATOM     20  C   UNL A   1      29.972  30.259  23.246  1.00  0.00     0.046 A 
ATOM     21  C   UNL A   1      28.695  28.240  23.087  1.00  0.00     0.046 A 
ATOM     22  C   UNL A   1      28.799  30.988  23.477  1.00  0.00     0.126 A 
ATOM     23  C   UNL A   1      27.530  29.006  23.217  1.00  0.00     0.126 A 
ATOM     24  F   UNL A   1      28.887  32.285  23.806  1.00  0.00    -0.207 F 
ATOM     25  C   UNL A   1      27.570  30.365  23.485  1.00  0.00     0.078 A 
ATOM     26  F   UNL A   1      26.342  28.394  23.147  1.00  0.00    -0.207 F 
ENDBRANCH   8  19
ENDBRANCH   6   8
ENDBRANCH   5   6
ENDBRANCH   4   5
ENDBRANCH   3   4
ENDBRANCH   2   3
ENDBRANCH   1   2
BRANCH   1  27
ATOM     27  C   UNL A   1      35.275  33.368  29.185  1.00  0.00     0.188 C 
BRANCH  27  28
ATOM     28  O   UNL A   1      34.646  34.594  28.869  1.00  0.00    -0.376 OA
BRANCH  28  29
ATOM     29  C   UNL A   1      33.232  34.660  28.901  1.00  0.00     0.202 C 
BRANCH  29  30
ATOM     30  C   UNL A   1      32.865  36.062  29.382  1.00  0.00     0.261 C 
BRANCH  30  31
ATOM     31  O   UNL A   1      33.546  36.307  30.636  1.00  0.00    -0.460 OA
BRANCH  31  32
ATOM     32  C   UNL A   1      32.878  35.871  31.731  1.00  0.00     0.338 C 
ATOM     33  O   UNL A   1      31.763  36.249  32.084  1.00  0.00    -0.246 OA
BRANCH  32  34
ATOM     34  C   UNL A   1      33.803  35.063  32.582  1.00  0.00     0.060 A 
ATOM     35  C   UNL A   1      34.896  35.692  33.133  1.00  0.00     0.016 A 
ATOM     36  C   UNL A   1      33.755  33.665  32.695  1.00  0.00     0.016 A 
ATOM     37  C   UNL A   1      35.899  34.892  33.716  1.00  0.00     0.010 A 
ATOM     38  C   UNL A   1      34.909  32.915  33.062  1.00  0.00     0.010 A 
ATOM     39  C   UNL A   1      36.095  33.549  33.435  1.00  0.00    -0.014 A 
BRANCH  39  40
ATOM     40  C   UNL A   1      37.460  32.837  33.424  1.00  0.00     0.031 A 
ATOM     41  C   UNL A   1      37.501  31.517  32.759  1.00  0.00     0.074 A 
ATOM     42  C   UNL A   1      38.673  33.048  34.081  1.00  0.00     0.049 A 
ATOM     43  N   UNL A   1      38.398  30.615  33.010  1.00  0.00    -0.248 NA
ATOM     44  C   UNL A   1      36.404  31.042  31.932  1.00  0.00     0.031 C 
ATOM     45  C   UNL A   1      39.959  32.902  33.381  1.00  0.00     0.029 A 
ATOM     46  N   UNL A   1      39.110  33.628  35.282  1.00  0.00    -0.354 N 
ATOM     47  C   UNL A   1      38.224  29.642  32.073  1.00  0.00     0.074 A 
ATOM     48  C   UNL A   1      36.856  29.821  31.639  1.00  0.00     0.031 C 
ATOM     49  C   UNL A   1      40.974  33.329  34.156  1.00  0.00     0.029 A 
ATOM     50  C   UNL A   1      40.473  33.691  35.474  1.00  0.00     0.049 A 
ATOM     51  H   UNL A   1      38.476  33.972  35.953  1.00  0.00     0.167 HD
ATOM     52  C   UNL A   1      39.329  29.022  31.565  1.00  0.00     0.037 A 
ATOM     53  C   UNL A   1      41.180  33.798  36.641  1.00  0.00     0.037 A 
ATOM     54  C   UNL A   1      40.571  29.421  32.261  1.00  0.00     0.049 A 
ATOM     55  C   UNL A   1      42.065  32.576  36.716  1.00  0.00     0.074 A 
ATOM     56  C   UNL A   1      41.595  30.286  31.896  1.00  0.00     0.029 A 
ATOM     57  N   UNL A   1      40.794  29.127  33.611  1.00  0.00    -0.354 N 
ATOM     58  N   UNL A   1      41.953  31.639  35.820  1.00  0.00    -0.248 NA
ATOM     59  C   UNL A   1      43.035  32.220  37.746  1.00  0.00     0.031 C 
ATOM     60  C   UNL A   1      42.475  30.439  32.991  1.00  0.00     0.029 A 
ATOM     61  C   UNL A   1      41.992  29.684  34.047  1.00  0.00     0.049 A 
ATOM     62  H   UNL A   1      40.186  28.597  34.175  1.00  0.00     0.167 HD
ATOM     63  C   UNL A   1      42.706  30.564  36.142  1.00  0.00     0.074 A 
ATOM     64  C   UNL A   1      43.400  30.982  37.348  1.00  0.00     0.031 C 
ATOM     65  C   UNL A   1      42.563  29.440  35.380  1.00  0.00     0.037 A 
BRANCH  52  66
ATOM     66  C   UNL A   1      39.316  28.444  30.151  1.00  0.00     0.064 A 
ATOM     67  C   UNL A   1      39.091  27.069  29.934  1.00  0.00     0.173 A 
ATOM     68  C   UNL A   1      39.627  29.163  28.979  1.00  0.00     0.173 A 
ATOM     69  F   UNL A   1      38.621  26.273  30.902  1.00  0.00    -0.203 F 
ATOM     70  C   UNL A   1      39.329  26.451  28.701  1.00  0.00     0.198 A 
ATOM     71  C   UNL A   1      39.924  28.544  27.763  1.00  0.00     0.198 A 
ATOM     72  F   UNL A   1      39.580  30.497  28.938  1.00  0.00    -0.203 F 
ATOM     73  F   UNL A   1      39.119  25.134  28.570  1.00  0.00    -0.200 F 
ATOM     74  C   UNL A   1      39.790  27.181  27.628  1.00  0.00     0.200 A 
ATOM     75  F   UNL A   1      40.333  29.286  26.724  1.00  0.00    -0.200 F 
ATOM     76  F   UNL A   1      40.059  26.585  26.460  1.00  0.00    -0.200 F 
ENDBRANCH  52  66
BRANCH  53  77
ATOM     77  C   UNL A   1      40.603  34.519  37.821  1.00  0.00     0.064 A 
ATOM     78  C   UNL A   1      40.867  35.881  38.034  1.00  0.00     0.173 A 
ATOM     79  C   UNL A   1      39.674  33.952  38.691  1.00  0.00     0.173 A 
ATOM     80  F   UNL A   1      41.843  36.487  37.344  1.00  0.00    -0.203 F 
ATOM     81  C   UNL A   1      40.129  36.644  38.952  1.00  0.00     0.198 A 
ATOM     82  C   UNL A   1      38.889  34.713  39.568  1.00  0.00     0.198 A 
ATOM     83  F   UNL A   1      39.555  32.632  38.712  1.00  0.00    -0.203 F 
ATOM     84  F   UNL A   1      40.396  37.948  39.112  1.00  0.00    -0.200 F 
ATOM     85  C   UNL A   1      39.086  36.075  39.661  1.00  0.00     0.200 A 
ATOM     86  F   UNL A   1      37.934  34.129  40.307  1.00  0.00    -0.200 F 
ATOM     87  F   UNL A   1      38.295  36.832  40.435  1.00  0.00    -0.200 F 
ENDBRANCH  53  77
BRANCH  65  88
ATOM     88  C   UNL A   1      43.017  28.058  35.754  1.00  0.00     0.064 A 
ATOM     89  C   UNL A   1      42.222  27.120  36.432  1.00  0.00     0.173 A 
ATOM     90  C   UNL A   1      44.264  27.576  35.288  1.00  0.00     0.173 A 
ATOM     91  F   UNL A   1      40.988  27.418  36.852  1.00  0.00    -0.203 F 
ATOM     92  C   UNL A   1      42.653  25.810  36.654  1.00  0.00     0.198 A 
ATOM     93  C   UNL A   1      44.664  26.254  35.458  1.00  0.00     0.198 A 
ATOM     94  F   UNL A   1      45.122  28.365  34.626  1.00  0.00    -0.203 F 
ATOM     95  F   UNL A   1      41.867  24.962  37.332  1.00  0.00    -0.200 F 
ATOM     96  C   UNL A   1      43.864  25.373  36.151  1.00  0.00     0.200 A 
ATOM     97  F   UNL A   1      45.820  25.839  34.923  1.00  0.00    -0.200 F 
ATOM     98  F   UNL A   1      44.250  24.103  36.321  1.00  0.00    -0.200 F 
ENDBRANCH  65  88
ENDBRANCH  39  40
ENDBRANCH  32  34
ENDBRANCH  31  32
ENDBRANCH  30  31
ENDBRANCH  29  30
ENDBRANCH  28  29
ENDBRANCH  27  28
ENDBRANCH   1  27
TORSDOF 20
ENDMDL
MODEL 2
REMARK VINA RESULT:     -12.5      1.933      2.844
REMARK SMILES Cc1ccc(N[C@](C)(C(=O)OCCOCCOCCOC(=O)c2ccc(-c3c4nc(c(-c5c(F)c(F)c(F)c(F)c5F)c5ccc([nH]5)c(-c5c(F)c(F)c(F)c(F)c5F)c5nc(c(-c6c(F)c(F)c(F)c(F)c6F)c6ccc3[nH]6)C=C5)C=C4)cc2)c2cc(F)cc(F)c2)cc1
REMARK SMILES IDX 15 1 14 2 13 3 12 4 11 5 9 6 10 7 7 8 8 9 6 10 5 12 1 13
REMARK SMILES IDX 2 14 3 15 95 16 4 17 94 18 86 19 87 20 93 21 88 22 91 23
REMARK SMILES IDX 89 24 90 25 92 26 16 27 17 28 18 29 19 30 20 31 21 32 22 33
REMARK SMILES IDX 23 34 24 35 85 36 25 37 84 38 26 39 27 40 28 41 78 42 29 43
REMARK SMILES IDX 83 44 77 45 79 46 30 47 82 48 76 49 75 50 31 52 63 53 43 54
REMARK SMILES IDX 62 55 44 56 47 57 61 58 80 59 45 60 46 61 60 63 81 64 48 65
REMARK SMILES IDX 32 66 33 67 41 68 34 69 35 70 39 71 42 72 36 73 37 74 40 75
REMARK SMILES IDX 38 76 64 77 65 78 73 79 66 80 67 81 71 82 74 83 68 84 69 85
REMARK SMILES IDX 72 86 70 87 49 88 50 89 58 90 51 91 52 92 56 93 59 94 53 95
REMARK SMILES IDX 54 96 57 97 55 98
REMARK H PARENT 6 11 79 51 47 62
REMARK Flexibility Score: inf
ROOT
ATOM      1  C   UNL A   1      33.280  33.789  28.027  1.00  0.00     0.188 C 
ENDROOT
BRANCH   1   2
ATOM      2  O   UNL A   1      34.444  32.991  27.971  1.00  0.00    -0.376 OA
BRANCH   2   3
ATOM      3  C   UNL A   1      34.179  31.600  27.892  1.00  0.00     0.202 C 
BRANCH   3   4
ATOM      4  C   UNL A   1      32.869  31.064  27.227  1.00  0.00     0.261 C 
BRANCH   4   5
ATOM      5  O   UNL A   1      32.532  29.516  27.002  1.00  0.00    -0.461 OA
BRANCH   5   6
ATOM      6  C   UNL A   1      32.269  28.327  26.350  1.00  0.00     0.336 C 
ATOM      7  O   UNL A   1      31.810  27.480  27.142  1.00  0.00    -0.249 OA
BRANCH   6   8
ATOM      8  C   UNL A   1      32.477  27.719  24.715  1.00  0.00     0.159 C 
ATOM      9  C   UNL A   1      33.655  28.008  23.783  1.00  0.00     0.053 C 
BRANCH   8  10
ATOM     10  N   UNL A   1      32.481  26.218  24.903  1.00  0.00    -0.366 N 
ATOM     11  H   UNL A   1      31.686  25.880  25.375  1.00  0.00     0.162 HD
BRANCH  10  12
ATOM     12  C   UNL A   1      33.373  25.222  24.545  1.00  0.00     0.035 A 
ATOM     13  C   UNL A   1      36.656  22.580  23.501  1.00  0.00     0.044 C 
ATOM     14  C   UNL A   1      35.454  23.347  23.960  1.00  0.00    -0.051 A 
ATOM     15  C   UNL A   1      34.357  23.492  23.116  1.00  0.00     0.005 A 
ATOM     16  C   UNL A   1      35.457  24.058  25.156  1.00  0.00     0.005 A 
ATOM     17  C   UNL A   1      33.342  24.419  23.402  1.00  0.00     0.026 A 
ATOM     18  C   UNL A   1      34.417  24.952  25.449  1.00  0.00     0.026 A 
ENDBRANCH  10  12
ENDBRANCH   8  10
BRANCH   8  19
ATOM     19  C   UNL A   1      31.134  27.943  23.849  1.00  0.00    -0.006 A 
ATOM     20  C   UNL A   1      30.937  29.040  22.955  1.00  0.00     0.046 A 
ATOM     21  C   UNL A   1      30.026  27.099  24.021  1.00  0.00     0.046 A 
ATOM     22  C   UNL A   1      29.654  29.420  22.541  1.00  0.00     0.126 A 
ATOM     23  C   UNL A   1      28.771  27.447  23.507  1.00  0.00     0.126 A 
ATOM     24  F   UNL A   1      29.481  30.614  21.956  1.00  0.00    -0.207 F 
ATOM     25  C   UNL A   1      28.558  28.638  22.831  1.00  0.00     0.078 A 
ATOM     26  F   UNL A   1      27.730  26.636  23.735  1.00  0.00    -0.207 F 
ENDBRANCH   8  19
ENDBRANCH   6   8
ENDBRANCH   5   6
ENDBRANCH   4   5
ENDBRANCH   3   4
ENDBRANCH   2   3
ENDBRANCH   1   2
BRANCH   1  27
ATOM     27  C   UNL A   1      33.627  35.268  28.183  1.00  0.00     0.188 C 
BRANCH  27  28
ATOM     28  O   UNL A   1      32.653  35.937  28.959  1.00  0.00    -0.376 OA
BRANCH  28  29
ATOM     29  C   UNL A   1      33.058  37.025  29.768  1.00  0.00     0.202 C 
BRANCH  29  30
ATOM     30  C   UNL A   1      32.784  36.628  31.216  1.00  0.00     0.261 C 
BRANCH  30  31
ATOM     31  O   UNL A   1      33.950  35.937  31.727  1.00  0.00    -0.460 OA
BRANCH  31  32
ATOM     32  C   UNL A   1      33.742  34.632  32.024  1.00  0.00     0.338 C 
ATOM     33  O   UNL A   1      32.960  34.208  32.872  1.00  0.00    -0.246 OA
BRANCH  32  34
ATOM     34  C   UNL A   1      34.790  33.802  31.355  1.00  0.00     0.060 A 
ATOM     35  C   UNL A   1      34.775  32.443  31.564  1.00  0.00     0.016 A 
ATOM     36  C   UNL A   1      35.913  34.328  30.697  1.00  0.00     0.016 A 
ATOM     37  C   UNL A   1      35.897  31.694  31.153  1.00  0.00     0.010 A 
ATOM     38  C   UNL A   1      37.103  33.562  30.544  1.00  0.00     0.010 A 
ATOM     39  C   UNL A   1      37.159  32.224  30.940  1.00  0.00    -0.014 A 
BRANCH  39  40
ATOM     40  C   UNL A   1      38.484  31.486  31.198  1.00  0.00     0.031 A 
ATOM     41  C   UNL A   1      38.663  30.200  30.490  1.00  0.00     0.074 A 
ATOM     42  C   UNL A   1      39.520  31.639  32.120  1.00  0.00     0.049 A 
ATOM     43  N   UNL A   1      39.471  29.269  30.888  1.00  0.00    -0.248 NA
ATOM     44  C   UNL A   1      37.776  29.789  29.414  1.00  0.00     0.031 C 
ATOM     45  C   UNL A   1      40.929  31.501  31.721  1.00  0.00     0.029 A 
ATOM     46  N   UNL A   1      39.680  32.149  33.418  1.00  0.00    -0.354 N 
ATOM     47  C   UNL A   1      39.505  28.347  29.885  1.00  0.00     0.074 A 
ATOM     48  C   UNL A   1      38.271  28.575  29.166  1.00  0.00     0.031 C 
ATOM     49  C   UNL A   1      41.747  31.868  32.726  1.00  0.00     0.029 A 
ATOM     50  C   UNL A   1      40.965  32.174  33.914  1.00  0.00     0.049 A 
ATOM     51  H   UNL A   1      38.915  32.472  33.947  1.00  0.00     0.167 HD
ATOM     52  C   UNL A   1      40.690  27.730  29.606  1.00  0.00     0.037 A 
ATOM     53  C   UNL A   1      41.393  32.208  35.214  1.00  0.00     0.037 A 
ATOM     54  C   UNL A   1      41.746  28.068  30.583  1.00  0.00     0.049 A 
ATOM     55  C   UNL A   1      42.227  30.966  35.422  1.00  0.00     0.074 A 
ATOM     56  C   UNL A   1      42.834  28.928  30.505  1.00  0.00     0.029 A 
ATOM     57  N   UNL A   1      41.658  27.703  31.931  1.00  0.00    -0.354 N 
ATOM     58  N   UNL A   1      42.311  30.077  34.475  1.00  0.00    -0.248 NA
ATOM     59  C   UNL A   1      42.937  30.539  36.622  1.00  0.00     0.031 C 
ATOM     60  C   UNL A   1      43.446  29.009  31.775  1.00  0.00     0.029 A 
ATOM     61  C   UNL A   1      42.731  28.213  32.654  1.00  0.00     0.049 A 
ATOM     62  H   UNL A   1      40.932  27.158  32.316  1.00  0.00     0.167 HD
ATOM     63  C   UNL A   1      42.963  28.972  34.900  1.00  0.00     0.074 A 
ATOM     64  C   UNL A   1      43.370  29.315  36.251  1.00  0.00     0.031 C 
ATOM     65  C   UNL A   1      42.985  27.890  34.067  1.00  0.00     0.037 A 
BRANCH  52  66
ATOM     66  C   UNL A   1      40.990  27.223  28.197  1.00  0.00     0.064 A 
ATOM     67  C   UNL A   1      41.074  25.842  27.928  1.00  0.00     0.173 A 
ATOM     68  C   UNL A   1      41.315  28.040  27.094  1.00  0.00     0.173 A 
ATOM     69  F   UNL A   1      40.638  24.928  28.803  1.00  0.00    -0.203 F 
ATOM     70  C   UNL A   1      41.600  25.336  26.734  1.00  0.00     0.198 A 
ATOM     71  C   UNL A   1      41.897  27.544  25.926  1.00  0.00     0.198 A 
ATOM     72  F   UNL A   1      41.013  29.340  27.068  1.00  0.00    -0.203 F 
ATOM     73  F   UNL A   1      41.675  24.011  26.552  1.00  0.00    -0.200 F 
ATOM     74  C   UNL A   1      42.055  26.188  25.752  1.00  0.00     0.200 A 
ATOM     75  F   UNL A   1      42.294  28.396  24.970  1.00  0.00    -0.200 F 
ATOM     76  F   UNL A   1      42.598  25.707  24.626  1.00  0.00    -0.200 F 
ENDBRANCH  52  66
BRANCH  53  77
ATOM     77  C   UNL A   1      40.572  32.881  36.271  1.00  0.00     0.064 A 
ATOM     78  C   UNL A   1      39.485  32.224  36.869  1.00  0.00     0.173 A 
ATOM     79  C   UNL A   1      40.897  34.116  36.830  1.00  0.00     0.173 A 
ATOM     80  F   UNL A   1      39.004  31.099  36.321  1.00  0.00    -0.203 F 
ATOM     81  C   UNL A   1      38.879  32.706  38.039  1.00  0.00     0.198 A 
ATOM     82  C   UNL A   1      40.342  34.578  38.032  1.00  0.00     0.198 A 
ATOM     83  F   UNL A   1      41.742  34.900  36.177  1.00  0.00    -0.203 F 
ATOM     84  F   UNL A   1      37.857  32.037  38.593  1.00  0.00    -0.200 F 
ATOM     85  C   UNL A   1      39.362  33.841  38.664  1.00  0.00     0.200 A 
ATOM     86  F   UNL A   1      40.770  35.724  38.582  1.00  0.00    -0.200 F 
ATOM     87  F   UNL A   1      38.874  34.225  39.853  1.00  0.00    -0.200 F 
ENDBRANCH  53  77
BRANCH  65  88
ATOM     88  C   UNL A   1      43.331  26.483  34.459  1.00  0.00     0.064 A 
ATOM     89  C   UNL A   1      42.397  25.534  34.908  1.00  0.00     0.173 A 
ATOM     90  C   UNL A   1      44.640  25.992  34.242  1.00  0.00     0.173 A 
ATOM     91  F   UNL A   1      41.106  25.843  35.074  1.00  0.00    -0.203 F 
ATOM     92  C   UNL A   1      42.753  24.206  35.150  1.00  0.00     0.198 A 
ATOM     93  C   UNL A   1      44.978  24.655  34.427  1.00  0.00     0.198 A 
ATOM     94  F   UNL A   1      45.630  26.790  33.815  1.00  0.00    -0.203 F 
ATOM     95  F   UNL A   1      41.830  23.347  35.606  1.00  0.00    -0.200 F 
ATOM     96  C   UNL A   1      44.037  23.763  34.893  1.00  0.00     0.200 A 
ATOM     97  F   UNL A   1      46.215  24.237  34.127  1.00  0.00    -0.200 F 
ATOM     98  F   UNL A   1      44.361  22.477  35.077  1.00  0.00    -0.200 F 
ENDBRANCH  65  88
ENDBRANCH  39  40
ENDBRANCH  32  34
ENDBRANCH  31  32
ENDBRANCH  30  31
ENDBRANCH  29  30
ENDBRANCH  28  29
ENDBRANCH  27  28
ENDBRANCH   1  27
TORSDOF 20
ENDMDL
MODEL 3
REMARK VINA RESULT:     -12.5      1.432      2.116
REMARK SMILES Cc1ccc(N[C@](C)(C(=O)OCCOCCOCCOC(=O)c2ccc(-c3c4nc(c(-c5c(F)c(F)c(F)c(F)c5F)c5ccc([nH]5)c(-c5c(F)c(F)c(F)c(F)c5F)c5nc(c(-c6c(F)c(F)c(F)c(F)c6F)c6ccc3[nH]6)C=C5)C=C4)cc2)c2cc(F)cc(F)c2)cc1
REMARK SMILES IDX 15 1 14 2 13 3 12 4 11 5 9 6 10 7 7 8 8 9 6 10 5 12 1 13
REMARK SMILES IDX 2 14 3 15 95 16 4 17 94 18 86 19 87 20 93 21 88 22 91 23
REMARK SMILES IDX 89 24 90 25 92 26 16 27 17 28 18 29 19 30 20 31 21 32 22 33
REMARK SMILES IDX 23 34 24 35 85 36 25 37 84 38 26 39 27 40 28 41 78 42 29 43
REMARK SMILES IDX 83 44 77 45 79 46 30 47 82 48 76 49 75 50 31 52 63 53 43 54
REMARK SMILES IDX 62 55 44 56 47 57 61 58 80 59 45 60 46 61 60 63 81 64 48 65
REMARK SMILES IDX 32 66 33 67 41 68 34 69 35 70 39 71 42 72 36 73 37 74 40 75
REMARK SMILES IDX 38 76 64 77 65 78 73 79 66 80 67 81 71 82 74 83 68 84 69 85
REMARK SMILES IDX 72 86 70 87 49 88 50 89 58 90 51 91 52 92 56 93 59 94 53 95
REMARK SMILES IDX 54 96 57 97 55 98
REMARK H PARENT 6 11 79 51 47 62
REMARK Flexibility Score: inf
ROOT
ATOM      1  C   UNL A   1      34.245  33.020  28.131  1.00  0.00     0.188 C 
ENDROOT
BRANCH   1   2
ATOM      2  O   UNL A   1      33.616  31.768  28.310  1.00  0.00    -0.376 OA
BRANCH   2   3
ATOM      3  C   UNL A   1      33.945  30.816  27.311  1.00  0.00     0.202 C 
BRANCH   3   4
ATOM      4  C   UNL A   1      33.101  29.511  27.132  1.00  0.00     0.261 C 
BRANCH   4   5
ATOM      5  O   UNL A   1      32.516  28.992  25.736  1.00  0.00    -0.461 OA
BRANCH   5   6
ATOM      6  C   UNL A   1      32.452  28.678  24.393  1.00  0.00     0.336 C 
ATOM      7  O   UNL A   1      33.252  29.375  23.736  1.00  0.00    -0.249 OA
BRANCH   6   8
ATOM      8  C   UNL A   1      31.490  27.593  23.401  1.00  0.00     0.159 C 
ATOM      9  C   UNL A   1      31.999  26.739  22.237  1.00  0.00     0.053 C 
BRANCH   8  10
ATOM     10  N   UNL A   1      30.940  26.605  24.405  1.00  0.00    -0.366 N 
ATOM     11  H   UNL A   1      30.054  26.855  24.755  1.00  0.00     0.162 HD
BRANCH  10  12
ATOM     12  C   UNL A   1      31.425  25.420  24.931  1.00  0.00     0.035 A 
ATOM     13  C   UNL A   1      33.480  21.798  26.157  1.00  0.00     0.044 C 
ATOM     14  C   UNL A   1      32.732  23.072  25.916  1.00  0.00    -0.051 A 
ATOM     15  C   UNL A   1      31.411  23.031  25.480  1.00  0.00     0.005 A 
ATOM     16  C   UNL A   1      33.366  24.310  25.967  1.00  0.00     0.005 A 
ATOM     17  C   UNL A   1      30.775  24.184  24.989  1.00  0.00     0.026 A 
ATOM     18  C   UNL A   1      32.706  25.460  25.510  1.00  0.00     0.026 A 
ENDBRANCH  10  12
ENDBRANCH   8  10
BRANCH   8  19
ATOM     19  C   UNL A   1      30.150  28.329  22.887  1.00  0.00    -0.006 A 
ATOM     20  C   UNL A   1      30.148  29.503  22.075  1.00  0.00     0.046 A 
ATOM     21  C   UNL A   1      28.888  27.890  23.316  1.00  0.00     0.046 A 
ATOM     22  C   UNL A   1      29.017  30.325  21.985  1.00  0.00     0.126 A 
ATOM     23  C   UNL A   1      27.748  28.681  23.124  1.00  0.00     0.126 A 
ATOM     24  F   UNL A   1      29.141  31.556  21.467  1.00  0.00    -0.207 F 
ATOM     25  C   UNL A   1      27.814  29.931  22.527  1.00  0.00     0.078 A 
ATOM     26  F   UNL A   1      26.572  28.247  23.591  1.00  0.00    -0.207 F 
ENDBRANCH   8  19
ENDBRANCH   6   8
ENDBRANCH   5   6
ENDBRANCH   4   5
ENDBRANCH   3   4
ENDBRANCH   2   3
ENDBRANCH   1   2
BRANCH   1  27
ATOM     27  C   UNL A   1      33.224  34.153  28.080  1.00  0.00     0.188 C 
BRANCH  27  28
ATOM     28  O   UNL A   1      32.821  34.530  29.381  1.00  0.00    -0.376 OA
BRANCH  28  29
ATOM     29  C   UNL A   1      32.690  35.908  29.680  1.00  0.00     0.202 C 
BRANCH  29  30
ATOM     30  C   UNL A   1      32.534  36.020  31.194  1.00  0.00     0.261 C 
BRANCH  30  31
ATOM     31  O   UNL A   1      33.758  36.571  31.738  1.00  0.00    -0.460 OA
BRANCH  31  32
ATOM     32  C   UNL A   1      34.269  35.876  32.784  1.00  0.00     0.338 C 
ATOM     33  O   UNL A   1      34.348  36.283  33.941  1.00  0.00    -0.246 OA
BRANCH  32  34
ATOM     34  C   UNL A   1      34.958  34.653  32.271  1.00  0.00     0.060 A 
ATOM     35  C   UNL A   1      35.036  33.556  33.098  1.00  0.00     0.016 A 
ATOM     36  C   UNL A   1      35.712  34.608  31.088  1.00  0.00     0.016 A 
ATOM     37  C   UNL A   1      35.897  32.503  32.726  1.00  0.00     0.010 A 
ATOM     38  C   UNL A   1      36.741  33.640  30.907  1.00  0.00     0.010 A 
ATOM     39  C   UNL A   1      36.960  32.632  31.846  1.00  0.00    -0.014 A 
BRANCH  39  40
ATOM     40  C   UNL A   1      38.279  31.844  31.932  1.00  0.00     0.031 A 
ATOM     41  C   UNL A   1      38.315  30.553  31.211  1.00  0.00     0.074 A 
ATOM     42  C   UNL A   1      39.431  31.957  32.711  1.00  0.00     0.049 A 
ATOM     43  N   UNL A   1      39.134  29.592  31.503  1.00  0.00    -0.248 NA
ATOM     44  C   UNL A   1      37.281  30.177  30.261  1.00  0.00     0.031 C 
ATOM     45  C   UNL A   1      40.770  31.767  32.131  1.00  0.00     0.029 A 
ATOM     46  N   UNL A   1      39.778  32.459  33.975  1.00  0.00    -0.354 N 
ATOM     47  C   UNL A   1      39.002  28.671  30.508  1.00  0.00     0.074 A 
ATOM     48  C   UNL A   1      37.694  28.946  29.955  1.00  0.00     0.031 C 
ATOM     49  C   UNL A   1      41.725  32.102  33.019  1.00  0.00     0.029 A 
ATOM     50  C   UNL A   1      41.117  32.435  34.299  1.00  0.00     0.049 A 
ATOM     51  H   UNL A   1      39.102  32.810  34.598  1.00  0.00     0.167 HD
ATOM     52  C   UNL A   1      40.116  28.011  30.078  1.00  0.00     0.037 A 
ATOM     53  C   UNL A   1      41.712  32.452  35.531  1.00  0.00     0.037 A 
ATOM     54  C   UNL A   1      41.303  28.308  30.908  1.00  0.00     0.049 A 
ATOM     55  C   UNL A   1      42.519  31.179  35.632  1.00  0.00     0.074 A 
ATOM     56  C   UNL A   1      42.403  29.127  30.685  1.00  0.00     0.029 A 
ATOM     57  N   UNL A   1      41.378  27.944  32.258  1.00  0.00    -0.354 N 
ATOM     58  N   UNL A   1      42.446  30.289  34.686  1.00  0.00    -0.248 NA
ATOM     59  C   UNL A   1      43.363  30.724  36.732  1.00  0.00     0.031 C 
ATOM     60  C   UNL A   1      43.178  29.183  31.864  1.00  0.00     0.029 A 
ATOM     61  C   UNL A   1      42.555  28.413  32.832  1.00  0.00     0.049 A 
ATOM     62  H   UNL A   1      40.690  27.426  32.735  1.00  0.00     0.167 HD
ATOM     63  C   UNL A   1      43.106  29.160  35.026  1.00  0.00     0.074 A 
ATOM     64  C   UNL A   1      43.699  29.485  36.311  1.00  0.00     0.031 C 
ATOM     65  C   UNL A   1      42.979  28.079  34.201  1.00  0.00     0.037 A 
BRANCH  52  66
ATOM     66  C   UNL A   1      40.211  27.495  28.644  1.00  0.00     0.064 A 
ATOM     67  C   UNL A   1      39.803  26.186  28.318  1.00  0.00     0.173 A 
ATOM     68  C   UNL A   1      40.796  28.195  27.569  1.00  0.00     0.173 A 
ATOM     69  F   UNL A   1      39.078  25.444  29.164  1.00  0.00    -0.203 F 
ATOM     70  C   UNL A   1      40.110  25.582  27.093  1.00  0.00     0.198 A 
ATOM     71  C   UNL A   1      41.159  27.580  26.369  1.00  0.00     0.198 A 
ATOM     72  F   UNL A   1      40.970  29.518  27.601  1.00  0.00    -0.203 F 
ATOM     73  F   UNL A   1      39.713  24.325  26.856  1.00  0.00    -0.200 F 
ATOM     74  C   UNL A   1      40.830  26.264  26.137  1.00  0.00     0.200 A 
ATOM     75  F   UNL A   1      41.826  28.281  25.440  1.00  0.00    -0.200 F 
ATOM     76  F   UNL A   1      41.162  25.675  24.981  1.00  0.00    -0.200 F 
ENDBRANCH  52  66
BRANCH  53  77
ATOM     77  C   UNL A   1      41.061  33.153  36.684  1.00  0.00     0.064 A 
ATOM     78  C   UNL A   1      41.599  34.342  37.203  1.00  0.00     0.173 A 
ATOM     79  C   UNL A   1      39.833  32.776  37.222  1.00  0.00     0.173 A 
ATOM     80  F   UNL A   1      42.837  34.720  36.855  1.00  0.00    -0.203 F 
ATOM     81  C   UNL A   1      40.874  35.163  38.079  1.00  0.00     0.198 A 
ATOM     82  C   UNL A   1      39.073  33.614  38.049  1.00  0.00     0.198 A 
ATOM     83  F   UNL A   1      39.382  31.556  36.966  1.00  0.00    -0.203 F 
ATOM     84  F   UNL A   1      41.414  36.302  38.537  1.00  0.00    -0.200 F 
ATOM     85  C   UNL A   1      39.579  34.837  38.439  1.00  0.00     0.200 A 
ATOM     86  F   UNL A   1      37.848  33.245  38.452  1.00  0.00    -0.200 F 
ATOM     87  F   UNL A   1      38.838  35.687  39.164  1.00  0.00    -0.200 F 
ENDBRANCH  53  77
BRANCH  65  88
ATOM     88  C   UNL A   1      43.321  26.659  34.549  1.00  0.00     0.064 A 
ATOM     89  C   UNL A   1      44.629  26.152  34.612  1.00  0.00     0.173 A 
ATOM     90  C   UNL A   1      42.305  25.777  34.990  1.00  0.00     0.173 A 
ATOM     91  F   UNL A   1      45.690  26.907  34.305  1.00  0.00    -0.203 F 
ATOM     92  C   UNL A   1      44.898  24.855  35.052  1.00  0.00     0.198 A 
ATOM     93  C   UNL A   1      42.582  24.506  35.484  1.00  0.00     0.198 A 
ATOM     94  F   UNL A   1      41.012  26.132  34.982  1.00  0.00    -0.203 F 
ATOM     95  F   UNL A   1      46.163  24.411  35.066  1.00  0.00    -0.200 F 
ATOM     96  C   UNL A   1      43.878  24.040  35.505  1.00  0.00     0.200 A 
ATOM     97  F   UNL A   1      41.584  23.751  35.962  1.00  0.00    -0.200 F 
ATOM     98  F   UNL A   1      44.146  22.815  35.975  1.00  0.00    -0.200 F 
ENDBRANCH  65  88
ENDBRANCH  39  40
ENDBRANCH  32  34
ENDBRANCH  31  32
ENDBRANCH  30  31
ENDBRANCH  29  30
ENDBRANCH  28  29
ENDBRANCH  27  28
ENDBRANCH   1  27
TORSDOF 20
ENDMDL
