MODEL 1
REMARK VINA RESULT:     -11.7      0.000      0.000
REMARK SMILES COc1ccc(C)cc1S(=O)(=O)N[C@@H](C)C(=O)OCCOCCOCCOC(=O)c1ccc(-c2c3nc(c(-c4c(F)c(F)c(F)c(F)c4F)c4ccc([nH]4)c(-c4c(F)c(F)c(F)c(F)c4F)c4nc(c(-c5c(F)c(F)c(F)c(F)c5F)c5ccc2[nH]5)C=C4)C=C3)cc1
REMARK SMILES IDX 22 1 21 2 20 3 19 4 18 5 16 6 17 7 14 8 15 9 13 10 10 12
REMARK SMILES IDX 11 13 12 14 9 15 3 16 4 17 5 18 8 19 6 20 7 21 2 22 1 23
REMARK SMILES IDX 23 24 24 25 25 26 26 27 27 28 28 29 29 30 30 31 31 32 92 33
REMARK SMILES IDX 32 34 91 35 33 36 34 37 35 38 85 39 36 40 90 41 84 42 86 43
REMARK SMILES IDX 37 44 89 45 83 46 82 47 38 49 70 50 50 51 69 52 51 53 54 54
REMARK SMILES IDX 68 55 87 56 52 57 53 58 67 60 88 61 55 62 39 63 40 64 48 65
REMARK SMILES IDX 41 66 42 67 46 68 49 69 43 70 44 71 47 72 45 73 71 74 72 75
REMARK SMILES IDX 80 76 73 77 74 78 78 79 81 80 75 81 76 82 79 83 77 84 56 85
REMARK SMILES IDX 57 86 65 87 58 88 59 89 63 90 66 91 60 92 61 93 64 94 62 95
REMARK H PARENT 13 11 86 48 54 59
REMARK Flexibility Score: inf
ROOT
ATOM      1  C   UNL A   1      38.752  20.680  25.646  1.00  0.00     0.188 C 
ENDROOT
BRANCH   1   2
ATOM      2  O   UNL A   1      38.532  22.111  25.613  1.00  0.00    -0.376 OA
BRANCH   2   3
ATOM      3  C   UNL A   1      37.287  22.724  25.233  1.00  0.00     0.202 C 
BRANCH   3   4
ATOM      4  C   UNL A   1      36.852  22.921  23.663  1.00  0.00     0.261 C 
BRANCH   4   5
ATOM      5  O   UNL A   1      35.397  23.499  22.874  1.00  0.00    -0.462 OA
BRANCH   5   6
ATOM      6  C   UNL A   1      33.978  23.350  22.952  1.00  0.00     0.323 C 
ATOM      7  O   UNL A   1      33.156  23.428  22.035  1.00  0.00    -0.250 OA
BRANCH   6   8
ATOM      8  C   UNL A   1      33.207  23.084  24.210  1.00  0.00     0.176 C 
ATOM      9  C   UNL A   1      33.072  21.580  24.408  1.00  0.00     0.038 C 
BRANCH   8  10
ATOM     10  N   UNL A   1      32.105  23.966  24.530  1.00  0.00    -0.197 NA
ATOM     11  H   UNL A   1      32.004  24.610  23.744  1.00  0.00     0.142 HD
BRANCH  10  12
ATOM     12  S   UNL A   1      32.164  24.904  25.921  1.00  0.00     0.245 S 
ATOM     13  O   UNL A   1      33.367  24.532  26.637  1.00  0.00    -0.207 OA
ATOM     14  O   UNL A   1      30.864  24.697  26.527  1.00  0.00    -0.207 OA
BRANCH  12  15
ATOM     15  C   UNL A   1      32.271  26.672  25.666  1.00  0.00     0.124 A 
ATOM     16  C   UNL A   1      31.386  27.533  25.015  1.00  0.00     0.138 A 
ATOM     17  C   UNL A   1      31.543  28.928  25.189  1.00  0.00     0.048 A 
ATOM     18  C   UNL A   1      32.630  29.469  25.875  1.00  0.00     0.007 A 
ATOM     19  C   UNL A   1      33.393  27.239  26.320  1.00  0.00     0.029 A 
ATOM     20  C   UNL A   1      33.590  28.623  26.414  1.00  0.00    -0.050 A 
ATOM     21  C   UNL A   1      34.808  29.164  27.099  1.00  0.00     0.044 C 
BRANCH  16  22
ATOM     22  O   UNL A   1      30.380  27.082  24.205  1.00  0.00    -0.495 OA
ATOM     23  C   UNL A   1      30.747  27.159  22.809  1.00  0.00     0.278 C 
ENDBRANCH  16  22
ENDBRANCH  12  15
ENDBRANCH  10  12
ENDBRANCH   8  10
ENDBRANCH   6   8
ENDBRANCH   5   6
ENDBRANCH   4   5
ENDBRANCH   3   4
ENDBRANCH   2   3
ENDBRANCH   1   2
BRANCH   1  24
ATOM     24  C   UNL A   1      40.093  20.072  26.055  1.00  0.00     0.188 C 
BRANCH  24  25
ATOM     25  O   UNL A   1      40.470  20.625  27.297  1.00  0.00    -0.376 OA
BRANCH  25  26
ATOM     26  C   UNL A   1      41.854  20.678  27.579  1.00  0.00     0.202 C 
BRANCH  26  27
ATOM     27  C   UNL A   1      42.467  21.947  26.977  1.00  0.00     0.261 C 
BRANCH  27  28
ATOM     28  O   UNL A   1      41.531  23.048  27.094  1.00  0.00    -0.460 OA
BRANCH  28  29
ATOM     29  C   UNL A   1      41.676  24.083  26.203  1.00  0.00     0.338 C 
ATOM     30  O   UNL A   1      42.554  24.157  25.357  1.00  0.00    -0.246 OA
BRANCH  29  31
ATOM     31  C   UNL A   1      40.788  25.230  26.592  1.00  0.00     0.060 A 
ATOM     32  C   UNL A   1      40.949  26.555  26.166  1.00  0.00     0.016 A 
ATOM     33  C   UNL A   1      40.019  25.061  27.692  1.00  0.00     0.016 A 
ATOM     34  C   UNL A   1      40.542  27.689  26.988  1.00  0.00     0.010 A 
ATOM     35  C   UNL A   1      39.867  26.173  28.526  1.00  0.00     0.010 A 
ATOM     36  C   UNL A   1      40.089  27.563  28.311  1.00  0.00    -0.014 A 
BRANCH  36  37
ATOM     37  C   UNL A   1      40.036  28.854  29.435  1.00  0.00     0.031 A 
ATOM     38  C   UNL A   1      38.942  30.178  29.709  1.00  0.00     0.074 A 
ATOM     39  C   UNL A   1      41.173  29.075  30.141  1.00  0.00     0.049 A 
ATOM     40  N   UNL A   1      39.326  31.444  29.808  1.00  0.00    -0.248 NA
ATOM     41  C   UNL A   1      37.432  30.220  29.772  1.00  0.00     0.031 C 
ATOM     42  C   UNL A   1      41.382  30.078  31.184  1.00  0.00     0.029 A 
ATOM     43  N   UNL A   1      42.454  28.535  29.936  1.00  0.00    -0.354 N 
ATOM     44  C   UNL A   1      38.205  32.256  30.050  1.00  0.00     0.074 A 
ATOM     45  C   UNL A   1      37.056  31.474  29.867  1.00  0.00     0.031 C 
ATOM     46  C   UNL A   1      42.694  30.332  31.274  1.00  0.00     0.029 A 
ATOM     47  C   UNL A   1      43.368  29.552  30.258  1.00  0.00     0.049 A 
ATOM     48  H   UNL A   1      42.667  27.625  29.627  1.00  0.00     0.167 HD
ATOM     49  C   UNL A   1      38.202  33.504  30.585  1.00  0.00     0.037 A 
ATOM     50  C   UNL A   1      44.336  29.978  29.405  1.00  0.00     0.037 A 
ATOM     51  C   UNL A   1      39.529  33.904  30.910  1.00  0.00     0.049 A 
ATOM     52  C   UNL A   1      44.349  31.472  29.203  1.00  0.00     0.074 A 
ATOM     53  C   UNL A   1      40.280  33.762  32.059  1.00  0.00     0.029 A 
ATOM     54  N   UNL A   1      40.399  34.148  29.870  1.00  0.00    -0.354 N 
ATOM     55  N   UNL A   1      43.367  32.252  29.557  1.00  0.00    -0.248 NA
ATOM     56  C   UNL A   1      45.435  32.211  28.568  1.00  0.00     0.031 C 
ATOM     57  C   UNL A   1      41.638  33.915  31.699  1.00  0.00     0.029 A 
ATOM     58  C   UNL A   1      41.687  34.191  30.345  1.00  0.00     0.049 A 
ATOM     59  H   UNL A   1      40.137  34.272  28.928  1.00  0.00     0.167 HD
ATOM     60  C   UNL A   1      43.651  33.547  29.208  1.00  0.00     0.074 A 
ATOM     61  C   UNL A   1      44.964  33.471  28.603  1.00  0.00     0.031 C 
ATOM     62  C   UNL A   1      42.762  34.554  29.450  1.00  0.00     0.037 A 
BRANCH  49  63
ATOM     63  C   UNL A   1      36.910  34.085  31.126  1.00  0.00     0.064 A 
ATOM     64  C   UNL A   1      36.674  34.159  32.509  1.00  0.00     0.173 A 
ATOM     65  C   UNL A   1      35.805  34.396  30.302  1.00  0.00     0.173 A 
ATOM     66  F   UNL A   1      37.654  33.921  33.390  1.00  0.00    -0.203 F 
ATOM     67  C   UNL A   1      35.403  34.414  33.034  1.00  0.00     0.198 A 
ATOM     68  C   UNL A   1      34.521  34.599  30.827  1.00  0.00     0.198 A 
ATOM     69  F   UNL A   1      35.933  34.393  28.965  1.00  0.00    -0.203 F 
ATOM     70  F   UNL A   1      35.224  34.428  34.362  1.00  0.00    -0.200 F 
ATOM     71  C   UNL A   1      34.320  34.594  32.194  1.00  0.00     0.200 A 
ATOM     72  F   UNL A   1      33.471  34.731  30.003  1.00  0.00    -0.200 F 
ATOM     73  F   UNL A   1      33.087  34.739  32.702  1.00  0.00    -0.200 F 
ENDBRANCH  49  63
BRANCH  50  74
ATOM     74  C   UNL A   1      44.823  28.935  28.463  1.00  0.00     0.064 A 
ATOM     75  C   UNL A   1      45.624  27.900  28.995  1.00  0.00     0.173 A 
ATOM     76  C   UNL A   1      44.276  28.731  27.192  1.00  0.00     0.173 A 
ATOM     77  F   UNL A   1      46.178  28.039  30.210  1.00  0.00    -0.203 F 
ATOM     78  C   UNL A   1      45.766  26.675  28.346  1.00  0.00     0.198 A 
ATOM     79  C   UNL A   1      44.442  27.507  26.530  1.00  0.00     0.198 A 
ATOM     80  F   UNL A   1      43.469  29.650  26.643  1.00  0.00    -0.203 F 
ATOM     81  F   UNL A   1      46.422  25.672  28.947  1.00  0.00    -0.200 F 
ATOM     82  C   UNL A   1      45.156  26.472  27.122  1.00  0.00     0.200 A 
ATOM     83  F   UNL A   1      43.805  27.282  25.372  1.00  0.00    -0.200 F 
ATOM     84  F   UNL A   1      45.195  25.262  26.546  1.00  0.00    -0.200 F 
ENDBRANCH  50  74
BRANCH  62  85
ATOM     85  C   UNL A   1      42.775  35.984  28.953  1.00  0.00     0.064 A 
ATOM     86  C   UNL A   1      42.031  36.445  27.861  1.00  0.00     0.173 A 
ATOM     87  C   UNL A   1      43.428  36.998  29.712  1.00  0.00     0.173 A 
ATOM     88  F   UNL A   1      41.293  35.613  27.118  1.00  0.00    -0.203 F 
ATOM     89  C   UNL A   1      41.972  37.805  27.532  1.00  0.00     0.198 A 
ATOM     90  C   UNL A   1      43.308  38.353  29.423  1.00  0.00     0.198 A 
ATOM     91  F   UNL A   1      44.183  36.708  30.782  1.00  0.00    -0.203 F 
ATOM     92  F   UNL A   1      41.277  38.192  26.453  1.00  0.00    -0.200 F 
ATOM     93  C   UNL A   1      42.591  38.757  28.321  1.00  0.00     0.200 A 
ATOM     94  F   UNL A   1      43.872  39.259  30.234  1.00  0.00    -0.200 F 
ATOM     95  F   UNL A   1      42.481  40.060  28.032  1.00  0.00    -0.200 F 
ENDBRANCH  62  85
ENDBRANCH  36  37
ENDBRANCH  29  31
ENDBRANCH  28  29
ENDBRANCH  27  28
ENDBRANCH  26  27
ENDBRANCH  25  26
ENDBRANCH  24  25
ENDBRANCH   1  24
TORSDOF 21
ENDMDL
MODEL 2
REMARK VINA RESULT:     -11.6      1.370      2.489
REMARK SMILES COc1ccc(C)cc1S(=O)(=O)N[C@@H](C)C(=O)OCCOCCOCCOC(=O)c1ccc(-c2c3nc(c(-c4c(F)c(F)c(F)c(F)c4F)c4ccc([nH]4)c(-c4c(F)c(F)c(F)c(F)c4F)c4nc(c(-c5c(F)c(F)c(F)c(F)c5F)c5ccc2[nH]5)C=C4)C=C3)cc1
REMARK SMILES IDX 22 1 21 2 20 3 19 4 18 5 16 6 17 7 14 8 15 9 13 10 10 12
REMARK SMILES IDX 11 13 12 14 9 15 3 16 4 17 5 18 8 19 6 20 7 21 2 22 1 23
REMARK SMILES IDX 23 24 24 25 25 26 26 27 27 28 28 29 29 30 30 31 31 32 92 33
REMARK SMILES IDX 32 34 91 35 33 36 34 37 35 38 85 39 36 40 90 41 84 42 86 43
REMARK SMILES IDX 37 44 89 45 83 46 82 47 38 49 70 50 50 51 69 52 51 53 54 54
REMARK SMILES IDX 68 55 87 56 52 57 53 58 67 60 88 61 55 62 39 63 40 64 48 65
REMARK SMILES IDX 41 66 42 67 46 68 49 69 43 70 44 71 47 72 45 73 71 74 72 75
REMARK SMILES IDX 80 76 73 77 74 78 78 79 81 80 75 81 76 82 79 83 77 84 56 85
REMARK SMILES IDX 57 86 65 87 58 88 59 89 63 90 66 91 60 92 61 93 64 94 62 95
REMARK H PARENT 13 11 86 48 54 59
REMARK Flexibility Score: inf
ROOT
ATOM      1  C   UNL A   1      38.247  21.636  26.008  1.00  0.00     0.188 C 
ENDROOT
BRANCH   1   2
ATOM      2  O   UNL A   1      38.088  23.050  25.742  1.00  0.00    -0.376 OA
BRANCH   2   3
ATOM      3  C   UNL A   1      36.946  23.620  25.076  1.00  0.00     0.202 C 
BRANCH   3   4
ATOM      4  C   UNL A   1      36.536  23.214  23.540  1.00  0.00     0.261 C 
BRANCH   4   5
ATOM      5  O   UNL A   1      35.009  22.900  22.739  1.00  0.00    -0.462 OA
BRANCH   5   6
ATOM      6  C   UNL A   1      33.621  22.761  23.047  1.00  0.00     0.323 C 
ATOM      7  O   UNL A   1      32.956  21.723  23.096  1.00  0.00    -0.250 OA
BRANCH   6   8
ATOM      8  C   UNL A   1      32.688  23.894  23.355  1.00  0.00     0.176 C 
ATOM      9  C   UNL A   1      32.088  23.688  24.740  1.00  0.00     0.038 C 
BRANCH   8  10
ATOM     10  N   UNL A   1      31.876  24.417  22.276  1.00  0.00    -0.197 NA
ATOM     11  H   UNL A   1      31.981  23.774  21.490  1.00  0.00     0.142 HD
BRANCH  10  12
ATOM     12  S   UNL A   1      32.170  25.960  21.685  1.00  0.00     0.245 S 
ATOM     13  O   UNL A   1      31.413  26.100  20.458  1.00  0.00    -0.207 OA
ATOM     14  O   UNL A   1      33.617  26.047  21.660  1.00  0.00    -0.207 OA
BRANCH  12  15
ATOM     15  C   UNL A   1      31.652  27.311  22.738  1.00  0.00     0.124 A 
ATOM     16  C   UNL A   1      32.389  28.051  23.664  1.00  0.00     0.138 A 
ATOM     17  C   UNL A   1      31.838  29.253  24.167  1.00  0.00     0.048 A 
ATOM     18  C   UNL A   1      30.532  29.645  23.874  1.00  0.00     0.007 A 
ATOM     19  C   UNL A   1      30.313  27.700  22.488  1.00  0.00     0.029 A 
ATOM     20  C   UNL A   1      29.742  28.845  23.059  1.00  0.00    -0.050 A 
ATOM     21  C   UNL A   1      28.313  29.194  22.775  1.00  0.00     0.044 C 
BRANCH  16  22
ATOM     22  O   UNL A   1      33.620  27.657  24.113  1.00  0.00    -0.495 OA
ATOM     23  C   UNL A   1      33.528  26.981  25.387  1.00  0.00     0.278 C 
ENDBRANCH  16  22
ENDBRANCH  12  15
ENDBRANCH  10  12
ENDBRANCH   8  10
ENDBRANCH   6   8
ENDBRANCH   5   6
ENDBRANCH   4   5
ENDBRANCH   3   4
ENDBRANCH   2   3
ENDBRANCH   1   2
BRANCH   1  24
ATOM     24  C   UNL A   1      39.525  20.879  25.650  1.00  0.00     0.188 C 
BRANCH  24  25
ATOM     25  O   UNL A   1      40.481  21.123  26.658  1.00  0.00    -0.376 OA
BRANCH  25  26
ATOM     26  C   UNL A   1      41.738  20.494  26.512  1.00  0.00     0.202 C 
BRANCH  26  27
ATOM     27  C   UNL A   1      42.831  21.543  26.282  1.00  0.00     0.261 C 
BRANCH  27  28
ATOM     28  O   UNL A   1      42.372  22.840  26.740  1.00  0.00    -0.460 OA
BRANCH  28  29
ATOM     29  C   UNL A   1      42.394  23.865  25.827  1.00  0.00     0.338 C 
ATOM     30  O   UNL A   1      43.288  24.057  25.016  1.00  0.00    -0.246 OA
BRANCH  29  31
ATOM     31  C   UNL A   1      41.322  24.868  26.147  1.00  0.00     0.060 A 
ATOM     32  C   UNL A   1      41.328  26.209  25.743  1.00  0.00     0.016 A 
ATOM     33  C   UNL A   1      40.498  24.572  27.178  1.00  0.00     0.016 A 
ATOM     34  C   UNL A   1      40.697  27.260  26.534  1.00  0.00     0.010 A 
ATOM     35  C   UNL A   1      40.122  25.637  28.002  1.00  0.00     0.010 A 
ATOM     36  C   UNL A   1      40.159  27.048  27.815  1.00  0.00    -0.014 A 
BRANCH  36  37
ATOM     37  C   UNL A   1      39.830  28.299  28.937  1.00  0.00     0.031 A 
ATOM     38  C   UNL A   1      38.673  29.596  29.001  1.00  0.00     0.074 A 
ATOM     39  C   UNL A   1      40.778  28.512  29.884  1.00  0.00     0.049 A 
ATOM     40  N   UNL A   1      38.999  30.863  29.221  1.00  0.00    -0.248 NA
ATOM     41  C   UNL A   1      37.187  29.612  28.729  1.00  0.00     0.031 C 
ATOM     42  C   UNL A   1      40.729  29.482  30.976  1.00  0.00     0.029 A 
ATOM     43  N   UNL A   1      42.085  27.999  29.951  1.00  0.00    -0.354 N 
ATOM     44  C   UNL A   1      37.834  31.650  29.233  1.00  0.00     0.074 A 
ATOM     45  C   UNL A   1      36.772  30.857  28.777  1.00  0.00     0.031 C 
ATOM     46  C   UNL A   1      41.983  29.752  31.363  1.00  0.00     0.029 A 
ATOM     47  C   UNL A   1      42.881  29.017  30.498  1.00  0.00     0.049 A 
ATOM     48  H   UNL A   1      42.380  27.103  29.671  1.00  0.00     0.167 HD
ATOM     49  C   UNL A   1      37.685  32.878  29.791  1.00  0.00     0.037 A 
ATOM     50  C   UNL A   1      44.005  29.488  29.894  1.00  0.00     0.037 A 
ATOM     51  C   UNL A   1      38.898  33.286  30.414  1.00  0.00     0.049 A 
ATOM     52  C   UNL A   1      44.029  30.987  29.745  1.00  0.00     0.074 A 
ATOM     53  C   UNL A   1      39.379  33.117  31.696  1.00  0.00     0.029 A 
ATOM     54  N   UNL A   1      39.971  33.579  29.600  1.00  0.00    -0.354 N 
ATOM     55  N   UNL A   1      42.976  31.740  29.897  1.00  0.00    -0.248 NA
ATOM     56  C   UNL A   1      45.212  31.764  29.390  1.00  0.00     0.031 C 
ATOM     57  C   UNL A   1      40.779  33.302  31.651  1.00  0.00     0.029 A 
ATOM     58  C   UNL A   1      41.121  33.625  30.350  1.00  0.00     0.049 A 
ATOM     59  H   UNL A   1      39.921  33.732  28.628  1.00  0.00     0.167 HD
ATOM     60  C   UNL A   1      43.301  33.050  29.658  1.00  0.00     0.074 A 
ATOM     61  C   UNL A   1      44.716  33.015  29.357  1.00  0.00     0.031 C 
ATOM     62  C   UNL A   1      42.359  34.035  29.728  1.00  0.00     0.037 A 
BRANCH  49  63
ATOM     63  C   UNL A   1      36.293  33.421  30.049  1.00  0.00     0.064 A 
ATOM     64  C   UNL A   1      35.544  34.010  29.016  1.00  0.00     0.173 A 
ATOM     65  C   UNL A   1      35.748  33.552  31.347  1.00  0.00     0.173 A 
ATOM     66  F   UNL A   1      35.940  33.921  27.740  1.00  0.00    -0.203 F 
ATOM     67  C   UNL A   1      34.397  34.769  29.269  1.00  0.00     0.198 A 
ATOM     68  C   UNL A   1      34.629  34.356  31.604  1.00  0.00     0.198 A 
ATOM     69  F   UNL A   1      36.364  32.992  32.401  1.00  0.00    -0.203 F 
ATOM     70  F   UNL A   1      33.747  35.349  28.250  1.00  0.00    -0.200 F 
ATOM     71  C   UNL A   1      33.963  34.975  30.564  1.00  0.00     0.200 A 
ATOM     72  F   UNL A   1      34.242  34.583  32.869  1.00  0.00    -0.200 F 
ATOM     73  F   UNL A   1      32.922  35.785  30.809  1.00  0.00    -0.200 F 
ENDBRANCH  49  63
BRANCH  50  74
ATOM     74  C   UNL A   1      44.711  28.484  29.053  1.00  0.00     0.064 A 
ATOM     75  C   UNL A   1      45.430  27.466  29.718  1.00  0.00     0.173 A 
ATOM     76  C   UNL A   1      44.437  28.291  27.695  1.00  0.00     0.173 A 
ATOM     77  F   UNL A   1      45.724  27.597  31.021  1.00  0.00    -0.203 F 
ATOM     78  C   UNL A   1      45.747  26.263  29.092  1.00  0.00     0.198 A 
ATOM     79  C   UNL A   1      44.780  27.089  27.061  1.00  0.00     0.198 A 
ATOM     80  F   UNL A   1      43.720  29.193  27.010  1.00  0.00    -0.203 F 
ATOM     81  F   UNL A   1      46.308  25.270  29.796  1.00  0.00    -0.200 F 
ATOM     82  C   UNL A   1      45.402  26.068  27.768  1.00  0.00     0.200 A 
ATOM     83  F   UNL A   1      44.397  26.869  25.795  1.00  0.00    -0.200 F 
ATOM     84  F   UNL A   1      45.603  24.873  27.191  1.00  0.00    -0.200 F 
ENDBRANCH  50  74
BRANCH  62  85
ATOM     85  C   UNL A   1      42.449  35.481  29.288  1.00  0.00     0.064 A 
ATOM     86  C   UNL A   1      43.012  36.505  30.058  1.00  0.00     0.173 A 
ATOM     87  C   UNL A   1      42.114  35.842  27.951  1.00  0.00     0.173 A 
ATOM     88  F   UNL A   1      43.458  36.281  31.299  1.00  0.00    -0.203 F 
ATOM     89  C   UNL A   1      43.197  37.795  29.546  1.00  0.00     0.198 A 
ATOM     90  C   UNL A   1      42.364  37.105  27.425  1.00  0.00     0.198 A 
ATOM     91  F   UNL A   1      41.560  34.970  27.097  1.00  0.00    -0.203 F 
ATOM     92  F   UNL A   1      43.705  38.751  30.335  1.00  0.00    -0.200 F 
ATOM     93  C   UNL A   1      42.893  38.089  28.229  1.00  0.00     0.200 A 
ATOM     94  F   UNL A   1      42.112  37.351  26.132  1.00  0.00    -0.200 F 
ATOM     95  F   UNL A   1      43.126  39.311  27.731  1.00  0.00    -0.200 F 
ENDBRANCH  62  85
ENDBRANCH  36  37
ENDBRANCH  29  31
ENDBRANCH  28  29
ENDBRANCH  27  28
ENDBRANCH  26  27
ENDBRANCH  25  26
ENDBRANCH  24  25
ENDBRANCH   1  24
TORSDOF 21
ENDMDL
MODEL 3
REMARK VINA RESULT:     -11.6      4.054     10.152
REMARK SMILES COc1ccc(C)cc1S(=O)(=O)N[C@@H](C)C(=O)OCCOCCOCCOC(=O)c1ccc(-c2c3nc(c(-c4c(F)c(F)c(F)c(F)c4F)c4ccc([nH]4)c(-c4c(F)c(F)c(F)c(F)c4F)c4nc(c(-c5c(F)c(F)c(F)c(F)c5F)c5ccc2[nH]5)C=C4)C=C3)cc1
REMARK SMILES IDX 22 1 21 2 20 3 19 4 18 5 16 6 17 7 14 8 15 9 13 10 10 12
REMARK SMILES IDX 11 13 12 14 9 15 3 16 4 17 5 18 8 19 6 20 7 21 2 22 1 23
REMARK SMILES IDX 23 24 24 25 25 26 26 27 27 28 28 29 29 30 30 31 31 32 92 33
REMARK SMILES IDX 32 34 91 35 33 36 34 37 35 38 85 39 36 40 90 41 84 42 86 43
REMARK SMILES IDX 37 44 89 45 83 46 82 47 38 49 70 50 50 51 69 52 51 53 54 54
REMARK SMILES IDX 68 55 87 56 52 57 53 58 67 60 88 61 55 62 39 63 40 64 48 65
REMARK SMILES IDX 41 66 42 67 46 68 49 69 43 70 44 71 47 72 45 73 71 74 72 75
REMARK SMILES IDX 80 76 73 77 74 78 78 79 81 80 75 81 76 82 79 83 77 84 56 85
REMARK SMILES IDX 57 86 65 87 58 88 59 89 63 90 66 91 60 92 61 93 64 94 62 95
REMARK H PARENT 13 11 86 48 54 59
REMARK Flexibility Score: inf
ROOT
ATOM      1  C   UNL A   1      34.105  31.926  27.981  1.00  0.00     0.188 C 
ENDROOT
BRANCH   1   2
ATOM      2  O   UNL A   1      35.194  31.107  27.494  1.00  0.00    -0.376 OA
BRANCH   2   3
ATOM      3  C   UNL A   1      35.060  29.720  27.133  1.00  0.00     0.202 C 
BRANCH   3   4
ATOM      4  C   UNL A   1      33.689  28.868  27.431  1.00  0.00     0.261 C 
BRANCH   4   5
ATOM      5  O   UNL A   1      32.995  27.413  26.742  1.00  0.00    -0.462 OA
BRANCH   5   6
ATOM      6  C   UNL A   1      33.405  26.207  26.095  1.00  0.00     0.323 C 
ATOM      7  O   UNL A   1      34.527  25.918  25.671  1.00  0.00    -0.250 OA
BRANCH   6   8
ATOM      8  C   UNL A   1      32.507  25.046  25.786  1.00  0.00     0.176 C 
ATOM      9  C   UNL A   1      33.044  23.798  26.475  1.00  0.00     0.038 C 
BRANCH   8  10
ATOM     10  N   UNL A   1      31.941  24.962  24.457  1.00  0.00    -0.197 NA
ATOM     11  H   UNL A   1      32.578  25.457  23.832  1.00  0.00     0.142 HD
BRANCH  10  12
ATOM     12  S   UNL A   1      30.404  25.572  24.165  1.00  0.00     0.245 S 
ATOM     13  O   UNL A   1      29.717  25.629  25.439  1.00  0.00    -0.207 OA
ATOM     14  O   UNL A   1      29.897  24.726  23.103  1.00  0.00    -0.207 OA
BRANCH  12  15
ATOM     15  C   UNL A   1      30.337  27.231  23.496  1.00  0.00     0.124 A 
ATOM     16  C   UNL A   1      31.352  28.004  22.932  1.00  0.00     0.138 A 
ATOM     17  C   UNL A   1      30.999  29.172  22.216  1.00  0.00     0.048 A 
ATOM     18  C   UNL A   1      29.687  29.644  22.174  1.00  0.00     0.007 A 
ATOM     19  C   UNL A   1      29.019  27.748  23.483  1.00  0.00     0.029 A 
ATOM     20  C   UNL A   1      28.689  28.952  22.847  1.00  0.00    -0.050 A 
ATOM     21  C   UNL A   1      27.279  29.461  22.885  1.00  0.00     0.044 C 
BRANCH  16  22
ATOM     22  O   UNL A   1      32.677  27.686  23.053  1.00  0.00    -0.495 OA
ATOM     23  C   UNL A   1      33.462  28.826  23.468  1.00  0.00     0.278 C 
ENDBRANCH  16  22
ENDBRANCH  12  15
ENDBRANCH  10  12
ENDBRANCH   8  10
ENDBRANCH   6   8
ENDBRANCH   5   6
ENDBRANCH   4   5
ENDBRANCH   3   4
ENDBRANCH   2   3
ENDBRANCH   1   2
BRANCH   1  24
ATOM     24  C   UNL A   1      34.288  33.403  28.328  1.00  0.00     0.188 C 
BRANCH  24  25
ATOM     25  O   UNL A   1      33.074  34.072  28.071  1.00  0.00    -0.376 OA
BRANCH  25  26
ATOM     26  C   UNL A   1      32.682  35.064  28.999  1.00  0.00     0.202 C 
BRANCH  26  27
ATOM     27  C   UNL A   1      33.821  35.343  29.986  1.00  0.00     0.261 C 
BRANCH  27  28
ATOM     28  O   UNL A   1      33.290  35.958  31.187  1.00  0.00    -0.460 OA
BRANCH  28  29
ATOM     29  C   UNL A   1      33.072  35.134  32.262  1.00  0.00     0.338 C 
ATOM     30  O   UNL A   1      32.029  35.074  32.896  1.00  0.00    -0.246 OA
BRANCH  29  31
ATOM     31  C   UNL A   1      34.368  34.528  32.723  1.00  0.00     0.060 A 
ATOM     32  C   UNL A   1      35.596  35.200  32.782  1.00  0.00     0.016 A 
ATOM     33  C   UNL A   1      34.441  33.177  32.730  1.00  0.00     0.016 A 
ATOM     34  C   UNL A   1      36.867  34.509  32.601  1.00  0.00     0.010 A 
ATOM     35  C   UNL A   1      35.658  32.615  32.334  1.00  0.00     0.010 A 
ATOM     36  C   UNL A   1      36.969  33.161  32.220  1.00  0.00    -0.014 A 
BRANCH  36  37
ATOM     37  C   UNL A   1      38.385  32.451  31.571  1.00  0.00     0.031 A 
ATOM     38  C   UNL A   1      38.694  31.071  30.557  1.00  0.00     0.074 A 
ATOM     39  C   UNL A   1      39.560  32.872  32.103  1.00  0.00     0.049 A 
ATOM     40  N   UNL A   1      39.570  30.121  30.853  1.00  0.00    -0.248 NA
ATOM     41  C   UNL A   1      38.020  30.605  29.287  1.00  0.00     0.031 C 
ATOM     42  C   UNL A   1      40.905  32.461  31.705  1.00  0.00     0.029 A 
ATOM     43  N   UNL A   1      39.775  33.650  33.253  1.00  0.00    -0.354 N 
ATOM     44  C   UNL A   1      39.593  29.167  29.820  1.00  0.00     0.074 A 
ATOM     45  C   UNL A   1      38.518  29.433  28.962  1.00  0.00     0.031 C 
ATOM     46  C   UNL A   1      41.736  32.669  32.735  1.00  0.00     0.029 A 
ATOM     47  C   UNL A   1      40.950  33.162  33.846  1.00  0.00     0.049 A 
ATOM     48  H   UNL A   1      39.212  34.390  33.577  1.00  0.00     0.167 HD
ATOM     49  C   UNL A   1      40.587  28.284  29.548  1.00  0.00     0.037 A 
ATOM     50  C   UNL A   1      41.015  32.753  35.141  1.00  0.00     0.037 A 
ATOM     51  C   UNL A   1      41.665  28.459  30.459  1.00  0.00     0.049 A 
ATOM     52  C   UNL A   1      41.604  31.376  35.311  1.00  0.00     0.074 A 
ATOM     53  C   UNL A   1      42.795  29.250  30.411  1.00  0.00     0.029 A 
ATOM     54  N   UNL A   1      41.458  28.108  31.776  1.00  0.00    -0.354 N 
ATOM     55  N   UNL A   1      41.760  30.536  34.328  1.00  0.00    -0.248 NA
ATOM     56  C   UNL A   1      42.037  30.814  36.587  1.00  0.00     0.031 C 
ATOM     57  C   UNL A   1      43.273  29.388  31.733  1.00  0.00     0.029 A 
ATOM     58  C   UNL A   1      42.453  28.641  32.558  1.00  0.00     0.049 A 
ATOM     59  H   UNL A   1      40.710  27.558  32.105  1.00  0.00     0.167 HD
ATOM     60  C   UNL A   1      42.277  29.357  34.799  1.00  0.00     0.074 A 
ATOM     61  C   UNL A   1      42.445  29.586  36.218  1.00  0.00     0.031 C 
ATOM     62  C   UNL A   1      42.509  28.304  33.962  1.00  0.00     0.037 A 
BRANCH  49  63
ATOM     63  C   UNL A   1      40.629  27.595  28.197  1.00  0.00     0.064 A 
ATOM     64  C   UNL A   1      40.187  26.269  28.049  1.00  0.00     0.173 A 
ATOM     65  C   UNL A   1      41.281  28.150  27.073  1.00  0.00     0.173 A 
ATOM     66  F   UNL A   1      39.525  25.648  29.032  1.00  0.00    -0.203 F 
ATOM     67  C   UNL A   1      40.473  25.515  26.906  1.00  0.00     0.198 A 
ATOM     68  C   UNL A   1      41.612  27.378  25.951  1.00  0.00     0.198 A 
ATOM     69  F   UNL A   1      41.707  29.424  27.096  1.00  0.00    -0.203 F 
ATOM     70  F   UNL A   1      40.069  24.238  26.835  1.00  0.00    -0.200 F 
ATOM     71  C   UNL A   1      41.219  26.055  25.876  1.00  0.00     0.200 A 
ATOM     72  F   UNL A   1      42.371  27.900  24.976  1.00  0.00    -0.200 F 
ATOM     73  F   UNL A   1      41.574  25.298  24.828  1.00  0.00    -0.200 F 
ENDBRANCH  49  63
BRANCH  50  74
ATOM     74  C   UNL A   1      40.064  33.448  36.049  1.00  0.00     0.064 A 
ATOM     75  C   UNL A   1      38.904  32.743  36.442  1.00  0.00     0.173 A 
ATOM     76  C   UNL A   1      40.399  34.589  36.786  1.00  0.00     0.173 A 
ATOM     77  F   UNL A   1      38.532  31.642  35.771  1.00  0.00    -0.203 F 
ATOM     78  C   UNL A   1      38.190  33.086  37.587  1.00  0.00     0.198 A 
ATOM     79  C   UNL A   1      39.663  34.946  37.924  1.00  0.00     0.198 A 
ATOM     80  F   UNL A   1      41.510  35.283  36.500  1.00  0.00    -0.203 F 
ATOM     81  F   UNL A   1      37.178  32.311  38.002  1.00  0.00    -0.200 F 
ATOM     82  C   UNL A   1      38.584  34.177  38.340  1.00  0.00     0.200 A 
ATOM     83  F   UNL A   1      40.074  35.966  38.692  1.00  0.00    -0.200 F 
ATOM     84  F   UNL A   1      37.972  34.446  39.503  1.00  0.00    -0.200 F 
ENDBRANCH  50  74
BRANCH  62  85
ATOM     85  C   UNL A   1      42.852  26.868  34.300  1.00  0.00     0.064 A 
ATOM     86  C   UNL A   1      42.024  26.011  35.033  1.00  0.00     0.173 A 
ATOM     87  C   UNL A   1      43.995  26.251  33.713  1.00  0.00     0.173 A 
ATOM     88  F   UNL A   1      40.871  26.437  35.561  1.00  0.00    -0.203 F 
ATOM     89  C   UNL A   1      42.328  24.654  35.196  1.00  0.00     0.198 A 
ATOM     90  C   UNL A   1      44.254  24.889  33.817  1.00  0.00     0.198 A 
ATOM     91  F   UNL A   1      44.884  26.946  32.988  1.00  0.00    -0.203 F 
ATOM     92  F   UNL A   1      41.522  23.883  35.939  1.00  0.00    -0.200 F 
ATOM     93  C   UNL A   1      43.427  24.090  34.574  1.00  0.00     0.200 A 
ATOM     94  F   UNL A   1      45.295  24.356  33.162  1.00  0.00    -0.200 F 
ATOM     95  F   UNL A   1      43.678  22.780  34.687  1.00  0.00    -0.200 F 
ENDBRANCH  62  85
ENDBRANCH  36  37
ENDBRANCH  29  31
ENDBRANCH  28  29
ENDBRANCH  27  28
ENDBRANCH  26  27
ENDBRANCH  25  26
ENDBRANCH  24  25
ENDBRANCH   1  24
TORSDOF 21
ENDMDL
