MODEL 1
REMARK VINA RESULT:     -11.4      0.000      0.000
REMARK SMILES Cc1cc2c(c(C)c1Br)C=C(C(=O)OCCOCCOCCOC(=O)c1ccc(-c3c4nc(c(-c5c(F)c(F)c(F)c(F)c5F)c5ccc([nH]5)c(-c5c(F)c(F)c(F)c(F)c5F)c5nc(c(-c6c(F)c(F)c(F)c(F)c6F)c6ccc3[nH]6)C=C5)C=C4)cc1)[C@@H](C(F)(F)F)O2
REMARK SMILES IDX 19 1 18 2 17 3 16 4 15 5 14 6 12 7 13 8 11 9 1 10 2 11 3 12
REMARK SMILES IDX 8 13 4 14 6 15 9 16 5 17 94 18 7 19 10 20 89 21 90 22 91 23
REMARK SMILES IDX 92 24 93 25 20 26 21 27 22 28 23 29 24 30 25 31 26 32 27 33
REMARK SMILES IDX 88 34 28 35 87 36 29 37 30 38 31 39 81 40 32 41 86 42 80 43
REMARK SMILES IDX 82 44 33 45 85 46 79 47 78 48 34 50 66 51 46 52 65 53 47 54
REMARK SMILES IDX 50 55 64 56 83 57 48 58 49 59 63 61 84 62 51 63 35 64 36 65
REMARK SMILES IDX 44 66 37 67 38 68 42 69 45 70 39 71 40 72 43 73 41 74 67 75
REMARK SMILES IDX 68 76 76 77 69 78 70 79 74 80 77 81 71 82 72 83 75 84 73 85
REMARK SMILES IDX 52 86 53 87 61 88 54 89 55 90 59 91 62 92 56 93 57 94 60 95
REMARK SMILES IDX 58 96
REMARK H PARENT 82 49 50 60
REMARK Flexibility Score: inf
ROOT
ATOM      1  C   UNL A   1      41.511  19.718  27.025  1.00  0.00     0.188 C 
ENDROOT
BRANCH   1   2
ATOM      2  C   UNL A   1      40.266  20.046  26.174  1.00  0.00     0.188 C 
BRANCH   2   3
ATOM      3  O   UNL A   1      39.370  21.041  26.609  1.00  0.00    -0.376 OA
BRANCH   3   4
ATOM      4  C   UNL A   1      38.834  21.994  25.709  1.00  0.00     0.202 C 
BRANCH   4   5
ATOM      5  C   UNL A   1      37.341  22.137  25.366  1.00  0.00     0.261 C 
BRANCH   5   6
ATOM      6  O   UNL A   1      36.630  23.202  26.005  1.00  0.00    -0.460 OA
BRANCH   6   7
ATOM      7  C   UNL A   1      35.294  23.010  26.130  1.00  0.00     0.338 C 
ATOM      8  O   UNL A   1      34.732  22.324  26.967  1.00  0.00    -0.246 OA
BRANCH   7   9
ATOM      9  C   UNL A   1      34.575  23.893  25.190  1.00  0.00     0.087 C 
ATOM     10  C   UNL A   1      30.557  28.098  22.384  1.00  0.00     0.046 C 
ATOM     11  C   UNL A   1      31.638  27.449  23.209  1.00  0.00    -0.033 A 
ATOM     12  C   UNL A   1      32.157  26.225  22.769  1.00  0.00     0.051 A 
ATOM     13  C   UNL A   1      32.104  27.989  24.426  1.00  0.00     0.024 A 
ATOM     14  C   UNL A   1      33.060  25.507  23.549  1.00  0.00     0.128 A 
ATOM     15  C   UNL A   1      33.046  27.287  25.219  1.00  0.00    -0.026 A 
ATOM     16  Br  UNL A   1      31.403  29.676  24.997  1.00  0.00    -0.050 Br
ATOM     17  C   UNL A   1      33.478  26.005  24.787  1.00  0.00     0.021 A 
ATOM     18  O   UNL A   1      33.470  24.321  23.009  1.00  0.00    -0.475 OA
ATOM     19  C   UNL A   1      33.595  27.855  26.509  1.00  0.00     0.046 C 
ATOM     20  C   UNL A   1      34.295  25.128  25.626  1.00  0.00     0.027 C 
ATOM     21  C   UNL A   1      34.198  23.376  23.833  1.00  0.00     0.316 C 
BRANCH  21  22
ATOM     22  C   UNL A   1      33.395  22.071  23.905  1.00  0.00     0.430 C 
ATOM     23  F   UNL A   1      32.433  22.135  24.856  1.00  0.00    -0.167 F 
ATOM     24  F   UNL A   1      32.767  21.805  22.736  1.00  0.00    -0.167 F 
ATOM     25  F   UNL A   1      34.182  21.010  24.192  1.00  0.00    -0.167 F 
ENDBRANCH  21  22
ENDBRANCH   7   9
ENDBRANCH   6   7
ENDBRANCH   5   6
ENDBRANCH   4   5
ENDBRANCH   3   4
ENDBRANCH   2   3
ENDBRANCH   1   2
BRANCH   1  26
ATOM     26  O   UNL A   1      42.677  19.214  26.411  1.00  0.00    -0.376 OA
BRANCH  26  27
ATOM     27  C   UNL A   1      43.358  20.015  25.457  1.00  0.00     0.202 C 
BRANCH  27  28
ATOM     28  C   UNL A   1      43.821  21.458  25.739  1.00  0.00     0.261 C 
BRANCH  28  29
ATOM     29  O   UNL A   1      42.997  22.510  25.213  1.00  0.00    -0.460 OA
BRANCH  29  30
ATOM     30  C   UNL A   1      43.598  23.724  25.096  1.00  0.00     0.338 C 
ATOM     31  O   UNL A   1      44.393  24.082  24.250  1.00  0.00    -0.246 OA
BRANCH  30  32
ATOM     32  C   UNL A   1      42.967  24.657  26.054  1.00  0.00     0.060 A 
ATOM     33  C   UNL A   1      43.534  25.930  26.219  1.00  0.00     0.016 A 
ATOM     34  C   UNL A   1      41.843  24.283  26.790  1.00  0.00     0.016 A 
ATOM     35  C   UNL A   1      42.962  26.840  27.105  1.00  0.00     0.010 A 
ATOM     36  C   UNL A   1      41.294  25.186  27.709  1.00  0.00     0.010 A 
ATOM     37  C   UNL A   1      41.859  26.463  27.879  1.00  0.00    -0.014 A 
BRANCH  37  38
ATOM     38  C   UNL A   1      41.459  27.331  29.014  1.00  0.00     0.031 A 
ATOM     39  C   UNL A   1      42.288  27.278  30.266  1.00  0.00     0.074 A 
ATOM     40  C   UNL A   1      40.440  28.204  28.918  1.00  0.00     0.049 A 
ATOM     41  N   UNL A   1      42.161  27.953  31.379  1.00  0.00    -0.248 NA
ATOM     42  C   UNL A   1      43.426  26.342  30.254  1.00  0.00     0.031 C 
ATOM     43  C   UNL A   1      39.603  28.401  27.737  1.00  0.00     0.029 A 
ATOM     44  N   UNL A   1      39.945  29.101  29.835  1.00  0.00    -0.354 N 
ATOM     45  C   UNL A   1      43.205  27.532  32.192  1.00  0.00     0.074 A 
ATOM     46  C   UNL A   1      43.931  26.515  31.465  1.00  0.00     0.031 C 
ATOM     47  C   UNL A   1      38.696  29.360  28.003  1.00  0.00     0.029 A 
ATOM     48  C   UNL A   1      38.871  29.824  29.380  1.00  0.00     0.049 A 
ATOM     49  H   UNL A   1      40.328  29.213  30.735  1.00  0.00     0.167 HD
ATOM     50  C   UNL A   1      43.540  27.971  33.426  1.00  0.00     0.037 A 
ATOM     51  C   UNL A   1      38.108  30.742  30.011  1.00  0.00     0.037 A 
ATOM     52  C   UNL A   1      42.819  28.978  34.153  1.00  0.00     0.049 A 
ATOM     53  C   UNL A   1      38.426  31.119  31.439  1.00  0.00     0.074 A 
ATOM     54  C   UNL A   1      43.087  29.488  35.409  1.00  0.00     0.029 A 
ATOM     55  N   UNL A   1      41.682  29.624  33.690  1.00  0.00    -0.354 N 
ATOM     56  N   UNL A   1      39.430  30.739  32.192  1.00  0.00    -0.248 NA
ATOM     57  C   UNL A   1      37.500  32.048  32.108  1.00  0.00     0.031 C 
ATOM     58  C   UNL A   1      42.079  30.398  35.734  1.00  0.00     0.029 A 
ATOM     59  C   UNL A   1      41.213  30.496  34.657  1.00  0.00     0.049 A 
ATOM     60  H   UNL A   1      41.270  29.481  32.807  1.00  0.00     0.167 HD
ATOM     61  C   UNL A   1      39.267  31.391  33.409  1.00  0.00     0.074 A 
ATOM     62  C   UNL A   1      38.080  32.209  33.291  1.00  0.00     0.031 C 
ATOM     63  C   UNL A   1      40.031  31.311  34.526  1.00  0.00     0.037 A 
BRANCH  50  64
ATOM     64  C   UNL A   1      44.738  27.350  34.080  1.00  0.00     0.064 A 
ATOM     65  C   UNL A   1      44.630  26.178  34.841  1.00  0.00     0.173 A 
ATOM     66  C   UNL A   1      46.014  27.904  33.899  1.00  0.00     0.173 A 
ATOM     67  F   UNL A   1      43.430  25.619  35.056  1.00  0.00    -0.203 F 
ATOM     68  C   UNL A   1      45.756  25.591  35.413  1.00  0.00     0.198 A 
ATOM     69  C   UNL A   1      47.140  27.298  34.446  1.00  0.00     0.198 A 
ATOM     70  F   UNL A   1      46.169  29.024  33.177  1.00  0.00    -0.203 F 
ATOM     71  F   UNL A   1      45.626  24.492  36.169  1.00  0.00    -0.200 F 
ATOM     72  C   UNL A   1      47.011  26.145  35.206  1.00  0.00     0.200 A 
ATOM     73  F   UNL A   1      48.353  27.827  34.233  1.00  0.00    -0.200 F 
ATOM     74  F   UNL A   1      48.095  25.570  35.743  1.00  0.00    -0.200 F 
ENDBRANCH  50  64
BRANCH  51  75
ATOM     75  C   UNL A   1      36.957  31.369  29.305  1.00  0.00     0.064 A 
ATOM     76  C   UNL A   1      36.974  32.727  28.958  1.00  0.00     0.173 A 
ATOM     77  C   UNL A   1      35.809  30.630  28.981  1.00  0.00     0.173 A 
ATOM     78  F   UNL A   1      38.033  33.485  29.275  1.00  0.00    -0.203 F 
ATOM     79  C   UNL A   1      35.885  33.323  28.323  1.00  0.00     0.198 A 
ATOM     80  C   UNL A   1      34.732  31.220  28.321  1.00  0.00     0.198 A 
ATOM     81  F   UNL A   1      35.732  29.330  29.302  1.00  0.00    -0.203 F 
ATOM     82  F   UNL A   1      35.911  34.633  28.043  1.00  0.00    -0.200 F 
ATOM     83  C   UNL A   1      34.769  32.568  27.997  1.00  0.00     0.200 A 
ATOM     84  F   UNL A   1      33.659  30.485  28.001  1.00  0.00    -0.200 F 
ATOM     85  F   UNL A   1      33.726  33.140  27.380  1.00  0.00    -0.200 F 
ENDBRANCH  51  75
BRANCH  63  86
ATOM     86  C   UNL A   1      39.623  32.115  35.728  1.00  0.00     0.064 A 
ATOM     87  C   UNL A   1      40.099  33.419  35.925  1.00  0.00     0.173 A 
ATOM     88  C   UNL A   1      38.648  31.631  36.614  1.00  0.00     0.173 A 
ATOM     89  F   UNL A   1      41.039  33.923  35.111  1.00  0.00    -0.203 F 
ATOM     90  C   UNL A   1      39.612  34.210  36.961  1.00  0.00     0.198 A 
ATOM     91  C   UNL A   1      38.140  32.436  37.631  1.00  0.00     0.198 A 
ATOM     92  F   UNL A   1      38.149  30.395  36.463  1.00  0.00    -0.203 F 
ATOM     93  F   UNL A   1      40.092  35.449  37.139  1.00  0.00    -0.200 F 
ATOM     94  C   UNL A   1      38.622  33.724  37.804  1.00  0.00     0.200 A 
ATOM     95  F   UNL A   1      37.169  31.972  38.430  1.00  0.00    -0.200 F 
ATOM     96  F   UNL A   1      38.129  34.501  38.778  1.00  0.00    -0.200 F 
ENDBRANCH  63  86
ENDBRANCH  37  38
ENDBRANCH  30  32
ENDBRANCH  29  30
ENDBRANCH  28  29
ENDBRANCH  27  28
ENDBRANCH  26  27
ENDBRANCH   1  26
TORSDOF 18
ENDMDL
MODEL 2
REMARK VINA RESULT:     -11.3      5.418     10.642
REMARK SMILES Cc1cc2c(c(C)c1Br)C=C(C(=O)OCCOCCOCCOC(=O)c1ccc(-c3c4nc(c(-c5c(F)c(F)c(F)c(F)c5F)c5ccc([nH]5)c(-c5c(F)c(F)c(F)c(F)c5F)c5nc(c(-c6c(F)c(F)c(F)c(F)c6F)c6ccc3[nH]6)C=C5)C=C4)cc1)[C@@H](C(F)(F)F)O2
REMARK SMILES IDX 19 1 18 2 17 3 16 4 15 5 14 6 12 7 13 8 11 9 1 10 2 11 3 12
REMARK SMILES IDX 8 13 4 14 6 15 9 16 5 17 94 18 7 19 10 20 89 21 90 22 91 23
REMARK SMILES IDX 92 24 93 25 20 26 21 27 22 28 23 29 24 30 25 31 26 32 27 33
REMARK SMILES IDX 88 34 28 35 87 36 29 37 30 38 31 39 81 40 32 41 86 42 80 43
REMARK SMILES IDX 82 44 33 45 85 46 79 47 78 48 34 50 66 51 46 52 65 53 47 54
REMARK SMILES IDX 50 55 64 56 83 57 48 58 49 59 63 61 84 62 51 63 35 64 36 65
REMARK SMILES IDX 44 66 37 67 38 68 42 69 45 70 39 71 40 72 43 73 41 74 67 75
REMARK SMILES IDX 68 76 76 77 69 78 70 79 74 80 77 81 71 82 72 83 75 84 73 85
REMARK SMILES IDX 52 86 53 87 61 88 54 89 55 90 59 91 62 92 56 93 57 94 60 95
REMARK SMILES IDX 58 96
REMARK H PARENT 82 49 50 60
REMARK Flexibility Score: inf
ROOT
ATOM      1  C   UNL A   1      33.772  34.125  28.610  1.00  0.00     0.188 C 
ENDROOT
BRANCH   1   2
ATOM      2  C   UNL A   1      34.698  33.070  27.968  1.00  0.00     0.188 C 
BRANCH   2   3
ATOM      3  O   UNL A   1      34.179  31.807  27.625  1.00  0.00    -0.376 OA
BRANCH   3   4
ATOM      4  C   UNL A   1      34.879  30.615  27.932  1.00  0.00     0.202 C 
BRANCH   4   5
ATOM      5  C   UNL A   1      34.633  29.252  27.261  1.00  0.00     0.261 C 
BRANCH   5   6
ATOM      6  O   UNL A   1      33.340  29.039  26.686  1.00  0.00    -0.460 OA
BRANCH   6   7
ATOM      7  C   UNL A   1      33.343  28.475  25.453  1.00  0.00     0.338 C 
ATOM      8  O   UNL A   1      33.754  28.980  24.422  1.00  0.00    -0.246 OA
BRANCH   7   9
ATOM      9  C   UNL A   1      32.915  27.066  25.552  1.00  0.00     0.087 C 
ATOM     10  C   UNL A   1      32.150  20.694  24.834  1.00  0.00     0.046 C 
ATOM     11  C   UNL A   1      32.672  22.066  25.169  1.00  0.00    -0.033 A 
ATOM     12  C   UNL A   1      31.743  23.099  25.350  1.00  0.00     0.051 A 
ATOM     13  C   UNL A   1      34.048  22.365  25.252  1.00  0.00     0.024 A 
ATOM     14  C   UNL A   1      32.161  24.415  25.531  1.00  0.00     0.128 A 
ATOM     15  C   UNL A   1      34.492  23.694  25.465  1.00  0.00    -0.026 A 
ATOM     16  Br  UNL A   1      35.302  20.936  25.029  1.00  0.00    -0.050 Br
ATOM     17  C   UNL A   1      33.523  24.730  25.549  1.00  0.00     0.021 A 
ATOM     18  O   UNL A   1      31.150  25.323  25.675  1.00  0.00    -0.475 OA
ATOM     19  C   UNL A   1      35.958  24.043  25.597  1.00  0.00     0.046 C 
ATOM     20  C   UNL A   1      33.889  26.146  25.577  1.00  0.00     0.027 C 
ATOM     21  C   UNL A   1      31.451  26.740  25.610  1.00  0.00     0.316 C 
BRANCH  21  22
ATOM     22  C   UNL A   1      30.667  27.353  24.443  1.00  0.00     0.430 C 
ATOM     23  F   UNL A   1      31.338  27.217  23.273  1.00  0.00    -0.167 F 
ATOM     24  F   UNL A   1      29.468  26.749  24.274  1.00  0.00    -0.167 F 
ATOM     25  F   UNL A   1      30.434  28.672  24.628  1.00  0.00    -0.167 F 
ENDBRANCH  21  22
ENDBRANCH   7   9
ENDBRANCH   6   7
ENDBRANCH   5   6
ENDBRANCH   4   5
ENDBRANCH   3   4
ENDBRANCH   2   3
ENDBRANCH   1   2
BRANCH   1  26
ATOM     26  O   UNL A   1      33.700  34.245  30.013  1.00  0.00    -0.376 OA
BRANCH  26  27
ATOM     27  C   UNL A   1      34.559  33.455  30.821  1.00  0.00     0.202 C 
BRANCH  27  28
ATOM     28  C   UNL A   1      35.171  33.952  32.146  1.00  0.00     0.261 C 
BRANCH  28  29
ATOM     29  O   UNL A   1      36.564  33.672  32.353  1.00  0.00    -0.460 OA
BRANCH  29  30
ATOM     30  C   UNL A   1      36.841  32.476  32.939  1.00  0.00     0.338 C 
ATOM     31  O   UNL A   1      36.303  31.980  33.908  1.00  0.00    -0.246 OA
BRANCH  30  32
ATOM     32  C   UNL A   1      37.785  31.735  32.075  1.00  0.00     0.060 A 
ATOM     33  C   UNL A   1      38.887  31.107  32.674  1.00  0.00     0.016 A 
ATOM     34  C   UNL A   1      37.598  31.670  30.695  1.00  0.00     0.016 A 
ATOM     35  C   UNL A   1      39.792  30.391  31.894  1.00  0.00     0.010 A 
ATOM     36  C   UNL A   1      38.531  30.983  29.908  1.00  0.00     0.010 A 
ATOM     37  C   UNL A   1      39.639  30.351  30.503  1.00  0.00    -0.014 A 
BRANCH  37  38
ATOM     38  C   UNL A   1      40.763  29.843  29.680  1.00  0.00     0.031 A 
ATOM     39  C   UNL A   1      41.911  30.774  29.406  1.00  0.00     0.074 A 
ATOM     40  C   UNL A   1      40.813  28.568  29.252  1.00  0.00     0.049 A 
ATOM     41  N   UNL A   1      43.015  30.561  28.739  1.00  0.00    -0.248 NA
ATOM     42  C   UNL A   1      41.800  32.128  29.974  1.00  0.00     0.031 C 
ATOM     43  C   UNL A   1      39.799  27.549  29.508  1.00  0.00     0.029 A 
ATOM     44  N   UNL A   1      41.770  27.913  28.515  1.00  0.00    -0.354 N 
ATOM     45  C   UNL A   1      43.733  31.746  28.817  1.00  0.00     0.074 A 
ATOM     46  C   UNL A   1      42.925  32.689  29.557  1.00  0.00     0.031 C 
ATOM     47  C   UNL A   1      40.189  26.394  28.937  1.00  0.00     0.029 A 
ATOM     48  C   UNL A   1      41.465  26.601  28.251  1.00  0.00     0.049 A 
ATOM     49  H   UNL A   1      42.599  28.346  28.206  1.00  0.00     0.167 HD
ATOM     50  C   UNL A   1      44.965  32.018  28.333  1.00  0.00     0.037 A 
ATOM     51  C   UNL A   1      42.134  25.680  27.525  1.00  0.00     0.037 A 
ATOM     52  C   UNL A   1      45.770  31.086  27.594  1.00  0.00     0.049 A 
ATOM     53  C   UNL A   1      43.450  26.050  26.883  1.00  0.00     0.074 A 
ATOM     54  C   UNL A   1      47.034  31.272  27.065  1.00  0.00     0.029 A 
ATOM     55  N   UNL A   1      45.386  29.793  27.271  1.00  0.00    -0.354 N 
ATOM     56  N   UNL A   1      44.136  27.163  26.984  1.00  0.00    -0.248 NA
ATOM     57  C   UNL A   1      44.082  25.038  26.020  1.00  0.00     0.031 C 
ATOM     58  C   UNL A   1      47.391  30.114  26.371  1.00  0.00     0.029 A 
ATOM     59  C   UNL A   1      46.372  29.186  26.514  1.00  0.00     0.049 A 
ATOM     60  H   UNL A   1      44.537  29.371  27.541  1.00  0.00     0.167 HD
ATOM     61  C   UNL A   1      45.281  26.980  26.216  1.00  0.00     0.074 A 
ATOM     62  C   UNL A   1      45.212  25.642  25.671  1.00  0.00     0.031 C 
ATOM     63  C   UNL A   1      46.295  27.848  25.980  1.00  0.00     0.037 A 
BRANCH  50  64
ATOM     64  C   UNL A   1      45.518  33.390  28.575  1.00  0.00     0.064 A 
ATOM     65  C   UNL A   1      45.205  34.465  27.730  1.00  0.00     0.173 A 
ATOM     66  C   UNL A   1      46.325  33.645  29.694  1.00  0.00     0.173 A 
ATOM     67  F   UNL A   1      44.451  34.268  26.638  1.00  0.00    -0.203 F 
ATOM     68  C   UNL A   1      45.695  35.742  27.987  1.00  0.00     0.198 A 
ATOM     69  C   UNL A   1      46.787  34.929  29.964  1.00  0.00     0.198 A 
ATOM     70  F   UNL A   1      46.650  32.650  30.533  1.00  0.00    -0.203 F 
ATOM     71  F   UNL A   1      45.417  36.746  27.144  1.00  0.00    -0.200 F 
ATOM     72  C   UNL A   1      46.476  35.975  29.109  1.00  0.00     0.200 A 
ATOM     73  F   UNL A   1      47.530  35.155  31.057  1.00  0.00    -0.200 F 
ATOM     74  F   UNL A   1      46.934  37.209  29.364  1.00  0.00    -0.200 F 
ENDBRANCH  50  64
BRANCH  51  75
ATOM     75  C   UNL A   1      41.570  24.312  27.351  1.00  0.00     0.064 A 
ATOM     76  C   UNL A   1      40.415  24.098  26.586  1.00  0.00     0.173 A 
ATOM     77  C   UNL A   1      42.160  23.196  27.961  1.00  0.00     0.173 A 
ATOM     78  F   UNL A   1      39.792  25.137  26.010  1.00  0.00    -0.203 F 
ATOM     79  C   UNL A   1      39.868  22.823  26.446  1.00  0.00     0.198 A 
ATOM     80  C   UNL A   1      41.630  21.917  27.798  1.00  0.00     0.198 A 
ATOM     81  F   UNL A   1      43.259  23.344  28.716  1.00  0.00    -0.203 F 
ATOM     82  F   UNL A   1      38.738  22.655  25.746  1.00  0.00    -0.200 F 
ATOM     83  C   UNL A   1      40.480  21.733  27.045  1.00  0.00     0.200 A 
ATOM     84  F   UNL A   1      42.229  20.866  28.372  1.00  0.00    -0.200 F 
ATOM     85  F   UNL A   1      39.958  20.507  26.903  1.00  0.00    -0.200 F 
ENDBRANCH  51  75
BRANCH  63  86
ATOM     86  C   UNL A   1      47.421  27.406  25.090  1.00  0.00     0.064 A 
ATOM     87  C   UNL A   1      47.448  27.749  23.730  1.00  0.00     0.173 A 
ATOM     88  C   UNL A   1      48.542  26.753  25.625  1.00  0.00     0.173 A 
ATOM     89  F   UNL A   1      46.397  28.365  23.169  1.00  0.00    -0.203 F 
ATOM     90  C   UNL A   1      48.558  27.459  22.942  1.00  0.00     0.198 A 
ATOM     91  C   UNL A   1      49.663  26.492  24.841  1.00  0.00     0.198 A 
ATOM     92  F   UNL A   1      48.572  26.414  26.922  1.00  0.00    -0.203 F 
ATOM     93  F   UNL A   1      48.557  27.785  21.641  1.00  0.00    -0.200 F 
ATOM     94  C   UNL A   1      49.670  26.845  23.501  1.00  0.00     0.200 A 
ATOM     95  F   UNL A   1      50.744  25.919  25.388  1.00  0.00    -0.200 F 
ATOM     96  F   UNL A   1      50.751  26.600  22.747  1.00  0.00    -0.200 F 
ENDBRANCH  63  86
ENDBRANCH  37  38
ENDBRANCH  30  32
ENDBRANCH  29  30
ENDBRANCH  28  29
ENDBRANCH  27  28
ENDBRANCH  26  27
ENDBRANCH   1  26
TORSDOF 18
ENDMDL
MODEL 3
REMARK VINA RESULT:     -11.3      0.911      2.141
REMARK SMILES Cc1cc2c(c(C)c1Br)C=C(C(=O)OCCOCCOCCOC(=O)c1ccc(-c3c4nc(c(-c5c(F)c(F)c(F)c(F)c5F)c5ccc([nH]5)c(-c5c(F)c(F)c(F)c(F)c5F)c5nc(c(-c6c(F)c(F)c(F)c(F)c6F)c6ccc3[nH]6)C=C5)C=C4)cc1)[C@@H](C(F)(F)F)O2
REMARK SMILES IDX 19 1 18 2 17 3 16 4 15 5 14 6 12 7 13 8 11 9 1 10 2 11 3 12
REMARK SMILES IDX 8 13 4 14 6 15 9 16 5 17 94 18 7 19 10 20 89 21 90 22 91 23
REMARK SMILES IDX 92 24 93 25 20 26 21 27 22 28 23 29 24 30 25 31 26 32 27 33
REMARK SMILES IDX 88 34 28 35 87 36 29 37 30 38 31 39 81 40 32 41 86 42 80 43
REMARK SMILES IDX 82 44 33 45 85 46 79 47 78 48 34 50 66 51 46 52 65 53 47 54
REMARK SMILES IDX 50 55 64 56 83 57 48 58 49 59 63 61 84 62 51 63 35 64 36 65
REMARK SMILES IDX 44 66 37 67 38 68 42 69 45 70 39 71 40 72 43 73 41 74 67 75
REMARK SMILES IDX 68 76 76 77 69 78 70 79 74 80 77 81 71 82 72 83 75 84 73 85
REMARK SMILES IDX 52 86 53 87 61 88 54 89 55 90 59 91 62 92 56 93 57 94 60 95
REMARK SMILES IDX 58 96
REMARK H PARENT 82 49 50 60
REMARK Flexibility Score: inf
ROOT
ATOM      1  C   UNL A   1      40.627  21.509  27.079  1.00  0.00     0.188 C 
ENDROOT
BRANCH   1   2
ATOM      2  C   UNL A   1      40.028  20.420  26.165  1.00  0.00     0.188 C 
BRANCH   2   3
ATOM      3  O   UNL A   1      39.089  20.778  25.180  1.00  0.00    -0.376 OA
BRANCH   3   4
ATOM      4  C   UNL A   1      37.747  21.082  25.516  1.00  0.00     0.202 C 
BRANCH   4   5
ATOM      5  C   UNL A   1      36.782  21.895  24.636  1.00  0.00     0.261 C 
BRANCH   5   6
ATOM      6  O   UNL A   1      36.350  23.160  25.147  1.00  0.00    -0.460 OA
BRANCH   6   7
ATOM      7  C   UNL A   1      35.071  23.196  25.593  1.00  0.00     0.338 C 
ATOM      8  O   UNL A   1      34.633  22.655  26.595  1.00  0.00    -0.246 OA
BRANCH   7   9
ATOM      9  C   UNL A   1      34.284  24.134  24.768  1.00  0.00     0.087 C 
ATOM     10  C   UNL A   1      30.166  28.598  22.574  1.00  0.00     0.046 C 
ATOM     11  C   UNL A   1      31.308  27.877  23.240  1.00  0.00    -0.033 A 
ATOM     12  C   UNL A   1      31.699  26.637  22.718  1.00  0.00     0.051 A 
ATOM     13  C   UNL A   1      31.957  28.366  24.393  1.00  0.00     0.024 A 
ATOM     14  C   UNL A   1      32.657  25.858  23.363  1.00  0.00     0.128 A 
ATOM     15  C   UNL A   1      32.955  27.600  25.046  1.00  0.00    -0.026 A 
ATOM     16  Br  UNL A   1      31.428  30.074  25.075  1.00  0.00    -0.050 Br
ATOM     17  C   UNL A   1      33.259  26.307  24.543  1.00  0.00     0.021 A 
ATOM     18  O   UNL A   1      32.929  24.664  22.757  1.00  0.00    -0.475 OA
ATOM     19  C   UNL A   1      33.697  28.112  26.261  1.00  0.00     0.046 C 
ATOM     20  C   UNL A   1      34.129  25.372  25.255  1.00  0.00     0.027 C 
ATOM     21  C   UNL A   1      33.706  23.666  23.465  1.00  0.00     0.316 C 
BRANCH  21  22
ATOM     22  C   UNL A   1      32.851  22.402  23.622  1.00  0.00     0.430 C 
ATOM     23  F   UNL A   1      33.622  21.308  23.832  1.00  0.00    -0.167 F 
ATOM     24  F   UNL A   1      32.013  22.494  24.680  1.00  0.00    -0.167 F 
ATOM     25  F   UNL A   1      32.096  22.164  22.527  1.00  0.00    -0.167 F 
ENDBRANCH  21  22
ENDBRANCH   7   9
ENDBRANCH   6   7
ENDBRANCH   5   6
ENDBRANCH   4   5
ENDBRANCH   3   4
ENDBRANCH   2   3
ENDBRANCH   1   2
BRANCH   1  26
ATOM     26  O   UNL A   1      42.003  21.497  27.390  1.00  0.00    -0.376 OA
BRANCH  26  27
ATOM     27  C   UNL A   1      42.944  21.255  26.355  1.00  0.00     0.202 C 
BRANCH  27  28
ATOM     28  C   UNL A   1      43.761  22.372  25.676  1.00  0.00     0.261 C 
BRANCH  28  29
ATOM     29  O   UNL A   1      43.024  23.517  25.219  1.00  0.00    -0.460 OA
BRANCH  29  30
ATOM     30  C   UNL A   1      43.670  24.710  25.319  1.00  0.00     0.338 C 
ATOM     31  O   UNL A   1      44.578  25.124  24.627  1.00  0.00    -0.246 OA
BRANCH  30  32
ATOM     32  C   UNL A   1      42.948  25.558  26.292  1.00  0.00     0.060 A 
ATOM     33  C   UNL A   1      43.464  26.829  26.582  1.00  0.00     0.016 A 
ATOM     34  C   UNL A   1      41.789  25.104  26.921  1.00  0.00     0.016 A 
ATOM     35  C   UNL A   1      42.806  27.661  27.485  1.00  0.00     0.010 A 
ATOM     36  C   UNL A   1      41.152  25.927  27.859  1.00  0.00     0.010 A 
ATOM     37  C   UNL A   1      41.665  27.203  28.154  1.00  0.00    -0.014 A 
BRANCH  37  38
ATOM     38  C   UNL A   1      41.163  27.979  29.314  1.00  0.00     0.031 A 
ATOM     39  C   UNL A   1      41.905  27.858  30.615  1.00  0.00     0.074 A 
ATOM     40  C   UNL A   1      40.130  28.834  29.206  1.00  0.00     0.049 A 
ATOM     41  N   UNL A   1      41.682  28.450  31.760  1.00  0.00    -0.248 NA
ATOM     42  C   UNL A   1      43.067  26.952  30.620  1.00  0.00     0.031 C 
ATOM     43  C   UNL A   1      39.371  29.094  27.985  1.00  0.00     0.029 A 
ATOM     44  N   UNL A   1      39.547  29.652  30.145  1.00  0.00    -0.354 N 
ATOM     45  C   UNL A   1      42.679  27.997  32.614  1.00  0.00     0.074 A 
ATOM     46  C   UNL A   1      43.482  27.051  31.873  1.00  0.00     0.031 C 
ATOM     47  C   UNL A   1      38.421  30.010  28.251  1.00  0.00     0.029 A 
ATOM     48  C   UNL A   1      38.487  30.380  29.665  1.00  0.00     0.049 A 
ATOM     49  H   UNL A   1      39.863  29.709  31.076  1.00  0.00     0.167 HD
ATOM     50  C   UNL A   1      42.915  28.356  33.896  1.00  0.00     0.037 A 
ATOM     51  C   UNL A   1      37.657  31.233  30.302  1.00  0.00     0.037 A 
ATOM     52  C   UNL A   1      42.118  29.292  34.637  1.00  0.00     0.049 A 
ATOM     53  C   UNL A   1      37.865  31.517  31.771  1.00  0.00     0.074 A 
ATOM     54  C   UNL A   1      42.283  29.719  35.942  1.00  0.00     0.029 A 
ATOM     55  N   UNL A   1      40.998  29.942  34.141  1.00  0.00    -0.354 N 
ATOM     56  N   UNL A   1      38.825  31.108  32.566  1.00  0.00    -0.248 NA
ATOM     57  C   UNL A   1      36.869  32.374  32.435  1.00  0.00     0.031 C 
ATOM     58  C   UNL A   1      41.230  30.580  36.255  1.00  0.00     0.029 A 
ATOM     59  C   UNL A   1      40.438  30.734  35.128  1.00  0.00     0.049 A 
ATOM     60  H   UNL A   1      40.652  29.853  33.222  1.00  0.00     0.167 HD
ATOM     61  C   UNL A   1      38.559  31.669  33.810  1.00  0.00     0.074 A 
ATOM     62  C   UNL A   1      37.361  32.465  33.664  1.00  0.00     0.031 C 
ATOM     63  C   UNL A   1      39.246  31.528  34.970  1.00  0.00     0.037 A 
BRANCH  50  64
ATOM     64  C   UNL A   1      44.082  27.719  34.589  1.00  0.00     0.064 A 
ATOM     65  C   UNL A   1      45.335  28.347  34.641  1.00  0.00     0.173 A 
ATOM     66  C   UNL A   1      43.931  26.493  35.255  1.00  0.00     0.173 A 
ATOM     67  F   UNL A   1      45.533  29.513  34.006  1.00  0.00    -0.203 F 
ATOM     68  C   UNL A   1      46.400  27.763  35.319  1.00  0.00     0.198 A 
ATOM     69  C   UNL A   1      44.990  25.927  35.958  1.00  0.00     0.198 A 
ATOM     70  F   UNL A   1      42.752  25.854  35.236  1.00  0.00    -0.203 F 
ATOM     71  F   UNL A   1      47.599  28.361  35.323  1.00  0.00    -0.200 F 
ATOM     72  C   UNL A   1      46.224  26.559  35.986  1.00  0.00     0.200 A 
ATOM     73  F   UNL A   1      44.815  24.771  36.613  1.00  0.00    -0.200 F 
ATOM     74  F   UNL A   1      47.247  26.006  36.653  1.00  0.00    -0.200 F 
ENDBRANCH  50  64
BRANCH  51  75
ATOM     75  C   UNL A   1      36.540  31.881  29.561  1.00  0.00     0.064 A 
ATOM     76  C   UNL A   1      35.452  31.132  29.092  1.00  0.00     0.173 A 
ATOM     77  C   UNL A   1      36.546  33.258  29.288  1.00  0.00     0.173 A 
ATOM     78  F   UNL A   1      35.415  29.807  29.296  1.00  0.00    -0.203 F 
ATOM     79  C   UNL A   1      34.419  31.731  28.372  1.00  0.00     0.198 A 
ATOM     80  C   UNL A   1      35.499  33.861  28.593  1.00  0.00     0.198 A 
ATOM     81  F   UNL A   1      37.569  34.021  29.701  1.00  0.00    -0.203 F 
ATOM     82  F   UNL A   1      33.415  30.983  27.898  1.00  0.00    -0.200 F 
ATOM     83  C   UNL A   1      34.439  33.097  28.131  1.00  0.00     0.200 A 
ATOM     84  F   UNL A   1      35.519  35.182  28.369  1.00  0.00    -0.200 F 
ATOM     85  F   UNL A   1      33.442  33.673  27.445  1.00  0.00    -0.200 F 
ENDBRANCH  51  75
BRANCH  63  86
ATOM     86  C   UNL A   1      38.733  32.235  36.192  1.00  0.00     0.064 A 
ATOM     87  C   UNL A   1      38.050  31.540  37.200  1.00  0.00     0.173 A 
ATOM     88  C   UNL A   1      39.044  33.585  36.421  1.00  0.00     0.173 A 
ATOM     89  F   UNL A   1      37.721  30.251  37.025  1.00  0.00    -0.203 F 
ATOM     90  C   UNL A   1      37.701  32.167  38.393  1.00  0.00     0.198 A 
ATOM     91  C   UNL A   1      38.721  34.201  37.628  1.00  0.00     0.198 A 
ATOM     92  F   UNL A   1      39.707  34.293  35.495  1.00  0.00    -0.203 F 
ATOM     93  F   UNL A   1      37.036  31.486  39.336  1.00  0.00    -0.200 F 
ATOM     94  C   UNL A   1      38.050  33.492  38.612  1.00  0.00     0.200 A 
ATOM     95  F   UNL A   1      39.078  35.475  37.846  1.00  0.00    -0.200 F 
ATOM     96  F   UNL A   1      37.744  34.083  39.775  1.00  0.00    -0.200 F 
ENDBRANCH  63  86
ENDBRANCH  37  38
ENDBRANCH  30  32
ENDBRANCH  29  30
ENDBRANCH  28  29
ENDBRANCH  27  28
ENDBRANCH  26  27
ENDBRANCH   1  26
TORSDOF 18
ENDMDL
