MODEL 1
REMARK VINA RESULT:     -12.0      0.000      0.000
REMARK SMILES C[C@@H]1C(C(=O)OCCOCCOCCOC(=O)c2ccc(-c3c4nc(c(-c5c(F)c(F)c(F)c(F)c5F)c5ccc([nH]5)c(-c5c(F)c(F)c(F)c(F)c5F)c5nc(c(-c6c(F)c(F)c(F)c(F)c6F)c6ccc3[nH]6)C=C5)C=C4)cc2)=NC2=C1C(=O)C[C@H](c1ccccc1)C2
REMARK SMILES IDX 11 1 10 2 9 3 8 4 7 5 6 6 4 7 5 8 3 9 1 10 2 11 83 12 81 13
REMARK SMILES IDX 82 14 84 15 94 16 85 17 86 18 87 19 88 20 89 21 93 22 90 23
REMARK SMILES IDX 92 24 91 25 12 26 13 27 14 28 15 29 16 30 17 31 18 32 19 33
REMARK SMILES IDX 80 34 20 35 79 36 21 37 22 38 23 39 73 40 24 41 78 42 72 43
REMARK SMILES IDX 74 44 25 45 77 46 71 47 70 48 26 50 58 51 38 52 57 53 39 54
REMARK SMILES IDX 42 55 56 56 75 57 40 58 41 59 55 61 76 62 43 63 27 64 28 65
REMARK SMILES IDX 36 66 29 67 30 68 34 69 37 70 31 71 32 72 35 73 33 74 59 75
REMARK SMILES IDX 60 76 68 77 61 78 62 79 66 80 69 81 63 82 64 83 67 84 65 85
REMARK SMILES IDX 44 86 45 87 53 88 46 89 47 90 51 91 54 92 48 93 49 94 52 95
REMARK SMILES IDX 50 96
REMARK H PARENT 74 49 42 60
REMARK Flexibility Score: inf
ROOT
ATOM      1  C   UNL A   1      35.293  22.332  23.864  1.00  0.00     0.188 C 
ENDROOT
BRANCH   1   2
ATOM      2  C   UNL A   1      34.100  21.493  24.266  1.00  0.00     0.188 C 
BRANCH   2   3
ATOM      3  O   UNL A   1      34.125  21.040  25.608  1.00  0.00    -0.376 OA
BRANCH   3   4
ATOM      4  C   UNL A   1      33.379  21.824  26.545  1.00  0.00     0.202 C 
BRANCH   4   5
ATOM      5  C   UNL A   1      33.887  23.214  27.021  1.00  0.00     0.261 C 
BRANCH   5   6
ATOM      6  O   UNL A   1      33.288  24.364  26.378  1.00  0.00    -0.459 OA
BRANCH   6   7
ATOM      7  C   UNL A   1      31.951  24.531  26.370  1.00  0.00     0.353 C 
ATOM      8  O   UNL A   1      31.208  24.402  27.325  1.00  0.00    -0.245 OA
BRANCH   7   9
ATOM      9  C   UNL A   1      31.535  25.141  25.015  1.00  0.00     0.133 C 
ATOM     10  C   UNL A   1      31.162  23.585  23.094  1.00  0.00     0.020 C 
ATOM     11  C   UNL A   1      32.109  24.616  23.704  1.00  0.00     0.078 C 
ATOM     12  C   UNL A   1      31.974  25.934  23.031  1.00  0.00     0.026 C 
ATOM     13  N   UNL A   1      30.772  26.201  24.906  1.00  0.00    -0.249 NA
ATOM     14  C   UNL A   1      31.071  26.691  23.653  1.00  0.00     0.049 C 
ATOM     15  C   UNL A   1      32.941  26.609  22.156  1.00  0.00     0.161 C 
ATOM     16  C   UNL A   1      30.878  28.122  23.250  1.00  0.00     0.065 C 
ATOM     17  O   UNL A   1      33.548  25.959  21.310  1.00  0.00    -0.294 OA
ATOM     18  C   UNL A   1      33.222  28.107  22.401  1.00  0.00     0.089 C 
ATOM     19  C   UNL A   1      32.244  28.831  23.389  1.00  0.00     0.033 C 
BRANCH  19  20
ATOM     20  C   UNL A   1      32.674  28.946  24.865  1.00  0.00    -0.044 A 
ATOM     21  C   UNL A   1      33.877  28.363  25.315  1.00  0.00     0.004 A 
ATOM     22  C   UNL A   1      31.910  29.611  25.826  1.00  0.00     0.004 A 
ATOM     23  C   UNL A   1      34.381  28.581  26.597  1.00  0.00     0.000 A 
ATOM     24  C   UNL A   1      32.405  29.818  27.123  1.00  0.00     0.000 A 
ATOM     25  C   UNL A   1      33.652  29.333  27.499  1.00  0.00     0.000 A 
ENDBRANCH  19  20
ENDBRANCH   7   9
ENDBRANCH   6   7
ENDBRANCH   5   6
ENDBRANCH   4   5
ENDBRANCH   3   4
ENDBRANCH   2   3
ENDBRANCH   1   2
BRANCH   1  26
ATOM     26  O   UNL A   1      36.534  21.888  24.401  1.00  0.00    -0.376 OA
BRANCH  26  27
ATOM     27  C   UNL A   1      37.216  22.774  25.278  1.00  0.00     0.202 C 
BRANCH  27  28
ATOM     28  C   UNL A   1      38.420  22.172  25.980  1.00  0.00     0.261 C 
BRANCH  28  29
ATOM     29  O   UNL A   1      38.975  23.046  26.951  1.00  0.00    -0.460 OA
BRANCH  29  30
ATOM     30  C   UNL A   1      40.215  22.701  27.363  1.00  0.00     0.338 C 
ATOM     31  O   UNL A   1      40.584  21.643  27.842  1.00  0.00    -0.246 OA
BRANCH  30  32
ATOM     32  C   UNL A   1      41.073  23.881  27.277  1.00  0.00     0.060 A 
ATOM     33  C   UNL A   1      41.947  24.081  28.348  1.00  0.00     0.016 A 
ATOM     34  C   UNL A   1      40.732  24.900  26.373  1.00  0.00     0.016 A 
ATOM     35  C   UNL A   1      42.228  25.374  28.699  1.00  0.00     0.010 A 
ATOM     36  C   UNL A   1      41.002  26.190  26.727  1.00  0.00     0.010 A 
ATOM     37  C   UNL A   1      41.624  26.390  27.954  1.00  0.00    -0.014 A 
BRANCH  37  38
ATOM     38  C   UNL A   1      41.531  27.681  28.579  1.00  0.00     0.031 A 
ATOM     39  C   UNL A   1      42.658  28.568  28.260  1.00  0.00     0.074 A 
ATOM     40  C   UNL A   1      40.468  27.979  29.348  1.00  0.00     0.049 A 
ATOM     41  N   UNL A   1      43.569  29.000  29.063  1.00  0.00    -0.248 NA
ATOM     42  C   UNL A   1      42.897  28.865  26.841  1.00  0.00     0.031 C 
ATOM     43  C   UNL A   1      39.210  27.239  29.509  1.00  0.00     0.029 A 
ATOM     44  N   UNL A   1      40.263  29.095  30.089  1.00  0.00    -0.354 N 
ATOM     45  C   UNL A   1      44.395  29.791  28.280  1.00  0.00     0.074 A 
ATOM     46  C   UNL A   1      44.052  29.524  26.908  1.00  0.00     0.031 C 
ATOM     47  C   UNL A   1      38.296  28.042  30.100  1.00  0.00     0.029 A 
ATOM     48  C   UNL A   1      38.942  29.289  30.466  1.00  0.00     0.049 A 
ATOM     49  H   UNL A   1      40.988  29.715  30.337  1.00  0.00     0.167 HD
ATOM     50  C   UNL A   1      45.108  30.807  28.831  1.00  0.00     0.037 A 
ATOM     51  C   UNL A   1      38.444  30.470  30.904  1.00  0.00     0.037 A 
ATOM     52  C   UNL A   1      45.280  30.627  30.250  1.00  0.00     0.049 A 
ATOM     53  C   UNL A   1      39.604  31.282  31.381  1.00  0.00     0.074 A 
ATOM     54  C   UNL A   1      45.860  29.638  31.025  1.00  0.00     0.029 A 
ATOM     55  N   UNL A   1      44.476  31.342  31.106  1.00  0.00    -0.354 N 
ATOM     56  N   UNL A   1      40.316  30.969  32.432  1.00  0.00    -0.248 NA
ATOM     57  C   UNL A   1      40.277  32.134  30.407  1.00  0.00     0.031 C 
ATOM     58  C   UNL A   1      45.005  29.507  32.159  1.00  0.00     0.029 A 
ATOM     59  C   UNL A   1      43.992  30.458  32.039  1.00  0.00     0.049 A 
ATOM     60  H   UNL A   1      44.285  32.306  31.059  1.00  0.00     0.167 HD
ATOM     61  C   UNL A   1      41.631  31.236  32.068  1.00  0.00     0.074 A 
ATOM     62  C   UNL A   1      41.538  32.007  30.832  1.00  0.00     0.031 C 
ATOM     63  C   UNL A   1      42.679  30.561  32.630  1.00  0.00     0.037 A 
BRANCH  50  64
ATOM     64  C   UNL A   1      45.298  32.127  28.140  1.00  0.00     0.064 A 
ATOM     65  C   UNL A   1      44.184  32.956  27.929  1.00  0.00     0.173 A 
ATOM     66  C   UNL A   1      46.466  32.473  27.422  1.00  0.00     0.173 A 
ATOM     67  F   UNL A   1      43.017  32.698  28.540  1.00  0.00    -0.203 F 
ATOM     68  C   UNL A   1      44.220  34.012  27.016  1.00  0.00     0.198 A 
ATOM     69  C   UNL A   1      46.516  33.561  26.558  1.00  0.00     0.198 A 
ATOM     70  F   UNL A   1      47.567  31.711  27.434  1.00  0.00    -0.203 F 
ATOM     71  F   UNL A   1      43.100  34.699  26.751  1.00  0.00    -0.200 F 
ATOM     72  C   UNL A   1      45.383  34.310  26.329  1.00  0.00     0.200 A 
ATOM     73  F   UNL A   1      47.648  33.818  25.888  1.00  0.00    -0.200 F 
ATOM     74  F   UNL A   1      45.401  35.283  25.408  1.00  0.00    -0.200 F 
ENDBRANCH  50  64
BRANCH  51  75
ATOM     75  C   UNL A   1      37.133  31.054  30.529  1.00  0.00     0.064 A 
ATOM     76  C   UNL A   1      36.256  31.555  31.503  1.00  0.00     0.173 A 
ATOM     77  C   UNL A   1      36.815  31.358  29.188  1.00  0.00     0.173 A 
ATOM     78  F   UNL A   1      36.514  31.359  32.804  1.00  0.00    -0.203 F 
ATOM     79  C   UNL A   1      35.134  32.317  31.156  1.00  0.00     0.198 A 
ATOM     80  C   UNL A   1      35.690  32.107  28.843  1.00  0.00     0.198 A 
ATOM     81  F   UNL A   1      37.635  31.013  28.185  1.00  0.00    -0.203 F 
ATOM     82  F   UNL A   1      34.347  32.823  32.116  1.00  0.00    -0.200 F 
ATOM     83  C   UNL A   1      34.855  32.597  29.827  1.00  0.00     0.200 A 
ATOM     84  F   UNL A   1      35.457  32.398  27.556  1.00  0.00    -0.200 F 
ATOM     85  F   UNL A   1      33.810  33.367  29.499  1.00  0.00    -0.200 F 
ENDBRANCH  51  75
BRANCH  63  86
ATOM     86  C   UNL A   1      42.389  29.657  33.796  1.00  0.00     0.064 A 
ATOM     87  C   UNL A   1      41.941  28.331  33.656  1.00  0.00     0.173 A 
ATOM     88  C   UNL A   1      42.729  30.087  35.084  1.00  0.00     0.173 A 
ATOM     89  F   UNL A   1      41.707  27.810  32.446  1.00  0.00    -0.203 F 
ATOM     90  C   UNL A   1      41.794  27.494  34.762  1.00  0.00     0.198 A 
ATOM     91  C   UNL A   1      42.614  29.239  36.183  1.00  0.00     0.198 A 
ATOM     92  F   UNL A   1      43.223  31.322  35.270  1.00  0.00    -0.203 F 
ATOM     93  F   UNL A   1      41.357  26.237  34.600  1.00  0.00    -0.200 F 
ATOM     94  C   UNL A   1      42.137  27.948  36.024  1.00  0.00     0.200 A 
ATOM     95  F   UNL A   1      42.998  29.665  37.395  1.00  0.00    -0.200 F 
ATOM     96  F   UNL A   1      42.037  27.132  37.083  1.00  0.00    -0.200 F 
ENDBRANCH  63  86
ENDBRANCH  37  38
ENDBRANCH  30  32
ENDBRANCH  29  30
ENDBRANCH  28  29
ENDBRANCH  27  28
ENDBRANCH  26  27
ENDBRANCH   1  26
TORSDOF 18
ENDMDL
MODEL 2
REMARK VINA RESULT:     -11.7      3.031      8.357
REMARK SMILES C[C@@H]1C(C(=O)OCCOCCOCCOC(=O)c2ccc(-c3c4nc(c(-c5c(F)c(F)c(F)c(F)c5F)c5ccc([nH]5)c(-c5c(F)c(F)c(F)c(F)c5F)c5nc(c(-c6c(F)c(F)c(F)c(F)c6F)c6ccc3[nH]6)C=C5)C=C4)cc2)=NC2=C1C(=O)C[C@H](c1ccccc1)C2
REMARK SMILES IDX 11 1 10 2 9 3 8 4 7 5 6 6 4 7 5 8 3 9 1 10 2 11 83 12 81 13
REMARK SMILES IDX 82 14 84 15 94 16 85 17 86 18 87 19 88 20 89 21 93 22 90 23
REMARK SMILES IDX 92 24 91 25 12 26 13 27 14 28 15 29 16 30 17 31 18 32 19 33
REMARK SMILES IDX 80 34 20 35 79 36 21 37 22 38 23 39 73 40 24 41 78 42 72 43
REMARK SMILES IDX 74 44 25 45 77 46 71 47 70 48 26 50 58 51 38 52 57 53 39 54
REMARK SMILES IDX 42 55 56 56 75 57 40 58 41 59 55 61 76 62 43 63 27 64 28 65
REMARK SMILES IDX 36 66 29 67 30 68 34 69 37 70 31 71 32 72 35 73 33 74 59 75
REMARK SMILES IDX 60 76 68 77 61 78 62 79 66 80 69 81 63 82 64 83 67 84 65 85
REMARK SMILES IDX 44 86 45 87 53 88 46 89 47 90 51 91 54 92 48 93 49 94 52 95
REMARK SMILES IDX 50 96
REMARK H PARENT 74 49 42 60
REMARK Flexibility Score: inf
ROOT
ATOM      1  C   UNL A   1      34.537  31.309  27.975  1.00  0.00     0.188 C 
ENDROOT
BRANCH   1   2
ATOM      2  C   UNL A   1      33.593  30.613  27.019  1.00  0.00     0.188 C 
BRANCH   2   3
ATOM      3  O   UNL A   1      33.950  29.278  26.708  1.00  0.00    -0.376 OA
BRANCH   3   4
ATOM      4  C   UNL A   1      33.127  28.623  25.736  1.00  0.00     0.202 C 
BRANCH   4   5
ATOM      5  C   UNL A   1      33.668  28.279  24.319  1.00  0.00     0.261 C 
BRANCH   5   6
ATOM      6  O   UNL A   1      33.968  26.883  24.076  1.00  0.00    -0.459 OA
BRANCH   6   7
ATOM      7  C   UNL A   1      33.461  26.246  23.002  1.00  0.00     0.353 C 
ATOM      8  O   UNL A   1      33.810  26.401  21.847  1.00  0.00    -0.245 OA
BRANCH   7   9
ATOM      9  C   UNL A   1      32.529  25.117  23.491  1.00  0.00     0.133 C 
ATOM     10  C   UNL A   1      30.114  25.660  23.843  1.00  0.00     0.020 C 
ATOM     11  C   UNL A   1      31.447  25.381  24.532  1.00  0.00     0.078 C 
ATOM     12  C   UNL A   1      31.504  23.990  25.051  1.00  0.00     0.026 C 
ATOM     13  N   UNL A   1      32.675  23.862  23.142  1.00  0.00    -0.249 NA
ATOM     14  C   UNL A   1      32.029  23.168  24.144  1.00  0.00     0.049 C 
ATOM     15  C   UNL A   1      31.496  23.542  26.450  1.00  0.00     0.161 C 
ATOM     16  C   UNL A   1      32.333  21.744  24.499  1.00  0.00     0.065 C 
ATOM     17  O   UNL A   1      30.735  24.077  27.252  1.00  0.00    -0.294 OA
ATOM     18  C   UNL A   1      32.520  22.469  26.877  1.00  0.00     0.089 C 
ATOM     19  C   UNL A   1      33.292  21.762  25.710  1.00  0.00     0.033 C 
BRANCH  19  20
ATOM     20  C   UNL A   1      34.677  22.321  25.326  1.00  0.00    -0.044 A 
ATOM     21  C   UNL A   1      35.255  23.383  26.055  1.00  0.00     0.004 A 
ATOM     22  C   UNL A   1      35.421  21.829  24.253  1.00  0.00     0.004 A 
ATOM     23  C   UNL A   1      36.567  23.807  25.845  1.00  0.00     0.000 A 
ATOM     24  C   UNL A   1      36.736  22.266  24.027  1.00  0.00     0.000 A 
ATOM     25  C   UNL A   1      37.320  23.229  24.841  1.00  0.00     0.000 A 
ENDBRANCH  19  20
ENDBRANCH   7   9
ENDBRANCH   6   7
ENDBRANCH   5   6
ENDBRANCH   4   5
ENDBRANCH   3   4
ENDBRANCH   2   3
ENDBRANCH   1   2
BRANCH   1  26
ATOM     26  O   UNL A   1      34.837  32.657  27.630  1.00  0.00    -0.376 OA
BRANCH  26  27
ATOM     27  C   UNL A   1      33.881  33.647  27.988  1.00  0.00     0.202 C 
BRANCH  27  28
ATOM     28  C   UNL A   1      34.264  34.494  29.189  1.00  0.00     0.261 C 
BRANCH  28  29
ATOM     29  O   UNL A   1      33.674  34.026  30.393  1.00  0.00    -0.460 OA
BRANCH  29  30
ATOM     30  C   UNL A   1      34.016  34.736  31.490  1.00  0.00     0.338 C 
ATOM     31  O   UNL A   1      33.749  35.896  31.751  1.00  0.00    -0.246 OA
BRANCH  30  32
ATOM     32  C   UNL A   1      34.916  33.921  32.304  1.00  0.00     0.060 A 
ATOM     33  C   UNL A   1      36.051  34.570  32.796  1.00  0.00     0.016 A 
ATOM     34  C   UNL A   1      34.806  32.523  32.237  1.00  0.00     0.016 A 
ATOM     35  C   UNL A   1      37.194  33.827  32.923  1.00  0.00     0.010 A 
ATOM     36  C   UNL A   1      35.947  31.784  32.354  1.00  0.00     0.010 A 
ATOM     37  C   UNL A   1      37.132  32.480  32.557  1.00  0.00    -0.014 A 
BRANCH  37  38
ATOM     38  C   UNL A   1      38.380  31.838  32.244  1.00  0.00     0.031 A 
ATOM     39  C   UNL A   1      39.252  31.652  33.412  1.00  0.00     0.074 A 
ATOM     40  C   UNL A   1      38.637  31.453  30.981  1.00  0.00     0.049 A 
ATOM     41  N   UNL A   1      40.384  32.221  33.645  1.00  0.00    -0.248 NA
ATOM     42  C   UNL A   1      38.711  30.873  34.535  1.00  0.00     0.031 C 
ATOM     43  C   UNL A   1      37.725  31.390  29.833  1.00  0.00     0.029 A 
ATOM     44  N   UNL A   1      39.787  30.931  30.488  1.00  0.00    -0.354 N 
ATOM     45  C   UNL A   1      40.796  31.716  34.869  1.00  0.00     0.074 A 
ATOM     46  C   UNL A   1      39.661  31.049  35.451  1.00  0.00     0.031 C 
ATOM     47  C   UNL A   1      38.291  30.643  28.857  1.00  0.00     0.029 A 
ATOM     48  C   UNL A   1      39.638  30.292  29.266  1.00  0.00     0.049 A 
ATOM     49  H   UNL A   1      40.651  30.999  30.956  1.00  0.00     0.167 HD
ATOM     50  C   UNL A   1      42.116  31.651  35.182  1.00  0.00     0.037 A 
ATOM     51  C   UNL A   1      40.541  29.422  28.750  1.00  0.00     0.037 A 
ATOM     52  C   UNL A   1      42.897  32.563  34.387  1.00  0.00     0.049 A 
ATOM     53  C   UNL A   1      41.844  29.696  29.427  1.00  0.00     0.074 A 
ATOM     54  C   UNL A   1      42.883  33.935  34.214  1.00  0.00     0.029 A 
ATOM     55  N   UNL A   1      43.601  32.064  33.316  1.00  0.00    -0.354 N 
ATOM     56  N   UNL A   1      42.521  30.802  29.261  1.00  0.00    -0.248 NA
ATOM     57  C   UNL A   1      42.128  28.975  30.663  1.00  0.00     0.031 C 
ATOM     58  C   UNL A   1      43.133  34.137  32.825  1.00  0.00     0.029 A 
ATOM     59  C   UNL A   1      43.344  32.886  32.246  1.00  0.00     0.049 A 
ATOM     60  H   UNL A   1      44.181  31.269  33.317  1.00  0.00     0.167 HD
ATOM     61  C   UNL A   1      43.001  31.124  30.525  1.00  0.00     0.074 A 
ATOM     62  C   UNL A   1      42.776  29.931  31.336  1.00  0.00     0.031 C 
ATOM     63  C   UNL A   1      43.261  32.418  30.883  1.00  0.00     0.037 A 
BRANCH  50  64
ATOM     64  C   UNL A   1      42.711  30.490  35.927  1.00  0.00     0.064 A 
ATOM     65  C   UNL A   1      43.587  30.739  36.997  1.00  0.00     0.173 A 
ATOM     66  C   UNL A   1      42.686  29.159  35.450  1.00  0.00     0.173 A 
ATOM     67  F   UNL A   1      43.707  31.974  37.506  1.00  0.00    -0.203 F 
ATOM     68  C   UNL A   1      44.424  29.742  37.504  1.00  0.00     0.198 A 
ATOM     69  C   UNL A   1      43.478  28.155  35.997  1.00  0.00     0.198 A 
ATOM     70  F   UNL A   1      41.988  28.799  34.366  1.00  0.00    -0.203 F 
ATOM     71  F   UNL A   1      45.333  30.052  38.438  1.00  0.00    -0.200 F 
ATOM     72  C   UNL A   1      44.372  28.454  37.001  1.00  0.00     0.200 A 
ATOM     73  F   UNL A   1      43.424  26.920  35.480  1.00  0.00    -0.200 F 
ATOM     74  F   UNL A   1      45.216  27.514  37.445  1.00  0.00    -0.200 F 
ENDBRANCH  50  64
BRANCH  51  75
ATOM     75  C   UNL A   1      40.226  28.146  28.062  1.00  0.00     0.064 A 
ATOM     76  C   UNL A   1      40.825  27.814  26.839  1.00  0.00     0.173 A 
ATOM     77  C   UNL A   1      39.515  27.113  28.710  1.00  0.00     0.173 A 
ATOM     78  F   UNL A   1      41.565  28.721  26.185  1.00  0.00    -0.203 F 
ATOM     79  C   UNL A   1      40.725  26.526  26.299  1.00  0.00     0.198 A 
ATOM     80  C   UNL A   1      39.406  25.834  28.166  1.00  0.00     0.198 A 
ATOM     81  F   UNL A   1      38.986  27.293  29.929  1.00  0.00    -0.203 F 
ATOM     82  F   UNL A   1      41.354  26.229  25.154  1.00  0.00    -0.200 F 
ATOM     83  C   UNL A   1      40.019  25.535  26.966  1.00  0.00     0.200 A 
ATOM     84  F   UNL A   1      38.751  24.879  28.842  1.00  0.00    -0.200 F 
ATOM     85  F   UNL A   1      39.965  24.291  26.475  1.00  0.00    -0.200 F 
ENDBRANCH  51  75
BRANCH  63  86
ATOM     86  C   UNL A   1      43.203  33.469  29.809  1.00  0.00     0.064 A 
ATOM     87  C   UNL A   1      42.046  34.212  29.514  1.00  0.00     0.173 A 
ATOM     88  C   UNL A   1      44.390  33.851  29.174  1.00  0.00     0.173 A 
ATOM     89  F   UNL A   1      40.899  33.984  30.165  1.00  0.00    -0.203 F 
ATOM     90  C   UNL A   1      42.069  35.255  28.588  1.00  0.00     0.198 A 
ATOM     91  C   UNL A   1      44.420  34.915  28.275  1.00  0.00     0.198 A 
ATOM     92  F   UNL A   1      45.540  33.221  29.464  1.00  0.00    -0.203 F 
ATOM     93  F   UNL A   1      40.949  35.941  28.319  1.00  0.00    -0.200 F 
ATOM     94  C   UNL A   1      43.258  35.609  27.974  1.00  0.00     0.200 A 
ATOM     95  F   UNL A   1      45.583  35.289  27.724  1.00  0.00    -0.200 F 
ATOM     96  F   UNL A   1      43.292  36.638  27.116  1.00  0.00    -0.200 F 
ENDBRANCH  63  86
ENDBRANCH  37  38
ENDBRANCH  30  32
ENDBRANCH  29  30
ENDBRANCH  28  29
ENDBRANCH  27  28
ENDBRANCH  26  27
ENDBRANCH   1  26
TORSDOF 18
ENDMDL
MODEL 3
REMARK VINA RESULT:     -11.6      2.755      3.984
REMARK SMILES C[C@@H]1C(C(=O)OCCOCCOCCOC(=O)c2ccc(-c3c4nc(c(-c5c(F)c(F)c(F)c(F)c5F)c5ccc([nH]5)c(-c5c(F)c(F)c(F)c(F)c5F)c5nc(c(-c6c(F)c(F)c(F)c(F)c6F)c6ccc3[nH]6)C=C5)C=C4)cc2)=NC2=C1C(=O)C[C@H](c1ccccc1)C2
REMARK SMILES IDX 11 1 10 2 9 3 8 4 7 5 6 6 4 7 5 8 3 9 1 10 2 11 83 12 81 13
REMARK SMILES IDX 82 14 84 15 94 16 85 17 86 18 87 19 88 20 89 21 93 22 90 23
REMARK SMILES IDX 92 24 91 25 12 26 13 27 14 28 15 29 16 30 17 31 18 32 19 33
REMARK SMILES IDX 80 34 20 35 79 36 21 37 22 38 23 39 73 40 24 41 78 42 72 43
REMARK SMILES IDX 74 44 25 45 77 46 71 47 70 48 26 50 58 51 38 52 57 53 39 54
REMARK SMILES IDX 42 55 56 56 75 57 40 58 41 59 55 61 76 62 43 63 27 64 28 65
REMARK SMILES IDX 36 66 29 67 30 68 34 69 37 70 31 71 32 72 35 73 33 74 59 75
REMARK SMILES IDX 60 76 68 77 61 78 62 79 66 80 69 81 63 82 64 83 67 84 65 85
REMARK SMILES IDX 44 86 45 87 53 88 46 89 47 90 51 91 54 92 48 93 49 94 52 95
REMARK SMILES IDX 50 96
REMARK H PARENT 74 49 42 60
REMARK Flexibility Score: inf
ROOT
ATOM      1  C   UNL A   1      40.517  21.748  26.920  1.00  0.00     0.188 C 
ENDROOT
BRANCH   1   2
ATOM      2  C   UNL A   1      39.293  22.531  26.499  1.00  0.00     0.188 C 
BRANCH   2   3
ATOM      3  O   UNL A   1      38.409  21.826  25.646  1.00  0.00    -0.376 OA
BRANCH   3   4
ATOM      4  C   UNL A   1      37.073  22.336  25.575  1.00  0.00     0.202 C 
BRANCH   4   5
ATOM      5  C   UNL A   1      36.708  23.730  26.157  1.00  0.00     0.261 C 
BRANCH   5   6
ATOM      6  O   UNL A   1      35.330  24.145  25.995  1.00  0.00    -0.459 OA
BRANCH   6   7
ATOM      7  C   UNL A   1      34.318  23.345  26.386  1.00  0.00     0.353 C 
ATOM      8  O   UNL A   1      34.166  22.874  27.497  1.00  0.00    -0.245 OA
BRANCH   7   9
ATOM      9  C   UNL A   1      33.254  23.308  25.268  1.00  0.00     0.133 C 
ATOM     10  C   UNL A   1      33.312  21.396  23.657  1.00  0.00     0.020 C 
ATOM     11  C   UNL A   1      33.615  22.880  23.849  1.00  0.00     0.078 C 
ATOM     12  C   UNL A   1      32.554  23.728  23.246  1.00  0.00     0.026 C 
ATOM     13  N   UNL A   1      32.028  23.744  25.426  1.00  0.00    -0.249 NA
ATOM     14  C   UNL A   1      31.609  24.011  24.140  1.00  0.00     0.049 C 
ATOM     15  C   UNL A   1      32.647  24.590  22.059  1.00  0.00     0.161 C 
ATOM     16  C   UNL A   1      30.518  24.983  23.806  1.00  0.00     0.065 C 
ATOM     17  O   UNL A   1      33.240  24.185  21.063  1.00  0.00    -0.294 OA
ATOM     18  C   UNL A   1      32.066  26.017  22.149  1.00  0.00     0.089 C 
ATOM     19  C   UNL A   1      31.189  26.318  23.413  1.00  0.00     0.033 C 
BRANCH  19  20
ATOM     20  C   UNL A   1      31.880  26.981  24.621  1.00  0.00    -0.044 A 
ATOM     21  C   UNL A   1      31.147  27.309  25.782  1.00  0.00     0.004 A 
ATOM     22  C   UNL A   1      33.239  27.300  24.635  1.00  0.00     0.004 A 
ATOM     23  C   UNL A   1      31.761  27.758  26.952  1.00  0.00     0.000 A 
ATOM     24  C   UNL A   1      33.857  27.768  25.805  1.00  0.00     0.000 A 
ATOM     25  C   UNL A   1      33.127  27.966  26.971  1.00  0.00     0.000 A 
ENDBRANCH  19  20
ENDBRANCH   7   9
ENDBRANCH   6   7
ENDBRANCH   5   6
ENDBRANCH   4   5
ENDBRANCH   3   4
ENDBRANCH   2   3
ENDBRANCH   1   2
BRANCH   1  26
ATOM     26  O   UNL A   1      40.310  20.344  27.030  1.00  0.00    -0.376 OA
BRANCH  26  27
ATOM     27  C   UNL A   1      41.016  19.510  26.122  1.00  0.00     0.202 C 
BRANCH  27  28
ATOM     28  C   UNL A   1      42.445  19.194  26.528  1.00  0.00     0.261 C 
BRANCH  28  29
ATOM     29  O   UNL A   1      43.301  20.321  26.420  1.00  0.00    -0.460 OA
BRANCH  29  30
ATOM     30  C   UNL A   1      43.901  20.447  25.217  1.00  0.00     0.338 C 
ATOM     31  O   UNL A   1      44.129  19.579  24.392  1.00  0.00    -0.246 OA
BRANCH  30  32
ATOM     32  C   UNL A   1      44.390  21.819  25.087  1.00  0.00     0.060 A 
ATOM     33  C   UNL A   1      45.478  22.159  25.895  1.00  0.00     0.016 A 
ATOM     34  C   UNL A   1      43.558  22.777  24.486  1.00  0.00     0.016 A 
ATOM     35  C   UNL A   1      45.541  23.447  26.356  1.00  0.00     0.010 A 
ATOM     36  C   UNL A   1      43.614  24.059  24.953  1.00  0.00     0.010 A 
ATOM     37  C   UNL A   1      44.516  24.318  25.978  1.00  0.00    -0.014 A 
BRANCH  37  38
ATOM     38  C   UNL A   1      44.319  25.480  26.802  1.00  0.00     0.031 A 
ATOM     39  C   UNL A   1      45.356  26.505  26.625  1.00  0.00     0.074 A 
ATOM     40  C   UNL A   1      43.248  25.553  27.612  1.00  0.00     0.049 A 
ATOM     41  N   UNL A   1      46.240  26.885  27.483  1.00  0.00    -0.248 NA
ATOM     42  C   UNL A   1      45.542  27.045  25.271  1.00  0.00     0.031 C 
ATOM     43  C   UNL A   1      42.065  24.685  27.657  1.00  0.00     0.029 A 
ATOM     44  N   UNL A   1      42.958  26.514  28.522  1.00  0.00    -0.354 N 
ATOM     45  C   UNL A   1      46.977  27.863  26.834  1.00  0.00     0.074 A 
ATOM     46  C   UNL A   1      46.635  27.787  25.438  1.00  0.00     0.031 C 
ATOM     47  C   UNL A   1      41.094  25.297  28.372  1.00  0.00     0.029 A 
ATOM     48  C   UNL A   1      41.632  26.523  28.931  1.00  0.00     0.049 A 
ATOM     49  H   UNL A   1      43.628  27.150  28.864  1.00  0.00     0.167 HD
ATOM     50  C   UNL A   1      47.606  28.839  27.538  1.00  0.00     0.037 A 
ATOM     51  C   UNL A   1      41.037  27.569  29.553  1.00  0.00     0.037 A 
ATOM     52  C   UNL A   1      47.819  28.452  28.909  1.00  0.00     0.049 A 
ATOM     53  C   UNL A   1      42.128  28.398  30.150  1.00  0.00     0.074 A 
ATOM     54  C   UNL A   1      48.499  27.410  29.514  1.00  0.00     0.029 A 
ATOM     55  N   UNL A   1      46.970  28.946  29.871  1.00  0.00    -0.354 N 
ATOM     56  N   UNL A   1      42.885  27.988  31.134  1.00  0.00    -0.248 NA
ATOM     57  C   UNL A   1      42.704  29.452  29.322  1.00  0.00     0.031 C 
ATOM     58  C   UNL A   1      47.680  27.023  30.615  1.00  0.00     0.029 A 
ATOM     59  C   UNL A   1      46.584  27.884  30.652  1.00  0.00     0.049 A 
ATOM     60  H   UNL A   1      46.692  29.883  29.980  1.00  0.00     0.167 HD
ATOM     61  C   UNL A   1      44.164  28.429  30.814  1.00  0.00     0.074 A 
ATOM     62  C   UNL A   1      43.979  29.374  29.717  1.00  0.00     0.031 C 
ATOM     63  C   UNL A   1      45.277  27.771  31.256  1.00  0.00     0.037 A 
BRANCH  50  64
ATOM     64  C   UNL A   1      47.664  30.264  27.066  1.00  0.00     0.064 A 
ATOM     65  C   UNL A   1      48.888  30.951  27.110  1.00  0.00     0.173 A 
ATOM     66  C   UNL A   1      46.517  31.063  26.850  1.00  0.00     0.173 A 
ATOM     67  F   UNL A   1      50.033  30.290  27.338  1.00  0.00    -0.203 F 
ATOM     68  C   UNL A   1      48.950  32.343  27.013  1.00  0.00     0.198 A 
ATOM     69  C   UNL A   1      46.589  32.443  26.694  1.00  0.00     0.198 A 
ATOM     70  F   UNL A   1      45.276  30.564  26.897  1.00  0.00    -0.203 F 
ATOM     71  F   UNL A   1      50.121  32.969  27.188  1.00  0.00    -0.200 F 
ATOM     72  C   UNL A   1      47.801  33.087  26.810  1.00  0.00     0.200 A 
ATOM     73  F   UNL A   1      45.460  33.145  26.518  1.00  0.00    -0.200 F 
ATOM     74  F   UNL A   1      47.851  34.425  26.779  1.00  0.00    -0.200 F 
ENDBRANCH  50  64
BRANCH  51  75
ATOM     75  C   UNL A   1      39.672  28.083  29.281  1.00  0.00     0.064 A 
ATOM     76  C   UNL A   1      38.725  28.206  30.308  1.00  0.00     0.173 A 
ATOM     77  C   UNL A   1      39.344  28.696  28.053  1.00  0.00     0.173 A 
ATOM     78  F   UNL A   1      38.982  27.701  31.524  1.00  0.00    -0.203 F 
ATOM     79  C   UNL A   1      37.526  28.904  30.119  1.00  0.00     0.198 A 
ATOM     80  C   UNL A   1      38.144  29.381  27.862  1.00  0.00     0.198 A 
ATOM     81  F   UNL A   1      40.217  28.723  27.036  1.00  0.00    -0.203 F 
ATOM     82  F   UNL A   1      36.667  29.046  31.138  1.00  0.00    -0.200 F 
ATOM     83  C   UNL A   1      37.239  29.495  28.898  1.00  0.00     0.200 A 
ATOM     84  F   UNL A   1      37.900  29.977  26.687  1.00  0.00    -0.200 F 
ATOM     85  F   UNL A   1      36.115  30.204  28.732  1.00  0.00    -0.200 F 
ENDBRANCH  51  75
BRANCH  63  86
ATOM     86  C   UNL A   1      45.091  26.671  32.264  1.00  0.00     0.064 A 
ATOM     87  C   UNL A   1      44.820  25.336  31.913  1.00  0.00     0.173 A 
ATOM     88  C   UNL A   1      45.355  26.939  33.612  1.00  0.00     0.173 A 
ATOM     89  F   UNL A   1      44.671  24.981  30.631  1.00  0.00    -0.203 F 
ATOM     90  C   UNL A   1      44.767  24.329  32.876  1.00  0.00     0.198 A 
ATOM     91  C   UNL A   1      45.336  25.926  34.568  1.00  0.00     0.198 A 
ATOM     92  F   UNL A   1      45.683  28.182  33.998  1.00  0.00    -0.203 F 
ATOM     93  F   UNL A   1      44.497  23.066  32.513  1.00  0.00    -0.200 F 
ATOM     94  C   UNL A   1      45.031  24.624  34.202  1.00  0.00     0.200 A 
ATOM     95  F   UNL A   1      45.645  26.206  35.842  1.00  0.00    -0.200 F 
ATOM     96  F   UNL A   1      45.023  23.650  35.123  1.00  0.00    -0.200 F 
ENDBRANCH  63  86
ENDBRANCH  37  38
ENDBRANCH  30  32
ENDBRANCH  29  30
ENDBRANCH  28  29
ENDBRANCH  27  28
ENDBRANCH  26  27
ENDBRANCH   1  26
TORSDOF 18
ENDMDL
