MODEL 1
REMARK VINA RESULT:     -12.1      0.000      0.000
REMARK SMILES Cc1cc(C)c2c(C(=O)OCCOCCOCCOC(=O)c3ccc(-c4c5nc(c(-c6c(F)c(F)c(F)c(F)c6F)c6ccc([nH]6)c(-c6c(F)c(F)c(F)c(F)c6F)c6nc(c(-c7c(F)c(F)c(F)c(F)c7F)c7ccc4[nH]7)C=C6)C=C5)cc3)cc(-c3ccco3)nc2c1
REMARK SMILES IDX 15 1 14 2 13 3 12 4 11 5 10 6 8 7 9 8 7 9 1 10 2 11 3 12
REMARK SMILES IDX 94 13 4 14 93 15 5 16 6 17 92 18 86 19 85 20 87 21 88 22
REMARK SMILES IDX 91 23 89 24 90 25 16 26 17 27 18 28 19 29 20 30 21 31 22 32
REMARK SMILES IDX 23 33 84 34 24 35 83 36 25 37 26 38 27 39 77 40 28 41 82 42
REMARK SMILES IDX 76 43 78 44 29 45 81 46 75 47 74 48 30 50 62 51 42 52 61 53
REMARK SMILES IDX 43 54 46 55 60 56 79 57 44 58 45 59 59 61 80 62 47 63 31 64
REMARK SMILES IDX 32 65 40 66 33 67 34 68 38 69 41 70 35 71 36 72 39 73 37 74
REMARK SMILES IDX 63 75 64 76 72 77 65 78 66 79 70 80 73 81 67 82 68 83 71 84
REMARK SMILES IDX 69 85 48 86 49 87 57 88 50 89 51 90 55 91 58 92 52 93 53 94
REMARK SMILES IDX 56 95 54 96
REMARK H PARENT 78 49 46 60
REMARK Flexibility Score: inf
ROOT
ATOM      1  C   UNL A   1      32.858  27.930  25.494  1.00  0.00     0.188 C 
ENDROOT
BRANCH   1   2
ATOM      2  C   UNL A   1      32.143  27.491  26.793  1.00  0.00     0.188 C 
BRANCH   2   3
ATOM      3  O   UNL A   1      31.148  26.477  26.750  1.00  0.00    -0.376 OA
BRANCH   3   4
ATOM      4  C   UNL A   1      31.548  25.143  26.450  1.00  0.00     0.202 C 
BRANCH   4   5
ATOM      5  C   UNL A   1      30.814  24.468  25.295  1.00  0.00     0.261 C 
BRANCH   5   6
ATOM      6  O   UNL A   1      31.278  23.114  25.179  1.00  0.00    -0.460 OA
BRANCH   6   7
ATOM      7  C   UNL A   1      31.911  22.803  24.034  1.00  0.00     0.338 C 
ATOM      8  O   UNL A   1      31.702  23.293  22.935  1.00  0.00    -0.246 OA
BRANCH   7   9
ATOM      9  C   UNL A   1      33.080  21.955  24.336  1.00  0.00     0.072 A 
ATOM     10  C   UNL A   1      38.335  23.359  26.244  1.00  0.00     0.044 C 
ATOM     11  C   UNL A   1      36.990  23.060  25.658  1.00  0.00    -0.049 A 
ATOM     12  C   UNL A   1      36.196  24.066  25.126  1.00  0.00     0.007 A 
ATOM     13  C   UNL A   1      36.524  21.749  25.595  1.00  0.00     0.032 A 
ATOM     14  C   UNL A   1      34.910  23.789  24.624  1.00  0.00    -0.041 A 
ATOM     15  C   UNL A   1      35.271  21.425  25.100  1.00  0.00     0.072 A 
ATOM     16  C   UNL A   1      34.196  24.953  23.986  1.00  0.00     0.045 C 
ATOM     17  C   UNL A   1      34.387  22.442  24.665  1.00  0.00     0.018 A 
ATOM     18  N   UNL A   1      34.988  20.115  25.085  1.00  0.00    -0.244 NA
ATOM     19  C   UNL A   1      33.765  19.709  24.705  1.00  0.00     0.107 A 
ATOM     20  C   UNL A   1      32.772  20.587  24.349  1.00  0.00     0.048 A 
BRANCH  19  21
ATOM     21  C   UNL A   1      33.576  18.274  24.670  1.00  0.00     0.152 A 
ATOM     22  C   UNL A   1      32.867  17.384  25.450  1.00  0.00     0.052 A 
ATOM     23  O   UNL A   1      34.202  17.608  23.657  1.00  0.00    -0.463 OA
ATOM     24  C   UNL A   1      33.072  16.101  24.884  1.00  0.00     0.043 A 
ATOM     25  C   UNL A   1      33.877  16.296  23.785  1.00  0.00     0.196 A 
ENDBRANCH  19  21
ENDBRANCH   7   9
ENDBRANCH   6   7
ENDBRANCH   5   6
ENDBRANCH   4   5
ENDBRANCH   3   4
ENDBRANCH   2   3
ENDBRANCH   1   2
BRANCH   1  26
ATOM     26  O   UNL A   1      32.800  29.280  25.068  1.00  0.00    -0.376 OA
BRANCH  26  27
ATOM     27  C   UNL A   1      31.594  30.008  25.276  1.00  0.00     0.202 C 
BRANCH  27  28
ATOM     28  C   UNL A   1      31.642  31.201  26.232  1.00  0.00     0.261 C 
BRANCH  28  29
ATOM     29  O   UNL A   1      32.641  31.028  27.252  1.00  0.00    -0.460 OA
BRANCH  29  30
ATOM     30  C   UNL A   1      33.410  32.113  27.501  1.00  0.00     0.338 C 
ATOM     31  O   UNL A   1      33.075  33.283  27.512  1.00  0.00    -0.246 OA
BRANCH  30  32
ATOM     32  C   UNL A   1      34.737  31.661  27.951  1.00  0.00     0.060 A 
ATOM     33  C   UNL A   1      34.900  30.310  28.282  1.00  0.00     0.016 A 
ATOM     34  C   UNL A   1      35.784  32.569  28.105  1.00  0.00     0.016 A 
ATOM     35  C   UNL A   1      36.116  29.865  28.794  1.00  0.00     0.010 A 
ATOM     36  C   UNL A   1      36.989  32.130  28.657  1.00  0.00     0.010 A 
ATOM     37  C   UNL A   1      37.145  30.784  29.033  1.00  0.00    -0.014 A 
BRANCH  37  38
ATOM     38  C   UNL A   1      38.288  30.381  29.881  1.00  0.00     0.031 A 
ATOM     39  C   UNL A   1      39.278  29.402  29.313  1.00  0.00     0.074 A 
ATOM     40  C   UNL A   1      38.459  30.889  31.111  1.00  0.00     0.049 A 
ATOM     41  N   UNL A   1      40.327  28.861  29.875  1.00  0.00    -0.248 NA
ATOM     42  C   UNL A   1      39.060  28.987  27.916  1.00  0.00     0.031 C 
ATOM     43  C   UNL A   1      37.610  31.901  31.734  1.00  0.00     0.029 A 
ATOM     44  N   UNL A   1      39.412  30.615  32.059  1.00  0.00    -0.354 N 
ATOM     45  C   UNL A   1      40.898  28.054  28.902  1.00  0.00     0.074 A 
ATOM     46  C   UNL A   1      40.073  28.157  27.719  1.00  0.00     0.031 C 
ATOM     47  C   UNL A   1      38.072  32.150  32.972  1.00  0.00     0.029 A 
ATOM     48  C   UNL A   1      39.225  31.291  33.238  1.00  0.00     0.049 A 
ATOM     49  H   UNL A   1      40.160  29.990  31.908  1.00  0.00     0.167 HD
ATOM     50  C   UNL A   1      42.015  27.296  28.987  1.00  0.00     0.037 A 
ATOM     51  C   UNL A   1      39.896  31.200  34.403  1.00  0.00     0.037 A 
ATOM     52  C   UNL A   1      42.812  27.165  30.175  1.00  0.00     0.049 A 
ATOM     53  C   UNL A   1      41.058  30.246  34.513  1.00  0.00     0.074 A 
ATOM     54  C   UNL A   1      43.946  26.398  30.372  1.00  0.00     0.029 A 
ATOM     55  N   UNL A   1      42.548  27.809  31.374  1.00  0.00    -0.354 N 
ATOM     56  N   UNL A   1      41.593  29.481  33.593  1.00  0.00    -0.248 NA
ATOM     57  C   UNL A   1      41.706  30.139  35.830  1.00  0.00     0.031 C 
ATOM     58  C   UNL A   1      44.341  26.541  31.706  1.00  0.00     0.029 A 
ATOM     59  C   UNL A   1      43.483  27.437  32.324  1.00  0.00     0.049 A 
ATOM     60  H   UNL A   1      41.805  28.437  31.527  1.00  0.00     0.167 HD
ATOM     61  C   UNL A   1      42.649  28.821  34.208  1.00  0.00     0.074 A 
ATOM     62  C   UNL A   1      42.688  29.283  35.580  1.00  0.00     0.031 C 
ATOM     63  C   UNL A   1      43.509  27.912  33.684  1.00  0.00     0.037 A 
BRANCH  50  64
ATOM     64  C   UNL A   1      42.421  26.527  27.767  1.00  0.00     0.064 A 
ATOM     65  C   UNL A   1      43.373  27.031  26.869  1.00  0.00     0.173 A 
ATOM     66  C   UNL A   1      41.880  25.258  27.513  1.00  0.00     0.173 A 
ATOM     67  F   UNL A   1      43.901  28.249  27.059  1.00  0.00    -0.203 F 
ATOM     68  C   UNL A   1      43.761  26.294  25.753  1.00  0.00     0.198 A 
ATOM     69  C   UNL A   1      42.289  24.515  26.410  1.00  0.00     0.198 A 
ATOM     70  F   UNL A   1      40.964  24.735  28.341  1.00  0.00    -0.203 F 
ATOM     71  F   UNL A   1      44.648  26.809  24.889  1.00  0.00    -0.200 F 
ATOM     72  C   UNL A   1      43.226  25.035  25.529  1.00  0.00     0.200 A 
ATOM     73  F   UNL A   1      41.776  23.296  26.198  1.00  0.00    -0.200 F 
ATOM     74  F   UNL A   1      43.609  24.323  24.460  1.00  0.00    -0.200 F 
ENDBRANCH  50  64
BRANCH  51  75
ATOM     75  C   UNL A   1      39.476  32.023  35.567  1.00  0.00     0.064 A 
ATOM     76  C   UNL A   1      38.530  31.546  36.483  1.00  0.00     0.173 A 
ATOM     77  C   UNL A   1      40.000  33.307  35.778  1.00  0.00     0.173 A 
ATOM     78  F   UNL A   1      37.977  30.337  36.305  1.00  0.00    -0.203 F 
ATOM     79  C   UNL A   1      38.118  32.324  37.564  1.00  0.00     0.198 A 
ATOM     80  C   UNL A   1      39.606  34.075  36.873  1.00  0.00     0.198 A 
ATOM     81  F   UNL A   1      40.901  33.814  34.925  1.00  0.00    -0.203 F 
ATOM     82  F   UNL A   1      37.183  31.858  38.404  1.00  0.00    -0.200 F 
ATOM     83  C   UNL A   1      38.661  33.584  37.762  1.00  0.00     0.200 A 
ATOM     84  F   UNL A   1      40.138  35.289  37.064  1.00  0.00    -0.200 F 
ATOM     85  F   UNL A   1      38.268  34.330  38.803  1.00  0.00    -0.200 F 
ENDBRANCH  51  75
BRANCH  63  86
ATOM     86  C   UNL A   1      44.584  27.371  34.580  1.00  0.00     0.064 A 
ATOM     87  C   UNL A   1      45.807  28.038  34.743  1.00  0.00     0.173 A 
ATOM     88  C   UNL A   1      44.356  26.217  35.346  1.00  0.00     0.173 A 
ATOM     89  F   UNL A   1      46.076  29.139  34.024  1.00  0.00    -0.203 F 
ATOM     90  C   UNL A   1      46.767  27.562  35.631  1.00  0.00     0.198 A 
ATOM     91  C   UNL A   1      45.307  25.760  36.253  1.00  0.00     0.198 A 
ATOM     92  F   UNL A   1      43.199  25.549  35.234  1.00  0.00    -0.203 F 
ATOM     93  F   UNL A   1      47.942  28.197  35.749  1.00  0.00    -0.200 F 
ATOM     94  C   UNL A   1      46.513  26.430  36.393  1.00  0.00     0.200 A 
ATOM     95  F   UNL A   1      45.052  24.677  37.000  1.00  0.00    -0.200 F 
ATOM     96  F   UNL A   1      47.431  25.985  37.261  1.00  0.00    -0.200 F 
ENDBRANCH  63  86
ENDBRANCH  37  38
ENDBRANCH  30  32
ENDBRANCH  29  30
ENDBRANCH  28  29
ENDBRANCH  27  28
ENDBRANCH  26  27
ENDBRANCH   1  26
TORSDOF 18
ENDMDL
MODEL 2
REMARK VINA RESULT:     -12.1      4.213     10.270
REMARK SMILES Cc1cc(C)c2c(C(=O)OCCOCCOCCOC(=O)c3ccc(-c4c5nc(c(-c6c(F)c(F)c(F)c(F)c6F)c6ccc([nH]6)c(-c6c(F)c(F)c(F)c(F)c6F)c6nc(c(-c7c(F)c(F)c(F)c(F)c7F)c7ccc4[nH]7)C=C6)C=C5)cc3)cc(-c3ccco3)nc2c1
REMARK SMILES IDX 15 1 14 2 13 3 12 4 11 5 10 6 8 7 9 8 7 9 1 10 2 11 3 12
REMARK SMILES IDX 94 13 4 14 93 15 5 16 6 17 92 18 86 19 85 20 87 21 88 22
REMARK SMILES IDX 91 23 89 24 90 25 16 26 17 27 18 28 19 29 20 30 21 31 22 32
REMARK SMILES IDX 23 33 84 34 24 35 83 36 25 37 26 38 27 39 77 40 28 41 82 42
REMARK SMILES IDX 76 43 78 44 29 45 81 46 75 47 74 48 30 50 62 51 42 52 61 53
REMARK SMILES IDX 43 54 46 55 60 56 79 57 44 58 45 59 59 61 80 62 47 63 31 64
REMARK SMILES IDX 32 65 40 66 33 67 34 68 38 69 41 70 35 71 36 72 39 73 37 74
REMARK SMILES IDX 63 75 64 76 72 77 65 78 66 79 70 80 73 81 67 82 68 83 71 84
REMARK SMILES IDX 69 85 48 86 49 87 57 88 50 89 51 90 55 91 58 92 52 93 53 94
REMARK SMILES IDX 56 95 54 96
REMARK H PARENT 78 49 46 60
REMARK Flexibility Score: inf
ROOT
ATOM      1  C   UNL A   1      33.431  19.721  25.194  1.00  0.00     0.188 C 
ENDROOT
BRANCH   1   2
ATOM      2  C   UNL A   1      32.335  20.809  25.120  1.00  0.00     0.188 C 
BRANCH   2   3
ATOM      3  O   UNL A   1      32.304  21.715  24.026  1.00  0.00    -0.376 OA
BRANCH   3   4
ATOM      4  C   UNL A   1      32.693  23.068  24.251  1.00  0.00     0.202 C 
BRANCH   4   5
ATOM      5  C   UNL A   1      32.889  23.474  25.708  1.00  0.00     0.261 C 
BRANCH   5   6
ATOM      6  O   UNL A   1      32.973  24.905  25.783  1.00  0.00    -0.460 OA
BRANCH   6   7
ATOM      7  C   UNL A   1      31.871  25.539  26.224  1.00  0.00     0.338 C 
ATOM      8  O   UNL A   1      31.046  25.097  27.008  1.00  0.00    -0.246 OA
BRANCH   7   9
ATOM      9  C   UNL A   1      31.927  26.957  25.819  1.00  0.00     0.072 A 
ATOM     10  C   UNL A   1      28.461  30.007  22.366  1.00  0.00     0.044 C 
ATOM     11  C   UNL A   1      29.382  29.146  23.175  1.00  0.00    -0.049 A 
ATOM     12  C   UNL A   1      29.314  27.761  23.114  1.00  0.00     0.007 A 
ATOM     13  C   UNL A   1      30.364  29.723  23.977  1.00  0.00     0.032 A 
ATOM     14  C   UNL A   1      30.145  26.956  23.917  1.00  0.00    -0.041 A 
ATOM     15  C   UNL A   1      31.213  28.973  24.774  1.00  0.00     0.072 A 
ATOM     16  C   UNL A   1      30.037  25.471  23.679  1.00  0.00     0.045 C 
ATOM     17  C   UNL A   1      31.085  27.564  24.830  1.00  0.00     0.018 A 
ATOM     18  N   UNL A   1      32.118  29.682  25.463  1.00  0.00    -0.244 NA
ATOM     19  C   UNL A   1      32.927  29.052  26.331  1.00  0.00     0.107 A 
ATOM     20  C   UNL A   1      32.853  27.701  26.564  1.00  0.00     0.048 A 
BRANCH  19  21
ATOM     21  C   UNL A   1      33.906  29.895  26.985  1.00  0.00     0.152 A 
ATOM     22  C   UNL A   1      35.223  29.721  27.355  1.00  0.00     0.052 A 
ATOM     23  O   UNL A   1      33.491  31.150  27.320  1.00  0.00    -0.463 OA
ATOM     24  C   UNL A   1      35.638  30.937  27.950  1.00  0.00     0.043 A 
ATOM     25  C   UNL A   1      34.552  31.780  27.888  1.00  0.00     0.196 A 
ENDBRANCH  19  21
ENDBRANCH   7   9
ENDBRANCH   6   7
ENDBRANCH   5   6
ENDBRANCH   4   5
ENDBRANCH   3   4
ENDBRANCH   2   3
ENDBRANCH   1   2
BRANCH   1  26
ATOM     26  O   UNL A   1      34.711  19.958  24.635  1.00  0.00    -0.376 OA
BRANCH  26  27
ATOM     27  C   UNL A   1      35.546  20.941  25.237  1.00  0.00     0.202 C 
BRANCH  27  28
ATOM     28  C   UNL A   1      37.059  20.747  25.136  1.00  0.00     0.261 C 
BRANCH  28  29
ATOM     29  O   UNL A   1      37.778  21.867  25.679  1.00  0.00    -0.460 OA
BRANCH  29  30
ATOM     30  C   UNL A   1      39.029  21.596  26.119  1.00  0.00     0.338 C 
ATOM     31  O   UNL A   1      39.686  20.588  25.938  1.00  0.00    -0.246 OA
BRANCH  30  32
ATOM     32  C   UNL A   1      39.590  22.811  26.733  1.00  0.00     0.060 A 
ATOM     33  C   UNL A   1      39.082  24.053  26.330  1.00  0.00     0.016 A 
ATOM     34  C   UNL A   1      40.644  22.728  27.643  1.00  0.00     0.016 A 
ATOM     35  C   UNL A   1      39.649  25.225  26.823  1.00  0.00     0.010 A 
ATOM     36  C   UNL A   1      41.237  23.904  28.105  1.00  0.00     0.010 A 
ATOM     37  C   UNL A   1      40.761  25.154  27.670  1.00  0.00    -0.014 A 
BRANCH  37  38
ATOM     38  C   UNL A   1      41.561  26.375  27.913  1.00  0.00     0.031 A 
ATOM     39  C   UNL A   1      40.925  27.493  28.691  1.00  0.00     0.074 A 
ATOM     40  C   UNL A   1      42.827  26.479  27.479  1.00  0.00     0.049 A 
ATOM     41  N   UNL A   1      41.400  28.674  28.987  1.00  0.00    -0.248 NA
ATOM     42  C   UNL A   1      39.572  27.237  29.216  1.00  0.00     0.031 C 
ATOM     43  C   UNL A   1      43.571  25.432  26.784  1.00  0.00     0.029 A 
ATOM     44  N   UNL A   1      43.708  27.527  27.559  1.00  0.00    -0.354 N 
ATOM     45  C   UNL A   1      40.414  29.295  29.740  1.00  0.00     0.074 A 
ATOM     46  C   UNL A   1      39.304  28.374  29.840  1.00  0.00     0.031 C 
ATOM     47  C   UNL A   1      44.797  25.900  26.485  1.00  0.00     0.029 A 
ATOM     48  C   UNL A   1      44.906  27.286  26.936  1.00  0.00     0.049 A 
ATOM     49  H   UNL A   1      43.499  28.373  28.019  1.00  0.00     0.167 HD
ATOM     50  C   UNL A   1      40.434  30.526  30.300  1.00  0.00     0.037 A 
ATOM     51  C   UNL A   1      45.956  28.107  26.733  1.00  0.00     0.037 A 
ATOM     52  C   UNL A   1      41.521  31.455  30.166  1.00  0.00     0.049 A 
ATOM     53  C   UNL A   1      45.899  29.521  27.253  1.00  0.00     0.074 A 
ATOM     54  C   UNL A   1      41.625  32.739  30.671  1.00  0.00     0.029 A 
ATOM     55  N   UNL A   1      42.690  31.202  29.464  1.00  0.00    -0.354 N 
ATOM     56  N   UNL A   1      44.963  30.107  27.959  1.00  0.00    -0.248 NA
ATOM     57  C   UNL A   1      47.044  30.390  26.940  1.00  0.00     0.031 C 
ATOM     58  C   UNL A   1      42.838  33.281  30.234  1.00  0.00     0.029 A 
ATOM     59  C   UNL A   1      43.511  32.316  29.500  1.00  0.00     0.049 A 
ATOM     60  H   UNL A   1      42.903  30.357  29.007  1.00  0.00     0.167 HD
ATOM     61  C   UNL A   1      45.413  31.401  28.194  1.00  0.00     0.074 A 
ATOM     62  C   UNL A   1      46.712  31.512  27.564  1.00  0.00     0.031 C 
ATOM     63  C   UNL A   1      44.804  32.406  28.871  1.00  0.00     0.037 A 
BRANCH  50  64
ATOM     64  C   UNL A   1      39.228  30.947  31.083  1.00  0.00     0.064 A 
ATOM     65  C   UNL A   1      38.204  31.706  30.497  1.00  0.00     0.173 A 
ATOM     66  C   UNL A   1      39.077  30.556  32.422  1.00  0.00     0.173 A 
ATOM     67  F   UNL A   1      38.315  32.121  29.226  1.00  0.00    -0.203 F 
ATOM     68  C   UNL A   1      37.076  32.068  31.229  1.00  0.00     0.198 A 
ATOM     69  C   UNL A   1      37.937  30.900  33.141  1.00  0.00     0.198 A 
ATOM     70  F   UNL A   1      40.030  29.833  33.027  1.00  0.00    -0.203 F 
ATOM     71  F   UNL A   1      36.125  32.822  30.659  1.00  0.00    -0.200 F 
ATOM     72  C   UNL A   1      36.939  31.658  32.546  1.00  0.00     0.200 A 
ATOM     73  F   UNL A   1      37.803  30.497  34.412  1.00  0.00    -0.200 F 
ATOM     74  F   UNL A   1      35.848  31.998  33.245  1.00  0.00    -0.200 F 
ENDBRANCH  50  64
BRANCH  51  75
ATOM     75  C   UNL A   1      47.145  27.619  25.989  1.00  0.00     0.064 A 
ATOM     76  C   UNL A   1      47.204  27.700  24.591  1.00  0.00     0.173 A 
ATOM     77  C   UNL A   1      48.240  27.049  26.657  1.00  0.00     0.173 A 
ATOM     78  F   UNL A   1      46.169  28.208  23.907  1.00  0.00    -0.203 F 
ATOM     79  C   UNL A   1      48.310  27.223  23.888  1.00  0.00     0.198 A 
ATOM     80  C   UNL A   1      49.355  26.596  25.955  1.00  0.00     0.198 A 
ATOM     81  F   UNL A   1      48.228  26.939  27.992  1.00  0.00    -0.203 F 
ATOM     82  F   UNL A   1      48.324  27.278  22.549  1.00  0.00    -0.200 F 
ATOM     83  C   UNL A   1      49.387  26.678  24.571  1.00  0.00     0.200 A 
ATOM     84  F   UNL A   1      50.396  26.076  26.618  1.00  0.00    -0.200 F 
ATOM     85  F   UNL A   1      50.451  26.224  23.895  1.00  0.00    -0.200 F 
ENDBRANCH  51  75
BRANCH  63  86
ATOM     86  C   UNL A   1      45.537  33.710  28.992  1.00  0.00     0.064 A 
ATOM     87  C   UNL A   1      46.462  33.937  30.021  1.00  0.00     0.173 A 
ATOM     88  C   UNL A   1      45.372  34.710  28.021  1.00  0.00     0.173 A 
ATOM     89  F   UNL A   1      46.646  33.016  30.979  1.00  0.00    -0.203 F 
ATOM     90  C   UNL A   1      47.187  35.125  30.080  1.00  0.00     0.198 A 
ATOM     91  C   UNL A   1      46.119  35.883  28.068  1.00  0.00     0.198 A 
ATOM     92  F   UNL A   1      44.507  34.537  27.011  1.00  0.00    -0.203 F 
ATOM     93  F   UNL A   1      48.043  35.334  31.090  1.00  0.00    -0.200 F 
ATOM     94  C   UNL A   1      47.023  36.092  29.099  1.00  0.00     0.200 A 
ATOM     95  F   UNL A   1      45.971  36.809  27.110  1.00  0.00    -0.200 F 
ATOM     96  F   UNL A   1      47.735  37.225  29.148  1.00  0.00    -0.200 F 
ENDBRANCH  63  86
ENDBRANCH  37  38
ENDBRANCH  30  32
ENDBRANCH  29  30
ENDBRANCH  28  29
ENDBRANCH  27  28
ENDBRANCH  26  27
ENDBRANCH   1  26
TORSDOF 18
ENDMDL
MODEL 3
REMARK VINA RESULT:     -12.0      4.309     10.223
REMARK SMILES Cc1cc(C)c2c(C(=O)OCCOCCOCCOC(=O)c3ccc(-c4c5nc(c(-c6c(F)c(F)c(F)c(F)c6F)c6ccc([nH]6)c(-c6c(F)c(F)c(F)c(F)c6F)c6nc(c(-c7c(F)c(F)c(F)c(F)c7F)c7ccc4[nH]7)C=C6)C=C5)cc3)cc(-c3ccco3)nc2c1
REMARK SMILES IDX 15 1 14 2 13 3 12 4 11 5 10 6 8 7 9 8 7 9 1 10 2 11 3 12
REMARK SMILES IDX 94 13 4 14 93 15 5 16 6 17 92 18 86 19 85 20 87 21 88 22
REMARK SMILES IDX 91 23 89 24 90 25 16 26 17 27 18 28 19 29 20 30 21 31 22 32
REMARK SMILES IDX 23 33 84 34 24 35 83 36 25 37 26 38 27 39 77 40 28 41 82 42
REMARK SMILES IDX 76 43 78 44 29 45 81 46 75 47 74 48 30 50 62 51 42 52 61 53
REMARK SMILES IDX 43 54 46 55 60 56 79 57 44 58 45 59 59 61 80 62 47 63 31 64
REMARK SMILES IDX 32 65 40 66 33 67 34 68 38 69 41 70 35 71 36 72 39 73 37 74
REMARK SMILES IDX 63 75 64 76 72 77 65 78 66 79 70 80 73 81 67 82 68 83 71 84
REMARK SMILES IDX 69 85 48 86 49 87 57 88 50 89 51 90 55 91 58 92 52 93 53 94
REMARK SMILES IDX 56 95 54 96
REMARK H PARENT 78 49 46 60
REMARK Flexibility Score: inf
ROOT
ATOM      1  C   UNL A   1      35.252  22.910  25.598  1.00  0.00     0.188 C 
ENDROOT
BRANCH   1   2
ATOM      2  C   UNL A   1      35.686  23.405  24.200  1.00  0.00     0.188 C 
BRANCH   2   3
ATOM      3  O   UNL A   1      34.745  24.039  23.345  1.00  0.00    -0.376 OA
BRANCH   3   4
ATOM      4  C   UNL A   1      33.546  23.342  23.015  1.00  0.00     0.202 C 
BRANCH   4   5
ATOM      5  C   UNL A   1      32.481  24.151  22.282  1.00  0.00     0.261 C 
BRANCH   5   6
ATOM      6  O   UNL A   1      32.360  25.435  22.912  1.00  0.00    -0.460 OA
BRANCH   6   7
ATOM      7  C   UNL A   1      31.210  25.664  23.571  1.00  0.00     0.338 C 
ATOM      8  O   UNL A   1      30.415  24.821  23.955  1.00  0.00    -0.246 OA
BRANCH   7   9
ATOM      9  C   UNL A   1      31.161  27.077  23.992  1.00  0.00     0.072 A 
ATOM     10  C   UNL A   1      34.646  30.075  27.471  1.00  0.00     0.044 C 
ATOM     11  C   UNL A   1      33.719  29.227  26.655  1.00  0.00    -0.049 A 
ATOM     12  C   UNL A   1      33.782  27.842  26.700  1.00  0.00     0.007 A 
ATOM     13  C   UNL A   1      32.738  29.817  25.861  1.00  0.00     0.032 A 
ATOM     14  C   UNL A   1      32.946  27.048  25.891  1.00  0.00    -0.041 A 
ATOM     15  C   UNL A   1      31.885  29.079  25.058  1.00  0.00     0.072 A 
ATOM     16  C   UNL A   1      33.048  25.561  26.112  1.00  0.00     0.045 C 
ATOM     17  C   UNL A   1      32.007  27.670  24.985  1.00  0.00     0.018 A 
ATOM     18  N   UNL A   1      30.982  29.799  24.378  1.00  0.00    -0.244 NA
ATOM     19  C   UNL A   1      30.168  29.182  23.505  1.00  0.00     0.107 A 
ATOM     20  C   UNL A   1      30.236  27.833  23.257  1.00  0.00     0.048 A 
BRANCH  19  21
ATOM     21  C   UNL A   1      29.192  30.036  22.862  1.00  0.00     0.152 A 
ATOM     22  C   UNL A   1      28.220  30.897  23.328  1.00  0.00     0.052 A 
ATOM     23  O   UNL A   1      29.198  30.037  21.497  1.00  0.00    -0.463 OA
ATOM     24  C   UNL A   1      27.597  31.457  22.186  1.00  0.00     0.043 A 
ATOM     25  C   UNL A   1      28.241  30.914  21.098  1.00  0.00     0.196 A 
ENDBRANCH  19  21
ENDBRANCH   7   9
ENDBRANCH   6   7
ENDBRANCH   5   6
ENDBRANCH   4   5
ENDBRANCH   3   4
ENDBRANCH   2   3
ENDBRANCH   1   2
BRANCH   1  26
ATOM     26  O   UNL A   1      35.463  21.561  25.977  1.00  0.00    -0.376 OA
BRANCH  26  27
ATOM     27  C   UNL A   1      35.909  20.639  24.988  1.00  0.00     0.202 C 
BRANCH  27  28
ATOM     28  C   UNL A   1      37.365  20.176  25.056  1.00  0.00     0.261 C 
BRANCH  28  29
ATOM     29  O   UNL A   1      38.265  21.275  25.274  1.00  0.00    -0.460 OA
BRANCH  29  30
ATOM     30  C   UNL A   1      39.322  21.010  26.076  1.00  0.00     0.338 C 
ATOM     31  O   UNL A   1      39.914  19.955  26.212  1.00  0.00    -0.246 OA
BRANCH  30  32
ATOM     32  C   UNL A   1      39.799  22.272  26.667  1.00  0.00     0.060 A 
ATOM     33  C   UNL A   1      39.258  23.473  26.190  1.00  0.00     0.016 A 
ATOM     34  C   UNL A   1      40.809  22.272  27.628  1.00  0.00     0.016 A 
ATOM     35  C   UNL A   1      39.747  24.688  26.662  1.00  0.00     0.010 A 
ATOM     36  C   UNL A   1      41.327  23.490  28.070  1.00  0.00     0.010 A 
ATOM     37  C   UNL A   1      40.818  24.700  27.563  1.00  0.00    -0.014 A 
BRANCH  37  38
ATOM     38  C   UNL A   1      41.551  25.964  27.795  1.00  0.00     0.031 A 
ATOM     39  C   UNL A   1      40.847  27.062  28.541  1.00  0.00     0.074 A 
ATOM     40  C   UNL A   1      42.817  26.126  27.376  1.00  0.00     0.049 A 
ATOM     41  N   UNL A   1      41.256  28.272  28.822  1.00  0.00    -0.248 NA
ATOM     42  C   UNL A   1      39.501  26.747  29.052  1.00  0.00     0.031 C 
ATOM     43  C   UNL A   1      43.624  25.106  26.713  1.00  0.00     0.029 A 
ATOM     44  N   UNL A   1      43.642  27.219  27.450  1.00  0.00    -0.354 N 
ATOM     45  C   UNL A   1      40.229  28.855  29.548  1.00  0.00     0.074 A 
ATOM     46  C   UNL A   1      39.166  27.880  29.650  1.00  0.00     0.031 C 
ATOM     47  C   UNL A   1      44.829  25.630  26.423  1.00  0.00     0.029 A 
ATOM     48  C   UNL A   1      44.860  27.028  26.849  1.00  0.00     0.049 A 
ATOM     49  H   UNL A   1      43.383  28.061  27.891  1.00  0.00     0.167 HD
ATOM     50  C   UNL A   1      40.177  30.095  30.085  1.00  0.00     0.037 A 
ATOM     51  C   UNL A   1      45.870  27.898  26.646  1.00  0.00     0.037 A 
ATOM     52  C   UNL A   1      41.217  31.076  29.950  1.00  0.00     0.049 A 
ATOM     53  C   UNL A   1      45.733  29.316  27.138  1.00  0.00     0.074 A 
ATOM     54  C   UNL A   1      41.248  32.373  30.432  1.00  0.00     0.029 A 
ATOM     55  N   UNL A   1      42.408  30.871  29.269  1.00  0.00    -0.354 N 
ATOM     56  N   UNL A   1      44.758  29.867  27.819  1.00  0.00    -0.248 NA
ATOM     57  C   UNL A   1      46.836  30.237  26.824  1.00  0.00     0.031 C 
ATOM     58  C   UNL A   1      42.439  32.968  30.002  1.00  0.00     0.029 A 
ATOM     59  C   UNL A   1      43.171  32.025  29.296  1.00  0.00     0.049 A 
ATOM     60  H   UNL A   1      42.671  30.029  28.832  1.00  0.00     0.167 HD
ATOM     61  C   UNL A   1      45.137  31.186  28.036  1.00  0.00     0.074 A 
ATOM     62  C   UNL A   1      46.438  31.352  27.422  1.00  0.00     0.031 C 
ATOM     63  C   UNL A   1      44.467  32.170  28.684  1.00  0.00     0.037 A 
BRANCH  50  64
ATOM     64  C   UNL A   1      38.940  30.468  30.842  1.00  0.00     0.064 A 
ATOM     65  C   UNL A   1      38.857  30.305  32.233  1.00  0.00     0.173 A 
ATOM     66  C   UNL A   1      37.839  31.028  30.177  1.00  0.00     0.173 A 
ATOM     67  F   UNL A   1      39.876  29.753  32.909  1.00  0.00    -0.203 F 
ATOM     68  C   UNL A   1      37.710  30.680  32.929  1.00  0.00     0.198 A 
ATOM     69  C   UNL A   1      36.705  31.424  30.880  1.00  0.00     0.198 A 
ATOM     70  F   UNL A   1      37.869  31.201  28.847  1.00  0.00    -0.203 F 
ATOM     71  F   UNL A   1      37.639  30.484  34.253  1.00  0.00    -0.200 F 
ATOM     72  C   UNL A   1      36.640  31.246  32.254  1.00  0.00     0.200 A 
ATOM     73  F   UNL A   1      35.674  31.978  30.227  1.00  0.00    -0.200 F 
ATOM     74  F   UNL A   1      35.542  31.616  32.927  1.00  0.00    -0.200 F 
ENDBRANCH  50  64
BRANCH  51  75
ATOM     75  C   UNL A   1      47.094  27.458  25.928  1.00  0.00     0.064 A 
ATOM     76  C   UNL A   1      47.202  27.593  24.537  1.00  0.00     0.173 A 
ATOM     77  C   UNL A   1      48.173  26.881  26.614  1.00  0.00     0.173 A 
ATOM     78  F   UNL A   1      46.184  28.110  23.835  1.00  0.00    -0.203 F 
ATOM     79  C   UNL A   1      48.340  27.162  23.859  1.00  0.00     0.198 A 
ATOM     80  C   UNL A   1      49.322  26.473  25.937  1.00  0.00     0.198 A 
ATOM     81  F   UNL A   1      48.115  26.720  27.943  1.00  0.00    -0.203 F 
ATOM     82  F   UNL A   1      48.402  27.268  22.524  1.00  0.00    -0.200 F 
ATOM     83  C   UNL A   1      49.402  26.609  24.559  1.00  0.00     0.200 A 
ATOM     84  F   UNL A   1      50.346  25.945  26.619  1.00  0.00    -0.200 F 
ATOM     85  F   UNL A   1      50.497  26.198  23.907  1.00  0.00    -0.200 F 
ENDBRANCH  51  75
BRANCH  63  86
ATOM     86  C   UNL A   1      45.131  33.512  28.791  1.00  0.00     0.064 A 
ATOM     87  C   UNL A   1      44.870  34.535  27.868  1.00  0.00     0.173 A 
ATOM     88  C   UNL A   1      45.973  33.803  29.876  1.00  0.00     0.173 A 
ATOM     89  F   UNL A   1      44.081  34.302  26.808  1.00  0.00    -0.203 F 
ATOM     90  C   UNL A   1      45.438  35.797  28.020  1.00  0.00     0.198 A 
ATOM     91  C   UNL A   1      46.516  35.073  30.040  1.00  0.00     0.198 A 
ATOM     92  F   UNL A   1      46.246  32.862  30.792  1.00  0.00    -0.203 F 
ATOM     93  F   UNL A   1      45.200  36.750  27.109  1.00  0.00    -0.200 F 
ATOM     94  C   UNL A   1      46.252  36.068  29.110  1.00  0.00     0.200 A 
ATOM     95  F   UNL A   1      47.288  35.338  31.103  1.00  0.00    -0.200 F 
ATOM     96  F   UNL A   1      46.783  37.288  29.264  1.00  0.00    -0.200 F 
ENDBRANCH  63  86
ENDBRANCH  37  38
ENDBRANCH  30  32
ENDBRANCH  29  30
ENDBRANCH  28  29
ENDBRANCH  27  28
ENDBRANCH  26  27
ENDBRANCH   1  26
TORSDOF 18
ENDMDL
