MODEL 1
REMARK VINA RESULT:     -14.4      0.000      0.000
REMARK SMILES COc1cc2ccccc2cc1C(=O)Nc1cc(C(=O)OCCOCCOCCOC(=O)c2ccc(-c3c4nc(c(-c5c(F)c(F)c(F)c(F)c5F)c5ccc([nH]5)c(-c5c(F)c(F)c(F)c(F)c5F)c5nc(c(-c6c(F)c(F)c(F)c(F)c6F)c6ccc3[nH]6)C=C5)C=C4)cc2)ccc1C
REMARK SMILES IDX 25 1 24 2 23 3 22 4 21 5 19 6 20 7 18 8 16 9 17 10 98 11
REMARK SMILES IDX 97 12 99 13 96 14 15 15 13 16 14 17 12 19 3 20 4 21 5 22
REMARK SMILES IDX 11 23 6 24 10 25 7 26 9 27 8 28 2 29 1 30 26 31 27 32 28 33
REMARK SMILES IDX 29 34 30 35 31 36 32 37 33 38 34 39 95 40 35 41 94 42 36 43
REMARK SMILES IDX 37 44 38 45 88 46 39 47 93 48 87 49 89 50 40 51 92 52 86 53
REMARK SMILES IDX 85 54 41 56 73 57 53 58 72 59 54 60 57 61 71 62 90 63 55 64
REMARK SMILES IDX 56 65 70 67 91 68 58 69 42 70 43 71 51 72 44 73 45 74 49 75
REMARK SMILES IDX 52 76 46 77 47 78 50 79 48 80 74 81 75 82 83 83 76 84 77 85
REMARK SMILES IDX 81 86 84 87 78 88 79 89 82 90 80 91 59 92 60 93 68 94 61 95
REMARK SMILES IDX 62 96 66 97 69 98 63 99 64 100 67 101 65 102
REMARK H PARENT 15 18 89 55 57 66
REMARK Flexibility Score: inf
ROOT
ATOM      1  C   UNL A   1      33.455  34.046  28.472  1.00  0.00     0.188 C 
ENDROOT
BRANCH   1   2
ATOM      2  O   UNL A   1      33.776  32.818  27.822  1.00  0.00    -0.376 OA
BRANCH   2   3
ATOM      3  C   UNL A   1      34.969  32.025  27.794  1.00  0.00     0.202 C 
BRANCH   3   4
ATOM      4  C   UNL A   1      35.271  30.329  27.789  1.00  0.00     0.261 C 
BRANCH   4   5
ATOM      5  O   UNL A   1      34.664  28.922  26.984  1.00  0.00    -0.460 OA
BRANCH   5   6
ATOM      6  C   UNL A   1      33.905  28.470  25.885  1.00  0.00     0.338 C 
ATOM      7  O   UNL A   1      33.750  27.324  25.458  1.00  0.00    -0.246 OA
BRANCH   6   8
ATOM      8  C   UNL A   1      33.125  29.188  24.872  1.00  0.00     0.062 A 
ATOM      9  C   UNL A   1      31.909  28.273  22.968  1.00  0.00     0.045 A 
ATOM     10  C   UNL A   1      33.103  28.458  23.678  1.00  0.00     0.042 A 
ATOM     11  C   UNL A   1      30.775  29.055  23.252  1.00  0.00    -0.027 A 
ATOM     12  C   UNL A   1      30.733  29.703  24.490  1.00  0.00     0.006 A 
ATOM     13  C   UNL A   1      29.574  29.128  22.348  1.00  0.00     0.046 C 
ATOM     14  C   UNL A   1      31.875  29.726  25.309  1.00  0.00     0.016 A 
BRANCH   9  15
ATOM     15  N   UNL A   1      31.819  27.263  21.990  1.00  0.00    -0.322 N 
ATOM     16  C   UNL A   1      32.607  26.140  21.845  1.00  0.00     0.259 C 
ATOM     17  O   UNL A   1      33.202  26.055  20.766  1.00  0.00    -0.269 OA
ATOM     18  H   UNL A   1      31.100  27.372  21.326  1.00  0.00     0.170 HD
BRANCH  16  19
ATOM     19  C   UNL A   1      32.800  25.020  22.865  1.00  0.00     0.082 A 
ATOM     20  C   UNL A   1      31.767  24.412  24.264  1.00  0.00     0.132 A 
ATOM     21  C   UNL A   1      32.479  23.144  25.498  1.00  0.00     0.056 A 
ATOM     22  C   UNL A   1      34.227  22.457  25.249  1.00  0.00    -0.015 A 
ATOM     23  C   UNL A   1      34.481  24.306  22.642  1.00  0.00     0.026 A 
ATOM     24  C   UNL A   1      34.937  21.540  26.027  1.00  0.00     0.009 A 
ATOM     25  C   UNL A   1      35.211  23.037  23.797  1.00  0.00    -0.017 A 
ATOM     26  C   UNL A   1      36.236  21.115  25.661  1.00  0.00     0.001 A 
ATOM     27  C   UNL A   1      36.488  22.520  23.631  1.00  0.00     0.009 A 
ATOM     28  C   UNL A   1      36.969  21.574  24.535  1.00  0.00     0.001 A 
BRANCH  20  29
ATOM     29  O   UNL A   1      30.505  24.852  24.566  1.00  0.00    -0.496 OA
ATOM     30  C   UNL A   1      30.427  25.987  25.404  1.00  0.00     0.278 C 
ENDBRANCH  20  29
ENDBRANCH  16  19
ENDBRANCH   9  15
ENDBRANCH   6   8
ENDBRANCH   5   6
ENDBRANCH   4   5
ENDBRANCH   3   4
ENDBRANCH   2   3
ENDBRANCH   1   2
BRANCH   1  31
ATOM     31  C   UNL A   1      34.229  34.540  29.679  1.00  0.00     0.188 C 
BRANCH  31  32
ATOM     32  O   UNL A   1      33.746  33.883  30.828  1.00  0.00    -0.376 OA
BRANCH  32  33
ATOM     33  C   UNL A   1      33.992  34.513  32.065  1.00  0.00     0.202 C 
BRANCH  33  34
ATOM     34  C   UNL A   1      34.617  33.597  33.140  1.00  0.00     0.261 C 
BRANCH  34  35
ATOM     35  O   UNL A   1      35.353  32.506  32.536  1.00  0.00    -0.460 OA
BRANCH  35  36
ATOM     36  C   UNL A   1      36.659  32.678  32.129  1.00  0.00     0.338 C 
ATOM     37  O   UNL A   1      37.364  33.626  32.417  1.00  0.00    -0.246 OA
BRANCH  36  38
ATOM     38  C   UNL A   1      36.961  31.669  31.036  1.00  0.00     0.060 A 
ATOM     39  C   UNL A   1      37.180  30.295  31.237  1.00  0.00     0.016 A 
ATOM     40  C   UNL A   1      37.653  32.197  30.012  1.00  0.00     0.016 A 
ATOM     41  C   UNL A   1      38.310  29.620  30.611  1.00  0.00     0.010 A 
ATOM     42  C   UNL A   1      38.930  31.674  29.994  1.00  0.00     0.010 A 
ATOM     43  C   UNL A   1      39.355  30.349  30.043  1.00  0.00    -0.014 A 
BRANCH  43  44
ATOM     44  C   UNL A   1      40.859  29.841  29.510  1.00  0.00     0.031 A 
ATOM     45  C   UNL A   1      41.318  28.687  28.356  1.00  0.00     0.074 A 
ATOM     46  C   UNL A   1      41.900  30.148  30.316  1.00  0.00     0.049 A 
ATOM     47  N   UNL A   1      41.813  27.567  28.790  1.00  0.00    -0.248 NA
ATOM     48  C   UNL A   1      41.140  28.470  26.915  1.00  0.00     0.031 C 
ATOM     49  C   UNL A   1      43.302  29.794  30.142  1.00  0.00     0.029 A 
ATOM     50  N   UNL A   1      41.856  30.756  31.568  1.00  0.00    -0.354 N 
ATOM     51  C   UNL A   1      42.319  26.476  27.766  1.00  0.00     0.074 A 
ATOM     52  C   UNL A   1      41.535  27.225  26.629  1.00  0.00     0.031 C 
ATOM     53  C   UNL A   1      43.901  29.832  31.342  1.00  0.00     0.029 A 
ATOM     54  C   UNL A   1      42.904  30.217  32.316  1.00  0.00     0.049 A 
ATOM     55  H   UNL A   1      41.209  31.436  31.870  1.00  0.00     0.167 HD
ATOM     56  C   UNL A   1      43.462  24.993  28.037  1.00  0.00     0.037 A 
ATOM     57  C   UNL A   1      42.758  29.762  33.582  1.00  0.00     0.037 A 
ATOM     58  C   UNL A   1      44.543  24.690  29.387  1.00  0.00     0.049 A 
ATOM     59  C   UNL A   1      43.445  28.439  33.849  1.00  0.00     0.074 A 
ATOM     60  C   UNL A   1      45.845  25.227  29.545  1.00  0.00     0.029 A 
ATOM     61  N   UNL A   1      44.156  24.443  30.738  1.00  0.00    -0.354 N 
ATOM     62  N   UNL A   1      43.772  27.527  32.961  1.00  0.00    -0.248 NA
ATOM     63  C   UNL A   1      43.823  28.070  35.210  1.00  0.00     0.031 C 
ATOM     64  C   UNL A   1      46.008  25.692  30.864  1.00  0.00     0.029 A 
ATOM     65  C   UNL A   1      44.947  25.224  31.605  1.00  0.00     0.049 A 
ATOM     66  H   UNL A   1      43.446  23.822  31.021  1.00  0.00     0.167 HD
ATOM     67  C   UNL A   1      44.342  26.449  33.621  1.00  0.00     0.074 A 
ATOM     68  C   UNL A   1      44.384  26.869  35.014  1.00  0.00     0.031 C 
ATOM     69  C   UNL A   1      44.774  25.280  33.042  1.00  0.00     0.037 A 
BRANCH  56  70
ATOM     70  C   UNL A   1      44.210  23.705  27.005  1.00  0.00     0.064 A 
ATOM     71  C   UNL A   1      45.254  24.004  26.087  1.00  0.00     0.173 A 
ATOM     72  C   UNL A   1      43.698  22.406  26.783  1.00  0.00     0.173 A 
ATOM     73  F   UNL A   1      46.232  24.865  26.342  1.00  0.00    -0.203 F 
ATOM     74  C   UNL A   1      45.435  23.331  24.877  1.00  0.00     0.198 A 
ATOM     75  C   UNL A   1      43.832  21.746  25.543  1.00  0.00     0.198 A 
ATOM     76  F   UNL A   1      43.011  21.767  27.731  1.00  0.00    -0.203 F 
ATOM     77  F   UNL A   1      46.384  23.750  24.025  1.00  0.00    -0.200 F 
ATOM     78  C   UNL A   1      44.647  22.258  24.559  1.00  0.00     0.200 A 
ATOM     79  F   UNL A   1      43.123  20.637  25.290  1.00  0.00    -0.200 F 
ATOM     80  F   UNL A   1      44.728  21.690  23.348  1.00  0.00    -0.200 F 
ENDBRANCH  56  70
BRANCH  57  81
ATOM     81  C   UNL A   1      41.585  30.353  34.307  1.00  0.00     0.064 A 
ATOM     82  C   UNL A   1      41.733  31.623  34.918  1.00  0.00     0.173 A 
ATOM     83  C   UNL A   1      40.275  29.898  34.117  1.00  0.00     0.173 A 
ATOM     84  F   UNL A   1      42.960  32.123  35.139  1.00  0.00    -0.203 F 
ATOM     85  C   UNL A   1      40.639  32.448  35.188  1.00  0.00     0.198 A 
ATOM     86  C   UNL A   1      39.176  30.718  34.415  1.00  0.00     0.198 A 
ATOM     87  F   UNL A   1      40.049  28.715  33.531  1.00  0.00    -0.203 F 
ATOM     88  F   UNL A   1      40.834  33.703  35.622  1.00  0.00    -0.200 F 
ATOM     89  C   UNL A   1      39.361  32.001  34.917  1.00  0.00     0.200 A 
ATOM     90  F   UNL A   1      37.937  30.316  34.099  1.00  0.00    -0.200 F 
ATOM     91  F   UNL A   1      38.315  32.827  35.069  1.00  0.00    -0.200 F 
ENDBRANCH  57  81
BRANCH  69  92
ATOM     92  C   UNL A   1      45.313  24.083  33.788  1.00  0.00     0.064 A 
ATOM     93  C   UNL A   1      44.591  22.900  33.970  1.00  0.00     0.173 A 
ATOM     94  C   UNL A   1      46.675  24.044  34.187  1.00  0.00     0.173 A 
ATOM     95  F   UNL A   1      43.314  22.797  33.577  1.00  0.00    -0.203 F 
ATOM     96  C   UNL A   1      45.187  21.764  34.523  1.00  0.00     0.198 A 
ATOM     97  C   UNL A   1      47.284  22.891  34.661  1.00  0.00     0.198 A 
ATOM     98  F   UNL A   1      47.473  25.118  34.121  1.00  0.00    -0.203 F 
ATOM     99  F   UNL A   1      44.452  20.662  34.722  1.00  0.00    -0.200 F 
ATOM    100  C   UNL A   1      46.536  21.751  34.838  1.00  0.00     0.200 A 
ATOM    101  F   UNL A   1      48.598  22.895  34.924  1.00  0.00    -0.200 F 
ATOM    102  F   UNL A   1      47.117  20.638  35.301  1.00  0.00    -0.200 F 
ENDBRANCH  69  92
ENDBRANCH  43  44
ENDBRANCH  36  38
ENDBRANCH  35  36
ENDBRANCH  34  35
ENDBRANCH  33  34
ENDBRANCH  32  33
ENDBRANCH  31  32
ENDBRANCH   1  31
TORSDOF 20
ENDMDL
MODEL 2
REMARK VINA RESULT:     -12.5      6.228     11.587
REMARK SMILES COc1cc2ccccc2cc1C(=O)Nc1cc(C(=O)OCCOCCOCCOC(=O)c2ccc(-c3c4nc(c(-c5c(F)c(F)c(F)c(F)c5F)c5ccc([nH]5)c(-c5c(F)c(F)c(F)c(F)c5F)c5nc(c(-c6c(F)c(F)c(F)c(F)c6F)c6ccc3[nH]6)C=C5)C=C4)cc2)ccc1C
REMARK SMILES IDX 25 1 24 2 23 3 22 4 21 5 19 6 20 7 18 8 16 9 17 10 98 11
REMARK SMILES IDX 97 12 99 13 96 14 15 15 13 16 14 17 12 19 3 20 4 21 5 22
REMARK SMILES IDX 11 23 6 24 10 25 7 26 9 27 8 28 2 29 1 30 26 31 27 32 28 33
REMARK SMILES IDX 29 34 30 35 31 36 32 37 33 38 34 39 95 40 35 41 94 42 36 43
REMARK SMILES IDX 37 44 38 45 88 46 39 47 93 48 87 49 89 50 40 51 92 52 86 53
REMARK SMILES IDX 85 54 41 56 73 57 53 58 72 59 54 60 57 61 71 62 90 63 55 64
REMARK SMILES IDX 56 65 70 67 91 68 58 69 42 70 43 71 51 72 44 73 45 74 49 75
REMARK SMILES IDX 52 76 46 77 47 78 50 79 48 80 74 81 75 82 83 83 76 84 77 85
REMARK SMILES IDX 81 86 84 87 78 88 79 89 82 90 80 91 59 92 60 93 68 94 61 95
REMARK SMILES IDX 62 96 66 97 69 98 63 99 64 100 67 101 65 102
REMARK H PARENT 15 18 89 55 57 66
REMARK Flexibility Score: inf
ROOT
ATOM      1  C   UNL A   1      34.807  32.566  30.452  1.00  0.00     0.188 C 
ENDROOT
BRANCH   1   2
ATOM      2  O   UNL A   1      35.218  31.993  29.212  1.00  0.00    -0.376 OA
BRANCH   2   3
ATOM      3  C   UNL A   1      36.056  30.874  28.898  1.00  0.00     0.202 C 
BRANCH   3   4
ATOM      4  C   UNL A   1      35.816  29.422  28.001  1.00  0.00     0.261 C 
BRANCH   4   5
ATOM      5  O   UNL A   1      35.096  28.948  26.500  1.00  0.00    -0.460 OA
BRANCH   5   6
ATOM      6  C   UNL A   1      33.882  28.600  25.872  1.00  0.00     0.338 C 
ATOM      7  O   UNL A   1      33.218  27.567  25.970  1.00  0.00    -0.246 OA
BRANCH   6   8
ATOM      8  C   UNL A   1      33.061  29.295  24.877  1.00  0.00     0.062 A 
ATOM      9  C   UNL A   1      31.875  28.351  22.967  1.00  0.00     0.045 A 
ATOM     10  C   UNL A   1      33.064  28.582  23.671  1.00  0.00     0.042 A 
ATOM     11  C   UNL A   1      30.707  29.074  23.271  1.00  0.00    -0.027 A 
ATOM     12  C   UNL A   1      30.645  29.701  24.518  1.00  0.00     0.006 A 
ATOM     13  C   UNL A   1      29.497  29.103  22.376  1.00  0.00     0.046 C 
ATOM     14  C   UNL A   1      31.791  29.767  25.330  1.00  0.00     0.016 A 
BRANCH   9  15
ATOM     15  N   UNL A   1      31.825  27.352  21.976  1.00  0.00    -0.322 N 
ATOM     16  C   UNL A   1      32.610  26.224  21.857  1.00  0.00     0.259 C 
ATOM     17  O   UNL A   1      33.258  26.144  20.809  1.00  0.00    -0.269 OA
ATOM     18  H   UNL A   1      31.141  27.474  21.278  1.00  0.00     0.170 HD
BRANCH  16  19
ATOM     19  C   UNL A   1      32.743  25.092  22.874  1.00  0.00     0.082 A 
ATOM     20  C   UNL A   1      31.649  24.496  24.231  1.00  0.00     0.132 A 
ATOM     21  C   UNL A   1      32.289  23.202  25.478  1.00  0.00     0.056 A 
ATOM     22  C   UNL A   1      34.028  22.477  25.283  1.00  0.00    -0.015 A 
ATOM     23  C   UNL A   1      34.413  24.340  22.701  1.00  0.00     0.026 A 
ATOM     24  C   UNL A   1      34.689  21.538  26.076  1.00  0.00     0.009 A 
ATOM     25  C   UNL A   1      35.074  23.045  23.869  1.00  0.00    -0.017 A 
ATOM     26  C   UNL A   1      35.990  21.085  25.751  1.00  0.00     0.001 A 
ATOM     27  C   UNL A   1      36.344  22.500  23.743  1.00  0.00     0.009 A 
ATOM     28  C   UNL A   1      36.772  21.536  24.654  1.00  0.00     0.001 A 
BRANCH  20  29
ATOM     29  O   UNL A   1      30.388  24.963  24.494  1.00  0.00    -0.496 OA
ATOM     30  C   UNL A   1      30.274  25.877  25.566  1.00  0.00     0.278 C 
ENDBRANCH  20  29
ENDBRANCH  16  19
ENDBRANCH   9  15
ENDBRANCH   6   8
ENDBRANCH   5   6
ENDBRANCH   4   5
ENDBRANCH   3   4
ENDBRANCH   2   3
ENDBRANCH   1   2
BRANCH   1  31
ATOM     31  C   UNL A   1      35.073  34.019  30.791  1.00  0.00     0.188 C 
BRANCH  31  32
ATOM     32  O   UNL A   1      35.124  34.157  32.192  1.00  0.00    -0.376 OA
BRANCH  32  33
ATOM     33  C   UNL A   1      36.384  33.967  32.798  1.00  0.00     0.202 C 
BRANCH  33  34
ATOM     34  C   UNL A   1      36.335  33.268  34.174  1.00  0.00     0.261 C 
BRANCH  34  35
ATOM     35  O   UNL A   1      37.276  32.169  34.238  1.00  0.00    -0.460 OA
BRANCH  35  36
ATOM     36  C   UNL A   1      37.881  31.829  35.430  1.00  0.00     0.338 C 
ATOM     37  O   UNL A   1      37.394  31.988  36.534  1.00  0.00    -0.246 OA
BRANCH  36  38
ATOM     38  C   UNL A   1      39.342  31.520  35.159  1.00  0.00     0.060 A 
ATOM     39  C   UNL A   1      40.355  31.465  36.133  1.00  0.00     0.016 A 
ATOM     40  C   UNL A   1      39.754  31.946  33.953  1.00  0.00     0.016 A 
ATOM     41  C   UNL A   1      41.628  32.143  35.924  1.00  0.00     0.010 A 
ATOM     42  C   UNL A   1      40.643  32.991  34.108  1.00  0.00     0.010 A 
ATOM     43  C   UNL A   1      41.778  33.089  34.909  1.00  0.00    -0.014 A 
BRANCH  43  44
ATOM     44  C   UNL A   1      43.017  34.178  34.626  1.00  0.00     0.031 A 
ATOM     45  C   UNL A   1      43.290  35.752  35.196  1.00  0.00     0.074 A 
ATOM     46  C   UNL A   1      43.782  33.926  33.540  1.00  0.00     0.049 A 
ATOM     47  N   UNL A   1      43.111  36.731  34.362  1.00  0.00    -0.248 NA
ATOM     48  C   UNL A   1      43.499  36.412  36.490  1.00  0.00     0.031 C 
ATOM     49  C   UNL A   1      44.886  34.719  33.018  1.00  0.00     0.029 A 
ATOM     50  N   UNL A   1      43.605  32.923  32.590  1.00  0.00    -0.354 N 
ATOM     51  C   UNL A   1      43.410  38.217  34.809  1.00  0.00     0.074 A 
ATOM     52  C   UNL A   1      43.408  37.732  36.305  1.00  0.00     0.031 C 
ATOM     53  C   UNL A   1      45.038  34.430  31.716  1.00  0.00     0.029 A 
ATOM     54  C   UNL A   1      44.042  33.442  31.369  1.00  0.00     0.049 A 
ATOM     55  H   UNL A   1      43.242  32.021  32.748  1.00  0.00     0.167 HD
ATOM     56  C   UNL A   1      43.684  39.769  33.765  1.00  0.00     0.037 A 
ATOM     57  C   UNL A   1      43.332  33.342  30.222  1.00  0.00     0.037 A 
ATOM     58  C   UNL A   1      44.057  39.872  32.052  1.00  0.00     0.049 A 
ATOM     59  C   UNL A   1      43.284  34.619  29.409  1.00  0.00     0.074 A 
ATOM     60  C   UNL A   1      45.343  39.728  31.473  1.00  0.00     0.029 A 
ATOM     61  N   UNL A   1      43.202  39.486  30.977  1.00  0.00    -0.354 N 
ATOM     62  N   UNL A   1      43.462  35.844  29.853  1.00  0.00    -0.248 NA
ATOM     63  C   UNL A   1      43.027  34.565  27.974  1.00  0.00     0.031 C 
ATOM     64  C   UNL A   1      45.263  38.889  30.345  1.00  0.00     0.029 A 
ATOM     65  C   UNL A   1      43.930  38.718  30.047  1.00  0.00     0.049 A 
ATOM     66  H   UNL A   1      42.248  39.720  30.898  1.00  0.00     0.167 HD
ATOM     67  C   UNL A   1      43.293  36.726  28.799  1.00  0.00     0.074 A 
ATOM     68  C   UNL A   1      43.068  35.864  27.647  1.00  0.00     0.031 C 
ATOM     69  C   UNL A   1      43.357  38.098  28.870  1.00  0.00     0.037 A 
BRANCH  56  70
ATOM     70  C   UNL A   1      44.109  41.504  34.074  1.00  0.00     0.064 A 
ATOM     71  C   UNL A   1      43.115  42.520  34.088  1.00  0.00     0.173 A 
ATOM     72  C   UNL A   1      45.406  42.066  34.049  1.00  0.00     0.173 A 
ATOM     73  F   UNL A   1      41.904  42.355  34.608  1.00  0.00    -0.203 F 
ATOM     74  C   UNL A   1      43.347  43.834  33.678  1.00  0.00     0.198 A 
ATOM     75  C   UNL A   1      45.651  43.374  33.583  1.00  0.00     0.198 A 
ATOM     76  F   UNL A   1      46.471  41.353  34.419  1.00  0.00    -0.203 F 
ATOM     77  F   UNL A   1      42.323  44.699  33.627  1.00  0.00    -0.200 F 
ATOM     78  C   UNL A   1      44.607  44.234  33.324  1.00  0.00     0.200 A 
ATOM     79  F   UNL A   1      46.905  43.779  33.337  1.00  0.00    -0.200 F 
ATOM     80  F   UNL A   1      44.814  45.453  32.807  1.00  0.00    -0.200 F 
ENDBRANCH  56  70
BRANCH  57  81
ATOM     81  C   UNL A   1      42.349  32.208  30.213  1.00  0.00     0.064 A 
ATOM     82  C   UNL A   1      40.986  32.488  30.483  1.00  0.00     0.173 A 
ATOM     83  C   UNL A   1      42.629  30.973  29.616  1.00  0.00     0.173 A 
ATOM     84  F   UNL A   1      40.642  33.650  31.061  1.00  0.00    -0.203 F 
ATOM     85  C   UNL A   1      39.957  31.649  30.051  1.00  0.00     0.198 A 
ATOM     86  C   UNL A   1      41.594  30.118  29.208  1.00  0.00     0.198 A 
ATOM     87  F   UNL A   1      43.890  30.640  29.313  1.00  0.00    -0.203 F 
ATOM     88  F   UNL A   1      38.678  32.027  30.190  1.00  0.00    -0.200 F 
ATOM     89  C   UNL A   1      40.263  30.472  29.395  1.00  0.00     0.200 A 
ATOM     90  F   UNL A   1      41.880  29.005  28.517  1.00  0.00    -0.200 F 
ATOM     91  F   UNL A   1      39.282  29.717  28.880  1.00  0.00    -0.200 F 
ENDBRANCH  57  81
BRANCH  69  92
ATOM     92  C   UNL A   1      43.085  39.046  27.728  1.00  0.00     0.064 A 
ATOM     93  C   UNL A   1      41.879  39.734  27.567  1.00  0.00     0.173 A 
ATOM     94  C   UNL A   1      44.135  39.425  26.849  1.00  0.00     0.173 A 
ATOM     95  F   UNL A   1      40.834  39.504  28.375  1.00  0.00    -0.203 F 
ATOM     96  C   UNL A   1      41.730  40.721  26.590  1.00  0.00     0.198 A 
ATOM     97  C   UNL A   1      44.008  40.461  25.935  1.00  0.00     0.198 A 
ATOM     98  F   UNL A   1      45.328  38.816  26.853  1.00  0.00    -0.203 F 
ATOM     99  F   UNL A   1      40.546  41.327  26.437  1.00  0.00    -0.200 F 
ATOM    100  C   UNL A   1      42.801  41.104  25.798  1.00  0.00     0.200 A 
ATOM    101  F   UNL A   1      45.069  40.835  25.207  1.00  0.00    -0.200 F 
ATOM    102  F   UNL A   1      42.672  42.099  24.913  1.00  0.00    -0.200 F 
ENDBRANCH  69  92
ENDBRANCH  43  44
ENDBRANCH  36  38
ENDBRANCH  35  36
ENDBRANCH  34  35
ENDBRANCH  33  34
ENDBRANCH  32  33
ENDBRANCH  31  32
ENDBRANCH   1  31
TORSDOF 20
ENDMDL
MODEL 3
REMARK VINA RESULT:     -12.2      2.282      6.178
REMARK SMILES COc1cc2ccccc2cc1C(=O)Nc1cc(C(=O)OCCOCCOCCOC(=O)c2ccc(-c3c4nc(c(-c5c(F)c(F)c(F)c(F)c5F)c5ccc([nH]5)c(-c5c(F)c(F)c(F)c(F)c5F)c5nc(c(-c6c(F)c(F)c(F)c(F)c6F)c6ccc3[nH]6)C=C5)C=C4)cc2)ccc1C
REMARK SMILES IDX 25 1 24 2 23 3 22 4 21 5 19 6 20 7 18 8 16 9 17 10 98 11
REMARK SMILES IDX 97 12 99 13 96 14 15 15 13 16 14 17 12 19 3 20 4 21 5 22
REMARK SMILES IDX 11 23 6 24 10 25 7 26 9 27 8 28 2 29 1 30 26 31 27 32 28 33
REMARK SMILES IDX 29 34 30 35 31 36 32 37 33 38 34 39 95 40 35 41 94 42 36 43
REMARK SMILES IDX 37 44 38 45 88 46 39 47 93 48 87 49 89 50 40 51 92 52 86 53
REMARK SMILES IDX 85 54 41 56 73 57 53 58 72 59 54 60 57 61 71 62 90 63 55 64
REMARK SMILES IDX 56 65 70 67 91 68 58 69 42 70 43 71 51 72 44 73 45 74 49 75
REMARK SMILES IDX 52 76 46 77 47 78 50 79 48 80 74 81 75 82 83 83 76 84 77 85
REMARK SMILES IDX 81 86 84 87 78 88 79 89 82 90 80 91 59 92 60 93 68 94 61 95
REMARK SMILES IDX 62 96 66 97 69 98 63 99 64 100 67 101 65 102
REMARK H PARENT 15 18 89 55 57 66
REMARK Flexibility Score: inf
ROOT
ATOM      1  C   UNL A   1      35.185  34.299  32.390  1.00  0.00     0.188 C 
ENDROOT
BRANCH   1   2
ATOM      2  O   UNL A   1      34.877  34.044  31.021  1.00  0.00    -0.376 OA
BRANCH   2   3
ATOM      3  C   UNL A   1      34.455  32.861  30.333  1.00  0.00     0.202 C 
BRANCH   3   4
ATOM      4  C   UNL A   1      35.028  32.027  28.938  1.00  0.00     0.261 C 
BRANCH   4   5
ATOM      5  O   UNL A   1      34.358  31.148  27.606  1.00  0.00    -0.460 OA
BRANCH   5   6
ATOM      6  C   UNL A   1      33.769  29.925  27.221  1.00  0.00     0.338 C 
ATOM      7  O   UNL A   1      34.232  28.784  27.267  1.00  0.00    -0.246 OA
BRANCH   6   8
ATOM      8  C   UNL A   1      32.480  29.614  26.596  1.00  0.00     0.062 A 
ATOM      9  C   UNL A   1      32.059  28.601  24.419  1.00  0.00     0.045 A 
ATOM     10  C   UNL A   1      32.608  29.625  25.202  1.00  0.00     0.042 A 
ATOM     11  C   UNL A   1      31.112  27.712  24.960  1.00  0.00    -0.027 A 
ATOM     12  C   UNL A   1      31.049  27.608  26.352  1.00  0.00     0.006 A 
ATOM     13  C   UNL A   1      30.264  26.797  24.118  1.00  0.00     0.046 C 
ATOM     14  C   UNL A   1      31.761  28.513  27.157  1.00  0.00     0.016 A 
BRANCH   9  15
ATOM     15  N   UNL A   1      32.487  28.423  23.089  1.00  0.00    -0.322 N 
ATOM     16  C   UNL A   1      33.511  27.628  22.619  1.00  0.00     0.259 C 
ATOM     17  O   UNL A   1      34.401  28.227  22.009  1.00  0.00    -0.269 OA
ATOM     18  H   UNL A   1      31.990  28.931  22.407  1.00  0.00     0.170 HD
BRANCH  16  19
ATOM     19  C   UNL A   1      33.637  26.113  22.776  1.00  0.00     0.082 A 
ATOM     20  C   UNL A   1      33.462  24.715  21.589  1.00  0.00     0.132 A 
ATOM     21  C   UNL A   1      33.431  22.918  22.226  1.00  0.00     0.056 A 
ATOM     22  C   UNL A   1      33.647  22.563  24.074  1.00  0.00    -0.015 A 
ATOM     23  C   UNL A   1      33.875  25.725  24.558  1.00  0.00     0.026 A 
ATOM     24  C   UNL A   1      33.647  21.340  24.747  1.00  0.00     0.009 A 
ATOM     25  C   UNL A   1      33.889  23.985  25.229  1.00  0.00    -0.017 A 
ATOM     26  C   UNL A   1      33.860  21.268  26.144  1.00  0.00     0.001 A 
ATOM     27  C   UNL A   1      34.048  23.704  26.579  1.00  0.00     0.009 A 
ATOM     28  C   UNL A   1      34.048  22.378  27.009  1.00  0.00     0.001 A 
BRANCH  20  29
ATOM     29  O   UNL A   1      33.269  24.843  20.238  1.00  0.00    -0.496 OA
ATOM     30  C   UNL A   1      32.129  25.576  19.839  1.00  0.00     0.278 C 
ENDBRANCH  20  29
ENDBRANCH  16  19
ENDBRANCH   9  15
ENDBRANCH   6   8
ENDBRANCH   5   6
ENDBRANCH   4   5
ENDBRANCH   3   4
ENDBRANCH   2   3
ENDBRANCH   1   2
BRANCH   1  31
ATOM     31  C   UNL A   1      36.602  34.573  32.856  1.00  0.00     0.188 C 
BRANCH  31  32
ATOM     32  O   UNL A   1      36.617  34.615  34.263  1.00  0.00    -0.376 OA
BRANCH  32  33
ATOM     33  C   UNL A   1      36.961  33.418  34.926  1.00  0.00     0.202 C 
BRANCH  33  34
ATOM     34  C   UNL A   1      37.824  33.610  36.192  1.00  0.00     0.261 C 
BRANCH  34  35
ATOM     35  O   UNL A   1      38.873  34.582  35.970  1.00  0.00    -0.460 OA
BRANCH  35  36
ATOM     36  C   UNL A   1      39.942  34.674  36.836  1.00  0.00     0.338 C 
ATOM     37  O   UNL A   1      40.026  35.452  37.768  1.00  0.00    -0.246 OA
BRANCH  36  38
ATOM     38  C   UNL A   1      41.099  33.876  36.263  1.00  0.00     0.060 A 
ATOM     39  C   UNL A   1      41.312  33.620  34.897  1.00  0.00     0.016 A 
ATOM     40  C   UNL A   1      41.518  32.897  37.083  1.00  0.00     0.016 A 
ATOM     41  C   UNL A   1      41.629  32.276  34.430  1.00  0.00     0.010 A 
ATOM     42  C   UNL A   1      41.208  31.668  36.537  1.00  0.00     0.010 A 
ATOM     43  C   UNL A   1      41.450  31.168  35.260  1.00  0.00    -0.014 A 
BRANCH  43  44
ATOM     44  C   UNL A   1      41.484  29.535  34.899  1.00  0.00     0.031 A 
ATOM     45  C   UNL A   1      42.532  28.292  35.381  1.00  0.00     0.074 A 
ATOM     46  C   UNL A   1      40.770  29.160  33.813  1.00  0.00     0.049 A 
ATOM     47  N   UNL A   1      43.375  27.842  34.501  1.00  0.00    -0.248 NA
ATOM     48  C   UNL A   1      42.941  27.649  36.636  1.00  0.00     0.031 C 
ATOM     49  C   UNL A   1      40.657  27.830  33.231  1.00  0.00     0.029 A 
ATOM     50  N   UNL A   1      40.087  29.982  32.920  1.00  0.00    -0.354 N 
ATOM     51  C   UNL A   1      44.336  26.642  34.866  1.00  0.00     0.074 A 
ATOM     52  C   UNL A   1      44.007  26.883  36.384  1.00  0.00     0.031 C 
ATOM     53  C   UNL A   1      40.301  27.960  31.944  1.00  0.00     0.029 A 
ATOM     54  C   UNL A   1      40.171  29.372  31.666  1.00  0.00     0.049 A 
ATOM     55  H   UNL A   1      39.633  30.830  33.130  1.00  0.00     0.167 HD
ATOM     56  C   UNL A   1      45.322  25.489  33.738  1.00  0.00     0.037 A 
ATOM     57  C   UNL A   1      40.517  30.035  30.539  1.00  0.00     0.037 A 
ATOM     58  C   UNL A   1      45.113  25.217  32.016  1.00  0.00     0.049 A 
ATOM     59  C   UNL A   1      41.506  29.293  29.662  1.00  0.00     0.074 A 
ATOM     60  C   UNL A   1      44.163  24.349  31.422  1.00  0.00     0.029 A 
ATOM     61  N   UNL A   1      45.335  26.170  30.978  1.00  0.00    -0.354 N 
ATOM     62  N   UNL A   1      42.343  28.353  30.039  1.00  0.00    -0.248 NA
ATOM     63  C   UNL A   1      41.588  29.592  28.236  1.00  0.00     0.031 C 
ATOM     64  C   UNL A   1      43.539  25.000  30.340  1.00  0.00     0.029 A 
ATOM     65  C   UNL A   1      44.253  26.146  30.075  1.00  0.00     0.049 A 
ATOM     66  H   UNL A   1      46.124  26.756  30.904  1.00  0.00     0.167 HD
ATOM     67  C   UNL A   1      43.099  27.967  28.943  1.00  0.00     0.074 A 
ATOM     68  C   UNL A   1      42.550  28.745  27.842  1.00  0.00     0.031 C 
ATOM     69  C   UNL A   1      44.112  27.038  28.943  1.00  0.00     0.037 A 
BRANCH  56  70
ATOM     70  C   UNL A   1      46.388  24.038  33.949  1.00  0.00     0.064 A 
ATOM     71  C   UNL A   1      45.862  22.786  34.369  1.00  0.00     0.173 A 
ATOM     72  C   UNL A   1      47.801  24.038  34.007  1.00  0.00     0.173 A 
ATOM     73  F   UNL A   1      44.692  22.308  33.962  1.00  0.00    -0.203 F 
ATOM     74  C   UNL A   1      46.573  21.870  35.147  1.00  0.00     0.198 A 
ATOM     75  C   UNL A   1      48.520  23.150  34.834  1.00  0.00     0.198 A 
ATOM     76  F   UNL A   1      48.517  24.924  33.315  1.00  0.00    -0.203 F 
ATOM     77  F   UNL A   1      45.959  20.759  35.583  1.00  0.00    -0.200 F 
ATOM     78  C   UNL A   1      47.882  22.107  35.467  1.00  0.00     0.200 A 
ATOM     79  F   UNL A   1      49.828  23.344  35.055  1.00  0.00    -0.200 F 
ATOM     80  F   UNL A   1      48.531  21.300  36.318  1.00  0.00    -0.200 F 
ENDBRANCH  56  70
BRANCH  57  81
ATOM     81  C   UNL A   1      40.277  31.514  30.606  1.00  0.00     0.064 A 
ATOM     82  C   UNL A   1      41.396  32.382  30.677  1.00  0.00     0.173 A 
ATOM     83  C   UNL A   1      39.055  32.096  30.251  1.00  0.00     0.173 A 
ATOM     84  F   UNL A   1      42.601  31.897  31.018  1.00  0.00    -0.203 F 
ATOM     85  C   UNL A   1      41.325  33.717  30.276  1.00  0.00     0.198 A 
ATOM     86  C   UNL A   1      38.980  33.446  29.876  1.00  0.00     0.198 A 
ATOM     87  F   UNL A   1      37.953  31.341  30.145  1.00  0.00    -0.203 F 
ATOM     88  F   UNL A   1      42.440  34.461  30.213  1.00  0.00    -0.200 F 
ATOM     89  C   UNL A   1      40.118  34.244  29.857  1.00  0.00     0.200 A 
ATOM     90  F   UNL A   1      37.827  33.948  29.410  1.00  0.00    -0.200 F 
ATOM     91  F   UNL A   1      40.064  35.491  29.367  1.00  0.00    -0.200 F 
ENDBRANCH  57  81
BRANCH  69  92
ATOM     92  C   UNL A   1      44.982  26.694  27.758  1.00  0.00     0.064 A 
ATOM     93  C   UNL A   1      44.630  25.746  26.793  1.00  0.00     0.173 A 
ATOM     94  C   UNL A   1      46.137  27.469  27.472  1.00  0.00     0.173 A 
ATOM     95  F   UNL A   1      43.527  24.996  26.924  1.00  0.00    -0.203 F 
ATOM     96  C   UNL A   1      45.387  25.578  25.631  1.00  0.00     0.198 A 
ATOM     97  C   UNL A   1      46.839  27.354  26.281  1.00  0.00     0.198 A 
ATOM     98  F   UNL A   1      46.622  28.377  28.329  1.00  0.00    -0.203 F 
ATOM     99  F   UNL A   1      45.044  24.629  24.750  1.00  0.00    -0.200 F 
ATOM    100  C   UNL A   1      46.470  26.401  25.362  1.00  0.00     0.200 A 
ATOM    101  F   UNL A   1      47.860  28.186  26.030  1.00  0.00    -0.200 F 
ATOM    102  F   UNL A   1      47.147  26.281  24.215  1.00  0.00    -0.200 F 
ENDBRANCH  69  92
ENDBRANCH  43  44
ENDBRANCH  36  38
ENDBRANCH  35  36
ENDBRANCH  34  35
ENDBRANCH  33  34
ENDBRANCH  32  33
ENDBRANCH  31  32
ENDBRANCH   1  31
TORSDOF 20
ENDMDL
