MODEL 1
REMARK VINA RESULT:     -11.8      0.000      0.000
REMARK SMILES Cc1c(Cl)ccc2c1C=C(C(=O)OCCOCCOCCOC(=O)c1ccc(-c3c4nc(c(-c5c(F)c(F)c(F)c(F)c5F)c5ccc([nH]5)c(-c5c(F)c(F)c(F)c(F)c5F)c5nc(c(-c6c(F)c(F)c(F)c(F)c6F)c6ccc3[nH]6)C=C5)C=C4)cc1)[C@@H](C(F)(F)F)O2
REMARK SMILES IDX 18 1 17 2 16 3 15 4 14 5 13 6 11 7 12 8 10 9 1 10 2 11 3 12
REMARK SMILES IDX 8 13 4 14 5 15 7 16 9 17 6 18 93 19 88 20 89 21 90 22 91 23
REMARK SMILES IDX 92 24 19 25 20 26 21 27 22 28 23 29 24 30 25 31 26 32 87 33
REMARK SMILES IDX 27 34 86 35 28 36 29 37 30 38 80 39 31 40 85 41 79 42 81 43
REMARK SMILES IDX 32 44 84 45 78 46 77 47 33 49 65 50 45 51 64 52 46 53 49 54
REMARK SMILES IDX 63 55 82 56 47 57 48 58 62 60 83 61 50 62 34 63 35 64 43 65
REMARK SMILES IDX 36 66 37 67 41 68 44 69 38 70 39 71 42 72 40 73 66 74 67 75
REMARK SMILES IDX 75 76 68 77 69 78 73 79 76 80 70 81 71 82 74 83 72 84 51 85
REMARK SMILES IDX 52 86 60 87 53 88 54 89 58 90 61 91 55 92 56 93 59 94 57 95
REMARK H PARENT 81 48 49 59
REMARK Flexibility Score: inf
ROOT
ATOM      1  C   UNL A   1      40.870  21.514  27.795  1.00  0.00     0.188 C 
ENDROOT
BRANCH   1   2
ATOM      2  C   UNL A   1      39.796  21.841  26.735  1.00  0.00     0.188 C 
BRANCH   2   3
ATOM      3  O   UNL A   1      39.443  20.899  25.745  1.00  0.00    -0.376 OA
BRANCH   3   4
ATOM      4  C   UNL A   1      38.092  20.700  25.367  1.00  0.00     0.202 C 
BRANCH   4   5
ATOM      5  C   UNL A   1      37.284  21.733  24.573  1.00  0.00     0.261 C 
BRANCH   5   6
ATOM      6  O   UNL A   1      36.019  22.091  25.142  1.00  0.00    -0.460 OA
BRANCH   6   7
ATOM      7  C   UNL A   1      35.993  23.286  25.779  1.00  0.00     0.338 C 
ATOM      8  O   UNL A   1      36.953  23.913  26.199  1.00  0.00    -0.246 OA
BRANCH   7   9
ATOM      9  C   UNL A   1      34.618  23.823  25.762  1.00  0.00     0.087 C 
ATOM     10  C   UNL A   1      34.019  27.902  24.417  1.00  0.00     0.047 C 
ATOM     11  C   UNL A   1      32.924  27.051  25.014  1.00  0.00    -0.021 A 
ATOM     12  C   UNL A   1      31.649  27.603  25.257  1.00  0.00     0.044 A 
ATOM     13  C   UNL A   1      33.154  25.703  25.389  1.00  0.00     0.022 A 
ATOM     14  Cl  UNL A   1      31.302  29.275  24.976  1.00  0.00    -0.084 Cl
ATOM     15  C   UNL A   1      30.610  26.820  25.765  1.00  0.00     0.024 A 
ATOM     16  C   UNL A   1      32.088  24.918  25.855  1.00  0.00     0.128 A 
ATOM     17  C   UNL A   1      34.484  25.099  25.377  1.00  0.00     0.027 C 
ATOM     18  C   UNL A   1      30.822  25.473  26.034  1.00  0.00     0.048 A 
ATOM     19  O   UNL A   1      32.179  23.592  26.168  1.00  0.00    -0.475 OA
ATOM     20  C   UNL A   1      33.474  22.939  26.164  1.00  0.00     0.316 C 
BRANCH  20  21
ATOM     21  C   UNL A   1      33.687  22.292  27.540  1.00  0.00     0.430 C 
ATOM     22  F   UNL A   1      34.134  21.019  27.422  1.00  0.00    -0.167 F 
ATOM     23  F   UNL A   1      34.610  22.960  28.273  1.00  0.00    -0.167 F 
ATOM     24  F   UNL A   1      32.545  22.258  28.263  1.00  0.00    -0.167 F 
ENDBRANCH  20  21
ENDBRANCH   7   9
ENDBRANCH   6   7
ENDBRANCH   5   6
ENDBRANCH   4   5
ENDBRANCH   3   4
ENDBRANCH   2   3
ENDBRANCH   1   2
BRANCH   1  25
ATOM     25  O   UNL A   1      42.239  21.723  27.528  1.00  0.00    -0.376 OA
BRANCH  25  26
ATOM     26  C   UNL A   1      42.824  21.134  26.376  1.00  0.00     0.202 C 
BRANCH  26  27
ATOM     27  C   UNL A   1      43.442  21.971  25.245  1.00  0.00     0.261 C 
BRANCH  27  28
ATOM     28  O   UNL A   1      42.773  23.206  24.954  1.00  0.00    -0.460 OA
BRANCH  28  29
ATOM     29  C   UNL A   1      43.537  24.319  25.074  1.00  0.00     0.338 C 
ATOM     30  O   UNL A   1      44.565  24.588  24.481  1.00  0.00    -0.246 OA
BRANCH  29  31
ATOM     31  C   UNL A   1      42.843  25.290  25.939  1.00  0.00     0.060 A 
ATOM     32  C   UNL A   1      43.386  26.575  26.080  1.00  0.00     0.016 A 
ATOM     33  C   UNL A   1      41.708  24.911  26.655  1.00  0.00     0.016 A 
ATOM     34  C   UNL A   1      42.792  27.491  26.945  1.00  0.00     0.010 A 
ATOM     35  C   UNL A   1      41.139  25.815  27.555  1.00  0.00     0.010 A 
ATOM     36  C   UNL A   1      41.694  27.098  27.721  1.00  0.00    -0.014 A 
BRANCH  36  37
ATOM     37  C   UNL A   1      41.278  27.939  28.866  1.00  0.00     0.031 A 
ATOM     38  C   UNL A   1      42.056  27.820  30.147  1.00  0.00     0.074 A 
ATOM     39  C   UNL A   1      40.248  28.797  28.770  1.00  0.00     0.049 A 
ATOM     40  N   UNL A   1      41.849  28.400  31.300  1.00  0.00    -0.248 NA
ATOM     41  C   UNL A   1      43.230  26.931  30.121  1.00  0.00     0.031 C 
ATOM     42  C   UNL A   1      39.460  29.042  27.565  1.00  0.00     0.029 A 
ATOM     43  N   UNL A   1      39.683  29.614  29.718  1.00  0.00    -0.354 N 
ATOM     44  C   UNL A   1      42.867  27.951  32.132  1.00  0.00     0.074 A 
ATOM     45  C   UNL A   1      43.679  27.036  31.362  1.00  0.00     0.031 C 
ATOM     46  C   UNL A   1      38.497  29.936  27.853  1.00  0.00     0.029 A 
ATOM     47  C   UNL A   1      38.582  30.298  29.268  1.00  0.00     0.049 A 
ATOM     48  H   UNL A   1      40.036  29.702  30.633  1.00  0.00     0.167 HD
ATOM     49  C   UNL A   1      43.103  28.280  33.422  1.00  0.00     0.037 A 
ATOM     50  C   UNL A   1      37.726  31.098  29.935  1.00  0.00     0.037 A 
ATOM     51  C   UNL A   1      42.285  29.175  34.191  1.00  0.00     0.049 A 
ATOM     52  C   UNL A   1      37.952  31.363  31.405  1.00  0.00     0.074 A 
ATOM     53  C   UNL A   1      42.444  29.569  35.508  1.00  0.00     0.029 A 
ATOM     54  N   UNL A   1      41.147  29.810  33.716  1.00  0.00    -0.354 N 
ATOM     55  N   UNL A   1      38.924  30.949  32.182  1.00  0.00    -0.248 NA
ATOM     56  C   UNL A   1      36.959  32.203  32.090  1.00  0.00     0.031 C 
ATOM     57  C   UNL A   1      41.372  30.398  35.846  1.00  0.00     0.029 A 
ATOM     58  C   UNL A   1      40.577  30.568  34.724  1.00  0.00     0.049 A 
ATOM     59  H   UNL A   1      40.797  29.732  32.798  1.00  0.00     0.167 HD
ATOM     60  C   UNL A   1      38.675  31.498  33.434  1.00  0.00     0.074 A 
ATOM     61  C   UNL A   1      37.469  32.288  33.311  1.00  0.00     0.031 C 
ATOM     62  C   UNL A   1      39.381  31.359  34.583  1.00  0.00     0.037 A 
BRANCH  49  63
ATOM     63  C   UNL A   1      44.284  27.653  34.097  1.00  0.00     0.064 A 
ATOM     64  C   UNL A   1      45.550  28.254  34.064  1.00  0.00     0.173 A 
ATOM     65  C   UNL A   1      44.130  26.480  34.851  1.00  0.00     0.173 A 
ATOM     66  F   UNL A   1      45.752  29.366  33.341  1.00  0.00    -0.203 F 
ATOM     67  C   UNL A   1      46.621  27.702  34.762  1.00  0.00     0.198 A 
ATOM     68  C   UNL A   1      45.196  25.946  35.567  1.00  0.00     0.198 A 
ATOM     69  F   UNL A   1      42.938  25.866  34.911  1.00  0.00    -0.203 F 
ATOM     70  F   UNL A   1      47.829  28.280  34.698  1.00  0.00    -0.200 F 
ATOM     71  C   UNL A   1      46.440  26.557  35.522  1.00  0.00     0.200 A 
ATOM     72  F   UNL A   1      45.017  24.845  36.311  1.00  0.00    -0.200 F 
ATOM     73  F   UNL A   1      47.467  26.040  36.212  1.00  0.00    -0.200 F 
ENDBRANCH  49  63
BRANCH  50  74
ATOM     74  C   UNL A   1      36.559  31.695  29.233  1.00  0.00     0.064 A 
ATOM     75  C   UNL A   1      36.495  33.072  28.976  1.00  0.00     0.173 A 
ATOM     76  C   UNL A   1      35.470  30.907  28.829  1.00  0.00     0.173 A 
ATOM     77  F   UNL A   1      37.497  33.872  29.370  1.00  0.00    -0.203 F 
ATOM     78  C   UNL A   1      35.381  33.639  28.360  1.00  0.00     0.198 A 
ATOM     79  C   UNL A   1      34.370  31.472  28.186  1.00  0.00     0.198 A 
ATOM     80  F   UNL A   1      35.476  29.586  29.057  1.00  0.00    -0.203 F 
ATOM     81  F   UNL A   1      35.324  34.965  28.175  1.00  0.00    -0.200 F 
ATOM     82  C   UNL A   1      34.323  32.838  27.960  1.00  0.00     0.200 A 
ATOM     83  F   UNL A   1      33.354  30.692  27.794  1.00  0.00    -0.200 F 
ATOM     84  F   UNL A   1      33.253  33.385  27.367  1.00  0.00    -0.200 F 
ENDBRANCH  50  74
BRANCH  62  85
ATOM     85  C   UNL A   1      38.892  32.088  35.801  1.00  0.00     0.064 A 
ATOM     86  C   UNL A   1      38.157  31.437  36.802  1.00  0.00     0.173 A 
ATOM     87  C   UNL A   1      39.237  33.433  36.011  1.00  0.00     0.173 A 
ATOM     88  F   UNL A   1      37.794  30.155  36.646  1.00  0.00    -0.203 F 
ATOM     89  C   UNL A   1      37.773  32.109  37.960  1.00  0.00     0.198 A 
ATOM     90  C   UNL A   1      38.880  34.092  37.184  1.00  0.00     0.198 A 
ATOM     91  F   UNL A   1      39.951  34.100  35.090  1.00  0.00    -0.203 F 
ATOM     92  F   UNL A   1      37.041  31.476  38.887  1.00  0.00    -0.200 F 
ATOM     93  C   UNL A   1      38.144  33.431  38.154  1.00  0.00     0.200 A 
ATOM     94  F   UNL A   1      39.257  35.363  37.378  1.00  0.00    -0.200 F 
ATOM     95  F   UNL A   1      37.791  34.069  39.279  1.00  0.00    -0.200 F 
ENDBRANCH  62  85
ENDBRANCH  36  37
ENDBRANCH  29  31
ENDBRANCH  28  29
ENDBRANCH  27  28
ENDBRANCH  26  27
ENDBRANCH  25  26
ENDBRANCH   1  25
TORSDOF 18
ENDMDL
MODEL 2
REMARK VINA RESULT:     -11.3      1.293      7.368
REMARK SMILES Cc1c(Cl)ccc2c1C=C(C(=O)OCCOCCOCCOC(=O)c1ccc(-c3c4nc(c(-c5c(F)c(F)c(F)c(F)c5F)c5ccc([nH]5)c(-c5c(F)c(F)c(F)c(F)c5F)c5nc(c(-c6c(F)c(F)c(F)c(F)c6F)c6ccc3[nH]6)C=C5)C=C4)cc1)[C@@H](C(F)(F)F)O2
REMARK SMILES IDX 18 1 17 2 16 3 15 4 14 5 13 6 11 7 12 8 10 9 1 10 2 11 3 12
REMARK SMILES IDX 8 13 4 14 5 15 7 16 9 17 6 18 93 19 88 20 89 21 90 22 91 23
REMARK SMILES IDX 92 24 19 25 20 26 21 27 22 28 23 29 24 30 25 31 26 32 87 33
REMARK SMILES IDX 27 34 86 35 28 36 29 37 30 38 80 39 31 40 85 41 79 42 81 43
REMARK SMILES IDX 32 44 84 45 78 46 77 47 33 49 65 50 45 51 64 52 46 53 49 54
REMARK SMILES IDX 63 55 82 56 47 57 48 58 62 60 83 61 50 62 34 63 35 64 43 65
REMARK SMILES IDX 36 66 37 67 41 68 44 69 38 70 39 71 42 72 40 73 66 74 67 75
REMARK SMILES IDX 75 76 68 77 69 78 73 79 76 80 70 81 71 82 74 83 72 84 51 85
REMARK SMILES IDX 52 86 60 87 53 88 54 89 58 90 61 91 55 92 56 93 59 94 57 95
REMARK H PARENT 81 48 49 59
REMARK Flexibility Score: inf
ROOT
ATOM      1  C   UNL A   1      41.810  21.875  26.282  1.00  0.00     0.188 C 
ENDROOT
BRANCH   1   2
ATOM      2  C   UNL A   1      40.327  21.542  26.012  1.00  0.00     0.188 C 
BRANCH   2   3
ATOM      3  O   UNL A   1      39.301  22.112  26.796  1.00  0.00    -0.376 OA
BRANCH   3   4
ATOM      4  C   UNL A   1      38.821  23.420  26.542  1.00  0.00     0.202 C 
BRANCH   4   5
ATOM      5  C   UNL A   1      37.418  23.705  25.993  1.00  0.00     0.261 C 
BRANCH   5   6
ATOM      6  O   UNL A   1      36.484  22.623  26.104  1.00  0.00    -0.460 OA
BRANCH   6   7
ATOM      7  C   UNL A   1      35.204  22.992  26.349  1.00  0.00     0.338 C 
ATOM      8  O   UNL A   1      34.634  22.987  27.428  1.00  0.00    -0.246 OA
BRANCH   7   9
ATOM      9  C   UNL A   1      34.616  23.569  25.124  1.00  0.00     0.087 C 
ATOM     10  C   UNL A   1      33.665  27.799  25.092  1.00  0.00     0.047 C 
ATOM     11  C   UNL A   1      33.288  26.851  23.980  1.00  0.00    -0.021 A 
ATOM     12  C   UNL A   1      32.497  27.302  22.901  1.00  0.00     0.044 A 
ATOM     13  C   UNL A   1      33.668  25.486  24.008  1.00  0.00     0.022 A 
ATOM     14  Cl  UNL A   1      31.855  28.907  22.838  1.00  0.00    -0.084 Cl
ATOM     15  C   UNL A   1      32.177  26.452  21.839  1.00  0.00     0.024 A 
ATOM     16  C   UNL A   1      33.377  24.658  22.913  1.00  0.00     0.128 A 
ATOM     17  C   UNL A   1      34.301  24.870  25.171  1.00  0.00     0.027 C 
ATOM     18  C   UNL A   1      32.643  25.143  21.832  1.00  0.00     0.048 A 
ATOM     19  O   UNL A   1      33.764  23.354  22.801  1.00  0.00    -0.475 OA
ATOM     20  C   UNL A   1      34.406  22.695  23.922  1.00  0.00     0.316 C 
BRANCH  20  21
ATOM     21  C   UNL A   1      33.606  21.426  24.251  1.00  0.00     0.430 C 
ATOM     22  F   UNL A   1      34.422  20.417  24.640  1.00  0.00    -0.167 F 
ATOM     23  F   UNL A   1      32.733  21.631  25.266  1.00  0.00    -0.167 F 
ATOM     24  F   UNL A   1      32.894  20.989  23.188  1.00  0.00    -0.167 F 
ENDBRANCH  20  21
ENDBRANCH   7   9
ENDBRANCH   6   7
ENDBRANCH   5   6
ENDBRANCH   4   5
ENDBRANCH   3   4
ENDBRANCH   2   3
ENDBRANCH   1   2
BRANCH   1  25
ATOM     25  O   UNL A   1      42.841  21.163  25.635  1.00  0.00    -0.376 OA
BRANCH  25  26
ATOM     26  C   UNL A   1      44.077  21.810  25.370  1.00  0.00     0.202 C 
BRANCH  26  27
ATOM     27  C   UNL A   1      44.231  22.882  24.279  1.00  0.00     0.261 C 
BRANCH  27  28
ATOM     28  O   UNL A   1      43.517  24.104  24.508  1.00  0.00    -0.460 OA
BRANCH  28  29
ATOM     29  C   UNL A   1      44.262  25.122  25.007  1.00  0.00     0.338 C 
ATOM     30  O   UNL A   1      45.361  25.494  24.639  1.00  0.00    -0.246 OA
BRANCH  29  31
ATOM     31  C   UNL A   1      43.460  25.867  25.994  1.00  0.00     0.060 A 
ATOM     32  C   UNL A   1      43.799  27.200  26.269  1.00  0.00     0.016 A 
ATOM     33  C   UNL A   1      42.432  25.234  26.689  1.00  0.00     0.016 A 
ATOM     34  C   UNL A   1      43.106  27.907  27.247  1.00  0.00     0.010 A 
ATOM     35  C   UNL A   1      41.766  25.930  27.701  1.00  0.00     0.010 A 
ATOM     36  C   UNL A   1      42.118  27.260  28.000  1.00  0.00    -0.014 A 
BRANCH  36  37
ATOM     37  C   UNL A   1      41.623  27.892  29.244  1.00  0.00     0.031 A 
ATOM     38  C   UNL A   1      40.375  28.726  29.161  1.00  0.00     0.074 A 
ATOM     39  C   UNL A   1      42.254  27.720  30.418  1.00  0.00     0.049 A 
ATOM     40  N   UNL A   1      39.784  29.428  30.092  1.00  0.00    -0.248 NA
ATOM     41  C   UNL A   1      39.700  28.768  27.853  1.00  0.00     0.031 C 
ATOM     42  C   UNL A   1      43.434  26.887  30.632  1.00  0.00     0.029 A 
ATOM     43  N   UNL A   1      41.986  28.254  31.654  1.00  0.00    -0.354 N 
ATOM     44  C   UNL A   1      38.668  29.988  29.484  1.00  0.00     0.074 A 
ATOM     45  C   UNL A   1      38.673  29.566  28.102  1.00  0.00     0.031 C 
ATOM     46  C   UNL A   1      43.803  26.984  31.921  1.00  0.00     0.029 A 
ATOM     47  C   UNL A   1      42.906  27.910  32.613  1.00  0.00     0.049 A 
ATOM     48  H   UNL A   1      41.208  28.830  31.836  1.00  0.00     0.167 HD
ATOM     49  C   UNL A   1      37.722  30.782  30.035  1.00  0.00     0.037 A 
ATOM     50  C   UNL A   1      43.022  28.322  33.891  1.00  0.00     0.037 A 
ATOM     51  C   UNL A   1      37.728  31.217  31.405  1.00  0.00     0.049 A 
ATOM     52  C   UNL A   1      42.011  29.295  34.450  1.00  0.00     0.074 A 
ATOM     53  C   UNL A   1      36.811  32.024  32.055  1.00  0.00     0.029 A 
ATOM     54  N   UNL A   1      38.703  30.887  32.333  1.00  0.00    -0.354 N 
ATOM     55  N   UNL A   1      40.950  29.809  33.876  1.00  0.00    -0.248 NA
ATOM     56  C   UNL A   1      42.217  29.747  35.835  1.00  0.00     0.031 C 
ATOM     57  C   UNL A   1      37.262  32.229  33.361  1.00  0.00     0.029 A 
ATOM     58  C   UNL A   1      38.428  31.501  33.542  1.00  0.00     0.049 A 
ATOM     59  H   UNL A   1      39.478  30.304  32.157  1.00  0.00     0.167 HD
ATOM     60  C   UNL A   1      40.351  30.619  34.834  1.00  0.00     0.074 A 
ATOM     61  C   UNL A   1      41.157  30.518  36.031  1.00  0.00     0.031 C 
ATOM     62  C   UNL A   1      39.235  31.381  34.729  1.00  0.00     0.037 A 
BRANCH  49  63
ATOM     63  C   UNL A   1      36.605  31.253  29.154  1.00  0.00     0.064 A 
ATOM     64  C   UNL A   1      35.567  30.396  28.767  1.00  0.00     0.173 A 
ATOM     65  C   UNL A   1      36.534  32.597  28.758  1.00  0.00     0.173 A 
ATOM     66  F   UNL A   1      35.600  29.098  29.105  1.00  0.00    -0.203 F 
ATOM     67  C   UNL A   1      34.495  30.867  28.013  1.00  0.00     0.198 A 
ATOM     68  C   UNL A   1      35.450  33.070  28.027  1.00  0.00     0.198 A 
ATOM     69  F   UNL A   1      37.506  33.456  29.102  1.00  0.00    -0.203 F 
ATOM     70  F   UNL A   1      33.524  30.025  27.634  1.00  0.00    -0.200 F 
ATOM     71  C   UNL A   1      34.431  32.205  27.655  1.00  0.00     0.200 A 
ATOM     72  F   UNL A   1      35.384  34.366  27.692  1.00  0.00    -0.200 F 
ATOM     73  F   UNL A   1      33.387  32.662  26.950  1.00  0.00    -0.200 F 
ENDBRANCH  49  63
BRANCH  50  74
ATOM     74  C   UNL A   1      44.149  27.839  34.733  1.00  0.00     0.064 A 
ATOM     75  C   UNL A   1      44.050  26.645  35.460  1.00  0.00     0.173 A 
ATOM     76  C   UNL A   1      45.339  28.575  34.850  1.00  0.00     0.173 A 
ATOM     77  F   UNL A   1      42.922  25.921  35.405  1.00  0.00    -0.203 F 
ATOM     78  C   UNL A   1      45.087  26.215  36.286  1.00  0.00     0.198 A 
ATOM     79  C   UNL A   1      46.387  28.129  35.653  1.00  0.00     0.198 A 
ATOM     80  F   UNL A   1      45.483  29.729  34.183  1.00  0.00    -0.203 F 
ATOM     81  F   UNL A   1      44.944  25.097  37.010  1.00  0.00    -0.200 F 
ATOM     82  C   UNL A   1      46.257  26.954  36.377  1.00  0.00     0.200 A 
ATOM     83  F   UNL A   1      47.518  28.842  35.731  1.00  0.00    -0.200 F 
ATOM     84  F   UNL A   1      47.254  26.539  37.170  1.00  0.00    -0.200 F 
ENDBRANCH  50  74
BRANCH  62  85
ATOM     85  C   UNL A   1      38.794  32.152  35.941  1.00  0.00     0.064 A 
ATOM     86  C   UNL A   1      38.111  31.532  36.997  1.00  0.00     0.173 A 
ATOM     87  C   UNL A   1      39.136  33.506  36.085  1.00  0.00     0.173 A 
ATOM     88  F   UNL A   1      37.753  30.243  36.904  1.00  0.00    -0.203 F 
ATOM     89  C   UNL A   1      37.773  32.244  38.146  1.00  0.00     0.198 A 
ATOM     90  C   UNL A   1      38.826  34.205  37.249  1.00  0.00     0.198 A 
ATOM     91  F   UNL A   1      39.801  34.144  35.109  1.00  0.00    -0.203 F 
ATOM     92  F   UNL A   1      37.089  31.640  39.127  1.00  0.00    -0.200 F 
ATOM     93  C   UNL A   1      38.140  33.575  38.275  1.00  0.00     0.200 A 
ATOM     94  F   UNL A   1      39.199  35.485  37.379  1.00  0.00    -0.200 F 
ATOM     95  F   UNL A   1      37.832  34.251  39.390  1.00  0.00    -0.200 F 
ENDBRANCH  62  85
ENDBRANCH  36  37
ENDBRANCH  29  31
ENDBRANCH  28  29
ENDBRANCH  27  28
ENDBRANCH  26  27
ENDBRANCH  25  26
ENDBRANCH   1  25
TORSDOF 18
ENDMDL
MODEL 3
REMARK VINA RESULT:     -11.3      3.357      8.365
REMARK SMILES Cc1c(Cl)ccc2c1C=C(C(=O)OCCOCCOCCOC(=O)c1ccc(-c3c4nc(c(-c5c(F)c(F)c(F)c(F)c5F)c5ccc([nH]5)c(-c5c(F)c(F)c(F)c(F)c5F)c5nc(c(-c6c(F)c(F)c(F)c(F)c6F)c6ccc3[nH]6)C=C5)C=C4)cc1)[C@@H](C(F)(F)F)O2
REMARK SMILES IDX 18 1 17 2 16 3 15 4 14 5 13 6 11 7 12 8 10 9 1 10 2 11 3 12
REMARK SMILES IDX 8 13 4 14 5 15 7 16 9 17 6 18 93 19 88 20 89 21 90 22 91 23
REMARK SMILES IDX 92 24 19 25 20 26 21 27 22 28 23 29 24 30 25 31 26 32 87 33
REMARK SMILES IDX 27 34 86 35 28 36 29 37 30 38 80 39 31 40 85 41 79 42 81 43
REMARK SMILES IDX 32 44 84 45 78 46 77 47 33 49 65 50 45 51 64 52 46 53 49 54
REMARK SMILES IDX 63 55 82 56 47 57 48 58 62 60 83 61 50 62 34 63 35 64 43 65
REMARK SMILES IDX 36 66 37 67 41 68 44 69 38 70 39 71 42 72 40 73 66 74 67 75
REMARK SMILES IDX 75 76 68 77 69 78 73 79 76 80 70 81 71 82 74 83 72 84 51 85
REMARK SMILES IDX 52 86 60 87 53 88 54 89 58 90 61 91 55 92 56 93 59 94 57 95
REMARK H PARENT 81 48 49 59
REMARK Flexibility Score: inf
ROOT
ATOM      1  C   UNL A   1      31.531  29.308  25.125  1.00  0.00     0.188 C 
ENDROOT
BRANCH   1   2
ATOM      2  C   UNL A   1      32.945  29.195  24.516  1.00  0.00     0.188 C 
BRANCH   2   3
ATOM      3  O   UNL A   1      33.150  29.334  23.127  1.00  0.00    -0.376 OA
BRANCH   3   4
ATOM      4  C   UNL A   1      33.715  28.286  22.358  1.00  0.00     0.202 C 
BRANCH   4   5
ATOM      5  C   UNL A   1      33.215  26.838  22.421  1.00  0.00     0.261 C 
BRANCH   5   6
ATOM      6  O   UNL A   1      34.022  25.944  23.196  1.00  0.00    -0.460 OA
BRANCH   6   7
ATOM      7  C   UNL A   1      33.371  25.301  24.195  1.00  0.00     0.338 C 
ATOM      8  O   UNL A   1      32.329  25.644  24.730  1.00  0.00    -0.246 OA
BRANCH   7   9
ATOM      9  C   UNL A   1      34.027  24.004  24.455  1.00  0.00     0.087 C 
ATOM     10  C   UNL A   1      38.059  24.022  26.051  1.00  0.00     0.047 C 
ATOM     11  C   UNL A   1      37.345  22.769  25.603  1.00  0.00    -0.021 A 
ATOM     12  C   UNL A   1      38.022  21.531  25.591  1.00  0.00     0.044 A 
ATOM     13  C   UNL A   1      36.006  22.806  25.138  1.00  0.00     0.022 A 
ATOM     14  Cl  UNL A   1      39.699  21.397  25.995  1.00  0.00    -0.084 Cl
ATOM     15  C   UNL A   1      37.365  20.355  25.224  1.00  0.00     0.024 A 
ATOM     16  C   UNL A   1      35.347  21.609  24.816  1.00  0.00     0.128 A 
ATOM     17  C   UNL A   1      35.286  24.056  24.911  1.00  0.00     0.027 C 
ATOM     18  C   UNL A   1      36.022  20.391  24.868  1.00  0.00     0.048 A 
ATOM     19  O   UNL A   1      34.039  21.521  24.437  1.00  0.00    -0.475 OA
ATOM     20  C   UNL A   1      33.274  22.731  24.206  1.00  0.00     0.316 C 
BRANCH  20  21
ATOM     21  C   UNL A   1      32.690  22.663  22.787  1.00  0.00     0.430 C 
ATOM     22  F   UNL A   1      31.550  23.388  22.688  1.00  0.00    -0.167 F 
ATOM     23  F   UNL A   1      33.548  23.161  21.865  1.00  0.00    -0.167 F 
ATOM     24  F   UNL A   1      32.398  21.393  22.422  1.00  0.00    -0.167 F 
ENDBRANCH  20  21
ENDBRANCH   7   9
ENDBRANCH   6   7
ENDBRANCH   5   6
ENDBRANCH   4   5
ENDBRANCH   3   4
ENDBRANCH   2   3
ENDBRANCH   1   2
BRANCH   1  25
ATOM     25  O   UNL A   1      30.644  30.326  24.715  1.00  0.00    -0.376 OA
BRANCH  25  26
ATOM     26  C   UNL A   1      30.655  31.575  25.389  1.00  0.00     0.202 C 
BRANCH  26  27
ATOM     27  C   UNL A   1      31.355  31.777  26.742  1.00  0.00     0.261 C 
BRANCH  27  28
ATOM     28  O   UNL A   1      32.785  31.870  26.690  1.00  0.00    -0.460 OA
BRANCH  28  29
ATOM     29  C   UNL A   1      33.336  32.771  27.540  1.00  0.00     0.338 C 
ATOM     30  O   UNL A   1      32.831  33.785  27.985  1.00  0.00    -0.246 OA
BRANCH  29  31
ATOM     31  C   UNL A   1      34.633  32.256  28.014  1.00  0.00     0.060 A 
ATOM     32  C   UNL A   1      34.736  30.899  28.353  1.00  0.00     0.016 A 
ATOM     33  C   UNL A   1      35.714  33.120  28.189  1.00  0.00     0.016 A 
ATOM     34  C   UNL A   1      35.928  30.399  28.871  1.00  0.00     0.010 A 
ATOM     35  C   UNL A   1      36.895  32.626  28.750  1.00  0.00     0.010 A 
ATOM     36  C   UNL A   1      36.996  31.271  29.116  1.00  0.00    -0.014 A 
BRANCH  36  37
ATOM     37  C   UNL A   1      38.122  30.818  29.964  1.00  0.00     0.031 A 
ATOM     38  C   UNL A   1      39.107  29.852  29.368  1.00  0.00     0.074 A 
ATOM     39  C   UNL A   1      38.276  31.263  31.222  1.00  0.00     0.049 A 
ATOM     40  N   UNL A   1      40.134  29.265  29.926  1.00  0.00    -0.248 NA
ATOM     41  C   UNL A   1      38.911  29.505  27.950  1.00  0.00     0.031 C 
ATOM     42  C   UNL A   1      37.422  32.245  31.885  1.00  0.00     0.029 A 
ATOM     43  N   UNL A   1      39.211  30.930  32.172  1.00  0.00    -0.354 N 
ATOM     44  C   UNL A   1      40.706  28.487  28.928  1.00  0.00     0.074 A 
ATOM     45  C   UNL A   1      39.905  28.657  27.737  1.00  0.00     0.031 C 
ATOM     46  C   UNL A   1      37.859  32.419  33.144  1.00  0.00     0.029 A 
ATOM     47  C   UNL A   1      39.002  31.537  33.385  1.00  0.00     0.049 A 
ATOM     48  H   UNL A   1      39.959  30.314  31.999  1.00  0.00     0.167 HD
ATOM     49  C   UNL A   1      41.807  27.705  29.001  1.00  0.00     0.037 A 
ATOM     50  C   UNL A   1      39.644  31.373  34.558  1.00  0.00     0.037 A 
ATOM     51  C   UNL A   1      42.592  27.523  30.190  1.00  0.00     0.049 A 
ATOM     52  C   UNL A   1      40.805  30.409  34.639  1.00  0.00     0.074 A 
ATOM     53  C   UNL A   1      43.726  26.748  30.362  1.00  0.00     0.029 A 
ATOM     54  N   UNL A   1      42.321  28.116  31.414  1.00  0.00    -0.354 N 
ATOM     55  N   UNL A   1      41.352  29.689  33.690  1.00  0.00    -0.248 NA
ATOM     56  C   UNL A   1      41.435  30.235  35.956  1.00  0.00     0.031 C 
ATOM     57  C   UNL A   1      44.107  26.828  31.703  1.00  0.00     0.029 A 
ATOM     58  C   UNL A   1      43.247  27.699  32.354  1.00  0.00     0.049 A 
ATOM     59  H   UNL A   1      41.578  28.740  31.588  1.00  0.00     0.167 HD
ATOM     60  C   UNL A   1      42.401  29.000  34.286  1.00  0.00     0.074 A 
ATOM     61  C   UNL A   1      42.426  29.399  35.677  1.00  0.00     0.031 C 
ATOM     62  C   UNL A   1      43.265  28.114  33.733  1.00  0.00     0.037 A 
BRANCH  49  63
ATOM     63  C   UNL A   1      42.222  26.966  27.766  1.00  0.00     0.064 A 
ATOM     64  C   UNL A   1      43.176  27.493  26.884  1.00  0.00     0.173 A 
ATOM     65  C   UNL A   1      41.717  25.684  27.503  1.00  0.00     0.173 A 
ATOM     66  F   UNL A   1      43.674  28.723  27.082  1.00  0.00    -0.203 F 
ATOM     67  C   UNL A   1      43.611  26.761  25.782  1.00  0.00     0.198 A 
ATOM     68  C   UNL A   1      42.173  24.946  26.416  1.00  0.00     0.198 A 
ATOM     69  F   UNL A   1      40.800  25.139  28.317  1.00  0.00    -0.203 F 
ATOM     70  F   UNL A   1      44.507  27.292  24.939  1.00  0.00    -0.200 F 
ATOM     71  C   UNL A   1      43.118  25.484  25.557  1.00  0.00     0.200 A 
ATOM     72  F   UNL A   1      41.704  23.707  26.206  1.00  0.00    -0.200 F 
ATOM     73  F   UNL A   1      43.556  24.772  24.509  1.00  0.00    -0.200 F 
ENDBRANCH  49  63
BRANCH  50  74
ATOM     74  C   UNL A   1      39.197  32.116  35.766  1.00  0.00     0.064 A 
ATOM     75  C   UNL A   1      39.683  33.401  36.046  1.00  0.00     0.173 A 
ATOM     76  C   UNL A   1      38.297  31.549  36.681  1.00  0.00     0.173 A 
ATOM     77  F   UNL A   1      40.570  33.975  35.219  1.00  0.00    -0.203 F 
ATOM     78  C   UNL A   1      39.302  34.081  37.201  1.00  0.00     0.198 A 
ATOM     79  C   UNL A   1      37.893  32.242  37.820  1.00  0.00     0.198 A 
ATOM     80  F   UNL A   1      37.807  30.319  36.466  1.00  0.00    -0.203 F 
ATOM     81  F   UNL A   1      39.823  35.286  37.470  1.00  0.00    -0.200 F 
ATOM     82  C   UNL A   1      38.402  33.503  38.084  1.00  0.00     0.200 A 
ATOM     83  F   UNL A   1      37.016  31.682  38.665  1.00  0.00    -0.200 F 
ATOM     84  F   UNL A   1      38.034  34.158  39.193  1.00  0.00    -0.200 F 
ENDBRANCH  50  74
BRANCH  62  85
ATOM     85  C   UNL A   1      44.330  27.526  34.614  1.00  0.00     0.064 A 
ATOM     86  C   UNL A   1      44.160  26.285  35.244  1.00  0.00     0.173 A 
ATOM     87  C   UNL A   1      45.568  28.172  34.759  1.00  0.00     0.173 A 
ATOM     88  F   UNL A   1      42.992  25.633  35.144  1.00  0.00    -0.203 F 
ATOM     89  C   UNL A   1      45.184  25.720  35.999  1.00  0.00     0.198 A 
ATOM     90  C   UNL A   1      46.602  27.588  35.487  1.00  0.00     0.198 A 
ATOM     91  F   UNL A   1      45.788  29.356  34.166  1.00  0.00    -0.203 F 
ATOM     92  F   UNL A   1      44.987  24.549  36.621  1.00  0.00    -0.200 F 
ATOM     93  C   UNL A   1      46.407  26.366  36.111  1.00  0.00     0.200 A 
ATOM     94  F   UNL A   1      47.788  28.204  35.577  1.00  0.00    -0.200 F 
ATOM     95  F   UNL A   1      47.397  25.809  36.820  1.00  0.00    -0.200 F 
ENDBRANCH  62  85
ENDBRANCH  36  37
ENDBRANCH  29  31
ENDBRANCH  28  29
ENDBRANCH  27  28
ENDBRANCH  26  27
ENDBRANCH  25  26
ENDBRANCH   1  25
TORSDOF 18
ENDMDL
