MODEL 1
REMARK VINA RESULT:     -10.7      0.000      0.000
REMARK SMILES CSCC[C@H](NC(=O)Cc1c(C)c2ccc(O)cc2oc1=O)C(=O)OCCOCCOCCOC(=O)c1ccc(-c2c3nc(c(-c4c(F)c(F)c(F)c(F)c4F)c4ccc([nH]4)c(-c4c(F)c(F)c(F)c(F)c4F)c4nc(c(-c5c(F)c(F)c(F)c(F)c5F)c5ccc2[nH]5)C=C4)C=C3)cc1
REMARK SMILES IDX 29 1 28 2 27 3 26 4 25 5 23 6 24 7 5 8 4 9 3 10 2 11 1 12
REMARK SMILES IDX 6 13 7 14 8 16 9 17 10 18 11 19 21 20 12 21 13 22 20 23
REMARK SMILES IDX 22 24 14 25 19 26 15 27 18 28 16 29 17 30 30 32 31 33 32 34
REMARK SMILES IDX 33 35 34 36 35 37 36 38 37 39 38 40 99 41 39 42 98 43 40 44
REMARK SMILES IDX 41 45 42 46 92 47 43 48 97 49 91 50 93 51 44 52 96 53 90 54
REMARK SMILES IDX 89 55 45 57 77 58 57 59 76 60 58 61 61 62 75 63 94 64 59 65
REMARK SMILES IDX 60 66 74 68 95 69 62 70 46 71 47 72 55 73 48 74 49 75 53 76
REMARK SMILES IDX 56 77 50 78 51 79 54 80 52 81 78 82 79 83 87 84 80 85 81 86
REMARK SMILES IDX 85 87 88 88 82 89 83 90 86 91 84 92 63 93 64 94 72 95 65 96
REMARK SMILES IDX 66 97 70 98 73 99 67 100 68 101 71 102 69 103
REMARK H PARENT 6 15 17 31 93 56 61 67
REMARK Flexibility Score: inf
ROOT
ATOM      1  C   UNL A   1      34.593  31.447  28.383  1.00  0.00     0.188 C 
ENDROOT
BRANCH   1   2
ATOM      2  O   UNL A   1      34.571  30.627  27.219  1.00  0.00    -0.376 OA
BRANCH   2   3
ATOM      3  C   UNL A   1      33.423  29.801  27.036  1.00  0.00     0.202 C 
BRANCH   3   4
ATOM      4  C   UNL A   1      32.816  29.887  25.634  1.00  0.00     0.261 C 
BRANCH   4   5
ATOM      5  O   UNL A   1      32.930  28.633  24.920  1.00  0.00    -0.462 OA
BRANCH   5   6
ATOM      6  C   UNL A   1      32.746  28.731  23.578  1.00  0.00     0.328 C 
ATOM      7  O   UNL A   1      33.559  29.241  22.811  1.00  0.00    -0.250 OA
BRANCH   6   8
ATOM      8  C   UNL A   1      31.407  28.148  23.075  1.00  0.00     0.193 C 
BRANCH   8   9
ATOM      9  C   UNL A   1      30.627  29.295  22.410  1.00  0.00     0.048 C 
BRANCH   9  10
ATOM     10  C   UNL A   1      29.803  30.121  23.401  1.00  0.00     0.072 C 
BRANCH  10  11
ATOM     11  S   UNL A   1      28.126  30.491  22.789  1.00  0.00    -0.165 SA
ATOM     12  C   UNL A   1      27.281  28.921  23.123  1.00  0.00     0.085 C 
ENDBRANCH  10  11
ENDBRANCH   9  10
ENDBRANCH   8   9
BRANCH   8  13
ATOM     13  N   UNL A   1      30.543  27.460  24.031  1.00  0.00    -0.342 N 
ATOM     14  C   UNL A   1      30.111  26.169  24.065  1.00  0.00     0.225 C 
ATOM     15  H   UNL A   1      30.220  28.023  24.773  1.00  0.00     0.164 HD
ATOM     16  O   UNL A   1      29.141  25.920  24.784  1.00  0.00    -0.275 OA
BRANCH  14  17
ATOM     17  C   UNL A   1      30.913  25.036  23.437  1.00  0.00     0.143 C 
BRANCH  17  18
ATOM     18  C   UNL A   1      32.382  24.790  23.686  1.00  0.00     0.051 A 
ATOM     19  C   UNL A   1      32.909  24.395  24.870  1.00  0.00    -0.029 A 
ATOM     20  C   UNL A   1      33.210  24.760  22.446  1.00  0.00     0.340 A 
ATOM     21  C   UNL A   1      32.134  24.271  26.154  1.00  0.00     0.046 C 
ATOM     22  C   UNL A   1      34.310  23.941  24.930  1.00  0.00     0.021 A 
ATOM     23  O   UNL A   1      34.418  24.079  22.507  1.00  0.00    -0.422 OA
ATOM     24  O   UNL A   1      32.803  25.246  21.397  1.00  0.00    -0.246 OA
ATOM     25  C   UNL A   1      34.976  23.639  26.130  1.00  0.00     0.016 A 
ATOM     26  C   UNL A   1      34.986  23.712  23.738  1.00  0.00     0.142 A 
ATOM     27  C   UNL A   1      36.264  23.096  26.124  1.00  0.00     0.047 A 
ATOM     28  C   UNL A   1      36.257  23.138  23.710  1.00  0.00     0.094 A 
ATOM     29  C   UNL A   1      36.887  22.833  24.910  1.00  0.00     0.119 A 
BRANCH  29  30
ATOM     30  O   UNL A   1      38.133  22.288  24.856  1.00  0.00    -0.508 OA
ATOM     31  H   UNL A   1      38.384  21.630  25.475  1.00  0.00     0.293 HD
ENDBRANCH  29  30
ENDBRANCH  17  18
ENDBRANCH  14  17
ENDBRANCH   8  13
ENDBRANCH   6   8
ENDBRANCH   5   6
ENDBRANCH   4   5
ENDBRANCH   3   4
ENDBRANCH   2   3
ENDBRANCH   1   2
BRANCH   1  32
ATOM     32  C   UNL A   1      34.843  32.944  28.171  1.00  0.00     0.188 C 
BRANCH  32  33
ATOM     33  O   UNL A   1      33.720  33.713  28.586  1.00  0.00    -0.376 OA
BRANCH  33  34
ATOM     34  C   UNL A   1      34.052  35.057  28.927  1.00  0.00     0.202 C 
BRANCH  34  35
ATOM     35  C   UNL A   1      32.807  35.813  29.391  1.00  0.00     0.261 C 
BRANCH  35  36
ATOM     36  O   UNL A   1      33.047  36.597  30.581  1.00  0.00    -0.460 OA
BRANCH  36  37
ATOM     37  C   UNL A   1      32.534  36.085  31.719  1.00  0.00     0.338 C 
ATOM     38  O   UNL A   1      31.384  36.181  32.121  1.00  0.00    -0.246 OA
BRANCH  37  39
ATOM     39  C   UNL A   1      33.590  35.374  32.458  1.00  0.00     0.060 A 
ATOM     40  C   UNL A   1      34.844  35.961  32.613  1.00  0.00     0.016 A 
ATOM     41  C   UNL A   1      33.379  34.063  32.876  1.00  0.00     0.016 A 
ATOM     42  C   UNL A   1      35.920  35.211  33.097  1.00  0.00     0.010 A 
ATOM     43  C   UNL A   1      34.442  33.334  33.426  1.00  0.00     0.010 A 
ATOM     44  C   UNL A   1      35.739  33.881  33.495  1.00  0.00    -0.014 A 
BRANCH  44  45
ATOM     45  C   UNL A   1      36.900  33.004  33.842  1.00  0.00     0.031 A 
ATOM     46  C   UNL A   1      37.508  33.114  35.219  1.00  0.00     0.074 A 
ATOM     47  C   UNL A   1      37.410  32.093  32.991  1.00  0.00     0.049 A 
ATOM     48  N   UNL A   1      38.673  32.705  35.654  1.00  0.00    -0.248 NA
ATOM     49  C   UNL A   1      36.692  33.793  36.239  1.00  0.00     0.031 C 
ATOM     50  C   UNL A   1      36.882  31.765  31.669  1.00  0.00     0.029 A 
ATOM     51  N   UNL A   1      38.500  31.263  33.126  1.00  0.00    -0.354 N 
ATOM     52  C   UNL A   1      38.764  33.152  36.966  1.00  0.00     0.074 A 
ATOM     53  C   UNL A   1      37.526  33.838  37.267  1.00  0.00     0.031 C 
ATOM     54  C   UNL A   1      37.622  30.780  31.132  1.00  0.00     0.029 A 
ATOM     55  C   UNL A   1      38.732  30.469  32.030  1.00  0.00     0.049 A 
ATOM     56  H   UNL A   1      39.062  31.241  33.935  1.00  0.00     0.167 HD
ATOM     57  C   UNL A   1      39.796  33.019  37.833  1.00  0.00     0.037 A 
ATOM     58  C   UNL A   1      39.746  29.622  31.759  1.00  0.00     0.037 A 
ATOM     59  C   UNL A   1      40.994  32.269  37.564  1.00  0.00     0.049 A 
ATOM     60  C   UNL A   1      40.897  29.501  32.729  1.00  0.00     0.074 A 
ATOM     61  C   UNL A   1      42.123  32.126  38.352  1.00  0.00     0.029 A 
ATOM     62  N   UNL A   1      41.197  31.498  36.431  1.00  0.00    -0.354 N 
ATOM     63  N   UNL A   1      41.060  30.063  33.900  1.00  0.00    -0.248 NA
ATOM     64  C   UNL A   1      42.028  28.654  32.312  1.00  0.00     0.031 C 
ATOM     65  C   UNL A   1      43.017  31.279  37.688  1.00  0.00     0.029 A 
ATOM     66  C   UNL A   1      42.429  30.870  36.502  1.00  0.00     0.049 A 
ATOM     67  H   UNL A   1      40.560  31.410  35.686  1.00  0.00     0.167 HD
ATOM     68  C   UNL A   1      42.301  29.638  34.361  1.00  0.00     0.074 A 
ATOM     69  C   UNL A   1      42.839  28.746  33.357  1.00  0.00     0.031 C 
ATOM     70  C   UNL A   1      42.946  29.971  35.506  1.00  0.00     0.037 A 
BRANCH  57  71
ATOM     71  C   UNL A   1      39.703  33.753  39.137  1.00  0.00     0.064 A 
ATOM     72  C   UNL A   1      40.247  35.031  39.316  1.00  0.00     0.173 A 
ATOM     73  C   UNL A   1      39.025  33.167  40.219  1.00  0.00     0.173 A 
ATOM     74  F   UNL A   1      40.920  35.624  38.318  1.00  0.00    -0.203 F 
ATOM     75  C   UNL A   1      40.135  35.690  40.539  1.00  0.00     0.198 A 
ATOM     76  C   UNL A   1      38.891  33.839  41.430  1.00  0.00     0.198 A 
ATOM     77  F   UNL A   1      38.482  31.946  40.095  1.00  0.00    -0.203 F 
ATOM     78  F   UNL A   1      40.698  36.894  40.704  1.00  0.00    -0.200 F 
ATOM     79  C   UNL A   1      39.451  35.096  41.591  1.00  0.00     0.200 A 
ATOM     80  F   UNL A   1      38.221  33.268  42.440  1.00  0.00    -0.200 F 
ATOM     81  F   UNL A   1      39.338  35.735  42.764  1.00  0.00    -0.200 F 
ENDBRANCH  57  71
BRANCH  58  82
ATOM     82  C   UNL A   1      39.769  28.854  30.485  1.00  0.00     0.064 A 
ATOM     83  C   UNL A   1      39.204  27.572  30.411  1.00  0.00     0.173 A 
ATOM     84  C   UNL A   1      40.384  29.359  29.330  1.00  0.00     0.173 A 
ATOM     85  F   UNL A   1      38.608  27.037  31.486  1.00  0.00    -0.203 F 
ATOM     86  C   UNL A   1      39.277  26.818  29.242  1.00  0.00     0.198 A 
ATOM     87  C   UNL A   1      40.425  28.618  28.151  1.00  0.00     0.198 A 
ATOM     88  F   UNL A   1      40.940  30.580  29.344  1.00  0.00    -0.203 F 
ATOM     89  F   UNL A   1      38.765  25.580  29.216  1.00  0.00    -0.200 F 
ATOM     90  C   UNL A   1      39.881  27.343  28.111  1.00  0.00     0.200 A 
ATOM     91  F   UNL A   1      40.989  29.139  27.053  1.00  0.00    -0.200 F 
ATOM     92  F   UNL A   1      39.939  26.621  26.983  1.00  0.00    -0.200 F 
ENDBRANCH  58  82
BRANCH  70  93
ATOM     93  C   UNL A   1      44.291  29.354  35.750  1.00  0.00     0.064 A 
ATOM     94  C   UNL A   1      44.423  28.129  36.420  1.00  0.00     0.173 A 
ATOM     95  C   UNL A   1      45.454  29.968  35.264  1.00  0.00     0.173 A 
ATOM     96  F   UNL A   1      43.339  27.511  36.916  1.00  0.00    -0.203 F 
ATOM     97  C   UNL A   1      45.674  27.550  36.611  1.00  0.00     0.198 A 
ATOM     98  C   UNL A   1      46.702  29.374  35.437  1.00  0.00     0.198 A 
ATOM     99  F   UNL A   1      45.380  31.138  34.612  1.00  0.00    -0.203 F 
ATOM    100  F   UNL A   1      45.781  26.396  37.285  1.00  0.00    -0.200 F 
ATOM    101  C   UNL A   1      46.811  28.168  36.113  1.00  0.00     0.200 A 
ATOM    102  F   UNL A   1      47.800  29.969  34.949  1.00  0.00    -0.200 F 
ATOM    103  F   UNL A   1      48.015  27.606  36.293  1.00  0.00    -0.200 F 
ENDBRANCH  70  93
ENDBRANCH  44  45
ENDBRANCH  37  39
ENDBRANCH  36  37
ENDBRANCH  35  36
ENDBRANCH  34  35
ENDBRANCH  33  34
ENDBRANCH  32  33
ENDBRANCH   1  32
TORSDOF 24
ENDMDL
MODEL 2
REMARK VINA RESULT:     -10.6      1.868      2.628
REMARK SMILES CSCC[C@H](NC(=O)Cc1c(C)c2ccc(O)cc2oc1=O)C(=O)OCCOCCOCCOC(=O)c1ccc(-c2c3nc(c(-c4c(F)c(F)c(F)c(F)c4F)c4ccc([nH]4)c(-c4c(F)c(F)c(F)c(F)c4F)c4nc(c(-c5c(F)c(F)c(F)c(F)c5F)c5ccc2[nH]5)C=C4)C=C3)cc1
REMARK SMILES IDX 29 1 28 2 27 3 26 4 25 5 23 6 24 7 5 8 4 9 3 10 2 11 1 12
REMARK SMILES IDX 6 13 7 14 8 16 9 17 10 18 11 19 21 20 12 21 13 22 20 23
REMARK SMILES IDX 22 24 14 25 19 26 15 27 18 28 16 29 17 30 30 32 31 33 32 34
REMARK SMILES IDX 33 35 34 36 35 37 36 38 37 39 38 40 99 41 39 42 98 43 40 44
REMARK SMILES IDX 41 45 42 46 92 47 43 48 97 49 91 50 93 51 44 52 96 53 90 54
REMARK SMILES IDX 89 55 45 57 77 58 57 59 76 60 58 61 61 62 75 63 94 64 59 65
REMARK SMILES IDX 60 66 74 68 95 69 62 70 46 71 47 72 55 73 48 74 49 75 53 76
REMARK SMILES IDX 56 77 50 78 51 79 54 80 52 81 78 82 79 83 87 84 80 85 81 86
REMARK SMILES IDX 85 87 88 88 82 89 83 90 86 91 84 92 63 93 64 94 72 95 65 96
REMARK SMILES IDX 66 97 70 98 73 99 67 100 68 101 71 102 69 103
REMARK H PARENT 6 15 17 31 93 56 61 67
REMARK Flexibility Score: inf
ROOT
ATOM      1  C   UNL A   1      35.149  31.576  28.040  1.00  0.00     0.188 C 
ENDROOT
BRANCH   1   2
ATOM      2  O   UNL A   1      34.060  31.098  27.255  1.00  0.00    -0.376 OA
BRANCH   2   3
ATOM      3  C   UNL A   1      33.995  29.689  27.038  1.00  0.00     0.202 C 
BRANCH   3   4
ATOM      4  C   UNL A   1      33.266  29.295  25.751  1.00  0.00     0.261 C 
BRANCH   4   5
ATOM      5  O   UNL A   1      33.692  28.000  25.267  1.00  0.00    -0.462 OA
BRANCH   5   6
ATOM      6  C   UNL A   1      33.407  27.766  23.959  1.00  0.00     0.328 C 
ATOM      7  O   UNL A   1      33.822  28.460  23.034  1.00  0.00    -0.250 OA
BRANCH   6   8
ATOM      8  C   UNL A   1      32.498  26.542  23.715  1.00  0.00     0.193 C 
BRANCH   8   9
ATOM      9  C   UNL A   1      31.355  26.994  22.790  1.00  0.00     0.048 C 
BRANCH   9  10
ATOM     10  C   UNL A   1      30.315  27.866  23.497  1.00  0.00     0.072 C 
BRANCH  10  11
ATOM     11  S   UNL A   1      29.524  29.069  22.378  1.00  0.00    -0.165 SA
ATOM     12  C   UNL A   1      29.273  30.472  23.500  1.00  0.00     0.085 C 
ENDBRANCH  10  11
ENDBRANCH   9  10
ENDBRANCH   8   9
BRANCH   8  13
ATOM     13  N   UNL A   1      31.942  25.844  24.872  1.00  0.00    -0.342 N 
ATOM     14  C   UNL A   1      32.013  24.532  25.233  1.00  0.00     0.225 C 
ATOM     15  H   UNL A   1      31.434  26.416  25.492  1.00  0.00     0.164 HD
ATOM     16  O   UNL A   1      31.198  24.136  26.070  1.00  0.00    -0.275 OA
BRANCH  14  17
ATOM     17  C   UNL A   1      33.175  23.643  24.810  1.00  0.00     0.143 C 
BRANCH  17  18
ATOM     18  C   UNL A   1      33.137  22.134  24.801  1.00  0.00     0.051 A 
ATOM     19  C   UNL A   1      32.648  21.381  23.788  1.00  0.00    -0.029 A 
ATOM     20  C   UNL A   1      33.926  21.501  25.897  1.00  0.00     0.340 A 
ATOM     21  C   UNL A   1      31.945  21.928  22.575  1.00  0.00     0.046 C 
ATOM     22  C   UNL A   1      32.892  19.927  23.774  1.00  0.00     0.021 A 
ATOM     23  O   UNL A   1      34.351  20.195  25.698  1.00  0.00    -0.422 OA
ATOM     24  O   UNL A   1      34.253  22.134  26.893  1.00  0.00    -0.246 OA
ATOM     25  C   UNL A   1      32.316  19.052  22.838  1.00  0.00     0.016 A 
ATOM     26  C   UNL A   1      33.809  19.399  24.676  1.00  0.00     0.142 A 
ATOM     27  C   UNL A   1      32.676  17.702  22.793  1.00  0.00     0.047 A 
ATOM     28  C   UNL A   1      34.207  18.063  24.625  1.00  0.00     0.094 A 
ATOM     29  C   UNL A   1      33.634  17.223  23.678  1.00  0.00     0.119 A 
BRANCH  29  30
ATOM     30  O   UNL A   1      34.030  15.921  23.659  1.00  0.00    -0.508 OA
ATOM     31  H   UNL A   1      33.981  15.428  22.863  1.00  0.00     0.293 HD
ENDBRANCH  29  30
ENDBRANCH  17  18
ENDBRANCH  14  17
ENDBRANCH   8  13
ENDBRANCH   6   8
ENDBRANCH   5   6
ENDBRANCH   4   5
ENDBRANCH   3   4
ENDBRANCH   2   3
ENDBRANCH   1   2
BRANCH   1  32
ATOM     32  C   UNL A   1      35.299  33.096  28.162  1.00  0.00     0.188 C 
BRANCH  32  33
ATOM     33  O   UNL A   1      34.094  33.693  28.628  1.00  0.00    -0.376 OA
BRANCH  33  34
ATOM     34  C   UNL A   1      34.205  35.099  28.836  1.00  0.00     0.202 C 
BRANCH  34  35
ATOM     35  C   UNL A   1      32.873  35.675  29.315  1.00  0.00     0.261 C 
BRANCH  35  36
ATOM     36  O   UNL A   1      33.031  36.586  30.425  1.00  0.00    -0.460 OA
BRANCH  36  37
ATOM     37  C   UNL A   1      32.531  36.152  31.600  1.00  0.00     0.338 C 
ATOM     38  O   UNL A   1      31.401  36.325  32.032  1.00  0.00    -0.246 OA
BRANCH  37  39
ATOM     39  C   UNL A   1      33.574  35.421  32.338  1.00  0.00     0.060 A 
ATOM     40  C   UNL A   1      34.830  35.997  32.519  1.00  0.00     0.016 A 
ATOM     41  C   UNL A   1      33.351  34.104  32.731  1.00  0.00     0.016 A 
ATOM     42  C   UNL A   1      35.896  35.232  33.001  1.00  0.00     0.010 A 
ATOM     43  C   UNL A   1      34.402  33.359  33.279  1.00  0.00     0.010 A 
ATOM     44  C   UNL A   1      35.702  33.896  33.373  1.00  0.00    -0.014 A 
BRANCH  44  45
ATOM     45  C   UNL A   1      36.853  33.006  33.718  1.00  0.00     0.031 A 
ATOM     46  C   UNL A   1      37.464  33.107  35.094  1.00  0.00     0.074 A 
ATOM     47  C   UNL A   1      37.352  32.091  32.864  1.00  0.00     0.049 A 
ATOM     48  N   UNL A   1      38.625  32.684  35.527  1.00  0.00    -0.248 NA
ATOM     49  C   UNL A   1      36.657  33.793  36.116  1.00  0.00     0.031 C 
ATOM     50  C   UNL A   1      36.819  31.771  31.542  1.00  0.00     0.029 A 
ATOM     51  N   UNL A   1      38.433  31.249  32.997  1.00  0.00    -0.354 N 
ATOM     52  C   UNL A   1      38.723  33.129  36.839  1.00  0.00     0.074 A 
ATOM     53  C   UNL A   1      37.492  33.828  37.143  1.00  0.00     0.031 C 
ATOM     54  C   UNL A   1      37.548  30.778  31.003  1.00  0.00     0.029 A 
ATOM     55  C   UNL A   1      38.655  30.453  31.899  1.00  0.00     0.049 A 
ATOM     56  H   UNL A   1      38.996  31.219  33.805  1.00  0.00     0.167 HD
ATOM     57  C   UNL A   1      39.754  32.982  37.705  1.00  0.00     0.037 A 
ATOM     58  C   UNL A   1      39.659  29.596  31.626  1.00  0.00     0.037 A 
ATOM     59  C   UNL A   1      40.943  32.220  37.433  1.00  0.00     0.049 A 
ATOM     60  C   UNL A   1      40.809  29.460  32.595  1.00  0.00     0.074 A 
ATOM     61  C   UNL A   1      42.072  32.062  38.220  1.00  0.00     0.029 A 
ATOM     62  N   UNL A   1      41.136  31.448  36.299  1.00  0.00    -0.354 N 
ATOM     63  N   UNL A   1      40.980  30.019  33.766  1.00  0.00    -0.248 NA
ATOM     64  C   UNL A   1      41.930  28.601  32.175  1.00  0.00     0.031 C 
ATOM     65  C   UNL A   1      42.956  31.207  37.554  1.00  0.00     0.029 A 
ATOM     66  C   UNL A   1      42.362  30.806  36.368  1.00  0.00     0.049 A 
ATOM     67  H   UNL A   1      40.497  31.368  35.555  1.00  0.00     0.167 HD
ATOM     68  C   UNL A   1      42.217  29.578  34.225  1.00  0.00     0.074 A 
ATOM     69  C   UNL A   1      42.744  28.683  33.219  1.00  0.00     0.031 C 
ATOM     70  C   UNL A   1      42.867  29.903  35.369  1.00  0.00     0.037 A 
BRANCH  57  71
ATOM     71  C   UNL A   1      39.671  33.716  39.010  1.00  0.00     0.064 A 
ATOM     72  C   UNL A   1      39.043  33.169  40.136  1.00  0.00     0.173 A 
ATOM     73  C   UNL A   1      40.262  34.983  39.135  1.00  0.00     0.173 A 
ATOM     74  F   UNL A   1      38.446  31.970  40.061  1.00  0.00    -0.203 F 
ATOM     75  C   UNL A   1      38.991  33.873  41.337  1.00  0.00     0.198 A 
ATOM     76  C   UNL A   1      40.233  35.672  40.343  1.00  0.00     0.198 A 
ATOM     77  F   UNL A   1      40.880  35.547  38.086  1.00  0.00    -0.203 F 
ATOM     78  F   UNL A   1      38.349  33.352  42.391  1.00  0.00    -0.200 F 
ATOM     79  C   UNL A   1      39.592  35.120  41.441  1.00  0.00     0.200 A 
ATOM     80  F   UNL A   1      40.824  36.871  40.444  1.00  0.00    -0.200 F 
ATOM     81  F   UNL A   1      39.547  35.793  42.600  1.00  0.00    -0.200 F 
ENDBRANCH  57  71
BRANCH  58  82
ATOM     82  C   UNL A   1      39.672  28.829  30.350  1.00  0.00     0.064 A 
ATOM     83  C   UNL A   1      39.211  27.506  30.306  1.00  0.00     0.173 A 
ATOM     84  C   UNL A   1      40.177  29.380  29.164  1.00  0.00     0.173 A 
ATOM     85  F   UNL A   1      38.723  26.926  31.412  1.00  0.00    -0.203 F 
ATOM     86  C   UNL A   1      39.278  26.757  29.133  1.00  0.00     0.198 A 
ATOM     87  C   UNL A   1      40.210  28.643  27.983  1.00  0.00     0.198 A 
ATOM     88  F   UNL A   1      40.630  30.643  29.149  1.00  0.00    -0.203 F 
ATOM     89  F   UNL A   1      38.869  25.481  29.133  1.00  0.00    -0.200 F 
ATOM     90  C   UNL A   1      39.771  27.327  27.970  1.00  0.00     0.200 A 
ATOM     91  F   UNL A   1      40.667  29.206  26.856  1.00  0.00    -0.200 F 
ATOM     92  F   UNL A   1      39.824  26.610  26.839  1.00  0.00    -0.200 F 
ENDBRANCH  58  82
BRANCH  70  93
ATOM     93  C   UNL A   1      44.206  29.271  35.612  1.00  0.00     0.064 A 
ATOM     94  C   UNL A   1      45.391  29.881  35.178  1.00  0.00     0.173 A 
ATOM     95  C   UNL A   1      44.307  28.071  36.330  1.00  0.00     0.173 A 
ATOM     96  F   UNL A   1      45.344  31.024  34.474  1.00  0.00    -0.203 F 
ATOM     97  C   UNL A   1      46.630  29.303  35.439  1.00  0.00     0.198 A 
ATOM     98  C   UNL A   1      45.549  27.507  36.609  1.00  0.00     0.198 A 
ATOM     99  F   UNL A   1      43.202  27.451  36.771  1.00  0.00    -0.203 F 
ATOM    100  F   UNL A   1      47.749  29.885  34.985  1.00  0.00    -0.200 F 
ATOM    101  C   UNL A   1      46.709  28.121  36.160  1.00  0.00     0.200 A 
ATOM    102  F   UNL A   1      45.625  26.368  37.313  1.00  0.00    -0.200 F 
ATOM    103  F   UNL A   1      47.903  27.569  36.416  1.00  0.00    -0.200 F 
ENDBRANCH  70  93
ENDBRANCH  44  45
ENDBRANCH  37  39
ENDBRANCH  36  37
ENDBRANCH  35  36
ENDBRANCH  34  35
ENDBRANCH  33  34
ENDBRANCH  32  33
ENDBRANCH   1  32
TORSDOF 24
ENDMDL
MODEL 3
REMARK VINA RESULT:     -10.5      6.842     12.576
REMARK SMILES CSCC[C@H](NC(=O)Cc1c(C)c2ccc(O)cc2oc1=O)C(=O)OCCOCCOCCOC(=O)c1ccc(-c2c3nc(c(-c4c(F)c(F)c(F)c(F)c4F)c4ccc([nH]4)c(-c4c(F)c(F)c(F)c(F)c4F)c4nc(c(-c5c(F)c(F)c(F)c(F)c5F)c5ccc2[nH]5)C=C4)C=C3)cc1
REMARK SMILES IDX 29 1 28 2 27 3 26 4 25 5 23 6 24 7 5 8 4 9 3 10 2 11 1 12
REMARK SMILES IDX 6 13 7 14 8 16 9 17 10 18 11 19 21 20 12 21 13 22 20 23
REMARK SMILES IDX 22 24 14 25 19 26 15 27 18 28 16 29 17 30 30 32 31 33 32 34
REMARK SMILES IDX 33 35 34 36 35 37 36 38 37 39 38 40 99 41 39 42 98 43 40 44
REMARK SMILES IDX 41 45 42 46 92 47 43 48 97 49 91 50 93 51 44 52 96 53 90 54
REMARK SMILES IDX 89 55 45 57 77 58 57 59 76 60 58 61 61 62 75 63 94 64 59 65
REMARK SMILES IDX 60 66 74 68 95 69 62 70 46 71 47 72 55 73 48 74 49 75 53 76
REMARK SMILES IDX 56 77 50 78 51 79 54 80 52 81 78 82 79 83 87 84 80 85 81 86
REMARK SMILES IDX 85 87 88 88 82 89 83 90 86 91 84 92 63 93 64 94 72 95 65 96
REMARK SMILES IDX 66 97 70 98 73 99 67 100 68 101 71 102 69 103
REMARK H PARENT 6 15 17 31 93 56 61 67
REMARK Flexibility Score: inf
ROOT
ATOM      1  C   UNL A   1      39.801  22.670  26.590  1.00  0.00     0.188 C 
ENDROOT
BRANCH   1   2
ATOM      2  O   UNL A   1      38.652  21.954  26.147  1.00  0.00    -0.376 OA
BRANCH   2   3
ATOM      3  C   UNL A   1      37.587  22.726  25.595  1.00  0.00     0.202 C 
BRANCH   3   4
ATOM      4  C   UNL A   1      36.260  21.970  25.501  1.00  0.00     0.261 C 
BRANCH   4   5
ATOM      5  O   UNL A   1      35.143  22.868  25.297  1.00  0.00    -0.462 OA
BRANCH   5   6
ATOM      6  C   UNL A   1      33.973  22.249  24.989  1.00  0.00     0.328 C 
ATOM      7  O   UNL A   1      33.478  22.241  23.865  1.00  0.00    -0.250 OA
BRANCH   6   8
ATOM      8  C   UNL A   1      33.292  21.545  26.184  1.00  0.00     0.193 C 
BRANCH   8   9
ATOM      9  C   UNL A   1      33.418  20.029  25.957  1.00  0.00     0.048 C 
BRANCH   9  10
ATOM     10  C   UNL A   1      32.480  19.500  24.869  1.00  0.00     0.072 C 
BRANCH  10  11
ATOM     11  S   UNL A   1      33.096  17.971  24.089  1.00  0.00    -0.165 SA
ATOM     12  C   UNL A   1      32.282  18.056  22.470  1.00  0.00     0.085 C 
ENDBRANCH  10  11
ENDBRANCH   9  10
ENDBRANCH   8   9
BRANCH   8  13
ATOM     13  N   UNL A   1      31.903  21.879  26.490  1.00  0.00    -0.342 N 
ATOM     14  C   UNL A   1      31.342  23.054  26.891  1.00  0.00     0.225 C 
ATOM     15  H   UNL A   1      31.268  21.132  26.389  1.00  0.00     0.164 HD
ATOM     16  O   UNL A   1      30.217  22.997  27.392  1.00  0.00    -0.275 OA
BRANCH  14  17
ATOM     17  C   UNL A   1      31.958  24.401  26.537  1.00  0.00     0.143 C 
BRANCH  17  18
ATOM     18  C   UNL A   1      31.344  25.397  25.583  1.00  0.00     0.051 A 
ATOM     19  C   UNL A   1      31.390  26.742  25.736  1.00  0.00    -0.029 A 
ATOM     20  C   UNL A   1      30.891  24.800  24.293  1.00  0.00     0.340 A 
ATOM     21  C   UNL A   1      31.940  27.448  26.945  1.00  0.00     0.046 C 
ATOM     22  C   UNL A   1      30.984  27.618  24.622  1.00  0.00     0.021 A 
ATOM     23  O   UNL A   1      30.781  25.655  23.205  1.00  0.00    -0.422 OA
ATOM     24  O   UNL A   1      30.704  23.595  24.180  1.00  0.00    -0.246 OA
ATOM     25  C   UNL A   1      30.874  29.014  24.734  1.00  0.00     0.016 A 
ATOM     26  C   UNL A   1      30.781  27.049  23.370  1.00  0.00     0.142 A 
ATOM     27  C   UNL A   1      30.604  29.809  23.616  1.00  0.00     0.047 A 
ATOM     28  C   UNL A   1      30.546  27.828  22.237  1.00  0.00     0.094 A 
ATOM     29  C   UNL A   1      30.460  29.209  22.372  1.00  0.00     0.119 A 
BRANCH  29  30
ATOM     30  O   UNL A   1      30.214  29.944  21.253  1.00  0.00    -0.508 OA
ATOM     31  H   UNL A   1      30.335  30.873  21.267  1.00  0.00     0.293 HD
ENDBRANCH  29  30
ENDBRANCH  17  18
ENDBRANCH  14  17
ENDBRANCH   8  13
ENDBRANCH   6   8
ENDBRANCH   5   6
ENDBRANCH   4   5
ENDBRANCH   3   4
ENDBRANCH   2   3
ENDBRANCH   1   2
BRANCH   1  32
ATOM     32  C   UNL A   1      40.971  21.839  27.127  1.00  0.00     0.188 C 
BRANCH  32  33
ATOM     33  O   UNL A   1      41.083  20.604  26.431  1.00  0.00    -0.376 OA
BRANCH  33  34
ATOM     34  C   UNL A   1      41.818  19.616  27.148  1.00  0.00     0.202 C 
BRANCH  34  35
ATOM     35  C   UNL A   1      42.470  18.628  26.182  1.00  0.00     0.261 C 
BRANCH  35  36
ATOM     36  O   UNL A   1      42.812  19.234  24.917  1.00  0.00    -0.460 OA
BRANCH  36  37
ATOM     37  C   UNL A   1      44.132  19.298  24.648  1.00  0.00     0.338 C 
ATOM     38  O   UNL A   1      44.861  18.382  24.299  1.00  0.00    -0.246 OA
BRANCH  37  39
ATOM     39  C   UNL A   1      44.609  20.676  24.851  1.00  0.00     0.060 A 
ATOM     40  C   UNL A   1      45.233  21.025  26.046  1.00  0.00     0.016 A 
ATOM     41  C   UNL A   1      44.311  21.657  23.910  1.00  0.00     0.016 A 
ATOM     42  C   UNL A   1      45.475  22.368  26.352  1.00  0.00     0.010 A 
ATOM     43  C   UNL A   1      44.616  22.996  24.188  1.00  0.00     0.010 A 
ATOM     44  C   UNL A   1      45.155  23.375  25.434  1.00  0.00    -0.014 A 
BRANCH  44  45
ATOM     45  C   UNL A   1      45.232  24.822  25.803  1.00  0.00     0.031 A 
ATOM     46  C   UNL A   1      46.518  25.570  25.548  1.00  0.00     0.074 A 
ATOM     47  C   UNL A   1      44.192  25.502  26.325  1.00  0.00     0.049 A 
ATOM     48  N   UNL A   1      46.935  26.709  26.042  1.00  0.00    -0.248 NA
ATOM     49  C   UNL A   1      47.467  24.935  24.619  1.00  0.00     0.031 C 
ATOM     50  C   UNL A   1      42.844  24.979  26.531  1.00  0.00     0.029 A 
ATOM     51  N   UNL A   1      44.115  26.801  26.774  1.00  0.00    -0.354 N 
ATOM     52  C   UNL A   1      48.225  26.881  25.555  1.00  0.00     0.074 A 
ATOM     53  C   UNL A   1      48.511  25.746  24.703  1.00  0.00     0.031 C 
ATOM     54  C   UNL A   1      42.065  25.957  27.027  1.00  0.00     0.029 A 
ATOM     55  C   UNL A   1      42.878  27.147  27.261  1.00  0.00     0.049 A 
ATOM     56  H   UNL A   1      44.877  27.425  26.747  1.00  0.00     0.167 HD
ATOM     57  C   UNL A   1      49.097  27.885  25.810  1.00  0.00     0.037 A 
ATOM     58  C   UNL A   1      42.460  28.276  27.869  1.00  0.00     0.037 A 
ATOM     59  C   UNL A   1      48.786  29.053  26.591  1.00  0.00     0.049 A 
ATOM     60  C   UNL A   1      43.450  29.377  28.162  1.00  0.00     0.074 A 
ATOM     61  C   UNL A   1      49.618  30.097  26.960  1.00  0.00     0.029 A 
ATOM     62  N   UNL A   1      47.527  29.353  27.085  1.00  0.00    -0.354 N 
ATOM     63  N   UNL A   1      44.718  29.460  27.848  1.00  0.00    -0.248 NA
ATOM     64  C   UNL A   1      42.952  30.526  28.938  1.00  0.00     0.031 C 
ATOM     65  C   UNL A   1      48.866  31.021  27.692  1.00  0.00     0.029 A 
ATOM     66  C   UNL A   1      47.557  30.567  27.750  1.00  0.00     0.049 A 
ATOM     67  H   UNL A   1      46.730  28.786  26.980  1.00  0.00     0.167 HD
ATOM     68  C   UNL A   1      45.167  30.665  28.378  1.00  0.00     0.074 A 
ATOM     69  C   UNL A   1      44.029  31.295  29.012  1.00  0.00     0.031 C 
ATOM     70  C   UNL A   1      46.415  31.193  28.360  1.00  0.00     0.037 A 
BRANCH  57  71
ATOM     71  C   UNL A   1      50.495  27.736  25.292  1.00  0.00     0.064 A 
ATOM     72  C   UNL A   1      50.827  27.983  23.954  1.00  0.00     0.173 A 
ATOM     73  C   UNL A   1      51.527  27.365  26.170  1.00  0.00     0.173 A 
ATOM     74  F   UNL A   1      49.873  28.321  23.073  1.00  0.00    -0.203 F 
ATOM     75  C   UNL A   1      52.139  27.844  23.507  1.00  0.00     0.198 A 
ATOM     76  C   UNL A   1      52.840  27.254  25.727  1.00  0.00     0.198 A 
ATOM     77  F   UNL A   1      51.260  27.123  27.462  1.00  0.00    -0.203 F 
ATOM     78  F   UNL A   1      52.430  28.043  22.214  1.00  0.00    -0.200 F 
ATOM     79  C   UNL A   1      53.145  27.487  24.395  1.00  0.00     0.200 A 
ATOM     80  F   UNL A   1      53.811  26.920  26.588  1.00  0.00    -0.200 F 
ATOM     81  F   UNL A   1      54.408  27.360  23.963  1.00  0.00    -0.200 F 
ENDBRANCH  57  71
BRANCH  58  82
ATOM     82  C   UNL A   1      41.044  28.418  28.306  1.00  0.00     0.064 A 
ATOM     83  C   UNL A   1      40.087  28.991  27.456  1.00  0.00     0.173 A 
ATOM     84  C   UNL A   1      40.624  28.026  29.585  1.00  0.00     0.173 A 
ATOM     85  F   UNL A   1      40.434  29.390  26.224  1.00  0.00    -0.203 F 
ATOM     86  C   UNL A   1      38.774  29.188  27.878  1.00  0.00     0.198 A 
ATOM     87  C   UNL A   1      39.302  28.190  29.992  1.00  0.00     0.198 A 
ATOM     88  F   UNL A   1      41.498  27.471  30.438  1.00  0.00    -0.203 F 
ATOM     89  F   UNL A   1      37.893  29.778  27.058  1.00  0.00    -0.200 F 
ATOM     90  C   UNL A   1      38.380  28.782  29.143  1.00  0.00     0.200 A 
ATOM     91  F   UNL A   1      38.921  27.775  31.208  1.00  0.00    -0.200 F 
ATOM     92  F   UNL A   1      37.114  28.962  29.543  1.00  0.00    -0.200 F 
ENDBRANCH  58  82
BRANCH  70  93
ATOM     93  C   UNL A   1      46.616  32.526  29.018  1.00  0.00     0.064 A 
ATOM     94  C   UNL A   1      46.447  33.724  28.310  1.00  0.00     0.173 A 
ATOM     95  C   UNL A   1      46.929  32.605  30.383  1.00  0.00     0.173 A 
ATOM     96  F   UNL A   1      46.160  33.698  26.999  1.00  0.00    -0.203 F 
ATOM     97  C   UNL A   1      46.602  34.955  28.941  1.00  0.00     0.198 A 
ATOM     98  C   UNL A   1      47.062  33.839  31.016  1.00  0.00     0.198 A 
ATOM     99  F   UNL A   1      47.096  31.487  31.105  1.00  0.00    -0.203 F 
ATOM    100  F   UNL A   1      46.471  36.088  28.237  1.00  0.00    -0.200 F 
ATOM    101  C   UNL A   1      46.902  35.012  30.294  1.00  0.00     0.200 A 
ATOM    102  F   UNL A   1      47.344  33.892  32.325  1.00  0.00    -0.200 F 
ATOM    103  F   UNL A   1      47.046  36.198  30.900  1.00  0.00    -0.200 F 
ENDBRANCH  70  93
ENDBRANCH  44  45
ENDBRANCH  37  39
ENDBRANCH  36  37
ENDBRANCH  35  36
ENDBRANCH  34  35
ENDBRANCH  33  34
ENDBRANCH  32  33
ENDBRANCH   1  32
TORSDOF 24
ENDMDL
