MODEL 1
REMARK VINA RESULT:     -12.1      0.000      0.000
REMARK SMILES O=C(OCCOCCOCCOC(=O)c1ccc(N2C(=O)[C@@H]3CC=CC[C@H]3C2=O)cc1Cl)c1ccc(-c2c3nc(c(-c4c(F)c(F)c(F)c(F)c4F)c4ccc([nH]4)c(-c4c(F)c(F)c(F)c(F)c4F)c4nc(c(-c5c(F)c(F)c(F)c(F)c5F)c5ccc2[nH]5)C=C4)C=C3)cc1
REMARK SMILES IDX 7 1 6 2 5 3 4 4 3 5 2 6 1 7 33 8 34 9 95 10 35 11 94 12
REMARK SMILES IDX 36 13 37 14 38 15 88 16 39 17 93 18 87 19 89 20 40 21 92 22
REMARK SMILES IDX 86 23 85 24 41 26 73 27 53 28 72 29 54 30 57 31 71 32 90 33
REMARK SMILES IDX 55 34 56 35 70 37 91 38 58 39 42 40 43 41 51 42 44 43 45 44
REMARK SMILES IDX 49 45 52 46 46 47 47 48 50 49 48 50 74 51 75 52 83 53 76 54
REMARK SMILES IDX 77 55 81 56 84 57 78 58 79 59 82 60 80 61 59 62 60 63 68 64
REMARK SMILES IDX 61 65 62 66 66 67 69 68 63 69 64 70 67 71 65 72 8 73 9 74
REMARK SMILES IDX 10 75 11 76 12 77 13 78 14 79 15 80 16 81 31 82 17 83 30 84
REMARK SMILES IDX 32 85 18 86 19 87 20 88 28 89 21 90 22 91 27 92 29 93 23 94
REMARK SMILES IDX 26 95 24 96 25 97
REMARK H PARENT 89 25 57 36
REMARK Flexibility Score: inf
ROOT
ATOM      1  C   UNL A   1      45.934  18.882  25.357  1.00  0.00     0.188 C 
ENDROOT
BRANCH   1   2
ATOM      2  O   UNL A   1      46.597  20.142  25.218  1.00  0.00    -0.376 OA
BRANCH   2   3
ATOM      3  C   UNL A   1      45.739  21.202  24.771  1.00  0.00     0.202 C 
BRANCH   3   4
ATOM      4  C   UNL A   1      45.397  22.284  25.816  1.00  0.00     0.261 C 
BRANCH   4   5
ATOM      5  O   UNL A   1      44.405  23.233  25.380  1.00  0.00    -0.460 OA
BRANCH   5   6
ATOM      6  C   UNL A   1      44.444  24.589  25.419  1.00  0.00     0.338 C 
ATOM      7  O   UNL A   1      45.173  25.181  24.624  1.00  0.00    -0.246 OA
BRANCH   6   8
ATOM      8  C   UNL A   1      43.666  25.415  26.392  1.00  0.00     0.060 A 
ATOM      9  C   UNL A   1      43.798  26.793  26.542  1.00  0.00     0.016 A 
ATOM     10  C   UNL A   1      42.696  24.764  27.175  1.00  0.00     0.016 A 
ATOM     11  C   UNL A   1      43.099  27.493  27.505  1.00  0.00     0.010 A 
ATOM     12  C   UNL A   1      41.941  25.470  28.119  1.00  0.00     0.010 A 
ATOM     13  C   UNL A   1      42.183  26.833  28.313  1.00  0.00    -0.014 A 
BRANCH  13  14
ATOM     14  C   UNL A   1      41.661  27.587  29.463  1.00  0.00     0.031 A 
ATOM     15  C   UNL A   1      42.483  27.602  30.715  1.00  0.00     0.074 A 
ATOM     16  C   UNL A   1      40.605  28.401  29.295  1.00  0.00     0.049 A 
ATOM     17  N   UNL A   1      42.270  28.226  31.842  1.00  0.00    -0.248 NA
ATOM     18  C   UNL A   1      43.736  26.828  30.684  1.00  0.00     0.031 C 
ATOM     19  C   UNL A   1      39.868  28.571  28.041  1.00  0.00     0.029 A 
ATOM     20  N   UNL A   1      40.007  29.280  30.155  1.00  0.00    -0.354 N 
ATOM     21  C   UNL A   1      43.341  27.892  32.660  1.00  0.00     0.074 A 
ATOM     22  C   UNL A   1      44.201  27.008  31.909  1.00  0.00     0.031 C 
ATOM     23  C   UNL A   1      38.935  29.522  28.205  1.00  0.00     0.029 A 
ATOM     24  C   UNL A   1      38.958  29.963  29.593  1.00  0.00     0.049 A 
ATOM     25  H   UNL A   1      40.300  29.410  31.085  1.00  0.00     0.167 HD
ATOM     26  C   UNL A   1      43.571  28.291  33.931  1.00  0.00     0.037 A 
ATOM     27  C   UNL A   1      38.095  30.824  30.162  1.00  0.00     0.037 A 
ATOM     28  C   UNL A   1      42.688  29.174  34.643  1.00  0.00     0.049 A 
ATOM     29  C   UNL A   1      38.298  31.147  31.618  1.00  0.00     0.074 A 
ATOM     30  C   UNL A   1      42.762  29.609  35.951  1.00  0.00     0.029 A 
ATOM     31  N   UNL A   1      41.553  29.756  34.086  1.00  0.00    -0.354 N 
ATOM     32  N   UNL A   1      39.267  30.773  32.420  1.00  0.00    -0.248 NA
ATOM     33  C   UNL A   1      37.288  32.001  32.251  1.00  0.00     0.031 C 
ATOM     34  C   UNL A   1      41.637  30.400  36.206  1.00  0.00     0.029 A 
ATOM     35  C   UNL A   1      40.899  30.522  35.035  1.00  0.00     0.049 A 
ATOM     36  H   UNL A   1      41.258  29.640  33.154  1.00  0.00     0.167 HD
ATOM     37  C   UNL A   1      39.003  31.366  33.645  1.00  0.00     0.074 A 
ATOM     38  C   UNL A   1      37.788  32.141  33.470  1.00  0.00     0.031 C 
ATOM     39  C   UNL A   1      39.694  31.284  34.810  1.00  0.00     0.037 A 
BRANCH  26  40
ATOM     40  C   UNL A   1      44.755  27.689  34.632  1.00  0.00     0.064 A 
ATOM     41  C   UNL A   1      46.064  28.155  34.435  1.00  0.00     0.173 A 
ATOM     42  C   UNL A   1      44.577  26.579  35.471  1.00  0.00     0.173 A 
ATOM     43  F   UNL A   1      46.296  29.192  33.616  1.00  0.00    -0.203 F 
ATOM     44  C   UNL A   1      47.152  27.505  35.017  1.00  0.00     0.198 A 
ATOM     45  C   UNL A   1      45.662  25.953  36.078  1.00  0.00     0.198 A 
ATOM     46  F   UNL A   1      43.349  26.085  35.688  1.00  0.00    -0.203 F 
ATOM     47  F   UNL A   1      48.398  27.919  34.751  1.00  0.00    -0.200 F 
ATOM     48  C   UNL A   1      46.949  26.407  35.840  1.00  0.00     0.200 A 
ATOM     49  F   UNL A   1      45.463  24.895  36.876  1.00  0.00    -0.200 F 
ATOM     50  F   UNL A   1      47.997  25.775  36.387  1.00  0.00    -0.200 F 
ENDBRANCH  26  40
BRANCH  27  51
ATOM     51  C   UNL A   1      36.960  31.384  29.379  1.00  0.00     0.064 A 
ATOM     52  C   UNL A   1      36.936  32.730  28.989  1.00  0.00     0.173 A 
ATOM     53  C   UNL A   1      35.859  30.588  29.018  1.00  0.00     0.173 A 
ATOM     54  F   UNL A   1      37.955  33.540  29.317  1.00  0.00    -0.203 F 
ATOM     55  C   UNL A   1      35.849  33.264  28.298  1.00  0.00     0.198 A 
ATOM     56  C   UNL A   1      34.789  31.114  28.299  1.00  0.00     0.198 A 
ATOM     57  F   UNL A   1      35.826  29.288  29.352  1.00  0.00    -0.203 F 
ATOM     58  F   UNL A   1      35.832  34.568  27.987  1.00  0.00    -0.200 F 
ATOM     59  C   UNL A   1      34.778  32.455  27.950  1.00  0.00     0.200 A 
ATOM     60  F   UNL A   1      33.765  30.321  27.956  1.00  0.00    -0.200 F 
ATOM     61  F   UNL A   1      33.731  32.971  27.292  1.00  0.00    -0.200 F 
ENDBRANCH  27  51
BRANCH  39  62
ATOM     62  C   UNL A   1      39.175  32.092  35.962  1.00  0.00     0.064 A 
ATOM     63  C   UNL A   1      38.256  31.566  36.880  1.00  0.00     0.173 A 
ATOM     64  C   UNL A   1      39.638  33.401  36.165  1.00  0.00     0.173 A 
ATOM     65  F   UNL A   1      37.773  30.324  36.717  1.00  0.00    -0.203 F 
ATOM     66  C   UNL A   1      37.793  32.334  37.944  1.00  0.00     0.198 A 
ATOM     67  C   UNL A   1      39.204  34.151  37.253  1.00  0.00     0.198 A 
ATOM     68  F   UNL A   1      40.524  33.946  35.319  1.00  0.00    -0.203 F 
ATOM     69  F   UNL A   1      36.869  31.833  38.776  1.00  0.00    -0.200 F 
ATOM     70  C   UNL A   1      38.275  33.621  38.135  1.00  0.00     0.200 A 
ATOM     71  F   UNL A   1      39.685  35.387  37.446  1.00  0.00    -0.200 F 
ATOM     72  F   UNL A   1      37.836  34.355  39.166  1.00  0.00    -0.200 F 
ENDBRANCH  39  62
ENDBRANCH  13  14
ENDBRANCH   6   8
ENDBRANCH   5   6
ENDBRANCH   4   5
ENDBRANCH   3   4
ENDBRANCH   2   3
ENDBRANCH   1   2
BRANCH   1  73
ATOM     73  C   UNL A   1      44.492  18.874  24.854  1.00  0.00     0.188 C 
BRANCH  73  74
ATOM     74  O   UNL A   1      43.554  18.108  25.597  1.00  0.00    -0.376 OA
BRANCH  74  75
ATOM     75  C   UNL A   1      42.402  18.783  26.085  1.00  0.00     0.202 C 
BRANCH  75  76
ATOM     76  C   UNL A   1      42.542  20.245  26.537  1.00  0.00     0.261 C 
BRANCH  76  77
ATOM     77  O   UNL A   1      41.575  21.177  26.016  1.00  0.00    -0.460 OA
BRANCH  77  78
ATOM     78  C   UNL A   1      40.598  21.505  26.897  1.00  0.00     0.339 C 
ATOM     79  O   UNL A   1      40.631  21.397  28.111  1.00  0.00    -0.246 OA
BRANCH  78  80
ATOM     80  C   UNL A   1      39.392  21.997  26.218  1.00  0.00     0.078 A 
ATOM     81  C   UNL A   1      38.994  23.337  26.349  1.00  0.00     0.019 A 
ATOM     82  C   UNL A   1      38.516  21.061  25.676  1.00  0.00     0.057 A 
ATOM     83  C   UNL A   1      37.695  23.726  25.974  1.00  0.00     0.028 A 
ATOM     84  C   UNL A   1      37.210  21.439  25.372  1.00  0.00     0.048 A 
ATOM     85  Cl  UNL A   1      38.977  19.427  25.359  1.00  0.00    -0.083 Cl
ATOM     86  C   UNL A   1      36.775  22.761  25.549  1.00  0.00     0.053 A 
BRANCH  86  87
ATOM     87  N   UNL A   1      35.409  23.056  25.350  1.00  0.00    -0.250 N 
ATOM     88  C   UNL A   1      34.410  22.998  26.308  1.00  0.00     0.238 C 
ATOM     89  C   UNL A   1      34.905  23.448  24.115  1.00  0.00     0.238 C 
ATOM     90  O   UNL A   1      34.444  22.523  27.435  1.00  0.00    -0.274 OA
ATOM     91  C   UNL A   1      33.276  23.803  25.723  1.00  0.00     0.096 C 
ATOM     92  C   UNL A   1      33.414  23.441  24.255  1.00  0.00     0.096 C 
ATOM     93  O   UNL A   1      35.501  23.645  23.069  1.00  0.00    -0.274 OA
ATOM     94  C   UNL A   1      31.847  23.605  26.188  1.00  0.00     0.041 C 
ATOM     95  C   UNL A   1      32.632  24.389  23.371  1.00  0.00     0.041 C 
ATOM     96  C   UNL A   1      30.894  24.226  25.187  1.00  0.00    -0.030 C 
ATOM     97  C   UNL A   1      31.251  24.600  23.942  1.00  0.00    -0.030 C 
ENDBRANCH  86  87
ENDBRANCH  78  80
ENDBRANCH  77  78
ENDBRANCH  76  77
ENDBRANCH  75  76
ENDBRANCH  74  75
ENDBRANCH  73  74
ENDBRANCH   1  73
TORSDOF 18
ENDMDL
MODEL 2
REMARK VINA RESULT:     -11.9      0.504      7.220
REMARK SMILES O=C(OCCOCCOCCOC(=O)c1ccc(N2C(=O)[C@@H]3CC=CC[C@H]3C2=O)cc1Cl)c1ccc(-c2c3nc(c(-c4c(F)c(F)c(F)c(F)c4F)c4ccc([nH]4)c(-c4c(F)c(F)c(F)c(F)c4F)c4nc(c(-c5c(F)c(F)c(F)c(F)c5F)c5ccc2[nH]5)C=C4)C=C3)cc1
REMARK SMILES IDX 7 1 6 2 5 3 4 4 3 5 2 6 1 7 33 8 34 9 95 10 35 11 94 12
REMARK SMILES IDX 36 13 37 14 38 15 88 16 39 17 93 18 87 19 89 20 40 21 92 22
REMARK SMILES IDX 86 23 85 24 41 26 73 27 53 28 72 29 54 30 57 31 71 32 90 33
REMARK SMILES IDX 55 34 56 35 70 37 91 38 58 39 42 40 43 41 51 42 44 43 45 44
REMARK SMILES IDX 49 45 52 46 46 47 47 48 50 49 48 50 74 51 75 52 83 53 76 54
REMARK SMILES IDX 77 55 81 56 84 57 78 58 79 59 82 60 80 61 59 62 60 63 68 64
REMARK SMILES IDX 61 65 62 66 66 67 69 68 63 69 64 70 67 71 65 72 8 73 9 74
REMARK SMILES IDX 10 75 11 76 12 77 13 78 14 79 15 80 16 81 31 82 17 83 30 84
REMARK SMILES IDX 32 85 18 86 19 87 20 88 28 89 21 90 22 91 27 92 29 93 23 94
REMARK SMILES IDX 26 95 24 96 25 97
REMARK H PARENT 89 25 57 36
REMARK Flexibility Score: inf
ROOT
ATOM      1  C   UNL A   1      46.086  19.080  25.334  1.00  0.00     0.188 C 
ENDROOT
BRANCH   1   2
ATOM      2  O   UNL A   1      46.642  20.378  25.110  1.00  0.00    -0.376 OA
BRANCH   2   3
ATOM      3  C   UNL A   1      45.672  21.368  24.738  1.00  0.00     0.202 C 
BRANCH   3   4
ATOM      4  C   UNL A   1      45.386  22.464  25.785  1.00  0.00     0.261 C 
BRANCH   4   5
ATOM      5  O   UNL A   1      44.508  23.508  25.323  1.00  0.00    -0.460 OA
BRANCH   5   6
ATOM      6  C   UNL A   1      44.654  24.854  25.419  1.00  0.00     0.338 C 
ATOM      7  O   UNL A   1      45.438  25.417  24.657  1.00  0.00    -0.246 OA
BRANCH   6   8
ATOM      8  C   UNL A   1      43.933  25.699  26.419  1.00  0.00     0.060 A 
ATOM      9  C   UNL A   1      44.052  27.082  26.517  1.00  0.00     0.016 A 
ATOM     10  C   UNL A   1      43.030  25.059  27.287  1.00  0.00     0.016 A 
ATOM     11  C   UNL A   1      43.411  27.802  27.505  1.00  0.00     0.010 A 
ATOM     12  C   UNL A   1      42.331  25.783  28.260  1.00  0.00     0.010 A 
ATOM     13  C   UNL A   1      42.564  27.155  28.396  1.00  0.00    -0.014 A 
BRANCH  13  14
ATOM     14  C   UNL A   1      42.111  27.937  29.556  1.00  0.00     0.031 A 
ATOM     15  C   UNL A   1      40.804  28.660  29.439  1.00  0.00     0.074 A 
ATOM     16  C   UNL A   1      42.749  27.807  30.731  1.00  0.00     0.049 A 
ATOM     17  N   UNL A   1      40.166  29.372  30.327  1.00  0.00    -0.248 NA
ATOM     18  C   UNL A   1      40.102  28.539  28.148  1.00  0.00     0.031 C 
ATOM     19  C   UNL A   1      43.929  26.969  30.956  1.00  0.00     0.029 A 
ATOM     20  N   UNL A   1      42.467  28.324  31.965  1.00  0.00    -0.354 N 
ATOM     21  C   UNL A   1      39.011  29.810  29.692  1.00  0.00     0.074 A 
ATOM     22  C   UNL A   1      39.033  29.291  28.345  1.00  0.00     0.031 C 
ATOM     23  C   UNL A   1      44.251  27.004  32.258  1.00  0.00     0.029 A 
ATOM     24  C   UNL A   1      43.352  27.929  32.936  1.00  0.00     0.049 A 
ATOM     25  H   UNL A   1      41.703  28.920  32.139  1.00  0.00     0.167 HD
ATOM     26  C   UNL A   1      38.026  30.585  30.202  1.00  0.00     0.037 A 
ATOM     27  C   UNL A   1      43.436  28.311  34.223  1.00  0.00     0.037 A 
ATOM     28  C   UNL A   1      38.043  31.079  31.551  1.00  0.00     0.049 A 
ATOM     29  C   UNL A   1      42.401  29.281  34.727  1.00  0.00     0.074 A 
ATOM     30  C   UNL A   1      37.149  31.924  32.178  1.00  0.00     0.029 A 
ATOM     31  N   UNL A   1      39.026  30.766  32.484  1.00  0.00    -0.354 N 
ATOM     32  N   UNL A   1      41.347  29.760  34.108  1.00  0.00    -0.248 NA
ATOM     33  C   UNL A   1      42.568  29.770  36.098  1.00  0.00     0.031 C 
ATOM     34  C   UNL A   1      37.625  32.174  33.469  1.00  0.00     0.029 A 
ATOM     35  C   UNL A   1      38.778  31.426  33.674  1.00  0.00     0.049 A 
ATOM     36  H   UNL A   1      39.787  30.163  32.322  1.00  0.00     0.167 HD
ATOM     37  C   UNL A   1      40.707  30.585  35.020  1.00  0.00     0.074 A 
ATOM     38  C   UNL A   1      41.486  30.524  36.242  1.00  0.00     0.031 C 
ATOM     39  C   UNL A   1      39.580  31.326  34.869  1.00  0.00     0.037 A 
BRANCH  26  40
ATOM     40  C   UNL A   1      36.935  31.007  29.260  1.00  0.00     0.064 A 
ATOM     41  C   UNL A   1      36.843  32.312  28.750  1.00  0.00     0.173 A 
ATOM     42  C   UNL A   1      35.924  30.099  28.913  1.00  0.00     0.173 A 
ATOM     43  F   UNL A   1      37.765  33.232  29.077  1.00  0.00    -0.203 F 
ATOM     44  C   UNL A   1      35.759  32.701  27.965  1.00  0.00     0.198 A 
ATOM     45  C   UNL A   1      34.859  30.481  28.101  1.00  0.00     0.198 A 
ATOM     46  F   UNL A   1      35.955  28.842  29.379  1.00  0.00    -0.203 F 
ATOM     47  F   UNL A   1      35.651  33.973  27.556  1.00  0.00    -0.200 F 
ATOM     48  C   UNL A   1      34.770  31.785  27.639  1.00  0.00     0.200 A 
ATOM     49  F   UNL A   1      33.908  29.592  27.784  1.00  0.00    -0.200 F 
ATOM     50  F   UNL A   1      33.721  32.163  26.896  1.00  0.00    -0.200 F 
ENDBRANCH  26  40
BRANCH  27  51
ATOM     51  C   UNL A   1      44.546  27.822  35.085  1.00  0.00     0.064 A 
ATOM     52  C   UNL A   1      44.403  26.676  35.880  1.00  0.00     0.173 A 
ATOM     53  C   UNL A   1      45.774  28.504  35.151  1.00  0.00     0.173 A 
ATOM     54  F   UNL A   1      43.249  25.992  35.867  1.00  0.00    -0.203 F 
ATOM     55  C   UNL A   1      45.428  26.249  36.723  1.00  0.00     0.198 A 
ATOM     56  C   UNL A   1      46.808  28.058  35.969  1.00  0.00     0.198 A 
ATOM     57  F   UNL A   1      45.978  29.603  34.406  1.00  0.00    -0.203 F 
ATOM     58  F   UNL A   1      45.241  25.180  37.511  1.00  0.00    -0.200 F 
ATOM     59  C   UNL A   1      46.631  26.938  36.765  1.00  0.00     0.200 A 
ATOM     60  F   UNL A   1      47.971  28.723  35.991  1.00  0.00    -0.200 F 
ATOM     61  F   UNL A   1      47.613  26.530  37.581  1.00  0.00    -0.200 F 
ENDBRANCH  27  51
BRANCH  39  62
ATOM     62  C   UNL A   1      39.106  32.085  36.073  1.00  0.00     0.064 A 
ATOM     63  C   UNL A   1      39.495  33.411  36.313  1.00  0.00     0.173 A 
ATOM     64  C   UNL A   1      38.218  31.483  36.977  1.00  0.00     0.173 A 
ATOM     65  F   UNL A   1      40.356  34.023  35.485  1.00  0.00    -0.203 F 
ATOM     66  C   UNL A   1      39.037  34.096  37.434  1.00  0.00     0.198 A 
ATOM     67  C   UNL A   1      37.730  32.184  38.073  1.00  0.00     0.198 A 
ATOM     68  F   UNL A   1      37.810  30.220  36.786  1.00  0.00    -0.203 F 
ATOM     69  F   UNL A   1      39.468  35.341  37.677  1.00  0.00    -0.200 F 
ATOM     70  C   UNL A   1      38.148  33.486  38.307  1.00  0.00     0.200 A 
ATOM     71  F   UNL A   1      36.857  31.600  38.905  1.00  0.00    -0.200 F 
ATOM     72  F   UNL A   1      37.700  34.150  39.380  1.00  0.00    -0.200 F 
ENDBRANCH  39  62
ENDBRANCH  13  14
ENDBRANCH   6   8
ENDBRANCH   5   6
ENDBRANCH   4   5
ENDBRANCH   3   4
ENDBRANCH   2   3
ENDBRANCH   1   2
BRANCH   1  73
ATOM     73  C   UNL A   1      44.669  18.903  24.794  1.00  0.00     0.188 C 
BRANCH  73  74
ATOM     74  O   UNL A   1      43.683  18.443  25.708  1.00  0.00    -0.376 OA
BRANCH  74  75
ATOM     75  C   UNL A   1      42.465  19.172  25.775  1.00  0.00     0.202 C 
BRANCH  75  76
ATOM     76  C   UNL A   1      42.517  20.657  26.169  1.00  0.00     0.261 C 
BRANCH  76  77
ATOM     77  O   UNL A   1      41.403  21.473  25.762  1.00  0.00    -0.460 OA
BRANCH  77  78
ATOM     78  C   UNL A   1      40.405  21.537  26.678  1.00  0.00     0.339 C 
ATOM     79  O   UNL A   1      40.441  21.164  27.838  1.00  0.00    -0.246 OA
BRANCH  78  80
ATOM     80  C   UNL A   1      39.172  22.094  26.104  1.00  0.00     0.078 A 
ATOM     81  C   UNL A   1      38.817  23.433  26.335  1.00  0.00     0.019 A 
ATOM     82  C   UNL A   1      38.240  21.211  25.567  1.00  0.00     0.057 A 
ATOM     83  C   UNL A   1      37.509  23.872  26.066  1.00  0.00     0.028 A 
ATOM     84  C   UNL A   1      36.928  21.634  25.368  1.00  0.00     0.048 A 
ATOM     85  Cl  UNL A   1      38.639  19.588  25.130  1.00  0.00    -0.083 Cl
ATOM     86  C   UNL A   1      36.539  22.953  25.646  1.00  0.00     0.053 A 
BRANCH  86  87
ATOM     87  N   UNL A   1      35.172  23.289  25.551  1.00  0.00    -0.250 N 
ATOM     88  C   UNL A   1      34.256  23.301  26.591  1.00  0.00     0.238 C 
ATOM     89  C   UNL A   1      34.578  23.655  24.348  1.00  0.00     0.238 C 
ATOM     90  O   UNL A   1      34.370  22.866  27.728  1.00  0.00    -0.274 OA
ATOM     91  C   UNL A   1      33.103  24.125  26.072  1.00  0.00     0.096 C 
ATOM     92  C   UNL A   1      33.105  23.706  24.613  1.00  0.00     0.096 C 
ATOM     93  O   UNL A   1      35.089  23.793  23.249  1.00  0.00    -0.274 OA
ATOM     94  C   UNL A   1      31.714  23.994  26.661  1.00  0.00     0.041 C 
ATOM     95  C   UNL A   1      32.281  24.650  23.761  1.00  0.00     0.041 C 
ATOM     96  C   UNL A   1      30.699  24.614  25.720  1.00  0.00    -0.030 C 
ATOM     97  C   UNL A   1      30.961  24.930  24.437  1.00  0.00    -0.030 C 
ENDBRANCH  86  87
ENDBRANCH  78  80
ENDBRANCH  77  78
ENDBRANCH  76  77
ENDBRANCH  75  76
ENDBRANCH  74  75
ENDBRANCH  73  74
ENDBRANCH   1  73
TORSDOF 18
ENDMDL
MODEL 3
REMARK VINA RESULT:     -11.6      1.855      3.275
REMARK SMILES O=C(OCCOCCOCCOC(=O)c1ccc(N2C(=O)[C@@H]3CC=CC[C@H]3C2=O)cc1Cl)c1ccc(-c2c3nc(c(-c4c(F)c(F)c(F)c(F)c4F)c4ccc([nH]4)c(-c4c(F)c(F)c(F)c(F)c4F)c4nc(c(-c5c(F)c(F)c(F)c(F)c5F)c5ccc2[nH]5)C=C4)C=C3)cc1
REMARK SMILES IDX 7 1 6 2 5 3 4 4 3 5 2 6 1 7 33 8 34 9 95 10 35 11 94 12
REMARK SMILES IDX 36 13 37 14 38 15 88 16 39 17 93 18 87 19 89 20 40 21 92 22
REMARK SMILES IDX 86 23 85 24 41 26 73 27 53 28 72 29 54 30 57 31 71 32 90 33
REMARK SMILES IDX 55 34 56 35 70 37 91 38 58 39 42 40 43 41 51 42 44 43 45 44
REMARK SMILES IDX 49 45 52 46 46 47 47 48 50 49 48 50 74 51 75 52 83 53 76 54
REMARK SMILES IDX 77 55 81 56 84 57 78 58 79 59 82 60 80 61 59 62 60 63 68 64
REMARK SMILES IDX 61 65 62 66 66 67 69 68 63 69 64 70 67 71 65 72 8 73 9 74
REMARK SMILES IDX 10 75 11 76 12 77 13 78 14 79 15 80 16 81 31 82 17 83 30 84
REMARK SMILES IDX 32 85 18 86 19 87 20 88 28 89 21 90 22 91 27 92 29 93 23 94
REMARK SMILES IDX 26 95 24 96 25 97
REMARK H PARENT 89 25 57 36
REMARK Flexibility Score: inf
ROOT
ATOM      1  C   UNL A   1      41.244  21.382  27.594  1.00  0.00     0.188 C 
ENDROOT
BRANCH   1   2
ATOM      2  O   UNL A   1      42.507  20.870  27.159  1.00  0.00    -0.376 OA
BRANCH   2   3
ATOM      3  C   UNL A   1      42.713  20.966  25.742  1.00  0.00     0.202 C 
BRANCH   3   4
ATOM      4  C   UNL A   1      43.833  21.923  25.283  1.00  0.00     0.261 C 
BRANCH   4   5
ATOM      5  O   UNL A   1      43.360  23.190  24.786  1.00  0.00    -0.460 OA
BRANCH   5   6
ATOM      6  C   UNL A   1      43.777  24.442  25.101  1.00  0.00     0.338 C 
ATOM      7  O   UNL A   1      44.795  24.877  24.564  1.00  0.00    -0.246 OA
BRANCH   6   8
ATOM      8  C   UNL A   1      43.084  25.325  26.088  1.00  0.00     0.060 A 
ATOM      9  C   UNL A   1      43.387  26.667  26.297  1.00  0.00     0.016 A 
ATOM     10  C   UNL A   1      42.015  24.777  26.819  1.00  0.00     0.016 A 
ATOM     11  C   UNL A   1      42.756  27.416  27.270  1.00  0.00     0.010 A 
ATOM     12  C   UNL A   1      41.329  25.538  27.773  1.00  0.00     0.010 A 
ATOM     13  C   UNL A   1      41.739  26.850  28.028  1.00  0.00    -0.014 A 
BRANCH  13  14
ATOM     14  C   UNL A   1      41.284  27.622  29.195  1.00  0.00     0.031 A 
ATOM     15  C   UNL A   1      42.154  27.617  30.414  1.00  0.00     0.074 A 
ATOM     16  C   UNL A   1      40.247  28.467  29.065  1.00  0.00     0.049 A 
ATOM     17  N   UNL A   1      42.004  28.249  31.545  1.00  0.00    -0.248 NA
ATOM     18  C   UNL A   1      43.382  26.805  30.337  1.00  0.00     0.031 C 
ATOM     19  C   UNL A   1      39.467  28.655  27.839  1.00  0.00     0.029 A 
ATOM     20  N   UNL A   1      39.709  29.365  29.944  1.00  0.00    -0.354 N 
ATOM     21  C   UNL A   1      43.096  27.886  32.323  1.00  0.00     0.074 A 
ATOM     22  C   UNL A   1      43.899  26.975  31.542  1.00  0.00     0.031 C 
ATOM     23  C   UNL A   1      38.570  29.634  28.036  1.00  0.00     0.029 A 
ATOM     24  C   UNL A   1      38.659  30.078  29.421  1.00  0.00     0.049 A 
ATOM     25  H   UNL A   1      40.042  29.489  30.862  1.00  0.00     0.167 HD
ATOM     26  C   UNL A   1      43.386  28.281  33.583  1.00  0.00     0.037 A 
ATOM     27  C   UNL A   1      37.845  30.965  30.019  1.00  0.00     0.037 A 
ATOM     28  C   UNL A   1      42.558  29.192  34.325  1.00  0.00     0.049 A 
ATOM     29  C   UNL A   1      38.114  31.286  31.465  1.00  0.00     0.074 A 
ATOM     30  C   UNL A   1      42.695  29.627  35.628  1.00  0.00     0.029 A 
ATOM     31  N   UNL A   1      41.420  29.805  33.810  1.00  0.00    -0.354 N 
ATOM     32  N   UNL A   1      39.102  30.885  32.231  1.00  0.00    -0.248 NA
ATOM     33  C   UNL A   1      37.155  32.171  32.133  1.00  0.00     0.031 C 
ATOM     34  C   UNL A   1      41.605  30.453  35.923  1.00  0.00     0.029 A 
ATOM     35  C   UNL A   1      40.827  30.593  34.781  1.00  0.00     0.049 A 
ATOM     36  H   UNL A   1      41.086  29.696  32.891  1.00  0.00     0.167 HD
ATOM     37  C   UNL A   1      38.903  31.489  33.463  1.00  0.00     0.074 A 
ATOM     38  C   UNL A   1      37.706  32.299  33.332  1.00  0.00     0.031 C 
ATOM     39  C   UNL A   1      39.637  31.390  34.600  1.00  0.00     0.037 A 
BRANCH  26  40
ATOM     40  C   UNL A   1      44.578  27.646  34.239  1.00  0.00     0.064 A 
ATOM     41  C   UNL A   1      44.490  26.448  34.966  1.00  0.00     0.173 A 
ATOM     42  C   UNL A   1      45.825  28.288  34.190  1.00  0.00     0.173 A 
ATOM     43  F   UNL A   1      43.315  25.809  35.074  1.00  0.00    -0.203 F 
ATOM     44  C   UNL A   1      45.592  25.943  35.652  1.00  0.00     0.198 A 
ATOM     45  C   UNL A   1      46.933  27.763  34.850  1.00  0.00     0.198 A 
ATOM     46  F   UNL A   1      45.966  29.441  33.519  1.00  0.00    -0.203 F 
ATOM     47  F   UNL A   1      45.464  24.841  36.405  1.00  0.00    -0.200 F 
ATOM     48  C   UNL A   1      46.813  26.598  35.591  1.00  0.00     0.200 A 
ATOM     49  F   UNL A   1      48.111  28.397  34.785  1.00  0.00    -0.200 F 
ATOM     50  F   UNL A   1      47.869  26.119  36.263  1.00  0.00    -0.200 F 
ENDBRANCH  26  40
BRANCH  27  51
ATOM     51  C   UNL A   1      36.697  31.557  29.279  1.00  0.00     0.064 A 
ATOM     52  C   UNL A   1      36.673  32.915  28.935  1.00  0.00     0.173 A 
ATOM     53  C   UNL A   1      35.585  30.778  28.914  1.00  0.00     0.173 A 
ATOM     54  F   UNL A   1      37.702  33.709  29.269  1.00  0.00    -0.203 F 
ATOM     55  C   UNL A   1      35.575  33.477  28.284  1.00  0.00     0.198 A 
ATOM     56  C   UNL A   1      34.503  31.333  28.235  1.00  0.00     0.198 A 
ATOM     57  F   UNL A   1      35.552  29.467  29.205  1.00  0.00    -0.203 F 
ATOM     58  F   UNL A   1      35.558  34.790  28.017  1.00  0.00    -0.200 F 
ATOM     59  C   UNL A   1      34.492  32.685  27.931  1.00  0.00     0.200 A 
ATOM     60  F   UNL A   1      33.469  30.556  27.887  1.00  0.00    -0.200 F 
ATOM     61  F   UNL A   1      33.435  33.227  27.312  1.00  0.00    -0.200 F 
ENDBRANCH  27  51
BRANCH  39  62
ATOM     62  C   UNL A   1      39.187  32.216  35.768  1.00  0.00     0.064 A 
ATOM     63  C   UNL A   1      38.324  31.704  36.748  1.00  0.00     0.173 A 
ATOM     64  C   UNL A   1      39.661  33.527  35.924  1.00  0.00     0.173 A 
ATOM     65  F   UNL A   1      37.832  30.461  36.633  1.00  0.00    -0.203 F 
ATOM     66  C   UNL A   1      37.925  32.489  37.825  1.00  0.00     0.198 A 
ATOM     67  C   UNL A   1      39.292  34.294  37.023  1.00  0.00     0.198 A 
ATOM     68  F   UNL A   1      40.495  34.058  35.018  1.00  0.00    -0.203 F 
ATOM     69  F   UNL A   1      37.052  32.001  38.718  1.00  0.00    -0.200 F 
ATOM     70  C   UNL A   1      38.417  33.778  37.967  1.00  0.00     0.200 A 
ATOM     71  F   UNL A   1      39.783  35.532  37.169  1.00  0.00    -0.200 F 
ATOM     72  F   UNL A   1      38.040  34.528  39.011  1.00  0.00    -0.200 F 
ENDBRANCH  39  62
ENDBRANCH  13  14
ENDBRANCH   6   8
ENDBRANCH   5   6
ENDBRANCH   4   5
ENDBRANCH   3   4
ENDBRANCH   2   3
ENDBRANCH   1   2
BRANCH   1  73
ATOM     73  C   UNL A   1      40.104  21.163  26.602  1.00  0.00     0.188 C 
BRANCH  73  74
ATOM     74  O   UNL A   1      39.457  22.323  26.097  1.00  0.00    -0.376 OA
BRANCH  74  75
ATOM     75  C   UNL A   1      38.050  22.257  25.911  1.00  0.00     0.202 C 
BRANCH  75  76
ATOM     76  C   UNL A   1      37.497  21.364  24.789  1.00  0.00     0.261 C 
BRANCH  76  77
ATOM     77  O   UNL A   1      36.157  21.644  24.341  1.00  0.00    -0.460 OA
BRANCH  77  78
ATOM     78  C   UNL A   1      36.072  22.697  23.491  1.00  0.00     0.339 C 
ATOM     79  O   UNL A   1      36.950  23.137  22.769  1.00  0.00    -0.246 OA
BRANCH  78  80
ATOM     80  C   UNL A   1      34.750  23.336  23.544  1.00  0.00     0.078 A 
ATOM     81  C   UNL A   1      33.827  23.160  22.500  1.00  0.00     0.019 A 
ATOM     82  C   UNL A   1      34.537  24.325  24.500  1.00  0.00     0.057 A 
ATOM     83  C   UNL A   1      32.712  24.010  22.395  1.00  0.00     0.028 A 
ATOM     84  C   UNL A   1      33.469  25.206  24.351  1.00  0.00     0.048 A 
ATOM     85  Cl  UNL A   1      35.551  24.514  25.886  1.00  0.00    -0.083 Cl
ATOM     86  C   UNL A   1      32.568  25.083  23.283  1.00  0.00     0.053 A 
BRANCH  86  87
ATOM     87  N   UNL A   1      31.585  26.081  23.108  1.00  0.00    -0.250 N 
ATOM     88  C   UNL A   1      30.262  26.006  23.511  1.00  0.00     0.238 C 
ATOM     89  C   UNL A   1      31.857  27.292  22.482  1.00  0.00     0.238 C 
ATOM     90  O   UNL A   1      29.628  25.042  23.917  1.00  0.00    -0.274 OA
ATOM     91  C   UNL A   1      29.779  27.437  23.496  1.00  0.00     0.096 C 
ATOM     92  C   UNL A   1      30.534  27.965  22.289  1.00  0.00     0.096 C 
ATOM     93  O   UNL A   1      32.917  27.711  22.045  1.00  0.00    -0.274 OA
ATOM     94  C   UNL A   1      28.305  27.770  23.389  1.00  0.00     0.041 C 
ATOM     95  C   UNL A   1      30.527  29.478  22.246  1.00  0.00     0.041 C 
ATOM     96  C   UNL A   1      28.137  29.225  23.000  1.00  0.00    -0.030 C 
ATOM     97  C   UNL A   1      29.134  29.992  22.516  1.00  0.00    -0.030 C 
ENDBRANCH  86  87
ENDBRANCH  78  80
ENDBRANCH  77  78
ENDBRANCH  76  77
ENDBRANCH  75  76
ENDBRANCH  74  75
ENDBRANCH  73  74
ENDBRANCH   1  73
TORSDOF 18
ENDMDL
