MODEL 1
REMARK VINA RESULT:     -11.7      0.000      0.000
REMARK SMILES O=C(CSc1nc(O)cc(=O)[nH]1)Nc1cccc(C(=O)OCCOCCOCCOC(=O)c2ccc(-c3c4nc(c(-c5c(F)c(F)c(F)c(F)c5F)c5ccc([nH]5)c(-c5c(F)c(F)c(F)c(F)c5F)c5nc(c(-c6c(F)c(F)c(F)c(F)c6F)c6ccc3[nH]6)C=C5)C=C4)cc2)c1
REMARK SMILES IDX 24 1 23 2 22 3 21 4 19 5 20 6 18 7 14 8 15 9 96 10 16 11
REMARK SMILES IDX 17 12 13 13 1 14 2 15 3 17 4 18 5 19 6 20 12 21 7 22 10 23
REMARK SMILES IDX 9 25 11 26 8 27 25 29 26 30 27 31 28 32 29 33 30 34 31 35
REMARK SMILES IDX 32 36 33 37 34 38 95 39 35 40 94 41 36 42 37 43 38 44 88 45
REMARK SMILES IDX 39 46 93 47 87 48 89 49 40 50 92 51 86 52 85 53 41 55 73 56
REMARK SMILES IDX 53 57 72 58 54 59 57 60 71 61 90 62 55 63 56 64 70 66 91 67
REMARK SMILES IDX 58 68 42 69 43 70 51 71 44 72 45 73 49 74 52 75 46 76 47 77
REMARK SMILES IDX 50 78 48 79 74 80 75 81 83 82 76 83 77 84 81 85 84 86 78 87
REMARK SMILES IDX 79 88 82 89 80 90 59 91 60 92 68 93 61 94 62 95 66 96 69 97
REMARK SMILES IDX 63 98 64 99 67 100 65 101
REMARK H PARENT 13 16 12 24 8 28 89 54 57 65
REMARK Flexibility Score: inf
ROOT
ATOM      1  O   UNL A   1      34.731  22.847  25.963  1.00  0.00    -0.376 OA
ENDROOT
BRANCH   1   2
ATOM      2  C   UNL A   1      34.449  22.392  27.278  1.00  0.00     0.202 C 
BRANCH   2   3
ATOM      3  C   UNL A   1      33.010  22.250  27.809  1.00  0.00     0.261 C 
BRANCH   3   4
ATOM      4  O   UNL A   1      32.166  23.395  27.642  1.00  0.00    -0.460 OA
BRANCH   4   5
ATOM      5  C   UNL A   1      30.985  23.172  27.003  1.00  0.00     0.338 C 
ATOM      6  O   UNL A   1      29.913  22.917  27.509  1.00  0.00    -0.246 OA
BRANCH   5   7
ATOM      7  C   UNL A   1      31.145  23.532  25.575  1.00  0.00     0.062 A 
ATOM      8  C   UNL A   1      30.924  25.098  23.744  1.00  0.00     0.042 A 
ATOM      9  C   UNL A   1      31.272  24.079  22.849  1.00  0.00     0.026 A 
ATOM     10  C   UNL A   1      30.828  24.809  25.108  1.00  0.00     0.041 A 
ATOM     11  C   UNL A   1      31.597  22.803  23.316  1.00  0.00     0.003 A 
ATOM     12  C   UNL A   1      31.552  22.533  24.682  1.00  0.00     0.016 A 
BRANCH   8  13
ATOM     13  N   UNL A   1      30.688  26.384  23.219  1.00  0.00    -0.325 N 
ATOM     14  O   UNL A   1      32.363  27.585  24.304  1.00  0.00    -0.274 OA
ATOM     15  C   UNL A   1      31.382  27.527  23.565  1.00  0.00     0.234 C 
ATOM     16  H   UNL A   1      29.969  26.475  22.552  1.00  0.00     0.169 HD
BRANCH  15  17
ATOM     17  C   UNL A   1      30.899  28.789  22.890  1.00  0.00     0.178 C 
BRANCH  17  18
ATOM     18  S   UNL A   1      29.108  28.877  22.795  1.00  0.00    -0.078 SA
BRANCH  18  19
ATOM     19  C   UNL A   1      28.710  30.456  22.169  1.00  0.00     0.172 A 
ATOM     20  N   UNL A   1      28.186  30.490  20.988  1.00  0.00    -0.189 NA
ATOM     21  N   UNL A   1      28.935  31.564  22.928  1.00  0.00    -0.301 N 
ATOM     22  C   UNL A   1      27.848  31.714  20.499  1.00  0.00     0.218 A 
ATOM     23  C   UNL A   1      28.621  32.812  22.475  1.00  0.00     0.255 A 
ATOM     24  H   UNL A   1      29.331  31.463  23.823  1.00  0.00     0.172 HD
ATOM     25  C   UNL A   1      28.025  32.870  21.138  1.00  0.00     0.139 A 
ATOM     26  O   UNL A   1      28.808  33.828  23.134  1.00  0.00    -0.269 OA
BRANCH  22  27
ATOM     27  O   UNL A   1      27.278  31.709  19.254  1.00  0.00    -0.493 OA
ATOM     28  H   UNL A   1      26.363  31.882  19.157  1.00  0.00     0.295 HD
ENDBRANCH  22  27
ENDBRANCH  18  19
ENDBRANCH  17  18
ENDBRANCH  15  17
ENDBRANCH   8  13
ENDBRANCH   5   7
ENDBRANCH   4   5
ENDBRANCH   3   4
ENDBRANCH   2   3
ENDBRANCH   1   2
BRANCH   1  29
ATOM     29  C   UNL A   1      35.167  21.933  24.970  1.00  0.00     0.188 C 
BRANCH  29  30
ATOM     30  C   UNL A   1      34.696  20.463  25.003  1.00  0.00     0.188 C 
BRANCH  30  31
ATOM     31  O   UNL A   1      35.713  19.493  25.001  1.00  0.00    -0.376 OA
BRANCH  31  32
ATOM     32  C   UNL A   1      37.017  19.822  24.555  1.00  0.00     0.202 C 
BRANCH  32  33
ATOM     33  C   UNL A   1      38.306  19.801  25.406  1.00  0.00     0.261 C 
BRANCH  33  34
ATOM     34  O   UNL A   1      38.996  21.030  25.644  1.00  0.00    -0.460 OA
BRANCH  34  35
ATOM     35  C   UNL A   1      40.128  20.938  26.381  1.00  0.00     0.338 C 
ATOM     36  O   UNL A   1      40.914  20.008  26.416  1.00  0.00    -0.246 OA
BRANCH  35  37
ATOM     37  C   UNL A   1      40.394  22.239  27.023  1.00  0.00     0.060 A 
ATOM     38  C   UNL A   1      39.667  23.353  26.584  1.00  0.00     0.016 A 
ATOM     39  C   UNL A   1      41.393  22.379  27.989  1.00  0.00     0.016 A 
ATOM     40  C   UNL A   1      39.971  24.621  27.073  1.00  0.00     0.010 A 
ATOM     41  C   UNL A   1      41.708  23.657  28.467  1.00  0.00     0.010 A 
ATOM     42  C   UNL A   1      41.031  24.788  27.975  1.00  0.00    -0.014 A 
BRANCH  42  43
ATOM     43  C   UNL A   1      41.553  26.157  28.217  1.00  0.00     0.031 A 
ATOM     44  C   UNL A   1      42.916  26.511  27.683  1.00  0.00     0.074 A 
ATOM     45  C   UNL A   1      40.805  27.094  28.826  1.00  0.00     0.049 A 
ATOM     46  N   UNL A   1      43.562  27.649  27.728  1.00  0.00    -0.248 NA
ATOM     47  C   UNL A   1      43.650  25.432  27.002  1.00  0.00     0.031 C 
ATOM     48  C   UNL A   1      39.458  26.893  29.351  1.00  0.00     0.029 A 
ATOM     49  N   UNL A   1      41.080  28.413  29.096  1.00  0.00    -0.354 N 
ATOM     50  C   UNL A   1      44.771  27.423  27.083  1.00  0.00     0.074 A 
ATOM     51  C   UNL A   1      44.790  26.029  26.697  1.00  0.00     0.031 C 
ATOM     52  C   UNL A   1      39.020  28.049  29.879  1.00  0.00     0.029 A 
ATOM     53  C   UNL A   1      40.066  29.063  29.754  1.00  0.00     0.049 A 
ATOM     54  H   UNL A   1      41.925  28.851  28.843  1.00  0.00     0.167 HD
ATOM     55  C   UNL A   1      45.772  28.299  26.822  1.00  0.00     0.037 A 
ATOM     56  C   UNL A   1      39.998  30.329  30.209  1.00  0.00     0.037 A 
ATOM     57  C   UNL A   1      45.758  29.684  27.215  1.00  0.00     0.049 A 
ATOM     58  C   UNL A   1      41.156  31.266  29.971  1.00  0.00     0.074 A 
ATOM     59  C   UNL A   1      46.722  30.653  26.998  1.00  0.00     0.029 A 
ATOM     60  N   UNL A   1      44.728  30.296  27.915  1.00  0.00    -0.354 N 
ATOM     61  N   UNL A   1      42.284  31.053  29.338  1.00  0.00    -0.248 NA
ATOM     62  C   UNL A   1      41.019  32.632  30.499  1.00  0.00     0.031 C 
ATOM     63  C   UNL A   1      46.303  31.835  27.619  1.00  0.00     0.029 A 
ATOM     64  C   UNL A   1      45.044  31.625  28.156  1.00  0.00     0.049 A 
ATOM     65  H   UNL A   1      43.897  29.852  28.199  1.00  0.00     0.167 HD
ATOM     66  C   UNL A   1      42.970  32.263  29.353  1.00  0.00     0.074 A 
ATOM     67  C   UNL A   1      42.122  33.210  30.047  1.00  0.00     0.031 C 
ATOM     68  C   UNL A   1      44.186  32.565  28.834  1.00  0.00     0.037 A 
BRANCH  55  69
ATOM     69  C   UNL A   1      46.979  27.772  26.100  1.00  0.00     0.064 A 
ATOM     70  C   UNL A   1      47.059  27.764  24.699  1.00  0.00     0.173 A 
ATOM     71  C   UNL A   1      48.080  27.283  26.820  1.00  0.00     0.173 A 
ATOM     72  F   UNL A   1      46.029  28.204  23.960  1.00  0.00    -0.203 F 
ATOM     73  C   UNL A   1      48.181  27.256  24.046  1.00  0.00     0.198 A 
ATOM     74  C   UNL A   1      49.214  26.810  26.165  1.00  0.00     0.198 A 
ATOM     75  F   UNL A   1      48.059  27.270  28.161  1.00  0.00    -0.203 F 
ATOM     76  F   UNL A   1      48.209  27.204  22.707  1.00  0.00    -0.200 F 
ATOM     77  C   UNL A   1      49.260  26.787  24.780  1.00  0.00     0.200 A 
ATOM     78  F   UNL A   1      50.262  26.371  26.877  1.00  0.00    -0.200 F 
ATOM     79  F   UNL A   1      50.341  26.304  24.152  1.00  0.00    -0.200 F 
ENDBRANCH  55  69
BRANCH  56  80
ATOM     80  C   UNL A   1      38.785  30.799  30.933  1.00  0.00     0.064 A 
ATOM     81  C   UNL A   1      37.707  31.376  30.246  1.00  0.00     0.173 A 
ATOM     82  C   UNL A   1      38.697  30.719  32.331  1.00  0.00     0.173 A 
ATOM     83  F   UNL A   1      37.754  31.501  28.911  1.00  0.00    -0.203 F 
ATOM     84  C   UNL A   1      36.601  31.878  30.930  1.00  0.00     0.198 A 
ATOM     85  C   UNL A   1      37.576  31.191  33.011  1.00  0.00     0.198 A 
ATOM     86  F   UNL A   1      39.701  30.180  33.037  1.00  0.00    -0.203 F 
ATOM     87  F   UNL A   1      35.615  32.479  30.252  1.00  0.00    -0.200 F 
ATOM     88  C   UNL A   1      36.534  31.780  32.311  1.00  0.00     0.200 A 
ATOM     89  F   UNL A   1      37.510  31.084  34.345  1.00  0.00    -0.200 F 
ATOM     90  F   UNL A   1      35.472  32.265  32.968  1.00  0.00    -0.200 F 
ENDBRANCH  56  80
BRANCH  68  91
ATOM     91  C   UNL A   1      44.645  33.994  28.930  1.00  0.00     0.064 A 
ATOM     92  C   UNL A   1      45.365  34.478  30.033  1.00  0.00     0.173 A 
ATOM     93  C   UNL A   1      44.365  34.895  27.888  1.00  0.00     0.173 A 
ATOM     94  F   UNL A   1      45.654  33.665  31.061  1.00  0.00    -0.203 F 
ATOM     95  C   UNL A   1      45.743  35.817  30.113  1.00  0.00     0.198 A 
ATOM     96  C   UNL A   1      44.780  36.223  27.953  1.00  0.00     0.198 A 
ATOM     97  F   UNL A   1      43.692  34.487  26.802  1.00  0.00    -0.203 F 
ATOM     98  F   UNL A   1      46.364  36.272  31.210  1.00  0.00    -0.200 F 
ATOM     99  C   UNL A   1      45.455  36.687  29.071  1.00  0.00     0.200 A 
ATOM    100  F   UNL A   1      44.518  37.055  26.936  1.00  0.00    -0.200 F 
ATOM    101  F   UNL A   1      45.818  37.974  29.151  1.00  0.00    -0.200 F 
ENDBRANCH  68  91
ENDBRANCH  42  43
ENDBRANCH  35  37
ENDBRANCH  34  35
ENDBRANCH  33  34
ENDBRANCH  32  33
ENDBRANCH  31  32
ENDBRANCH  30  31
ENDBRANCH  29  30
ENDBRANCH   1  29
TORSDOF 22
ENDMDL
MODEL 2
REMARK VINA RESULT:     -11.6      4.607     10.377
REMARK SMILES O=C(CSc1nc(O)cc(=O)[nH]1)Nc1cccc(C(=O)OCCOCCOCCOC(=O)c2ccc(-c3c4nc(c(-c5c(F)c(F)c(F)c(F)c5F)c5ccc([nH]5)c(-c5c(F)c(F)c(F)c(F)c5F)c5nc(c(-c6c(F)c(F)c(F)c(F)c6F)c6ccc3[nH]6)C=C5)C=C4)cc2)c1
REMARK SMILES IDX 24 1 23 2 22 3 21 4 19 5 20 6 18 7 14 8 15 9 96 10 16 11
REMARK SMILES IDX 17 12 13 13 1 14 2 15 3 17 4 18 5 19 6 20 12 21 7 22 10 23
REMARK SMILES IDX 9 25 11 26 8 27 25 29 26 30 27 31 28 32 29 33 30 34 31 35
REMARK SMILES IDX 32 36 33 37 34 38 95 39 35 40 94 41 36 42 37 43 38 44 88 45
REMARK SMILES IDX 39 46 93 47 87 48 89 49 40 50 92 51 86 52 85 53 41 55 73 56
REMARK SMILES IDX 53 57 72 58 54 59 57 60 71 61 90 62 55 63 56 64 70 66 91 67
REMARK SMILES IDX 58 68 42 69 43 70 51 71 44 72 45 73 49 74 52 75 46 76 47 77
REMARK SMILES IDX 50 78 48 79 74 80 75 81 83 82 76 83 77 84 81 85 84 86 78 87
REMARK SMILES IDX 79 88 82 89 80 90 59 91 60 92 68 93 61 94 62 95 66 96 69 97
REMARK SMILES IDX 63 98 64 99 67 100 65 101
REMARK H PARENT 13 16 12 24 8 28 89 54 57 65
REMARK Flexibility Score: inf
ROOT
ATOM      1  O   UNL A   1      29.981  27.024  23.077  1.00  0.00    -0.376 OA
ENDROOT
BRANCH   1   2
ATOM      2  C   UNL A   1      29.114  26.523  24.084  1.00  0.00     0.202 C 
BRANCH   2   3
ATOM      3  C   UNL A   1      29.432  25.243  24.879  1.00  0.00     0.261 C 
BRANCH   3   4
ATOM      4  O   UNL A   1      29.826  25.435  26.243  1.00  0.00    -0.460 OA
BRANCH   4   5
ATOM      5  C   UNL A   1      30.724  24.537  26.732  1.00  0.00     0.338 C 
ATOM      6  O   UNL A   1      30.485  23.482  27.279  1.00  0.00    -0.246 OA
BRANCH   5   7
ATOM      7  C   UNL A   1      32.079  24.927  26.276  1.00  0.00     0.062 A 
ATOM      8  C   UNL A   1      34.342  24.369  25.629  1.00  0.00     0.042 A 
ATOM      9  C   UNL A   1      34.662  25.733  25.623  1.00  0.00     0.026 A 
ATOM     10  C   UNL A   1      33.053  23.969  25.991  1.00  0.00     0.041 A 
ATOM     11  C   UNL A   1      33.685  26.693  25.900  1.00  0.00     0.003 A 
ATOM     12  C   UNL A   1      32.387  26.292  26.208  1.00  0.00     0.016 A 
BRANCH   8  13
ATOM     13  N   UNL A   1      35.349  23.455  25.261  1.00  0.00    -0.325 N 
ATOM     14  O   UNL A   1      35.169  23.557  22.941  1.00  0.00    -0.274 OA
ATOM     15  C   UNL A   1      35.656  23.085  23.966  1.00  0.00     0.234 C 
ATOM     16  H   UNL A   1      35.876  23.047  25.986  1.00  0.00     0.169 HD
BRANCH  15  17
ATOM     17  C   UNL A   1      36.749  22.049  23.846  1.00  0.00     0.178 C 
BRANCH  17  18
ATOM     18  S   UNL A   1      36.722  20.860  25.191  1.00  0.00    -0.078 SA
BRANCH  18  19
ATOM     19  C   UNL A   1      35.264  19.919  25.009  1.00  0.00     0.172 A 
ATOM     20  N   UNL A   1      34.153  20.524  25.276  1.00  0.00    -0.189 NA
ATOM     21  N   UNL A   1      35.338  18.628  24.582  1.00  0.00    -0.301 N 
ATOM     22  C   UNL A   1      33.007  19.808  25.114  1.00  0.00     0.218 A 
ATOM     23  C   UNL A   1      34.216  17.870  24.415  1.00  0.00     0.255 A 
ATOM     24  H   UNL A   1      36.218  18.234  24.391  1.00  0.00     0.172 HD
ATOM     25  C   UNL A   1      32.948  18.540  24.712  1.00  0.00     0.139 A 
ATOM     26  O   UNL A   1      34.248  16.707  24.030  1.00  0.00    -0.269 OA
BRANCH  22  27
ATOM     27  O   UNL A   1      31.851  20.488  25.388  1.00  0.00    -0.493 OA
ATOM     28  H   UNL A   1      31.581  21.195  24.836  1.00  0.00     0.295 HD
ENDBRANCH  22  27
ENDBRANCH  18  19
ENDBRANCH  17  18
ENDBRANCH  15  17
ENDBRANCH   8  13
ENDBRANCH   5   7
ENDBRANCH   4   5
ENDBRANCH   3   4
ENDBRANCH   2   3
ENDBRANCH   1   2
BRANCH   1  29
ATOM     29  C   UNL A   1      29.985  28.407  22.763  1.00  0.00     0.188 C 
BRANCH  29  30
ATOM     30  C   UNL A   1      30.678  29.417  23.702  1.00  0.00     0.188 C 
BRANCH  30  31
ATOM     31  O   UNL A   1      32.062  29.248  23.873  1.00  0.00    -0.376 OA
BRANCH  31  32
ATOM     32  C   UNL A   1      32.706  29.738  25.036  1.00  0.00     0.202 C 
BRANCH  32  33
ATOM     33  C   UNL A   1      32.029  30.473  26.215  1.00  0.00     0.261 C 
BRANCH  33  34
ATOM     34  O   UNL A   1      32.734  30.588  27.453  1.00  0.00    -0.460 OA
BRANCH  34  35
ATOM     35  C   UNL A   1      33.512  31.689  27.589  1.00  0.00     0.338 C 
ATOM     36  O   UNL A   1      33.149  32.851  27.625  1.00  0.00    -0.246 OA
BRANCH  35  37
ATOM     37  C   UNL A   1      34.895  31.270  27.884  1.00  0.00     0.060 A 
ATOM     38  C   UNL A   1      35.153  29.901  28.036  1.00  0.00     0.016 A 
ATOM     39  C   UNL A   1      35.910  32.209  28.080  1.00  0.00     0.016 A 
ATOM     40  C   UNL A   1      36.415  29.470  28.437  1.00  0.00     0.010 A 
ATOM     41  C   UNL A   1      37.173  31.775  28.499  1.00  0.00     0.010 A 
ATOM     42  C   UNL A   1      37.416  30.408  28.725  1.00  0.00    -0.014 A 
BRANCH  42  43
ATOM     43  C   UNL A   1      38.623  29.958  29.466  1.00  0.00     0.031 A 
ATOM     44  C   UNL A   1      38.839  30.469  30.866  1.00  0.00     0.074 A 
ATOM     45  C   UNL A   1      39.468  29.053  28.943  1.00  0.00     0.049 A 
ATOM     46  N   UNL A   1      39.787  30.185  31.722  1.00  0.00    -0.248 NA
ATOM     47  C   UNL A   1      37.845  31.431  31.369  1.00  0.00     0.031 C 
ATOM     48  C   UNL A   1      39.350  28.450  27.618  1.00  0.00     0.029 A 
ATOM     49  N   UNL A   1      40.596  28.477  29.476  1.00  0.00    -0.354 N 
ATOM     50  C   UNL A   1      39.504  30.930  32.860  1.00  0.00     0.074 A 
ATOM     51  C   UNL A   1      38.323  31.713  32.570  1.00  0.00     0.031 C 
ATOM     52  C   UNL A   1      40.365  27.586  27.441  1.00  0.00     0.029 A 
ATOM     53  C   UNL A   1      41.218  27.595  28.628  1.00  0.00     0.049 A 
ATOM     54  H   UNL A   1      40.928  28.680  30.381  1.00  0.00     0.167 HD
ATOM     55  C   UNL A   1      40.159  30.951  34.047  1.00  0.00     0.037 A 
ATOM     56  C   UNL A   1      42.351  26.885  28.793  1.00  0.00     0.037 A 
ATOM     57  C   UNL A   1      41.340  30.179  34.333  1.00  0.00     0.049 A 
ATOM     58  C   UNL A   1      43.104  26.981  30.097  1.00  0.00     0.074 A 
ATOM     59  C   UNL A   1      42.077  30.130  35.503  1.00  0.00     0.029 A 
ATOM     60  N   UNL A   1      41.963  29.325  33.434  1.00  0.00    -0.354 N 
ATOM     61  N   UNL A   1      42.816  27.667  31.177  1.00  0.00    -0.248 NA
ATOM     62  C   UNL A   1      44.335  26.185  30.209  1.00  0.00     0.031 C 
ATOM     63  C   UNL A   1      43.179  29.294  35.292  1.00  0.00     0.029 A 
ATOM     64  C   UNL A   1      43.087  28.761  34.018  1.00  0.00     0.049 A 
ATOM     65  H   UNL A   1      41.652  29.147  32.517  1.00  0.00     0.167 HD
ATOM     66  C   UNL A   1      43.801  27.352  32.108  1.00  0.00     0.074 A 
ATOM     67  C   UNL A   1      44.687  26.403  31.467  1.00  0.00     0.031 C 
ATOM     68  C   UNL A   1      43.954  27.804  33.378  1.00  0.00     0.037 A 
BRANCH  55  69
ATOM     69  C   UNL A   1      39.624  31.863  35.114  1.00  0.00     0.064 A 
ATOM     70  C   UNL A   1      38.686  31.423  36.061  1.00  0.00     0.173 A 
ATOM     71  C   UNL A   1      40.068  33.191  35.202  1.00  0.00     0.173 A 
ATOM     72  F   UNL A   1      38.214  30.168  36.015  1.00  0.00    -0.203 F 
ATOM     73  C   UNL A   1      38.188  32.288  37.034  1.00  0.00     0.198 A 
ATOM     74  C   UNL A   1      39.595  34.042  36.197  1.00  0.00     0.198 A 
ATOM     75  F   UNL A   1      40.966  33.663  34.324  1.00  0.00    -0.203 F 
ATOM     76  F   UNL A   1      37.249  31.863  37.891  1.00  0.00    -0.200 F 
ATOM     77  C   UNL A   1      38.650  33.594  37.106  1.00  0.00     0.200 A 
ATOM     78  F   UNL A   1      40.054  35.300  36.274  1.00  0.00    -0.200 F 
ATOM     79  F   UNL A   1      38.175  34.424  38.045  1.00  0.00    -0.200 F 
ENDBRANCH  55  69
BRANCH  56  80
ATOM     80  C   UNL A   1      42.849  26.007  27.699  1.00  0.00     0.064 A 
ATOM     81  C   UNL A   1      43.799  26.467  26.776  1.00  0.00     0.173 A 
ATOM     82  C   UNL A   1      42.357  24.705  27.531  1.00  0.00     0.173 A 
ATOM     83  F   UNL A   1      44.282  27.715  26.877  1.00  0.00    -0.203 F 
ATOM     84  C   UNL A   1      44.216  25.669  25.711  1.00  0.00     0.198 A 
ATOM     85  C   UNL A   1      42.798  23.896  26.486  1.00  0.00     0.198 A 
ATOM     86  F   UNL A   1      41.444  24.216  28.384  1.00  0.00    -0.203 F 
ATOM     87  F   UNL A   1      45.077  26.158  24.809  1.00  0.00    -0.200 F 
ATOM     88  C   UNL A   1      43.719  24.382  25.570  1.00  0.00     0.200 A 
ATOM     89  F   UNL A   1      42.324  22.649  26.360  1.00  0.00    -0.200 F 
ATOM     90  F   UNL A   1      44.117  23.617  24.546  1.00  0.00    -0.200 F 
ENDBRANCH  56  80
BRANCH  68  91
ATOM     91  C   UNL A   1      45.080  27.221  34.188  1.00  0.00     0.064 A 
ATOM     92  C   UNL A   1      46.358  27.799  34.220  1.00  0.00     0.173 A 
ATOM     93  C   UNL A   1      44.869  26.064  34.957  1.00  0.00     0.173 A 
ATOM     94  F   UNL A   1      46.620  28.901  33.499  1.00  0.00    -0.203 F 
ATOM     95  C   UNL A   1      47.393  27.216  34.949  1.00  0.00     0.198 A 
ATOM     96  C   UNL A   1      45.895  25.507  35.717  1.00  0.00     0.198 A 
ATOM     97  F   UNL A   1      43.665  25.474  34.977  1.00  0.00    -0.203 F 
ATOM     98  F   UNL A   1      48.623  27.746  34.903  1.00  0.00    -0.200 F 
ATOM     99  C   UNL A   1      47.160  26.073  35.699  1.00  0.00     0.200 A 
ATOM    100  F   UNL A   1      45.660  24.415  36.457  1.00  0.00    -0.200 F 
ATOM    101  F   UNL A   1      48.156  25.513  36.398  1.00  0.00    -0.200 F 
ENDBRANCH  68  91
ENDBRANCH  42  43
ENDBRANCH  35  37
ENDBRANCH  34  35
ENDBRANCH  33  34
ENDBRANCH  32  33
ENDBRANCH  31  32
ENDBRANCH  30  31
ENDBRANCH  29  30
ENDBRANCH   1  29
TORSDOF 22
ENDMDL
MODEL 3
REMARK VINA RESULT:     -11.4      4.163      6.134
REMARK SMILES O=C(CSc1nc(O)cc(=O)[nH]1)Nc1cccc(C(=O)OCCOCCOCCOC(=O)c2ccc(-c3c4nc(c(-c5c(F)c(F)c(F)c(F)c5F)c5ccc([nH]5)c(-c5c(F)c(F)c(F)c(F)c5F)c5nc(c(-c6c(F)c(F)c(F)c(F)c6F)c6ccc3[nH]6)C=C5)C=C4)cc2)c1
REMARK SMILES IDX 24 1 23 2 22 3 21 4 19 5 20 6 18 7 14 8 15 9 96 10 16 11
REMARK SMILES IDX 17 12 13 13 1 14 2 15 3 17 4 18 5 19 6 20 12 21 7 22 10 23
REMARK SMILES IDX 9 25 11 26 8 27 25 29 26 30 27 31 28 32 29 33 30 34 31 35
REMARK SMILES IDX 32 36 33 37 34 38 95 39 35 40 94 41 36 42 37 43 38 44 88 45
REMARK SMILES IDX 39 46 93 47 87 48 89 49 40 50 92 51 86 52 85 53 41 55 73 56
REMARK SMILES IDX 53 57 72 58 54 59 57 60 71 61 90 62 55 63 56 64 70 66 91 67
REMARK SMILES IDX 58 68 42 69 43 70 51 71 44 72 45 73 49 74 52 75 46 76 47 77
REMARK SMILES IDX 50 78 48 79 74 80 75 81 83 82 76 83 77 84 81 85 84 86 78 87
REMARK SMILES IDX 79 88 82 89 80 90 59 91 60 92 68 93 61 94 62 95 66 96 69 97
REMARK SMILES IDX 63 98 64 99 67 100 65 101
REMARK H PARENT 13 16 12 24 8 28 89 54 57 65
REMARK Flexibility Score: inf
ROOT
ATOM      1  O   UNL A   1      37.080  22.515  25.439  1.00  0.00    -0.376 OA
ENDROOT
BRANCH   1   2
ATOM      2  C   UNL A   1      35.779  22.097  25.827  1.00  0.00     0.202 C 
BRANCH   2   3
ATOM      3  C   UNL A   1      35.175  20.757  25.367  1.00  0.00     0.261 C 
BRANCH   3   4
ATOM      4  O   UNL A   1      34.109  20.845  24.414  1.00  0.00    -0.460 OA
BRANCH   4   5
ATOM      5  C   UNL A   1      32.851  20.731  24.921  1.00  0.00     0.338 C 
ATOM      6  O   UNL A   1      32.263  19.710  25.206  1.00  0.00    -0.246 OA
BRANCH   5   7
ATOM      7  C   UNL A   1      32.375  22.079  25.311  1.00  0.00     0.062 A 
ATOM      8  C   UNL A   1      31.717  24.340  24.756  1.00  0.00     0.042 A 
ATOM      9  C   UNL A   1      31.683  24.650  26.121  1.00  0.00     0.026 A 
ATOM     10  C   UNL A   1      32.098  23.057  24.354  1.00  0.00     0.041 A 
ATOM     11  C   UNL A   1      31.951  23.670  27.080  1.00  0.00     0.003 A 
ATOM     12  C   UNL A   1      32.279  22.377  26.676  1.00  0.00     0.016 A 
BRANCH   8  13
ATOM     13  N   UNL A   1      31.356  25.349  23.842  1.00  0.00    -0.325 N 
ATOM     14  O   UNL A   1      33.411  25.723  22.810  1.00  0.00    -0.274 OA
ATOM     15  C   UNL A   1      32.224  25.992  22.979  1.00  0.00     0.234 C 
ATOM     16  H   UNL A   1      30.410  25.619  23.817  1.00  0.00     0.169 HD
BRANCH  15  17
ATOM     17  C   UNL A   1      31.591  27.072  22.135  1.00  0.00     0.178 C 
BRANCH  17  18
ATOM     18  S   UNL A   1      31.497  28.649  22.989  1.00  0.00    -0.078 SA
BRANCH  18  19
ATOM     19  C   UNL A   1      29.956  29.357  22.581  1.00  0.00     0.172 A 
ATOM     20  N   UNL A   1      28.906  28.712  22.974  1.00  0.00    -0.189 NA
ATOM     21  N   UNL A   1      29.908  30.537  21.905  1.00  0.00    -0.301 N 
ATOM     22  C   UNL A   1      27.698  29.266  22.683  1.00  0.00     0.218 A 
ATOM     23  C   UNL A   1      28.719  31.125  21.584  1.00  0.00     0.255 A 
ATOM     24  H   UNL A   1      30.749  30.977  21.643  1.00  0.00     0.172 HD
ATOM     25  C   UNL A   1      27.519  30.409  22.022  1.00  0.00     0.139 A 
ATOM     26  O   UNL A   1      28.643  32.188  20.980  1.00  0.00    -0.269 OA
BRANCH  22  27
ATOM     27  O   UNL A   1      26.611  28.565  23.132  1.00  0.00    -0.493 OA
ATOM     28  H   UNL A   1      25.801  28.607  22.663  1.00  0.00     0.295 HD
ENDBRANCH  22  27
ENDBRANCH  18  19
ENDBRANCH  17  18
ENDBRANCH  15  17
ENDBRANCH   8  13
ENDBRANCH   5   7
ENDBRANCH   4   5
ENDBRANCH   3   4
ENDBRANCH   2   3
ENDBRANCH   1   2
BRANCH   1  29
ATOM     29  C   UNL A   1      38.138  21.574  25.365  1.00  0.00     0.188 C 
BRANCH  29  30
ATOM     30  C   UNL A   1      39.426  21.783  26.190  1.00  0.00     0.188 C 
BRANCH  30  31
ATOM     31  O   UNL A   1      40.409  20.787  26.057  1.00  0.00    -0.376 OA
BRANCH  31  32
ATOM     32  C   UNL A   1      41.738  21.031  26.485  1.00  0.00     0.202 C 
BRANCH  32  33
ATOM     33  C   UNL A   1      42.854  21.707  25.657  1.00  0.00     0.261 C 
BRANCH  33  34
ATOM     34  O   UNL A   1      42.538  22.877  24.900  1.00  0.00    -0.460 OA
BRANCH  34  35
ATOM     35  C   UNL A   1      43.371  23.932  25.068  1.00  0.00     0.338 C 
ATOM     36  O   UNL A   1      44.450  24.115  24.532  1.00  0.00    -0.246 OA
BRANCH  35  37
ATOM     37  C   UNL A   1      42.693  24.960  25.880  1.00  0.00     0.060 A 
ATOM     38  C   UNL A   1      43.389  26.142  26.165  1.00  0.00     0.016 A 
ATOM     39  C   UNL A   1      41.422  24.739  26.413  1.00  0.00     0.016 A 
ATOM     40  C   UNL A   1      42.837  27.084  27.028  1.00  0.00     0.010 A 
ATOM     41  C   UNL A   1      40.875  25.681  27.293  1.00  0.00     0.010 A 
ATOM     42  C   UNL A   1      41.602  26.834  27.642  1.00  0.00    -0.014 A 
BRANCH  42  43
ATOM     43  C   UNL A   1      41.197  27.672  28.799  1.00  0.00     0.031 A 
ATOM     44  C   UNL A   1      42.031  27.620  30.052  1.00  0.00     0.074 A 
ATOM     45  C   UNL A   1      40.160  28.525  28.716  1.00  0.00     0.049 A 
ATOM     46  N   UNL A   1      41.904  28.290  31.169  1.00  0.00    -0.248 NA
ATOM     47  C   UNL A   1      43.164  26.682  30.040  1.00  0.00     0.031 C 
ATOM     48  C   UNL A   1      39.300  28.703  27.550  1.00  0.00     0.029 A 
ATOM     49  N   UNL A   1      39.662  29.411  29.641  1.00  0.00    -0.354 N 
ATOM     50  C   UNL A   1      42.938  27.857  31.988  1.00  0.00     0.074 A 
ATOM     51  C   UNL A   1      43.656  26.834  31.259  1.00  0.00     0.031 C 
ATOM     52  C   UNL A   1      38.380  29.643  27.827  1.00  0.00     0.029 A 
ATOM     53  C   UNL A   1      38.569  30.113  29.198  1.00  0.00     0.049 A 
ATOM     54  H   UNL A   1      40.052  29.530  30.538  1.00  0.00     0.167 HD
ATOM     55  C   UNL A   1      43.272  28.282  33.231  1.00  0.00     0.037 A 
ATOM     56  C   UNL A   1      37.806  31.024  29.834  1.00  0.00     0.037 A 
ATOM     57  C   UNL A   1      42.553  29.294  33.961  1.00  0.00     0.049 A 
ATOM     58  C   UNL A   1      38.154  31.427  31.246  1.00  0.00     0.074 A 
ATOM     59  C   UNL A   1      42.811  29.794  35.226  1.00  0.00     0.029 A 
ATOM     60  N   UNL A   1      41.427  29.954  33.494  1.00  0.00    -0.354 N 
ATOM     61  N   UNL A   1      39.149  31.033  32.004  1.00  0.00    -0.248 NA
ATOM     62  C   UNL A   1      37.278  32.421  31.883  1.00  0.00     0.031 C 
ATOM     63  C   UNL A   1      41.806  30.713  35.547  1.00  0.00     0.029 A 
ATOM     64  C   UNL A   1      40.966  30.843  34.453  1.00  0.00     0.049 A 
ATOM     65  H   UNL A   1      41.015  29.812  32.611  1.00  0.00     0.167 HD
ATOM     66  C   UNL A   1      39.044  31.760  33.186  1.00  0.00     0.074 A 
ATOM     67  C   UNL A   1      37.895  32.628  33.037  1.00  0.00     0.031 C 
ATOM     68  C   UNL A   1      39.831  31.716  34.290  1.00  0.00     0.037 A 
BRANCH  55  69
ATOM     69  C   UNL A   1      44.455  27.629  33.890  1.00  0.00     0.064 A 
ATOM     70  C   UNL A   1      44.333  26.429  34.607  1.00  0.00     0.173 A 
ATOM     71  C   UNL A   1      45.731  28.203  33.788  1.00  0.00     0.173 A 
ATOM     72  F   UNL A   1      43.133  25.845  34.750  1.00  0.00    -0.203 F 
ATOM     73  C   UNL A   1      45.438  25.846  35.225  1.00  0.00     0.198 A 
ATOM     74  C   UNL A   1      46.839  27.599  34.376  1.00  0.00     0.198 A 
ATOM     75  F   UNL A   1      45.906  29.348  33.111  1.00  0.00    -0.203 F 
ATOM     76  F   UNL A   1      45.286  24.732  35.954  1.00  0.00    -0.200 F 
ATOM     77  C   UNL A   1      46.691  26.428  35.102  1.00  0.00     0.200 A 
ATOM     78  F   UNL A   1      48.052  28.155  34.243  1.00  0.00    -0.200 F 
ATOM     79  F   UNL A   1      47.754  25.864  35.692  1.00  0.00    -0.200 F 
ENDBRANCH  55  69
BRANCH  56  80
ATOM     80  C   UNL A   1      36.636  31.631  29.145  1.00  0.00     0.064 A 
ATOM     81  C   UNL A   1      36.619  32.992  28.804  1.00  0.00     0.173 A 
ATOM     82  C   UNL A   1      35.493  30.873  28.848  1.00  0.00     0.173 A 
ATOM     83  F   UNL A   1      37.676  33.766  29.091  1.00  0.00    -0.203 F 
ATOM     84  C   UNL A   1      35.496  33.575  28.220  1.00  0.00     0.198 A 
ATOM     85  C   UNL A   1      34.384  31.449  28.233  1.00  0.00     0.198 A 
ATOM     86  F   UNL A   1      35.455  29.568  29.155  1.00  0.00    -0.203 F 
ATOM     87  F   UNL A   1      35.485  34.890  27.963  1.00  0.00    -0.200 F 
ATOM     88  C   UNL A   1      34.382  32.803  27.930  1.00  0.00     0.200 A 
ATOM     89  F   UNL A   1      33.313  30.697  27.944  1.00  0.00    -0.200 F 
ATOM     90  F   UNL A   1      33.302  33.365  27.370  1.00  0.00    -0.200 F 
ENDBRANCH  56  80
BRANCH  68  91
ATOM     91  C   UNL A   1      39.522  32.686  35.398  1.00  0.00     0.064 A 
ATOM     92  C   UNL A   1      40.095  33.965  35.456  1.00  0.00     0.173 A 
ATOM     93  C   UNL A   1      38.624  32.327  36.418  1.00  0.00     0.173 A 
ATOM     94  F   UNL A   1      40.965  34.359  34.514  1.00  0.00    -0.203 F 
ATOM     95  C   UNL A   1      39.821  34.828  36.516  1.00  0.00     0.198 A 
ATOM     96  C   UNL A   1      38.321  33.207  37.453  1.00  0.00     0.198 A 
ATOM     97  F   UNL A   1      38.035  31.122  36.409  1.00  0.00    -0.203 F 
ATOM     98  F   UNL A   1      40.438  36.015  36.587  1.00  0.00    -0.200 F 
ATOM     99  C   UNL A   1      38.931  34.450  37.510  1.00  0.00     0.200 A 
ATOM    100  F   UNL A   1      37.445  32.847  38.401  1.00  0.00    -0.200 F 
ATOM    101  F   UNL A   1      38.670  35.281  38.529  1.00  0.00    -0.200 F 
ENDBRANCH  68  91
ENDBRANCH  42  43
ENDBRANCH  35  37
ENDBRANCH  34  35
ENDBRANCH  33  34
ENDBRANCH  32  33
ENDBRANCH  31  32
ENDBRANCH  30  31
ENDBRANCH  29  30
ENDBRANCH   1  29
TORSDOF 22
ENDMDL
