MODEL 1
REMARK VINA RESULT:     -12.1      0.000      0.000
REMARK SMILES CCn1nc(-c2cccnc2)c2cc(C(=O)OCCOCCOCCOC(=O)c3ccc(-c4c5nc(c(-c6c(F)c(F)c(F)c(F)c6F)c6ccc([nH]6)c(-c6c(F)c(F)c(F)c(F)c6F)c6nc(c(-c7c(F)c(F)c(F)c(F)c7F)c7ccc4[nH]7)C=C6)C=C5)cc3)sc21
REMARK SMILES IDX 22 1 21 2 20 3 19 4 18 5 17 6 15 7 16 8 14 9 3 10 4 11 93 12
REMARK SMILES IDX 5 13 12 14 92 15 13 16 2 17 1 18 6 19 7 20 11 21 8 22 10 23
REMARK SMILES IDX 9 24 23 25 24 26 25 27 26 28 27 29 28 30 29 31 30 32 91 33
REMARK SMILES IDX 31 34 90 35 32 36 33 37 34 38 84 39 35 40 89 41 83 42 85 43
REMARK SMILES IDX 36 44 88 45 82 46 81 47 37 49 69 50 49 51 68 52 50 53 53 54
REMARK SMILES IDX 67 55 86 56 51 57 52 58 66 60 87 61 54 62 38 63 39 64 47 65
REMARK SMILES IDX 40 66 41 67 45 68 48 69 42 70 43 71 46 72 44 73 70 74 71 75
REMARK SMILES IDX 79 76 72 77 73 78 77 79 80 80 74 81 75 82 78 83 76 84 55 85
REMARK SMILES IDX 56 86 64 87 57 88 58 89 62 90 65 91 59 92 60 93 63 94 61 95
REMARK H PARENT 85 48 53 59
REMARK Flexibility Score: inf
ROOT
ATOM      1  C   UNL A   1      43.569  18.315  26.064  1.00  0.00     0.188 C 
ENDROOT
BRANCH   1   2
ATOM      2  C   UNL A   1      42.638  19.546  26.136  1.00  0.00     0.188 C 
BRANCH   2   3
ATOM      3  O   UNL A   1      41.290  19.476  25.698  1.00  0.00    -0.376 OA
BRANCH   3   4
ATOM      4  C   UNL A   1      40.240  20.046  26.465  1.00  0.00     0.202 C 
BRANCH   4   5
ATOM      5  C   UNL A   1      39.618  21.421  26.150  1.00  0.00     0.261 C 
BRANCH   5   6
ATOM      6  O   UNL A   1      38.532  21.443  25.219  1.00  0.00    -0.459 OA
BRANCH   6   7
ATOM      7  C   UNL A   1      37.597  22.415  25.373  1.00  0.00     0.348 C 
ATOM      8  O   UNL A   1      37.853  23.598  25.623  1.00  0.00    -0.245 OA
BRANCH   7   9
ATOM      9  C   UNL A   1      36.278  21.914  25.038  1.00  0.00     0.115 A 
ATOM     10  N   UNL A   1      32.723  21.521  23.909  1.00  0.00    -0.254 N 
ATOM     11  N   UNL A   1      32.386  20.202  24.003  1.00  0.00    -0.171 NA
ATOM     12  C   UNL A   1      33.981  21.741  24.347  1.00  0.00     0.122 A 
ATOM     13  C   UNL A   1      33.482  19.597  24.526  1.00  0.00     0.103 A 
ATOM     14  C   UNL A   1      34.475  20.559  24.721  1.00  0.00     0.040 A 
ATOM     15  S   UNL A   1      35.047  23.006  24.450  1.00  0.00    -0.109 S 
ATOM     16  C   UNL A   1      35.811  20.593  25.123  1.00  0.00     0.040 A 
BRANCH  10  17
ATOM     17  C   UNL A   1      31.853  22.455  23.224  1.00  0.00     0.142 C 
ATOM     18  C   UNL A   1      31.160  23.443  24.144  1.00  0.00     0.029 C 
ENDBRANCH  10  17
BRANCH  13  19
ATOM     19  C   UNL A   1      33.504  18.158  24.711  1.00  0.00     0.021 A 
ATOM     20  C   UNL A   1      32.563  17.542  25.541  1.00  0.00     0.013 A 
ATOM     21  C   UNL A   1      34.479  17.354  24.137  1.00  0.00     0.121 A 
ATOM     22  C   UNL A   1      32.628  16.169  25.760  1.00  0.00     0.021 A 
ATOM     23  N   UNL A   1      34.562  16.010  24.326  1.00  0.00    -0.264 NA
ATOM     24  C   UNL A   1      33.639  15.453  25.140  1.00  0.00     0.111 A 
ENDBRANCH  13  19
ENDBRANCH   7   9
ENDBRANCH   6   7
ENDBRANCH   5   6
ENDBRANCH   4   5
ENDBRANCH   3   4
ENDBRANCH   2   3
ENDBRANCH   1   2
BRANCH   1  25
ATOM     25  O   UNL A   1      44.538  18.349  25.040  1.00  0.00    -0.376 OA
BRANCH  25  26
ATOM     26  C   UNL A   1      45.867  18.791  25.265  1.00  0.00     0.202 C 
BRANCH  26  27
ATOM     27  C   UNL A   1      46.487  20.047  24.652  1.00  0.00     0.261 C 
BRANCH  27  28
ATOM     28  O   UNL A   1      46.067  21.277  25.197  1.00  0.00    -0.460 OA
BRANCH  28  29
ATOM     29  C   UNL A   1      45.024  21.829  24.550  1.00  0.00     0.338 C 
ATOM     30  O   UNL A   1      44.821  21.843  23.343  1.00  0.00    -0.246 OA
BRANCH  29  31
ATOM     31  C   UNL A   1      44.188  22.526  25.521  1.00  0.00     0.060 A 
ATOM     32  C   UNL A   1      43.177  23.330  24.996  1.00  0.00     0.016 A 
ATOM     33  C   UNL A   1      44.666  22.663  26.832  1.00  0.00     0.016 A 
ATOM     34  C   UNL A   1      42.848  24.465  25.691  1.00  0.00     0.010 A 
ATOM     35  C   UNL A   1      44.350  23.805  27.516  1.00  0.00     0.010 A 
ATOM     36  C   UNL A   1      43.533  24.734  26.882  1.00  0.00    -0.014 A 
BRANCH  36  37
ATOM     37  C   UNL A   1      43.310  26.020  27.494  1.00  0.00     0.031 A 
ATOM     38  C   UNL A   1      44.346  26.986  27.099  1.00  0.00     0.074 A 
ATOM     39  C   UNL A   1      42.238  26.264  28.272  1.00  0.00     0.049 A 
ATOM     40  N   UNL A   1      45.295  27.452  27.835  1.00  0.00    -0.248 NA
ATOM     41  C   UNL A   1      44.477  27.306  25.668  1.00  0.00     0.031 C 
ATOM     42  C   UNL A   1      41.058  25.410  28.444  1.00  0.00     0.029 A 
ATOM     43  N   UNL A   1      41.924  27.379  28.992  1.00  0.00    -0.354 N 
ATOM     44  C   UNL A   1      45.980  28.338  27.013  1.00  0.00     0.074 A 
ATOM     45  C   UNL A   1      45.602  28.023  25.664  1.00  0.00     0.031 C 
ATOM     46  C   UNL A   1      40.066  26.131  29.013  1.00  0.00     0.029 A 
ATOM     47  C   UNL A   1      40.588  27.437  29.375  1.00  0.00     0.049 A 
ATOM     48  H   UNL A   1      42.580  28.077  29.220  1.00  0.00     0.167 HD
ATOM     49  C   UNL A   1      46.472  29.488  27.546  1.00  0.00     0.037 A 
ATOM     50  C   UNL A   1      39.954  28.522  29.879  1.00  0.00     0.037 A 
ATOM     51  C   UNL A   1      46.547  29.389  28.983  1.00  0.00     0.049 A 
ATOM     52  C   UNL A   1      40.987  29.427  30.439  1.00  0.00     0.074 A 
ATOM     53  C   UNL A   1      47.381  28.804  29.907  1.00  0.00     0.029 A 
ATOM     54  N   UNL A   1      45.361  29.657  29.612  1.00  0.00    -0.354 N 
ATOM     55  N   UNL A   1      41.714  29.125  31.480  1.00  0.00    -0.248 NA
ATOM     56  C   UNL A   1      41.491  30.530  29.624  1.00  0.00     0.031 C 
ATOM     57  C   UNL A   1      46.616  28.654  31.102  1.00  0.00     0.029 A 
ATOM     58  C   UNL A   1      45.344  29.179  30.892  1.00  0.00     0.049 A 
ATOM     59  H   UNL A   1      44.610  30.135  29.192  1.00  0.00     0.167 HD
ATOM     60  C   UNL A   1      42.943  29.694  31.215  1.00  0.00     0.074 A 
ATOM     61  C   UNL A   1      42.703  30.676  30.167  1.00  0.00     0.031 C 
ATOM     62  C   UNL A   1      44.095  29.083  31.612  1.00  0.00     0.037 A 
BRANCH  49  63
ATOM     63  C   UNL A   1      46.349  30.843  26.880  1.00  0.00     0.064 A 
ATOM     64  C   UNL A   1      47.486  31.674  26.842  1.00  0.00     0.173 A 
ATOM     65  C   UNL A   1      45.122  31.483  26.588  1.00  0.00     0.173 A 
ATOM     66  F   UNL A   1      48.702  31.180  27.123  1.00  0.00    -0.203 F 
ATOM     67  C   UNL A   1      47.390  33.049  26.606  1.00  0.00     0.198 A 
ATOM     68  C   UNL A   1      45.037  32.844  26.303  1.00  0.00     0.198 A 
ATOM     69  F   UNL A   1      43.943  30.862  26.677  1.00  0.00    -0.203 F 
ATOM     70  F   UNL A   1      48.481  33.818  26.700  1.00  0.00    -0.200 F 
ATOM     71  C   UNL A   1      46.165  33.633  26.342  1.00  0.00     0.200 A 
ATOM     72  F   UNL A   1      43.835  33.393  26.077  1.00  0.00    -0.200 F 
ATOM     73  F   UNL A   1      46.060  34.957  26.175  1.00  0.00    -0.200 F 
ENDBRANCH  49  63
BRANCH  50  74
ATOM     74  C   UNL A   1      38.559  28.954  29.630  1.00  0.00     0.064 A 
ATOM     75  C   UNL A   1      37.704  29.310  30.683  1.00  0.00     0.173 A 
ATOM     76  C   UNL A   1      38.126  29.284  28.330  1.00  0.00     0.173 A 
ATOM     77  F   UNL A   1      38.064  29.075  31.952  1.00  0.00    -0.203 F 
ATOM     78  C   UNL A   1      36.496  29.977  30.451  1.00  0.00     0.198 A 
ATOM     79  C   UNL A   1      36.919  29.944  28.099  1.00  0.00     0.198 A 
ATOM     80  F   UNL A   1      38.912  29.058  27.267  1.00  0.00    -0.203 F 
ATOM     81  F   UNL A   1      35.729  30.354  31.484  1.00  0.00    -0.200 F 
ATOM     82  C   UNL A   1      36.109  30.302  29.160  1.00  0.00     0.200 A 
ATOM     83  F   UNL A   1      36.578  30.286  26.849  1.00  0.00    -0.200 F 
ATOM     84  F   UNL A   1      34.982  30.993  28.942  1.00  0.00    -0.200 F 
ENDBRANCH  50  74
BRANCH  62  85
ATOM     85  C   UNL A   1      44.020  28.139  32.767  1.00  0.00     0.064 A 
ATOM     86  C   UNL A   1      43.861  26.751  32.650  1.00  0.00     0.173 A 
ATOM     87  C   UNL A   1      44.213  28.670  34.050  1.00  0.00     0.173 A 
ATOM     88  F   UNL A   1      43.741  26.169  31.449  1.00  0.00    -0.203 F 
ATOM     89  C   UNL A   1      43.871  25.933  33.781  1.00  0.00     0.198 A 
ATOM     90  C   UNL A   1      44.258  27.850  35.170  1.00  0.00     0.198 A 
ATOM     91  F   UNL A   1      44.404  29.989  34.208  1.00  0.00    -0.203 F 
ATOM     92  F   UNL A   1      43.707  24.608  33.655  1.00  0.00    -0.200 F 
ATOM     93  C   UNL A   1      44.079  26.482  35.037  1.00  0.00     0.200 A 
ATOM     94  F   UNL A   1      44.501  28.384  36.375  1.00  0.00    -0.200 F 
ATOM     95  F   UNL A   1      44.130  25.694  36.120  1.00  0.00    -0.200 F 
ENDBRANCH  62  85
ENDBRANCH  36  37
ENDBRANCH  29  31
ENDBRANCH  28  29
ENDBRANCH  27  28
ENDBRANCH  26  27
ENDBRANCH  25  26
ENDBRANCH   1  25
TORSDOF 19
ENDMDL
MODEL 2
REMARK VINA RESULT:     -11.4      3.905      8.934
REMARK SMILES CCn1nc(-c2cccnc2)c2cc(C(=O)OCCOCCOCCOC(=O)c3ccc(-c4c5nc(c(-c6c(F)c(F)c(F)c(F)c6F)c6ccc([nH]6)c(-c6c(F)c(F)c(F)c(F)c6F)c6nc(c(-c7c(F)c(F)c(F)c(F)c7F)c7ccc4[nH]7)C=C6)C=C5)cc3)sc21
REMARK SMILES IDX 22 1 21 2 20 3 19 4 18 5 17 6 15 7 16 8 14 9 3 10 4 11 93 12
REMARK SMILES IDX 5 13 12 14 92 15 13 16 2 17 1 18 6 19 7 20 11 21 8 22 10 23
REMARK SMILES IDX 9 24 23 25 24 26 25 27 26 28 27 29 28 30 29 31 30 32 91 33
REMARK SMILES IDX 31 34 90 35 32 36 33 37 34 38 84 39 35 40 89 41 83 42 85 43
REMARK SMILES IDX 36 44 88 45 82 46 81 47 37 49 69 50 49 51 68 52 50 53 53 54
REMARK SMILES IDX 67 55 86 56 51 57 52 58 66 60 87 61 54 62 38 63 39 64 47 65
REMARK SMILES IDX 40 66 41 67 45 68 48 69 42 70 43 71 46 72 44 73 70 74 71 75
REMARK SMILES IDX 79 76 72 77 73 78 77 79 80 80 74 81 75 82 78 83 76 84 55 85
REMARK SMILES IDX 56 86 64 87 57 88 58 89 62 90 65 91 59 92 60 93 63 94 61 95
REMARK H PARENT 85 48 53 59
REMARK Flexibility Score: inf
ROOT
ATOM      1  C   UNL A   1      31.187  29.450  24.781  1.00  0.00     0.188 C 
ENDROOT
BRANCH   1   2
ATOM      2  C   UNL A   1      31.402  28.221  23.870  1.00  0.00     0.188 C 
BRANCH   2   3
ATOM      3  O   UNL A   1      30.314  27.409  23.459  1.00  0.00    -0.376 OA
BRANCH   3   4
ATOM      4  C   UNL A   1      29.818  26.371  24.291  1.00  0.00     0.202 C 
BRANCH   4   5
ATOM      5  C   UNL A   1      30.662  25.147  24.702  1.00  0.00     0.261 C 
BRANCH   5   6
ATOM      6  O   UNL A   1      31.077  25.077  26.068  1.00  0.00    -0.459 OA
BRANCH   6   7
ATOM      7  C   UNL A   1      31.140  23.847  26.640  1.00  0.00     0.348 C 
ATOM      8  O   UNL A   1      30.241  23.348  27.326  1.00  0.00    -0.245 OA
BRANCH   7   9
ATOM      9  C   UNL A   1      32.324  23.137  26.198  1.00  0.00     0.115 A 
ATOM     10  N   UNL A   1      35.825  22.102  25.334  1.00  0.00    -0.254 N 
ATOM     11  N   UNL A   1      35.795  20.808  24.903  1.00  0.00    -0.171 NA
ATOM     12  C   UNL A   1      34.585  22.556  25.618  1.00  0.00     0.122 A 
ATOM     13  C   UNL A   1      34.483  20.463  24.919  1.00  0.00     0.103 A 
ATOM     14  C   UNL A   1      33.739  21.551  25.381  1.00  0.00     0.040 A 
ATOM     15  S   UNL A   1      33.885  23.924  26.238  1.00  0.00    -0.109 S 
ATOM     16  C   UNL A   1      32.411  21.825  25.710  1.00  0.00     0.040 A 
BRANCH  10  17
ATOM     17  C   UNL A   1      37.086  22.755  25.614  1.00  0.00     0.142 C 
ATOM     18  C   UNL A   1      38.293  21.841  25.506  1.00  0.00     0.029 C 
ENDBRANCH  10  17
BRANCH  13  19
ATOM     19  C   UNL A   1      34.078  19.114  24.573  1.00  0.00     0.021 A 
ATOM     20  C   UNL A   1      35.021  18.083  24.541  1.00  0.00     0.013 A 
ATOM     21  C   UNL A   1      32.776  18.805  24.202  1.00  0.00     0.121 A 
ATOM     22  C   UNL A   1      34.635  16.804  24.149  1.00  0.00     0.021 A 
ATOM     23  N   UNL A   1      32.368  17.565  23.824  1.00  0.00    -0.264 NA
ATOM     24  C   UNL A   1      33.311  16.597  23.799  1.00  0.00     0.111 A 
ENDBRANCH  13  19
ENDBRANCH   7   9
ENDBRANCH   6   7
ENDBRANCH   5   6
ENDBRANCH   4   5
ENDBRANCH   3   4
ENDBRANCH   2   3
ENDBRANCH   1   2
BRANCH   1  25
ATOM     25  O   UNL A   1      32.350  29.962  25.391  1.00  0.00    -0.376 OA
BRANCH  25  26
ATOM     26  C   UNL A   1      32.421  30.240  26.780  1.00  0.00     0.202 C 
BRANCH  26  27
ATOM     27  C   UNL A   1      33.400  31.217  27.430  1.00  0.00     0.261 C 
BRANCH  27  28
ATOM     28  O   UNL A   1      34.752  30.817  27.458  1.00  0.00    -0.460 OA
BRANCH  28  29
ATOM     29  C   UNL A   1      35.590  31.769  27.905  1.00  0.00     0.338 C 
ATOM     30  O   UNL A   1      35.666  32.930  27.526  1.00  0.00    -0.246 OA
BRANCH  29  31
ATOM     31  C   UNL A   1      36.502  31.171  28.875  1.00  0.00     0.060 A 
ATOM     32  C   UNL A   1      37.614  31.936  29.224  1.00  0.00     0.016 A 
ATOM     33  C   UNL A   1      36.434  29.786  29.084  1.00  0.00     0.016 A 
ATOM     34  C   UNL A   1      38.774  31.266  29.515  1.00  0.00     0.010 A 
ATOM     35  C   UNL A   1      37.597  29.118  29.357  1.00  0.00     0.010 A 
ATOM     36  C   UNL A   1      38.764  29.867  29.458  1.00  0.00    -0.014 A 
BRANCH  36  37
ATOM     37  C   UNL A   1      40.033  29.193  29.579  1.00  0.00     0.031 A 
ATOM     38  C   UNL A   1      40.467  29.118  30.982  1.00  0.00     0.074 A 
ATOM     39  C   UNL A   1      40.665  28.665  28.513  1.00  0.00     0.049 A 
ATOM     40  N   UNL A   1      41.425  29.778  31.534  1.00  0.00    -0.248 NA
ATOM     41  C   UNL A   1      39.603  28.396  31.931  1.00  0.00     0.031 C 
ATOM     42  C   UNL A   1      40.118  28.479  27.164  1.00  0.00     0.029 A 
ATOM     43  N   UNL A   1      41.894  28.081  28.434  1.00  0.00    -0.354 N 
ATOM     44  C   UNL A   1      41.447  29.337  32.851  1.00  0.00     0.074 A 
ATOM     45  C   UNL A   1      40.182  28.702  33.093  1.00  0.00     0.031 C 
ATOM     46  C   UNL A   1      40.907  27.622  26.478  1.00  0.00     0.029 A 
ATOM     47  C   UNL A   1      42.078  27.322  27.283  1.00  0.00     0.049 A 
ATOM     48  H   UNL A   1      42.587  28.186  29.126  1.00  0.00     0.167 HD
ATOM     49  C   UNL A   1      42.644  29.187  33.478  1.00  0.00     0.037 A 
ATOM     50  C   UNL A   1      43.092  26.451  27.061  1.00  0.00     0.037 A 
ATOM     51  C   UNL A   1      43.676  29.912  32.780  1.00  0.00     0.049 A 
ATOM     52  C   UNL A   1      44.209  26.822  27.963  1.00  0.00     0.074 A 
ATOM     53  C   UNL A   1      44.088  31.221  32.674  1.00  0.00     0.029 A 
ATOM     54  N   UNL A   1      44.198  29.231  31.714  1.00  0.00    -0.354 N 
ATOM     55  N   UNL A   1      44.881  27.936  27.850  1.00  0.00    -0.248 NA
ATOM     56  C   UNL A   1      44.357  26.132  29.241  1.00  0.00     0.031 C 
ATOM     57  C   UNL A   1      44.815  31.317  31.450  1.00  0.00     0.029 A 
ATOM     58  C   UNL A   1      44.858  30.060  30.851  1.00  0.00     0.049 A 
ATOM     59  H   UNL A   1      44.109  28.259  31.584  1.00  0.00     0.167 HD
ATOM     60  C   UNL A   1      45.178  28.289  29.150  1.00  0.00     0.074 A 
ATOM     61  C   UNL A   1      44.992  27.079  29.938  1.00  0.00     0.031 C 
ATOM     62  C   UNL A   1      45.208  29.599  29.528  1.00  0.00     0.037 A 
BRANCH  49  63
ATOM     63  C   UNL A   1      43.000  27.989  34.335  1.00  0.00     0.064 A 
ATOM     64  C   UNL A   1      43.249  28.198  35.706  1.00  0.00     0.173 A 
ATOM     65  C   UNL A   1      43.426  26.740  33.827  1.00  0.00     0.173 A 
ATOM     66  F   UNL A   1      42.907  29.356  36.292  1.00  0.00    -0.203 F 
ATOM     67  C   UNL A   1      43.938  27.263  36.483  1.00  0.00     0.198 A 
ATOM     68  C   UNL A   1      44.067  25.789  34.618  1.00  0.00     0.198 A 
ATOM     69  F   UNL A   1      43.354  26.423  32.530  1.00  0.00    -0.203 F 
ATOM     70  F   UNL A   1      44.259  27.558  37.749  1.00  0.00    -0.200 F 
ATOM     71  C   UNL A   1      44.351  26.062  35.937  1.00  0.00     0.200 A 
ATOM     72  F   UNL A   1      44.482  24.643  34.059  1.00  0.00    -0.200 F 
ATOM     73  F   UNL A   1      45.063  25.190  36.662  1.00  0.00    -0.200 F 
ENDBRANCH  49  63
BRANCH  50  74
ATOM     74  C   UNL A   1      43.033  25.155  26.348  1.00  0.00     0.064 A 
ATOM     75  C   UNL A   1      43.926  24.847  25.311  1.00  0.00     0.173 A 
ATOM     76  C   UNL A   1      42.270  24.085  26.858  1.00  0.00     0.173 A 
ATOM     77  F   UNL A   1      44.722  25.799  24.804  1.00  0.00    -0.203 F 
ATOM     78  C   UNL A   1      44.062  23.542  24.825  1.00  0.00     0.198 A 
ATOM     79  C   UNL A   1      42.403  22.784  26.370  1.00  0.00     0.198 A 
ATOM     80  F   UNL A   1      41.451  24.264  27.904  1.00  0.00    -0.203 F 
ATOM     81  F   UNL A   1      44.966  23.273  23.873  1.00  0.00    -0.200 F 
ATOM     82  C   UNL A   1      43.308  22.510  25.362  1.00  0.00     0.200 A 
ATOM     83  F   UNL A   1      41.696  21.791  26.926  1.00  0.00    -0.200 F 
ATOM     84  F   UNL A   1      43.482  21.251  24.939  1.00  0.00    -0.200 F 
ENDBRANCH  50  74
BRANCH  62  85
ATOM     85  C   UNL A   1      45.466  30.622  28.472  1.00  0.00     0.064 A 
ATOM     86  C   UNL A   1      44.473  31.213  27.676  1.00  0.00     0.173 A 
ATOM     87  C   UNL A   1      46.781  31.088  28.330  1.00  0.00     0.173 A 
ATOM     88  F   UNL A   1      43.186  30.863  27.809  1.00  0.00    -0.203 F 
ATOM     89  C   UNL A   1      44.794  32.214  26.759  1.00  0.00     0.198 A 
ATOM     90  C   UNL A   1      47.091  32.110  27.442  1.00  0.00     0.198 A 
ATOM     91  F   UNL A   1      47.759  30.578  29.094  1.00  0.00    -0.203 F 
ATOM     92  F   UNL A   1      43.835  32.761  25.998  1.00  0.00    -0.200 F 
ATOM     93  C   UNL A   1      46.100  32.667  26.650  1.00  0.00     0.200 A 
ATOM     94  F   UNL A   1      48.348  32.571  27.373  1.00  0.00    -0.200 F 
ATOM     95  F   UNL A   1      46.403  33.657  25.799  1.00  0.00    -0.200 F 
ENDBRANCH  62  85
ENDBRANCH  36  37
ENDBRANCH  29  31
ENDBRANCH  28  29
ENDBRANCH  27  28
ENDBRANCH  26  27
ENDBRANCH  25  26
ENDBRANCH   1  25
TORSDOF 19
ENDMDL
MODEL 3
REMARK VINA RESULT:     -11.3      3.717      9.192
REMARK SMILES CCn1nc(-c2cccnc2)c2cc(C(=O)OCCOCCOCCOC(=O)c3ccc(-c4c5nc(c(-c6c(F)c(F)c(F)c(F)c6F)c6ccc([nH]6)c(-c6c(F)c(F)c(F)c(F)c6F)c6nc(c(-c7c(F)c(F)c(F)c(F)c7F)c7ccc4[nH]7)C=C6)C=C5)cc3)sc21
REMARK SMILES IDX 22 1 21 2 20 3 19 4 18 5 17 6 15 7 16 8 14 9 3 10 4 11 93 12
REMARK SMILES IDX 5 13 12 14 92 15 13 16 2 17 1 18 6 19 7 20 11 21 8 22 10 23
REMARK SMILES IDX 9 24 23 25 24 26 25 27 26 28 27 29 28 30 29 31 30 32 91 33
REMARK SMILES IDX 31 34 90 35 32 36 33 37 34 38 84 39 35 40 89 41 83 42 85 43
REMARK SMILES IDX 36 44 88 45 82 46 81 47 37 49 69 50 49 51 68 52 50 53 53 54
REMARK SMILES IDX 67 55 86 56 51 57 52 58 66 60 87 61 54 62 38 63 39 64 47 65
REMARK SMILES IDX 40 66 41 67 45 68 48 69 42 70 43 71 46 72 44 73 70 74 71 75
REMARK SMILES IDX 79 76 72 77 73 78 77 79 80 80 74 81 75 82 78 83 76 84 55 85
REMARK SMILES IDX 56 86 64 87 57 88 58 89 62 90 65 91 59 92 60 93 63 94 61 95
REMARK H PARENT 85 48 53 59
REMARK Flexibility Score: inf
ROOT
ATOM      1  C   UNL A   1      31.230  30.153  25.326  1.00  0.00     0.188 C 
ENDROOT
BRANCH   1   2
ATOM      2  C   UNL A   1      30.872  29.508  23.969  1.00  0.00     0.188 C 
BRANCH   2   3
ATOM      3  O   UNL A   1      29.907  28.472  23.877  1.00  0.00    -0.376 OA
BRANCH   3   4
ATOM      4  C   UNL A   1      29.922  27.549  22.799  1.00  0.00     0.202 C 
BRANCH   4   5
ATOM      5  C   UNL A   1      31.222  27.053  22.134  1.00  0.00     0.261 C 
BRANCH   5   6
ATOM      6  O   UNL A   1      31.611  25.702  22.401  1.00  0.00    -0.459 OA
BRANCH   6   7
ATOM      7  C   UNL A   1      32.845  25.315  21.988  1.00  0.00     0.348 C 
ATOM      8  O   UNL A   1      33.535  25.934  21.170  1.00  0.00    -0.245 OA
BRANCH   7   9
ATOM      9  C   UNL A   1      33.308  24.178  22.759  1.00  0.00     0.115 A 
ATOM     10  N   UNL A   1      33.713  20.836  24.414  1.00  0.00    -0.254 N 
ATOM     11  N   UNL A   1      34.911  20.823  25.067  1.00  0.00    -0.171 NA
ATOM     12  C   UNL A   1      33.481  22.033  23.833  1.00  0.00     0.122 A 
ATOM     13  C   UNL A   1      35.425  22.065  24.880  1.00  0.00     0.103 A 
ATOM     14  C   UNL A   1      34.537  22.805  24.098  1.00  0.00     0.040 A 
ATOM     15  S   UNL A   1      32.338  22.727  22.853  1.00  0.00    -0.109 S 
ATOM     16  C   UNL A   1      34.500  24.061  23.492  1.00  0.00     0.040 A 
BRANCH  10  17
ATOM     17  C   UNL A   1      32.953  19.615  24.247  1.00  0.00     0.142 C 
ATOM     18  C   UNL A   1      32.899  18.745  25.489  1.00  0.00     0.029 C 
ENDBRANCH  10  17
BRANCH  13  19
ATOM     19  C   UNL A   1      36.741  22.396  25.395  1.00  0.00     0.021 A 
ATOM     20  C   UNL A   1      37.763  21.443  25.375  1.00  0.00     0.013 A 
ATOM     21  C   UNL A   1      37.019  23.625  25.976  1.00  0.00     0.121 A 
ATOM     22  C   UNL A   1      39.005  21.749  25.925  1.00  0.00     0.021 A 
ATOM     23  N   UNL A   1      38.224  23.956  26.513  1.00  0.00    -0.264 NA
ATOM     24  C   UNL A   1      39.184  23.005  26.481  1.00  0.00     0.111 A 
ENDBRANCH  13  19
ENDBRANCH   7   9
ENDBRANCH   6   7
ENDBRANCH   5   6
ENDBRANCH   4   5
ENDBRANCH   3   4
ENDBRANCH   2   3
ENDBRANCH   1   2
BRANCH   1  25
ATOM     25  O   UNL A   1      31.469  29.249  26.381  1.00  0.00    -0.376 OA
BRANCH  25  26
ATOM     26  C   UNL A   1      32.607  29.345  27.222  1.00  0.00     0.202 C 
BRANCH  26  27
ATOM     27  C   UNL A   1      33.727  30.374  27.066  1.00  0.00     0.261 C 
BRANCH  27  28
ATOM     28  O   UNL A   1      34.932  30.089  27.739  1.00  0.00    -0.460 OA
BRANCH  28  29
ATOM     29  C   UNL A   1      35.600  31.185  28.143  1.00  0.00     0.338 C 
ATOM     30  O   UNL A   1      35.458  32.332  27.741  1.00  0.00    -0.246 OA
BRANCH  29  31
ATOM     31  C   UNL A   1      36.630  30.780  29.093  1.00  0.00     0.060 A 
ATOM     32  C   UNL A   1      37.755  31.601  29.166  1.00  0.00     0.016 A 
ATOM     33  C   UNL A   1      36.622  29.457  29.559  1.00  0.00     0.016 A 
ATOM     34  C   UNL A   1      38.957  31.003  29.439  1.00  0.00     0.010 A 
ATOM     35  C   UNL A   1      37.825  28.857  29.813  1.00  0.00     0.010 A 
ATOM     36  C   UNL A   1      38.977  29.617  29.640  1.00  0.00    -0.014 A 
BRANCH  36  37
ATOM     37  C   UNL A   1      40.268  28.983  29.735  1.00  0.00     0.031 A 
ATOM     38  C   UNL A   1      40.743  28.943  31.126  1.00  0.00     0.074 A 
ATOM     39  C   UNL A   1      40.885  28.456  28.660  1.00  0.00     0.049 A 
ATOM     40  N   UNL A   1      41.696  29.640  31.641  1.00  0.00    -0.248 NA
ATOM     41  C   UNL A   1      39.928  28.212  32.110  1.00  0.00     0.031 C 
ATOM     42  C   UNL A   1      40.307  28.232  27.330  1.00  0.00     0.029 A 
ATOM     43  N   UNL A   1      42.129  27.908  28.555  1.00  0.00    -0.354 N 
ATOM     44  C   UNL A   1      41.768  29.221  32.963  1.00  0.00     0.074 A 
ATOM     45  C   UNL A   1      40.530  28.552  33.251  1.00  0.00     0.031 C 
ATOM     46  C   UNL A   1      41.102  27.388  26.635  1.00  0.00     0.029 A 
ATOM     47  C   UNL A   1      42.303  27.137  27.411  1.00  0.00     0.049 A 
ATOM     48  H   UNL A   1      42.837  28.044  29.226  1.00  0.00     0.167 HD
ATOM     49  C   UNL A   1      42.986  29.116  33.558  1.00  0.00     0.037 A 
ATOM     50  C   UNL A   1      43.336  26.293  27.173  1.00  0.00     0.037 A 
ATOM     51  C   UNL A   1      43.977  29.861  32.820  1.00  0.00     0.049 A 
ATOM     52  C   UNL A   1      44.466  26.711  28.037  1.00  0.00     0.074 A 
ATOM     53  C   UNL A   1      44.346  31.179  32.682  1.00  0.00     0.029 A 
ATOM     54  N   UNL A   1      44.489  29.178  31.749  1.00  0.00    -0.354 N 
ATOM     55  N   UNL A   1      45.101  27.842  27.888  1.00  0.00    -0.248 NA
ATOM     56  C   UNL A   1      44.670  26.045  29.321  1.00  0.00     0.031 C 
ATOM     57  C   UNL A   1      45.034  31.277  31.436  1.00  0.00     0.029 A 
ATOM     58  C   UNL A   1      45.099  30.013  30.856  1.00  0.00     0.049 A 
ATOM     59  H   UNL A   1      44.425  28.202  31.637  1.00  0.00     0.167 HD
ATOM     60  C   UNL A   1      45.424  28.225  29.174  1.00  0.00     0.074 A 
ATOM     61  C   UNL A   1      45.296  27.022  29.985  1.00  0.00     0.031 C 
ATOM     62  C   UNL A   1      45.425  29.540  29.530  1.00  0.00     0.037 A 
BRANCH  49  63
ATOM     63  C   UNL A   1      43.402  27.943  34.422  1.00  0.00     0.064 A 
ATOM     64  C   UNL A   1      43.420  26.659  33.842  1.00  0.00     0.173 A 
ATOM     65  C   UNL A   1      43.455  27.969  35.835  1.00  0.00     0.173 A 
ATOM     66  F   UNL A   1      43.352  26.512  32.511  1.00  0.00    -0.203 F 
ATOM     67  C   UNL A   1      43.414  25.497  34.620  1.00  0.00     0.198 A 
ATOM     68  C   UNL A   1      43.501  26.809  36.604  1.00  0.00     0.198 A 
ATOM     69  F   UNL A   1      43.349  29.098  36.542  1.00  0.00    -0.203 F 
ATOM     70  F   UNL A   1      43.307  24.302  34.027  1.00  0.00    -0.200 F 
ATOM     71  C   UNL A   1      43.448  25.574  35.999  1.00  0.00     0.200 A 
ATOM     72  F   UNL A   1      43.507  26.908  37.941  1.00  0.00    -0.200 F 
ATOM     73  F   UNL A   1      43.382  24.465  36.747  1.00  0.00    -0.200 F 
ENDBRANCH  49  63
BRANCH  50  74
ATOM     74  C   UNL A   1      43.296  24.984  26.482  1.00  0.00     0.064 A 
ATOM     75  C   UNL A   1      44.045  24.745  25.321  1.00  0.00     0.173 A 
ATOM     76  C   UNL A   1      42.728  23.855  27.106  1.00  0.00     0.173 A 
ATOM     77  F   UNL A   1      44.658  25.759  24.694  1.00  0.00    -0.203 F 
ATOM     78  C   UNL A   1      44.233  23.450  24.824  1.00  0.00     0.198 A 
ATOM     79  C   UNL A   1      42.912  22.564  26.608  1.00  0.00     0.198 A 
ATOM     80  F   UNL A   1      42.065  23.973  28.266  1.00  0.00    -0.203 F 
ATOM     81  F   UNL A   1      45.002  23.252  23.744  1.00  0.00    -0.200 F 
ATOM     82  C   UNL A   1      43.675  22.360  25.474  1.00  0.00     0.200 A 
ATOM     83  F   UNL A   1      42.399  21.518  27.270  1.00  0.00    -0.200 F 
ATOM     84  F   UNL A   1      43.904  21.116  25.033  1.00  0.00    -0.200 F 
ENDBRANCH  50  74
BRANCH  62  85
ATOM     85  C   UNL A   1      45.623  30.553  28.452  1.00  0.00     0.064 A 
ATOM     86  C   UNL A   1      44.586  31.135  27.707  1.00  0.00     0.173 A 
ATOM     87  C   UNL A   1      46.927  31.021  28.234  1.00  0.00     0.173 A 
ATOM     88  F   UNL A   1      43.309  30.784  27.912  1.00  0.00    -0.203 F 
ATOM     89  C   UNL A   1      44.855  32.127  26.763  1.00  0.00     0.198 A 
ATOM     90  C   UNL A   1      47.186  32.034  27.320  1.00  0.00     0.198 A 
ATOM     91  F   UNL A   1      47.947  30.520  28.948  1.00  0.00    -0.203 F 
ATOM     92  F   UNL A   1      43.854  32.666  26.050  1.00  0.00    -0.200 F 
ATOM     93  C   UNL A   1      46.151  32.582  26.579  1.00  0.00     0.200 A 
ATOM     94  F   UNL A   1      48.436  32.497  27.178  1.00  0.00    -0.200 F 
ATOM     95  F   UNL A   1      46.405  33.564  25.702  1.00  0.00    -0.200 F 
ENDBRANCH  62  85
ENDBRANCH  36  37
ENDBRANCH  29  31
ENDBRANCH  28  29
ENDBRANCH  27  28
ENDBRANCH  26  27
ENDBRANCH  25  26
ENDBRANCH   1  25
TORSDOF 19
ENDMDL
