MODEL 1
REMARK VINA RESULT:     -11.8      0.000      0.000
REMARK SMILES C[C@H](NC(=O)N1CC[C@@H](C(=O)OCCOCCOCCOC(=O)c2ccc(-c3c4nc(c(-c5c(F)c(F)c(F)c(F)c5F)c5ccc([nH]5)c(-c5c(F)c(F)c(F)c(F)c5F)c5nc(c(-c6c(F)c(F)c(F)c(F)c6F)c6ccc3[nH]6)C=C5)C=C4)cc2)[C@@H]1C)c1cccc(Cl)c1
REMARK SMILES IDX 16 1 15 2 14 3 13 4 12 5 10 6 11 7 9 8 6 9 7 10 87 11 8 12
REMARK SMILES IDX 88 13 4 14 3 15 5 17 2 18 1 19 89 20 90 21 95 22 91 23 93 24
REMARK SMILES IDX 92 25 94 26 17 27 18 28 19 29 20 30 21 31 22 32 23 33 24 34
REMARK SMILES IDX 25 35 86 36 26 37 85 38 27 39 28 40 29 41 79 42 30 43 84 44
REMARK SMILES IDX 78 45 80 46 31 47 83 48 77 49 76 50 32 52 64 53 44 54 63 55
REMARK SMILES IDX 45 56 48 57 62 58 81 59 46 60 47 61 61 63 82 64 49 65 33 66
REMARK SMILES IDX 34 67 42 68 35 69 36 70 40 71 43 72 37 73 38 74 41 75 39 76
REMARK SMILES IDX 65 77 66 78 74 79 67 80 68 81 72 82 75 83 69 84 70 85 73 86
REMARK SMILES IDX 71 87 50 88 51 89 59 90 52 91 53 92 57 93 60 94 54 95 55 96
REMARK SMILES IDX 58 97 56 98
REMARK H PARENT 3 16 80 51 48 62
REMARK Flexibility Score: inf
ROOT
ATOM      1  C   UNL A   1      41.326  20.232  26.930  1.00  0.00     0.188 C 
ENDROOT
BRANCH   1   2
ATOM      2  O   UNL A   1      40.861  21.322  26.151  1.00  0.00    -0.376 OA
BRANCH   2   3
ATOM      3  C   UNL A   1      39.598  21.881  26.499  1.00  0.00     0.202 C 
BRANCH   3   4
ATOM      4  C   UNL A   1      38.416  21.661  25.541  1.00  0.00     0.261 C 
BRANCH   4   5
ATOM      5  O   UNL A   1      37.137  22.167  25.979  1.00  0.00    -0.463 OA
BRANCH   5   6
ATOM      6  C   UNL A   1      36.061  21.636  25.343  1.00  0.00     0.311 C 
ATOM      7  O   UNL A   1      35.820  20.435  25.273  1.00  0.00    -0.252 OA
BRANCH   6   8
ATOM      8  C   UNL A   1      35.121  22.650  24.716  1.00  0.00     0.123 C 
ATOM      9  N   UNL A   1      33.322  23.875  25.710  1.00  0.00    -0.321 N 
ATOM     10  C   UNL A   1      34.328  24.844  25.327  1.00  0.00     0.122 C 
ATOM     11  C   UNL A   1      33.617  22.595  25.063  1.00  0.00     0.098 C 
ATOM     12  C   UNL A   1      35.592  24.039  25.159  1.00  0.00     0.039 C 
ATOM     13  C   UNL A   1      32.786  22.469  23.773  1.00  0.00     0.032 C 
BRANCH   9  14
ATOM     14  C   UNL A   1      32.154  24.351  26.203  1.00  0.00     0.318 C 
ATOM     15  N   UNL A   1      31.354  25.216  25.574  1.00  0.00    -0.331 N 
ATOM     16  H   UNL A   1      30.778  25.671  26.231  1.00  0.00     0.165 HD
ATOM     17  O   UNL A   1      31.740  23.972  27.306  1.00  0.00    -0.249 OA
BRANCH  15  18
ATOM     18  C   UNL A   1      31.054  25.706  24.234  1.00  0.00     0.111 C 
ATOM     19  C   UNL A   1      30.158  24.863  23.350  1.00  0.00     0.036 C 
BRANCH  18  20
ATOM     20  C   UNL A   1      30.692  27.178  24.154  1.00  0.00    -0.024 A 
ATOM     21  C   UNL A   1      31.413  28.109  24.927  1.00  0.00     0.006 A 
ATOM     22  C   UNL A   1      29.723  27.662  23.265  1.00  0.00     0.026 A 
ATOM     23  C   UNL A   1      31.168  29.480  24.818  1.00  0.00     0.002 A 
ATOM     24  C   UNL A   1      29.481  29.033  23.159  1.00  0.00     0.041 A 
ATOM     25  C   UNL A   1      30.200  29.943  23.931  1.00  0.00     0.020 A 
ATOM     26  Cl  UNL A   1      28.301  29.606  22.044  1.00  0.00    -0.084 Cl
ENDBRANCH  18  20
ENDBRANCH  15  18
ENDBRANCH   9  14
ENDBRANCH   6   8
ENDBRANCH   5   6
ENDBRANCH   4   5
ENDBRANCH   3   4
ENDBRANCH   2   3
ENDBRANCH   1   2
BRANCH   1  27
ATOM     27  C   UNL A   1      42.087  19.113  26.217  1.00  0.00     0.188 C 
BRANCH  27  28
ATOM     28  O   UNL A   1      42.812  19.481  25.055  1.00  0.00    -0.376 OA
BRANCH  28  29
ATOM     29  C   UNL A   1      44.108  20.046  25.268  1.00  0.00     0.202 C 
BRANCH  29  30
ATOM     30  C   UNL A   1      44.373  21.448  24.695  1.00  0.00     0.261 C 
BRANCH  30  31
ATOM     31  O   UNL A   1      43.832  22.552  25.452  1.00  0.00    -0.460 OA
BRANCH  31  32
ATOM     32  C   UNL A   1      44.313  23.801  25.218  1.00  0.00     0.338 C 
ATOM     33  O   UNL A   1      44.983  24.159  24.278  1.00  0.00    -0.246 OA
BRANCH  32  34
ATOM     34  C   UNL A   1      43.640  24.731  26.173  1.00  0.00     0.060 A 
ATOM     35  C   UNL A   1      44.006  26.086  26.154  1.00  0.00     0.016 A 
ATOM     36  C   UNL A   1      42.606  24.307  27.014  1.00  0.00     0.016 A 
ATOM     37  C   UNL A   1      43.365  27.006  26.991  1.00  0.00     0.010 A 
ATOM     38  C   UNL A   1      41.972  25.225  27.858  1.00  0.00     0.010 A 
ATOM     39  C   UNL A   1      42.368  26.575  27.877  1.00  0.00    -0.014 A 
BRANCH  39  40
ATOM     40  C   UNL A   1      41.888  27.471  28.961  1.00  0.00     0.031 A 
ATOM     41  C   UNL A   1      42.626  27.452  30.274  1.00  0.00     0.074 A 
ATOM     42  C   UNL A   1      40.833  28.292  28.803  1.00  0.00     0.049 A 
ATOM     43  N   UNL A   1      42.356  28.072  31.395  1.00  0.00    -0.248 NA
ATOM     44  C   UNL A   1      43.832  26.609  30.329  1.00  0.00     0.031 C 
ATOM     45  C   UNL A   1      40.051  28.445  27.579  1.00  0.00     0.029 A 
ATOM     46  N   UNL A   1      40.229  29.147  29.697  1.00  0.00    -0.354 N 
ATOM     47  C   UNL A   1      43.346  27.682  32.288  1.00  0.00     0.074 A 
ATOM     48  C   UNL A   1      44.208  26.754  31.590  1.00  0.00     0.031 C 
ATOM     49  C   UNL A   1      39.060  29.326  27.803  1.00  0.00     0.029 A 
ATOM     50  C   UNL A   1      39.112  29.771  29.196  1.00  0.00     0.049 A 
ATOM     51  H   UNL A   1      40.565  29.297  30.610  1.00  0.00     0.167 HD
ATOM     52  C   UNL A   1      43.525  28.065  33.574  1.00  0.00     0.037 A 
ATOM     53  C   UNL A   1      38.219  30.582  29.802  1.00  0.00     0.037 A 
ATOM     54  C   UNL A   1      42.681  28.998  34.269  1.00  0.00     0.049 A 
ATOM     55  C   UNL A   1      38.406  30.945  31.257  1.00  0.00     0.074 A 
ATOM     56  C   UNL A   1      42.806  29.471  35.564  1.00  0.00     0.029 A 
ATOM     57  N   UNL A   1      41.550  29.593  33.733  1.00  0.00    -0.354 N 
ATOM     58  N   UNL A   1      39.361  30.596  32.085  1.00  0.00    -0.248 NA
ATOM     59  C   UNL A   1      37.387  31.818  31.862  1.00  0.00     0.031 C 
ATOM     60  C   UNL A   1      41.716  30.306  35.832  1.00  0.00     0.029 A 
ATOM     61  C   UNL A   1      40.949  30.405  34.682  1.00  0.00     0.049 A 
ATOM     62  H   UNL A   1      41.222  29.460  32.814  1.00  0.00     0.167 HD
ATOM     63  C   UNL A   1      39.076  31.229  33.291  1.00  0.00     0.074 A 
ATOM     64  C   UNL A   1      37.868  31.997  33.084  1.00  0.00     0.031 C 
ATOM     65  C   UNL A   1      39.755  31.179  34.463  1.00  0.00     0.037 A 
BRANCH  52  66
ATOM     66  C   UNL A   1      44.665  27.450  34.331  1.00  0.00     0.064 A 
ATOM     67  C   UNL A   1      45.928  28.055  34.392  1.00  0.00     0.173 A 
ATOM     68  C   UNL A   1      44.471  26.261  35.049  1.00  0.00     0.173 A 
ATOM     69  F   UNL A   1      46.170  29.185  33.708  1.00  0.00    -0.203 F 
ATOM     70  C   UNL A   1      46.962  27.483  35.128  1.00  0.00     0.198 A 
ATOM     71  C   UNL A   1      45.496  25.707  35.810  1.00  0.00     0.198 A 
ATOM     72  F   UNL A   1      43.280  25.642  35.025  1.00  0.00    -0.203 F 
ATOM     73  F   UNL A   1      48.173  28.055  35.137  1.00  0.00    -0.200 F 
ATOM     74  C   UNL A   1      46.742  26.315  35.844  1.00  0.00     0.200 A 
ATOM     75  F   UNL A   1      45.278  24.586  36.511  1.00  0.00    -0.200 F 
ATOM     76  F   UNL A   1      47.734  25.771  36.564  1.00  0.00    -0.200 F 
ENDBRANCH  52  66
BRANCH  53  77
ATOM     77  C   UNL A   1      37.034  31.088  29.054  1.00  0.00     0.064 A 
ATOM     78  C   UNL A   1      36.950  32.424  28.637  1.00  0.00     0.173 A 
ATOM     79  C   UNL A   1      35.934  30.258  28.793  1.00  0.00     0.173 A 
ATOM     80  F   UNL A   1      37.960  33.270  28.892  1.00  0.00    -0.203 F 
ATOM     81  C   UNL A   1      35.803  32.916  28.016  1.00  0.00     0.198 A 
ATOM     82  C   UNL A   1      34.801  30.742  28.141  1.00  0.00     0.198 A 
ATOM     83  F   UNL A   1      35.955  28.973  29.179  1.00  0.00    -0.203 F 
ATOM     84  F   UNL A   1      35.725  34.214  27.690  1.00  0.00    -0.200 F 
ATOM     85  C   UNL A   1      34.731  32.074  27.764  1.00  0.00     0.200 A 
ATOM     86  F   UNL A   1      33.771  29.921  27.895  1.00  0.00    -0.200 F 
ATOM     87  F   UNL A   1      33.627  32.548  27.173  1.00  0.00    -0.200 F 
ENDBRANCH  53  77
BRANCH  65  88
ATOM     88  C   UNL A   1      39.244  32.010  35.606  1.00  0.00     0.064 A 
ATOM     89  C   UNL A   1      38.388  31.481  36.583  1.00  0.00     0.173 A 
ATOM     90  C   UNL A   1      39.661  33.344  35.754  1.00  0.00     0.173 A 
ATOM     91  F   UNL A   1      37.949  30.217  36.484  1.00  0.00    -0.203 F 
ATOM     92  C   UNL A   1      37.948  32.262  37.650  1.00  0.00     0.198 A 
ATOM     93  C   UNL A   1      39.248  34.110  36.841  1.00  0.00     0.198 A 
ATOM     94  F   UNL A   1      40.489  33.897  34.855  1.00  0.00    -0.203 F 
ATOM     95  F   UNL A   1      37.093  31.750  38.546  1.00  0.00    -0.200 F 
ATOM     96  C   UNL A   1      38.385  33.572  37.783  1.00  0.00     0.200 A 
ATOM     97  F   UNL A   1      39.686  35.370  36.976  1.00  0.00    -0.200 F 
ATOM     98  F   UNL A   1      37.970  34.318  38.817  1.00  0.00    -0.200 F 
ENDBRANCH  65  88
ENDBRANCH  39  40
ENDBRANCH  32  34
ENDBRANCH  31  32
ENDBRANCH  30  31
ENDBRANCH  29  30
ENDBRANCH  28  29
ENDBRANCH  27  28
ENDBRANCH   1  27
TORSDOF 20
ENDMDL
MODEL 2
REMARK VINA RESULT:     -11.4      4.969      7.253
REMARK SMILES C[C@H](NC(=O)N1CC[C@@H](C(=O)OCCOCCOCCOC(=O)c2ccc(-c3c4nc(c(-c5c(F)c(F)c(F)c(F)c5F)c5ccc([nH]5)c(-c5c(F)c(F)c(F)c(F)c5F)c5nc(c(-c6c(F)c(F)c(F)c(F)c6F)c6ccc3[nH]6)C=C5)C=C4)cc2)[C@@H]1C)c1cccc(Cl)c1
REMARK SMILES IDX 16 1 15 2 14 3 13 4 12 5 10 6 11 7 9 8 6 9 7 10 87 11 8 12
REMARK SMILES IDX 88 13 4 14 3 15 5 17 2 18 1 19 89 20 90 21 95 22 91 23 93 24
REMARK SMILES IDX 92 25 94 26 17 27 18 28 19 29 20 30 21 31 22 32 23 33 24 34
REMARK SMILES IDX 25 35 86 36 26 37 85 38 27 39 28 40 29 41 79 42 30 43 84 44
REMARK SMILES IDX 78 45 80 46 31 47 83 48 77 49 76 50 32 52 64 53 44 54 63 55
REMARK SMILES IDX 45 56 48 57 62 58 81 59 46 60 47 61 61 63 82 64 49 65 33 66
REMARK SMILES IDX 34 67 42 68 35 69 36 70 40 71 43 72 37 73 38 74 41 75 39 76
REMARK SMILES IDX 65 77 66 78 74 79 67 80 68 81 72 82 75 83 69 84 70 85 73 86
REMARK SMILES IDX 71 87 50 88 51 89 59 90 52 91 53 92 57 93 60 94 54 95 55 96
REMARK SMILES IDX 58 97 56 98
REMARK H PARENT 3 16 80 51 48 62
REMARK Flexibility Score: inf
ROOT
ATOM      1  C   UNL A   1      39.685  22.611  26.787  1.00  0.00     0.188 C 
ENDROOT
BRANCH   1   2
ATOM      2  O   UNL A   1      38.815  21.885  25.933  1.00  0.00    -0.376 OA
BRANCH   2   3
ATOM      3  C   UNL A   1      37.601  22.521  25.544  1.00  0.00     0.202 C 
BRANCH   3   4
ATOM      4  C   UNL A   1      36.755  21.861  24.443  1.00  0.00     0.261 C 
BRANCH   4   5
ATOM      5  O   UNL A   1      36.281  22.733  23.395  1.00  0.00    -0.463 OA
BRANCH   5   6
ATOM      6  C   UNL A   1      34.938  22.931  23.377  1.00  0.00     0.311 C 
ATOM      7  O   UNL A   1      34.328  23.467  22.456  1.00  0.00    -0.252 OA
BRANCH   6   8
ATOM      8  C   UNL A   1      34.196  22.415  24.597  1.00  0.00     0.123 C 
ATOM      9  N   UNL A   1      32.257  23.298  25.685  1.00  0.00    -0.321 N 
ATOM     10  C   UNL A   1      31.881  22.010  25.139  1.00  0.00     0.122 C 
ATOM     11  C   UNL A   1      33.716  23.422  25.666  1.00  0.00     0.098 C 
ATOM     12  C   UNL A   1      32.929  21.717  24.095  1.00  0.00     0.039 C 
ATOM     13  C   UNL A   1      34.282  23.033  27.043  1.00  0.00     0.032 C 
BRANCH   9  14
ATOM     14  C   UNL A   1      31.340  23.944  26.444  1.00  0.00     0.318 C 
ATOM     15  N   UNL A   1      30.893  25.182  26.215  1.00  0.00    -0.331 N 
ATOM     16  H   UNL A   1      30.525  25.559  27.046  1.00  0.00     0.165 HD
ATOM     17  O   UNL A   1      30.830  23.384  27.422  1.00  0.00    -0.249 OA
BRANCH  15  18
ATOM     18  C   UNL A   1      30.774  26.157  25.137  1.00  0.00     0.111 C 
ATOM     19  C   UNL A   1      29.414  26.351  24.499  1.00  0.00     0.036 C 
BRANCH  18  20
ATOM     20  C   UNL A   1      31.467  27.484  25.391  1.00  0.00    -0.024 A 
ATOM     21  C   UNL A   1      30.919  28.664  24.850  1.00  0.00     0.006 A 
ATOM     22  C   UNL A   1      32.587  27.594  26.225  1.00  0.00     0.026 A 
ATOM     23  C   UNL A   1      31.477  29.913  25.131  1.00  0.00     0.002 A 
ATOM     24  C   UNL A   1      33.142  28.845  26.503  1.00  0.00     0.041 A 
ATOM     25  C   UNL A   1      32.592  30.003  25.960  1.00  0.00     0.020 A 
ATOM     26  Cl  UNL A   1      34.506  28.957  27.548  1.00  0.00    -0.084 Cl
ENDBRANCH  18  20
ENDBRANCH  15  18
ENDBRANCH   9  14
ENDBRANCH   6   8
ENDBRANCH   5   6
ENDBRANCH   4   5
ENDBRANCH   3   4
ENDBRANCH   2   3
ENDBRANCH   1   2
BRANCH   1  27
ATOM     27  C   UNL A   1      41.057  22.008  27.094  1.00  0.00     0.188 C 
BRANCH  27  28
ATOM     28  O   UNL A   1      41.570  21.085  26.148  1.00  0.00    -0.376 OA
BRANCH  28  29
ATOM     29  C   UNL A   1      41.685  19.729  26.582  1.00  0.00     0.202 C 
BRANCH  29  30
ATOM     30  C   UNL A   1      42.736  18.848  25.886  1.00  0.00     0.261 C 
BRANCH  30  31
ATOM     31  O   UNL A   1      43.207  19.321  24.606  1.00  0.00    -0.460 OA
BRANCH  31  32
ATOM     32  C   UNL A   1      44.537  19.554  24.446  1.00  0.00     0.338 C 
ATOM     33  O   UNL A   1      45.342  18.831  23.907  1.00  0.00    -0.246 OA
BRANCH  32  34
ATOM     34  C   UNL A   1      44.792  20.983  24.796  1.00  0.00     0.060 A 
ATOM     35  C   UNL A   1      45.287  21.278  26.075  1.00  0.00     0.016 A 
ATOM     36  C   UNL A   1      44.635  22.012  23.862  1.00  0.00     0.016 A 
ATOM     37  C   UNL A   1      45.593  22.596  26.431  1.00  0.00     0.010 A 
ATOM     38  C   UNL A   1      44.931  23.332  24.221  1.00  0.00     0.010 A 
ATOM     39  C   UNL A   1      45.382  23.638  25.518  1.00  0.00    -0.014 A 
BRANCH  39  40
ATOM     40  C   UNL A   1      45.426  25.054  25.970  1.00  0.00     0.031 A 
ATOM     41  C   UNL A   1      46.748  25.772  25.920  1.00  0.00     0.074 A 
ATOM     42  C   UNL A   1      44.332  25.703  26.410  1.00  0.00     0.049 A 
ATOM     43  N   UNL A   1      47.064  26.973  26.333  1.00  0.00    -0.248 NA
ATOM     44  C   UNL A   1      47.869  25.027  25.325  1.00  0.00     0.031 C 
ATOM     45  C   UNL A   1      42.982  25.149  26.475  1.00  0.00     0.029 A 
ATOM     46  N   UNL A   1      44.194  26.982  26.902  1.00  0.00    -0.354 N 
ATOM     47  C   UNL A   1      48.420  27.118  26.065  1.00  0.00     0.074 A 
ATOM     48  C   UNL A   1      48.873  25.878  25.476  1.00  0.00     0.031 C 
ATOM     49  C   UNL A   1      42.156  26.074  26.995  1.00  0.00     0.029 A 
ATOM     50  C   UNL A   1      42.923  27.273  27.335  1.00  0.00     0.049 A 
ATOM     51  H   UNL A   1      44.937  27.626  26.940  1.00  0.00     0.167 HD
ATOM     52  C   UNL A   1      49.216  28.191  26.284  1.00  0.00     0.037 A 
ATOM     53  C   UNL A   1      42.443  28.368  27.960  1.00  0.00     0.037 A 
ATOM     54  C   UNL A   1      48.769  29.432  26.856  1.00  0.00     0.049 A 
ATOM     55  C   UNL A   1      43.367  29.528  28.252  1.00  0.00     0.074 A 
ATOM     56  C   UNL A   1      49.499  30.585  27.085  1.00  0.00     0.029 A 
ATOM     57  N   UNL A   1      47.479  29.680  27.298  1.00  0.00    -0.354 N 
ATOM     58  N   UNL A   1      44.639  29.670  27.967  1.00  0.00    -0.248 NA
ATOM     59  C   UNL A   1      42.785  30.684  28.953  1.00  0.00     0.031 C 
ATOM     60  C   UNL A   1      48.666  31.511  27.721  1.00  0.00     0.029 A 
ATOM     61  C   UNL A   1      47.400  30.958  27.828  1.00  0.00     0.049 A 
ATOM     62  H   UNL A   1      46.730  29.044  27.243  1.00  0.00     0.167 HD
ATOM     63  C   UNL A   1      44.998  30.934  28.423  1.00  0.00     0.074 A 
ATOM     64  C   UNL A   1      43.807  31.527  28.989  1.00  0.00     0.031 C 
ATOM     65  C   UNL A   1      46.206  31.548  28.375  1.00  0.00     0.037 A 
BRANCH  52  66
ATOM     66  C   UNL A   1      50.669  28.062  25.934  1.00  0.00     0.064 A 
ATOM     67  C   UNL A   1      51.131  28.205  24.618  1.00  0.00     0.173 A 
ATOM     68  C   UNL A   1      51.619  27.843  26.944  1.00  0.00     0.173 A 
ATOM     69  F   UNL A   1      50.261  28.399  23.615  1.00  0.00    -0.203 F 
ATOM     70  C   UNL A   1      52.488  28.114  24.322  1.00  0.00     0.198 A 
ATOM     71  C   UNL A   1      52.977  27.783  26.649  1.00  0.00     0.198 A 
ATOM     72  F   UNL A   1      51.229  27.700  28.220  1.00  0.00    -0.203 F 
ATOM     73  F   UNL A   1      52.903  28.211  23.052  1.00  0.00    -0.200 F 
ATOM     74  C   UNL A   1      53.410  27.913  25.339  1.00  0.00     0.200 A 
ATOM     75  F   UNL A   1      53.867  27.602  27.635  1.00  0.00    -0.200 F 
ATOM     76  F   UNL A   1      54.718  27.839  25.054  1.00  0.00    -0.200 F 
ENDBRANCH  52  66
BRANCH  53  77
ATOM     77  C   UNL A   1      41.019  28.422  28.397  1.00  0.00     0.064 A 
ATOM     78  C   UNL A   1      40.019  28.943  27.564  1.00  0.00     0.173 A 
ATOM     79  C   UNL A   1      40.641  28.008  29.683  1.00  0.00     0.173 A 
ATOM     80  F   UNL A   1      40.334  29.386  26.337  1.00  0.00    -0.203 F 
ATOM     81  C   UNL A   1      38.704  29.073  28.008  1.00  0.00     0.198 A 
ATOM     82  C   UNL A   1      39.319  28.106  30.114  1.00  0.00     0.198 A 
ATOM     83  F   UNL A   1      41.558  27.512  30.526  1.00  0.00    -0.203 F 
ATOM     84  F   UNL A   1      37.783  29.637  27.213  1.00  0.00    -0.200 F 
ATOM     85  C   UNL A   1      38.354  28.650  29.281  1.00  0.00     0.200 A 
ATOM     86  F   UNL A   1      38.985  27.690  31.343  1.00  0.00    -0.200 F 
ATOM     87  F   UNL A   1      37.092  28.782  29.710  1.00  0.00    -0.200 F 
ENDBRANCH  53  77
BRANCH  65  88
ATOM     88  C   UNL A   1      46.301  32.952  28.905  1.00  0.00     0.064 A 
ATOM     89  C   UNL A   1      46.042  34.068  28.096  1.00  0.00     0.173 A 
ATOM     90  C   UNL A   1      46.603  33.179  30.257  1.00  0.00     0.173 A 
ATOM     91  F   UNL A   1      45.759  33.908  26.795  1.00  0.00    -0.203 F 
ATOM     92  C   UNL A   1      46.108  35.360  28.615  1.00  0.00     0.198 A 
ATOM     93  C   UNL A   1      46.635  34.469  30.780  1.00  0.00     0.198 A 
ATOM     94  F   UNL A   1      46.849  32.147  31.079  1.00  0.00    -0.203 F 
ATOM     95  F   UNL A   1      45.903  36.413  27.813  1.00  0.00    -0.200 F 
ATOM     96  C   UNL A   1      46.395  35.559  29.957  1.00  0.00     0.200 A 
ATOM     97  F   UNL A   1      46.895  34.658  32.081  1.00  0.00    -0.200 F 
ATOM     98  F   UNL A   1      46.447  36.802  30.456  1.00  0.00    -0.200 F 
ENDBRANCH  65  88
ENDBRANCH  39  40
ENDBRANCH  32  34
ENDBRANCH  31  32
ENDBRANCH  30  31
ENDBRANCH  29  30
ENDBRANCH  28  29
ENDBRANCH  27  28
ENDBRANCH   1  27
TORSDOF 20
ENDMDL
MODEL 3
REMARK VINA RESULT:     -11.0      5.397     10.635
REMARK SMILES C[C@H](NC(=O)N1CC[C@@H](C(=O)OCCOCCOCCOC(=O)c2ccc(-c3c4nc(c(-c5c(F)c(F)c(F)c(F)c5F)c5ccc([nH]5)c(-c5c(F)c(F)c(F)c(F)c5F)c5nc(c(-c6c(F)c(F)c(F)c(F)c6F)c6ccc3[nH]6)C=C5)C=C4)cc2)[C@@H]1C)c1cccc(Cl)c1
REMARK SMILES IDX 16 1 15 2 14 3 13 4 12 5 10 6 11 7 9 8 6 9 7 10 87 11 8 12
REMARK SMILES IDX 88 13 4 14 3 15 5 17 2 18 1 19 89 20 90 21 95 22 91 23 93 24
REMARK SMILES IDX 92 25 94 26 17 27 18 28 19 29 20 30 21 31 22 32 23 33 24 34
REMARK SMILES IDX 25 35 86 36 26 37 85 38 27 39 28 40 29 41 79 42 30 43 84 44
REMARK SMILES IDX 78 45 80 46 31 47 83 48 77 49 76 50 32 52 64 53 44 54 63 55
REMARK SMILES IDX 45 56 48 57 62 58 81 59 46 60 47 61 61 63 82 64 49 65 33 66
REMARK SMILES IDX 34 67 42 68 35 69 36 70 40 71 43 72 37 73 38 74 41 75 39 76
REMARK SMILES IDX 65 77 66 78 74 79 67 80 68 81 72 82 75 83 69 84 70 85 73 86
REMARK SMILES IDX 71 87 50 88 51 89 59 90 52 91 53 92 57 93 60 94 54 95 55 96
REMARK SMILES IDX 58 97 56 98
REMARK H PARENT 3 16 80 51 48 62
REMARK Flexibility Score: inf
ROOT
ATOM      1  C   UNL A   1      35.288  31.970  27.875  1.00  0.00     0.188 C 
ENDROOT
BRANCH   1   2
ATOM      2  O   UNL A   1      34.405  30.931  28.267  1.00  0.00    -0.376 OA
BRANCH   2   3
ATOM      3  C   UNL A   1      33.600  30.340  27.252  1.00  0.00     0.202 C 
BRANCH   3   4
ATOM      4  C   UNL A   1      34.258  29.328  26.299  1.00  0.00     0.261 C 
BRANCH   4   5
ATOM      5  O   UNL A   1      33.658  28.016  26.249  1.00  0.00    -0.463 OA
BRANCH   5   6
ATOM      6  C   UNL A   1      32.407  27.977  25.721  1.00  0.00     0.311 C 
ATOM      7  O   UNL A   1      31.379  27.868  26.382  1.00  0.00    -0.252 OA
BRANCH   6   8
ATOM      8  C   UNL A   1      32.345  28.103  24.210  1.00  0.00     0.123 C 
ATOM      9  N   UNL A   1      32.456  26.397  22.535  1.00  0.00    -0.321 N 
ATOM     10  C   UNL A   1      31.132  26.978  22.455  1.00  0.00     0.122 C 
ATOM     11  C   UNL A   1      33.314  27.265  23.346  1.00  0.00     0.098 C 
ATOM     12  C   UNL A   1      30.939  27.676  23.777  1.00  0.00     0.039 C 
ATOM     13  C   UNL A   1      34.126  28.190  22.423  1.00  0.00     0.032 C 
BRANCH   9  14
ATOM     14  C   UNL A   1      32.789  25.472  21.603  1.00  0.00     0.318 C 
ATOM     15  N   UNL A   1      32.975  24.173  21.848  1.00  0.00    -0.331 N 
ATOM     16  H   UNL A   1      33.529  23.778  21.136  1.00  0.00     0.165 HD
ATOM     17  O   UNL A   1      32.922  25.799  20.418  1.00  0.00    -0.249 OA
BRANCH  15  18
ATOM     18  C   UNL A   1      32.627  23.147  22.825  1.00  0.00     0.111 C 
ATOM     19  C   UNL A   1      32.237  21.776  22.312  1.00  0.00     0.036 C 
BRANCH  18  20
ATOM     20  C   UNL A   1      33.561  23.052  24.018  1.00  0.00    -0.024 A 
ATOM     21  C   UNL A   1      33.360  23.904  25.122  1.00  0.00     0.006 A 
ATOM     22  C   UNL A   1      34.567  22.080  24.104  1.00  0.00     0.026 A 
ATOM     23  C   UNL A   1      34.144  23.790  26.273  1.00  0.00     0.002 A 
ATOM     24  C   UNL A   1      35.348  21.970  25.256  1.00  0.00     0.041 A 
ATOM     25  C   UNL A   1      35.140  22.820  26.340  1.00  0.00     0.020 A 
ATOM     26  Cl  UNL A   1      36.563  20.753  25.347  1.00  0.00    -0.084 Cl
ENDBRANCH  18  20
ENDBRANCH  15  18
ENDBRANCH   9  14
ENDBRANCH   6   8
ENDBRANCH   5   6
ENDBRANCH   4   5
ENDBRANCH   3   4
ENDBRANCH   2   3
ENDBRANCH   1   2
BRANCH   1  27
ATOM     27  C   UNL A   1      34.793  33.413  27.985  1.00  0.00     0.188 C 
BRANCH  27  28
ATOM     28  O   UNL A   1      35.030  34.071  29.218  1.00  0.00    -0.376 OA
BRANCH  28  29
ATOM     29  C   UNL A   1      34.200  33.684  30.315  1.00  0.00     0.202 C 
BRANCH  29  30
ATOM     30  C   UNL A   1      34.599  34.176  31.716  1.00  0.00     0.261 C 
BRANCH  30  31
ATOM     31  O   UNL A   1      36.004  34.090  32.038  1.00  0.00    -0.460 OA
BRANCH  31  32
ATOM     32  C   UNL A   1      36.433  33.065  32.820  1.00  0.00     0.338 C 
ATOM     33  O   UNL A   1      35.927  32.672  33.845  1.00  0.00    -0.246 OA
BRANCH  32  34
ATOM     34  C   UNL A   1      37.474  32.316  32.055  1.00  0.00     0.060 A 
ATOM     35  C   UNL A   1      38.312  31.435  32.756  1.00  0.00     0.016 A 
ATOM     36  C   UNL A   1      37.575  32.404  30.663  1.00  0.00     0.016 A 
ATOM     37  C   UNL A   1      39.266  30.670  32.076  1.00  0.00     0.010 A 
ATOM     38  C   UNL A   1      38.536  31.647  29.984  1.00  0.00     0.010 A 
ATOM     39  C   UNL A   1      39.410  30.799  30.688  1.00  0.00    -0.014 A 
BRANCH  39  40
ATOM     40  C   UNL A   1      40.594  30.221  29.999  1.00  0.00     0.031 A 
ATOM     41  C   UNL A   1      41.772  31.122  29.740  1.00  0.00     0.074 A 
ATOM     42  C   UNL A   1      40.644  28.933  29.612  1.00  0.00     0.049 A 
ATOM     43  N   UNL A   1      42.881  30.883  29.087  1.00  0.00    -0.248 NA
ATOM     44  C   UNL A   1      41.681  32.484  30.291  1.00  0.00     0.031 C 
ATOM     45  C   UNL A   1      39.598  27.938  29.831  1.00  0.00     0.029 A 
ATOM     46  N   UNL A   1      41.624  28.245  28.933  1.00  0.00    -0.354 N 
ATOM     47  C   UNL A   1      43.608  32.066  29.134  1.00  0.00     0.074 A 
ATOM     48  C   UNL A   1      42.808  33.029  29.858  1.00  0.00     0.031 C 
ATOM     49  C   UNL A   1      39.983  26.772  29.282  1.00  0.00     0.029 A 
ATOM     50  C   UNL A   1      41.286  26.946  28.638  1.00  0.00     0.049 A 
ATOM     51  H   UNL A   1      42.487  28.646  28.681  1.00  0.00     0.167 HD
ATOM     52  C   UNL A   1      44.835  32.327  28.626  1.00  0.00     0.037 A 
ATOM     53  C   UNL A   1      41.938  26.017  27.909  1.00  0.00     0.037 A 
ATOM     54  C   UNL A   1      45.642  31.370  27.919  1.00  0.00     0.049 A 
ATOM     55  C   UNL A   1      43.279  26.354  27.297  1.00  0.00     0.074 A 
ATOM     56  C   UNL A   1      46.913  31.536  27.397  1.00  0.00     0.029 A 
ATOM     57  N   UNL A   1      45.256  30.072  27.626  1.00  0.00    -0.354 N 
ATOM     58  N   UNL A   1      43.972  27.464  27.372  1.00  0.00    -0.248 NA
ATOM     59  C   UNL A   1      43.929  25.303  26.497  1.00  0.00     0.031 C 
ATOM     60  C   UNL A   1      47.272  30.358  26.735  1.00  0.00     0.029 A 
ATOM     61  C   UNL A   1      46.251  29.435  26.902  1.00  0.00     0.049 A 
ATOM     62  H   UNL A   1      44.402  29.662  27.893  1.00  0.00     0.167 HD
ATOM     63  C   UNL A   1      45.146  27.234  26.662  1.00  0.00     0.074 A 
ATOM     64  C   UNL A   1      45.080  25.874  26.175  1.00  0.00     0.031 C 
ATOM     65  C   UNL A   1      46.185  28.075  26.435  1.00  0.00     0.037 A 
BRANCH  52  66
ATOM     66  C   UNL A   1      45.374  33.718  28.787  1.00  0.00     0.064 A 
ATOM     67  C   UNL A   1      45.087  34.735  27.866  1.00  0.00     0.173 A 
ATOM     68  C   UNL A   1      46.148  34.046  29.910  1.00  0.00     0.173 A 
ATOM     69  F   UNL A   1      44.366  34.468  26.767  1.00  0.00    -0.203 F 
ATOM     70  C   UNL A   1      45.571  36.027  28.054  1.00  0.00     0.198 A 
ATOM     71  C   UNL A   1      46.604  35.346  30.111  1.00  0.00     0.198 A 
ATOM     72  F   UNL A   1      46.450  33.109  30.822  1.00  0.00    -0.203 F 
ATOM     73  F   UNL A   1      45.321  36.974  27.139  1.00  0.00    -0.200 F 
ATOM     74  C   UNL A   1      46.321  36.333  29.181  1.00  0.00     0.200 A 
ATOM     75  F   UNL A   1      47.317  35.641  31.207  1.00  0.00    -0.200 F 
ATOM     76  F   UNL A   1      46.774  37.581  29.367  1.00  0.00    -0.200 F 
ENDBRANCH  52  66
BRANCH  53  77
ATOM     77  C   UNL A   1      41.326  24.680  27.672  1.00  0.00     0.064 A 
ATOM     78  C   UNL A   1      41.868  23.518  28.240  1.00  0.00     0.173 A 
ATOM     79  C   UNL A   1      40.219  24.530  26.823  1.00  0.00     0.173 A 
ATOM     80  F   UNL A   1      42.948  23.602  29.031  1.00  0.00    -0.203 F 
ATOM     81  C   UNL A   1      41.347  22.259  27.946  1.00  0.00     0.198 A 
ATOM     82  C   UNL A   1      39.677  23.274  26.557  1.00  0.00     0.198 A 
ATOM     83  F   UNL A   1      39.666  25.606  26.244  1.00  0.00    -0.203 F 
ATOM     84  F   UNL A   1      41.928  21.161  28.450  1.00  0.00    -0.200 F 
ATOM     85  C   UNL A   1      40.248  22.138  27.109  1.00  0.00     0.200 A 
ATOM     86  F   UNL A   1      38.611  23.164  25.752  1.00  0.00    -0.200 F 
ATOM     87  F   UNL A   1      39.752  20.928  26.821  1.00  0.00    -0.200 F 
ENDBRANCH  53  77
BRANCH  65  88
ATOM     88  C   UNL A   1      47.362  27.544  25.665  1.00  0.00     0.064 A 
ATOM     89  C   UNL A   1      47.448  27.655  24.270  1.00  0.00     0.173 A 
ATOM     90  C   UNL A   1      48.446  26.962  26.343  1.00  0.00     0.173 A 
ATOM     91  F   UNL A   1      46.436  28.192  23.572  1.00  0.00    -0.203 F 
ATOM     92  C   UNL A   1      48.562  27.181  23.580  1.00  0.00     0.198 A 
ATOM     93  C   UNL A   1      49.572  26.521  25.654  1.00  0.00     0.198 A 
ATOM     94  F   UNL A   1      48.422  26.840  27.679  1.00  0.00    -0.203 F 
ATOM     95  F   UNL A   1      48.601  27.255  22.242  1.00  0.00    -0.200 F 
ATOM     96  C   UNL A   1      49.626  26.623  24.272  1.00  0.00     0.200 A 
ATOM     97  F   UNL A   1      50.607  25.999  26.327  1.00  0.00    -0.200 F 
ATOM     98  F   UNL A   1      50.701  26.177  23.607  1.00  0.00    -0.200 F 
ENDBRANCH  65  88
ENDBRANCH  39  40
ENDBRANCH  32  34
ENDBRANCH  31  32
ENDBRANCH  30  31
ENDBRANCH  29  30
ENDBRANCH  28  29
ENDBRANCH  27  28
ENDBRANCH   1  27
TORSDOF 20
ENDMDL
