MODEL 1
REMARK VINA RESULT:     -11.7      0.000      0.000
REMARK SMILES Cc1c(Br)c(C)c2c(c1Br)O[C@H](C(F)(F)F)C(C(=O)OCCOCCOCCOC(=O)c1ccc(-c3c4nc(c(-c5c(F)c(F)c(F)c(F)c5F)c5ccc([nH]5)c(-c5c(F)c(F)c(F)c(F)c5F)c5nc(c(-c6c(F)c(F)c(F)c(F)c6F)c6ccc3[nH]6)C=C5)C=C4)cc1)=C2
REMARK SMILES IDX 25 1 24 2 23 3 22 4 21 5 20 6 18 7 19 8 17 9 1 10 2 11 3 12
REMARK SMILES IDX 9 13 4 14 5 15 8 16 10 17 6 18 7 19 11 20 95 21 12 22 13 23
REMARK SMILES IDX 14 24 15 25 16 26 26 27 27 28 28 29 29 30 30 31 31 32 32 33
REMARK SMILES IDX 33 34 94 35 34 36 93 37 35 38 36 39 37 40 87 41 38 42 92 43
REMARK SMILES IDX 86 44 88 45 39 46 91 47 85 48 84 49 40 51 72 52 52 53 71 54
REMARK SMILES IDX 53 55 56 56 70 57 89 58 54 59 55 60 69 62 90 63 57 64 41 65
REMARK SMILES IDX 42 66 50 67 43 68 44 69 48 70 51 71 45 72 46 73 49 74 47 75
REMARK SMILES IDX 73 76 74 77 82 78 75 79 76 80 80 81 83 82 77 83 78 84 81 85
REMARK SMILES IDX 79 86 58 87 59 88 67 89 60 90 61 91 65 92 68 93 62 94 63 95
REMARK SMILES IDX 66 96 64 97
REMARK H PARENT 88 50 56 61
REMARK Flexibility Score: inf
ROOT
ATOM      1  C   UNL A   1      41.739  19.841  26.292  1.00  0.00     0.188 C 
ENDROOT
BRANCH   1   2
ATOM      2  C   UNL A   1      40.925  21.071  26.744  1.00  0.00     0.188 C 
BRANCH   2   3
ATOM      3  O   UNL A   1      39.514  21.067  26.668  1.00  0.00    -0.376 OA
BRANCH   3   4
ATOM      4  C   UNL A   1      38.821  22.057  25.927  1.00  0.00     0.202 C 
BRANCH   4   5
ATOM      5  C   UNL A   1      37.295  22.049  25.737  1.00  0.00     0.261 C 
BRANCH   5   6
ATOM      6  O   UNL A   1      36.618  23.262  26.086  1.00  0.00    -0.460 OA
BRANCH   6   7
ATOM      7  C   UNL A   1      35.272  23.164  26.190  1.00  0.00     0.338 C 
ATOM      8  O   UNL A   1      34.646  22.523  27.018  1.00  0.00    -0.246 OA
BRANCH   7   9
ATOM      9  C   UNL A   1      34.633  24.096  25.238  1.00  0.00     0.087 C 
ATOM     10  C   UNL A   1      30.887  28.610  22.379  1.00  0.00     0.047 C 
ATOM     11  C   UNL A   1      31.874  27.812  23.202  1.00  0.00    -0.019 A 
ATOM     12  C   UNL A   1      32.204  28.229  24.518  1.00  0.00     0.025 A 
ATOM     13  C   UNL A   1      32.438  26.611  22.726  1.00  0.00     0.064 A 
ATOM     14  Br  UNL A   1      31.407  29.837  25.204  1.00  0.00    -0.050 Br
ATOM     15  C   UNL A   1      33.066  27.465  25.345  1.00  0.00    -0.026 A 
ATOM     16  C   UNL A   1      33.267  25.823  23.548  1.00  0.00     0.142 A 
ATOM     17  Br  UNL A   1      32.057  25.962  20.962  1.00  0.00    -0.046 Br
ATOM     18  C   UNL A   1      33.472  27.924  26.731  1.00  0.00     0.046 C 
ATOM     19  C   UNL A   1      33.545  26.222  24.862  1.00  0.00     0.022 A 
ATOM     20  O   UNL A   1      33.781  24.679  22.993  1.00  0.00    -0.474 OA
ATOM     21  C   UNL A   1      34.268  25.289  25.725  1.00  0.00     0.027 C 
ATOM     22  C   UNL A   1      34.432  23.682  23.815  1.00  0.00     0.316 C 
BRANCH  22  23
ATOM     23  C   UNL A   1      33.659  22.362  23.692  1.00  0.00     0.430 C 
ATOM     24  F   UNL A   1      34.460  21.297  23.932  1.00  0.00    -0.167 F 
ATOM     25  F   UNL A   1      32.643  22.293  24.583  1.00  0.00    -0.167 F 
ATOM     26  F   UNL A   1      33.127  22.204  22.459  1.00  0.00    -0.167 F 
ENDBRANCH  22  23
ENDBRANCH   7   9
ENDBRANCH   6   7
ENDBRANCH   5   6
ENDBRANCH   4   5
ENDBRANCH   3   4
ENDBRANCH   2   3
ENDBRANCH   1   2
BRANCH   1  27
ATOM     27  O   UNL A   1      43.143  19.918  26.283  1.00  0.00    -0.376 OA
BRANCH  27  28
ATOM     28  C   UNL A   1      43.806  20.782  25.373  1.00  0.00     0.202 C 
BRANCH  28  29
ATOM     29  C   UNL A   1      44.253  22.229  25.669  1.00  0.00     0.261 C 
BRANCH  29  30
ATOM     30  O   UNL A   1      43.324  23.285  25.410  1.00  0.00    -0.460 OA
BRANCH  30  31
ATOM     31  C   UNL A   1      43.862  24.530  25.332  1.00  0.00     0.338 C 
ATOM     32  O   UNL A   1      44.670  24.940  24.522  1.00  0.00    -0.246 OA
BRANCH  31  33
ATOM     33  C   UNL A   1      43.154  25.412  26.282  1.00  0.00     0.060 A 
ATOM     34  C   UNL A   1      43.594  26.736  26.422  1.00  0.00     0.016 A 
ATOM     35  C   UNL A   1      42.087  24.934  27.041  1.00  0.00     0.016 A 
ATOM     36  C   UNL A   1      42.967  27.587  27.329  1.00  0.00     0.010 A 
ATOM     37  C   UNL A   1      41.480  25.779  27.975  1.00  0.00     0.010 A 
ATOM     38  C   UNL A   1      41.931  27.102  28.139  1.00  0.00    -0.014 A 
BRANCH  38  39
ATOM     39  C   UNL A   1      41.459  27.917  29.283  1.00  0.00     0.031 A 
ATOM     40  C   UNL A   1      42.202  27.814  30.586  1.00  0.00     0.074 A 
ATOM     41  C   UNL A   1      40.419  28.762  29.164  1.00  0.00     0.049 A 
ATOM     42  N   UNL A   1      41.955  28.391  31.733  1.00  0.00    -0.248 NA
ATOM     43  C   UNL A   1      43.389  26.942  30.593  1.00  0.00     0.031 C 
ATOM     44  C   UNL A   1      39.658  28.998  27.941  1.00  0.00     0.029 A 
ATOM     45  N   UNL A   1      39.823  29.577  30.095  1.00  0.00    -0.354 N 
ATOM     46  C   UNL A   1      42.955  27.957  32.594  1.00  0.00     0.074 A 
ATOM     47  C   UNL A   1      43.794  27.044  31.850  1.00  0.00     0.031 C 
ATOM     48  C   UNL A   1      38.686  29.892  28.199  1.00  0.00     0.029 A 
ATOM     49  C   UNL A   1      38.736  30.264  29.613  1.00  0.00     0.049 A 
ATOM     50  H   UNL A   1      40.146  29.662  31.021  1.00  0.00     0.167 HD
ATOM     51  C   UNL A   1      43.158  28.300  33.886  1.00  0.00     0.037 A 
ATOM     52  C   UNL A   1      37.870  31.078  30.250  1.00  0.00     0.037 A 
ATOM     53  C   UNL A   1      42.320  29.204  34.627  1.00  0.00     0.049 A 
ATOM     54  C   UNL A   1      38.059  31.359  31.721  1.00  0.00     0.074 A 
ATOM     55  C   UNL A   1      42.450  29.611  35.944  1.00  0.00     0.029 A 
ATOM     56  N   UNL A   1      41.195  29.836  34.120  1.00  0.00    -0.354 N 
ATOM     57  N   UNL A   1      39.012  30.957  32.527  1.00  0.00    -0.248 NA
ATOM     58  C   UNL A   1      37.049  32.209  32.372  1.00  0.00     0.031 C 
ATOM     59  C   UNL A   1      41.372  30.444  36.249  1.00  0.00     0.029 A 
ATOM     60  C   UNL A   1      40.604  30.606  35.107  1.00  0.00     0.049 A 
ATOM     61  H   UNL A   1      40.866  29.748  33.197  1.00  0.00     0.167 HD
ATOM     62  C   UNL A   1      38.734  31.523  33.766  1.00  0.00     0.074 A 
ATOM     63  C   UNL A   1      37.531  32.312  33.603  1.00  0.00     0.031 C 
ATOM     64  C   UNL A   1      39.414  31.399  34.931  1.00  0.00     0.037 A 
BRANCH  51  65
ATOM     65  C   UNL A   1      44.327  27.687  34.597  1.00  0.00     0.064 A 
ATOM     66  C   UNL A   1      45.560  28.348  34.686  1.00  0.00     0.173 A 
ATOM     67  C   UNL A   1      44.189  26.461  35.265  1.00  0.00     0.173 A 
ATOM     68  F   UNL A   1      45.748  29.516  34.053  1.00  0.00    -0.203 F 
ATOM     69  C   UNL A   1      46.614  27.802  35.414  1.00  0.00     0.198 A 
ATOM     70  C   UNL A   1      45.234  25.931  36.015  1.00  0.00     0.198 A 
ATOM     71  F   UNL A   1      43.028  25.789  35.211  1.00  0.00    -0.203 F 
ATOM     72  F   UNL A   1      47.793  28.437  35.463  1.00  0.00    -0.200 F 
ATOM     73  C   UNL A   1      46.447  26.601  36.087  1.00  0.00     0.200 A 
ATOM     74  F   UNL A   1      45.066  24.778  36.676  1.00  0.00    -0.200 F 
ATOM     75  F   UNL A   1      47.454  26.087  36.806  1.00  0.00    -0.200 F 
ENDBRANCH  51  65
BRANCH  52  76
ATOM     76  C   UNL A   1      36.730  31.681  29.506  1.00  0.00     0.064 A 
ATOM     77  C   UNL A   1      36.691  33.056  29.234  1.00  0.00     0.173 A 
ATOM     78  C   UNL A   1      35.647  30.903  29.072  1.00  0.00     0.173 A 
ATOM     79  F   UNL A   1      37.687  33.850  29.655  1.00  0.00    -0.203 F 
ATOM     80  C   UNL A   1      35.608  33.629  28.569  1.00  0.00     0.198 A 
ATOM     81  C   UNL A   1      34.580  31.472  28.379  1.00  0.00     0.198 A 
ATOM     82  F   UNL A   1      35.629  29.583  29.313  1.00  0.00    -0.203 F 
ATOM     83  F   UNL A   1      35.575  34.953  28.365  1.00  0.00    -0.200 F 
ATOM     84  C   UNL A   1      34.558  32.836  28.135  1.00  0.00     0.200 A 
ATOM     85  F   UNL A   1      33.571  30.698  27.954  1.00  0.00    -0.200 F 
ATOM     86  F   UNL A   1      33.520  33.387  27.492  1.00  0.00    -0.200 F 
ENDBRANCH  52  76
BRANCH  64  87
ATOM     87  C   UNL A   1      38.903  32.147  36.131  1.00  0.00     0.064 A 
ATOM     88  C   UNL A   1      38.135  31.516  37.119  1.00  0.00     0.173 A 
ATOM     89  C   UNL A   1      39.267  33.488  36.340  1.00  0.00     0.173 A 
ATOM     90  F   UNL A   1      37.752  30.240  36.964  1.00  0.00    -0.203 F 
ATOM     91  C   UNL A   1      37.739  32.201  38.266  1.00  0.00     0.198 A 
ATOM     92  C   UNL A   1      38.898  34.159  37.503  1.00  0.00     0.198 A 
ATOM     93  F   UNL A   1      40.012  34.135  35.432  1.00  0.00    -0.203 F 
ATOM     94  F   UNL A   1      36.977  31.585  39.181  1.00  0.00    -0.200 F 
ATOM     95  C   UNL A   1      38.131  33.517  38.462  1.00  0.00     0.200 A 
ATOM     96  F   UNL A   1      39.295  35.424  37.700  1.00  0.00    -0.200 F 
ATOM     97  F   UNL A   1      37.769  34.166  39.577  1.00  0.00    -0.200 F 
ENDBRANCH  64  87
ENDBRANCH  38  39
ENDBRANCH  31  33
ENDBRANCH  30  31
ENDBRANCH  29  30
ENDBRANCH  28  29
ENDBRANCH  27  28
ENDBRANCH   1  27
TORSDOF 18
ENDMDL
MODEL 2
REMARK VINA RESULT:     -11.2      3.788      9.113
REMARK SMILES Cc1c(Br)c(C)c2c(c1Br)O[C@H](C(F)(F)F)C(C(=O)OCCOCCOCCOC(=O)c1ccc(-c3c4nc(c(-c5c(F)c(F)c(F)c(F)c5F)c5ccc([nH]5)c(-c5c(F)c(F)c(F)c(F)c5F)c5nc(c(-c6c(F)c(F)c(F)c(F)c6F)c6ccc3[nH]6)C=C5)C=C4)cc1)=C2
REMARK SMILES IDX 25 1 24 2 23 3 22 4 21 5 20 6 18 7 19 8 17 9 1 10 2 11 3 12
REMARK SMILES IDX 9 13 4 14 5 15 8 16 10 17 6 18 7 19 11 20 95 21 12 22 13 23
REMARK SMILES IDX 14 24 15 25 16 26 26 27 27 28 28 29 29 30 30 31 31 32 32 33
REMARK SMILES IDX 33 34 94 35 34 36 93 37 35 38 36 39 37 40 87 41 38 42 92 43
REMARK SMILES IDX 86 44 88 45 39 46 91 47 85 48 84 49 40 51 72 52 52 53 71 54
REMARK SMILES IDX 53 55 56 56 70 57 89 58 54 59 55 60 69 62 90 63 57 64 41 65
REMARK SMILES IDX 42 66 50 67 43 68 44 69 48 70 51 71 45 72 46 73 49 74 47 75
REMARK SMILES IDX 73 76 74 77 82 78 75 79 76 80 80 81 83 82 77 83 78 84 81 85
REMARK SMILES IDX 79 86 58 87 59 88 67 89 60 90 61 91 65 92 68 93 62 94 63 95
REMARK SMILES IDX 66 96 64 97
REMARK H PARENT 88 50 56 61
REMARK Flexibility Score: inf
ROOT
ATOM      1  C   UNL A   1      35.481  33.580  28.647  1.00  0.00     0.188 C 
ENDROOT
BRANCH   1   2
ATOM      2  C   UNL A   1      35.736  32.211  27.984  1.00  0.00     0.188 C 
BRANCH   2   3
ATOM      3  O   UNL A   1      34.877  31.119  28.234  1.00  0.00    -0.376 OA
BRANCH   3   4
ATOM      4  C   UNL A   1      33.598  31.042  27.626  1.00  0.00     0.202 C 
BRANCH   4   5
ATOM      5  C   UNL A   1      33.304  30.176  26.390  1.00  0.00     0.261 C 
BRANCH   5   6
ATOM      6  O   UNL A   1      33.865  28.858  26.406  1.00  0.00    -0.460 OA
BRANCH   6   7
ATOM      7  C   UNL A   1      33.766  28.174  25.242  1.00  0.00     0.338 C 
ATOM      8  O   UNL A   1      34.054  28.578  24.128  1.00  0.00    -0.246 OA
BRANCH   7   9
ATOM      9  C   UNL A   1      33.405  26.769  25.523  1.00  0.00     0.087 C 
ATOM     10  C   UNL A   1      32.892  20.264  25.517  1.00  0.00     0.047 C 
ATOM     11  C   UNL A   1      33.306  21.715  25.624  1.00  0.00    -0.019 A 
ATOM     12  C   UNL A   1      34.657  22.088  25.399  1.00  0.00     0.025 A 
ATOM     13  C   UNL A   1      32.370  22.737  25.878  1.00  0.00     0.064 A 
ATOM     14  Br  UNL A   1      35.940  20.714  25.002  1.00  0.00    -0.050 Br
ATOM     15  C   UNL A   1      35.066  23.445  25.416  1.00  0.00    -0.026 A 
ATOM     16  C   UNL A   1      32.753  24.092  25.863  1.00  0.00     0.142 A 
ATOM     17  Br  UNL A   1      30.521  22.339  26.196  1.00  0.00    -0.046 Br
ATOM     18  C   UNL A   1      36.513  23.856  25.234  1.00  0.00     0.046 C 
ATOM     19  C   UNL A   1      34.080  24.449  25.591  1.00  0.00     0.022 A 
ATOM     20  O   UNL A   1      31.776  25.015  26.136  1.00  0.00    -0.474 OA
ATOM     21  C   UNL A   1      34.390  25.868  25.419  1.00  0.00     0.027 C 
ATOM     22  C   UNL A   1      32.000  26.425  25.903  1.00  0.00     0.316 C 
BRANCH  22  23
ATOM     23  C   UNL A   1      30.975  26.924  24.876  1.00  0.00     0.430 C 
ATOM     24  F   UNL A   1      30.756  28.254  25.002  1.00  0.00    -0.167 F 
ATOM     25  F   UNL A   1      31.400  26.720  23.607  1.00  0.00    -0.167 F 
ATOM     26  F   UNL A   1      29.784  26.299  25.009  1.00  0.00    -0.167 F 
ENDBRANCH  22  23
ENDBRANCH   7   9
ENDBRANCH   6   7
ENDBRANCH   5   6
ENDBRANCH   4   5
ENDBRANCH   3   4
ENDBRANCH   2   3
ENDBRANCH   1   2
BRANCH   1  27
ATOM     27  O   UNL A   1      34.697  34.530  27.970  1.00  0.00    -0.376 OA
BRANCH  27  28
ATOM     28  C   UNL A   1      34.100  35.603  28.682  1.00  0.00     0.202 C 
BRANCH  28  29
ATOM     29  C   UNL A   1      32.904  35.486  29.651  1.00  0.00     0.261 C 
BRANCH  29  30
ATOM     30  O   UNL A   1      32.930  36.272  30.846  1.00  0.00    -0.460 OA
BRANCH  30  31
ATOM     31  C   UNL A   1      32.567  35.619  31.981  1.00  0.00     0.338 C 
ATOM     32  O   UNL A   1      31.444  35.445  32.411  1.00  0.00    -0.246 OA
BRANCH  31  33
ATOM     33  C   UNL A   1      33.758  34.949  32.542  1.00  0.00     0.060 A 
ATOM     34  C   UNL A   1      35.006  35.573  32.403  1.00  0.00     0.016 A 
ATOM     35  C   UNL A   1      33.649  33.712  33.175  1.00  0.00     0.016 A 
ATOM     36  C   UNL A   1      36.153  34.956  32.896  1.00  0.00     0.010 A 
ATOM     37  C   UNL A   1      34.806  33.078  33.640  1.00  0.00     0.010 A 
ATOM     38  C   UNL A   1      36.065  33.687  33.483  1.00  0.00    -0.014 A 
BRANCH  38  39
ATOM     39  C   UNL A   1      37.305  32.921  33.750  1.00  0.00     0.031 A 
ATOM     40  C   UNL A   1      38.057  33.205  35.021  1.00  0.00     0.074 A 
ATOM     41  C   UNL A   1      37.738  31.967  32.908  1.00  0.00     0.049 A 
ATOM     42  N   UNL A   1      39.183  32.697  35.452  1.00  0.00    -0.248 NA
ATOM     43  C   UNL A   1      37.453  34.192  35.931  1.00  0.00     0.031 C 
ATOM     44  C   UNL A   1      37.066  31.556  31.679  1.00  0.00     0.029 A 
ATOM     45  N   UNL A   1      38.856  31.171  32.964  1.00  0.00    -0.354 N 
ATOM     46  C   UNL A   1      39.419  33.300  36.682  1.00  0.00     0.074 A 
ATOM     47  C   UNL A   1      38.339  34.233  36.915  1.00  0.00     0.031 C 
ATOM     48  C   UNL A   1      37.792  30.589  31.088  1.00  0.00     0.029 A 
ATOM     49  C   UNL A   1      38.997  30.339  31.880  1.00  0.00     0.049 A 
ATOM     50  H   UNL A   1      39.497  31.194  33.711  1.00  0.00     0.167 HD
ATOM     51  C   UNL A   1      40.440  33.084  37.541  1.00  0.00     0.037 A 
ATOM     52  C   UNL A   1      39.996  29.493  31.557  1.00  0.00     0.037 A 
ATOM     53  C   UNL A   1      41.517  32.160  37.306  1.00  0.00     0.049 A 
ATOM     54  C   UNL A   1      41.178  29.350  32.485  1.00  0.00     0.074 A 
ATOM     55  C   UNL A   1      42.597  31.874  38.123  1.00  0.00     0.029 A 
ATOM     56  N   UNL A   1      41.653  31.376  36.170  1.00  0.00    -0.354 N 
ATOM     57  N   UNL A   1      41.390  29.912  33.651  1.00  0.00    -0.248 NA
ATOM     58  C   UNL A   1      42.263  28.455  32.051  1.00  0.00     0.031 C 
ATOM     59  C   UNL A   1      43.417  30.961  37.456  1.00  0.00     0.029 A 
ATOM     60  C   UNL A   1      42.817  30.630  36.252  1.00  0.00     0.049 A 
ATOM     61  H   UNL A   1      41.018  31.356  35.419  1.00  0.00     0.167 HD
ATOM     62  C   UNL A   1      42.610  29.421  34.100  1.00  0.00     0.074 A 
ATOM     63  C   UNL A   1      43.087  28.501  33.088  1.00  0.00     0.031 C 
ATOM     64  C   UNL A   1      43.275  29.707  35.245  1.00  0.00     0.037 A 
BRANCH  51  65
ATOM     65  C   UNL A   1      40.458  33.869  38.818  1.00  0.00     0.064 A 
ATOM     66  C   UNL A   1      39.776  33.427  39.961  1.00  0.00     0.173 A 
ATOM     67  C   UNL A   1      41.231  35.035  38.924  1.00  0.00     0.173 A 
ATOM     68  F   UNL A   1      39.010  32.327  39.907  1.00  0.00    -0.203 F 
ATOM     69  C   UNL A   1      39.862  34.127  41.161  1.00  0.00     0.198 A 
ATOM     70  C   UNL A   1      41.339  35.716  40.133  1.00  0.00     0.198 A 
ATOM     71  F   UNL A   1      41.904  35.499  37.859  1.00  0.00    -0.203 F 
ATOM     72  F   UNL A   1      39.180  33.703  42.233  1.00  0.00    -0.200 F 
ATOM     73  C   UNL A   1      40.654  35.263  41.250  1.00  0.00     0.200 A 
ATOM     74  F   UNL A   1      42.116  36.805  40.220  1.00  0.00    -0.200 F 
ATOM     75  F   UNL A   1      40.755  35.923  42.412  1.00  0.00    -0.200 F 
ENDBRANCH  51  65
BRANCH  52  76
ATOM     76  C   UNL A   1      39.935  28.718  30.288  1.00  0.00     0.064 A 
ATOM     77  C   UNL A   1      40.454  29.242  29.095  1.00  0.00     0.173 A 
ATOM     78  C   UNL A   1      39.338  27.450  30.234  1.00  0.00     0.173 A 
ATOM     79  F   UNL A   1      41.008  30.463  29.086  1.00  0.00    -0.203 F 
ATOM     80  C   UNL A   1      40.367  28.533  27.898  1.00  0.00     0.198 A 
ATOM     81  C   UNL A   1      39.279  26.729  29.042  1.00  0.00     0.198 A 
ATOM     82  F   UNL A   1      38.816  26.905  31.343  1.00  0.00    -0.203 F 
ATOM     83  F   UNL A   1      40.829  29.079  26.764  1.00  0.00    -0.200 F 
ATOM     84  C   UNL A   1      39.787  27.274  27.873  1.00  0.00     0.200 A 
ATOM     85  F   UNL A   1      38.725  25.508  29.026  1.00  0.00    -0.200 F 
ATOM     86  F   UNL A   1      39.707  26.592  26.723  1.00  0.00    -0.200 F 
ENDBRANCH  52  76
BRANCH  64  87
ATOM     87  C   UNL A   1      44.582  29.008  35.498  1.00  0.00     0.064 A 
ATOM     88  C   UNL A   1      45.810  29.617  35.208  1.00  0.00     0.173 A 
ATOM     89  C   UNL A   1      44.605  27.751  36.126  1.00  0.00     0.173 A 
ATOM     90  F   UNL A   1      45.844  30.812  34.601  1.00  0.00    -0.203 F 
ATOM     91  C   UNL A   1      47.013  28.991  35.525  1.00  0.00     0.198 A 
ATOM     92  C   UNL A   1      45.809  27.143  36.471  1.00  0.00     0.198 A 
ATOM     93  F   UNL A   1      43.458  27.129  36.437  1.00  0.00    -0.203 F 
ATOM     94  F   UNL A   1      48.176  29.579  35.208  1.00  0.00    -0.200 F 
ATOM     95  C   UNL A   1      47.012  27.761  36.167  1.00  0.00     0.200 A 
ATOM     96  F   UNL A   1      45.805  25.965  37.110  1.00  0.00    -0.200 F 
ATOM     97  F   UNL A   1      48.171  27.171  36.491  1.00  0.00    -0.200 F 
ENDBRANCH  64  87
ENDBRANCH  38  39
ENDBRANCH  31  33
ENDBRANCH  30  31
ENDBRANCH  29  30
ENDBRANCH  28  29
ENDBRANCH  27  28
ENDBRANCH   1  27
TORSDOF 18
ENDMDL
MODEL 3
REMARK VINA RESULT:     -11.2      4.472      7.008
REMARK SMILES Cc1c(Br)c(C)c2c(c1Br)O[C@H](C(F)(F)F)C(C(=O)OCCOCCOCCOC(=O)c1ccc(-c3c4nc(c(-c5c(F)c(F)c(F)c(F)c5F)c5ccc([nH]5)c(-c5c(F)c(F)c(F)c(F)c5F)c5nc(c(-c6c(F)c(F)c(F)c(F)c6F)c6ccc3[nH]6)C=C5)C=C4)cc1)=C2
REMARK SMILES IDX 25 1 24 2 23 3 22 4 21 5 20 6 18 7 19 8 17 9 1 10 2 11 3 12
REMARK SMILES IDX 9 13 4 14 5 15 8 16 10 17 6 18 7 19 11 20 95 21 12 22 13 23
REMARK SMILES IDX 14 24 15 25 16 26 26 27 27 28 28 29 29 30 30 31 31 32 32 33
REMARK SMILES IDX 33 34 94 35 34 36 93 37 35 38 36 39 37 40 87 41 38 42 92 43
REMARK SMILES IDX 86 44 88 45 39 46 91 47 85 48 84 49 40 51 72 52 52 53 71 54
REMARK SMILES IDX 53 55 56 56 70 57 89 58 54 59 55 60 69 62 90 63 57 64 41 65
REMARK SMILES IDX 42 66 50 67 43 68 44 69 48 70 51 71 45 72 46 73 49 74 47 75
REMARK SMILES IDX 73 76 74 77 82 78 75 79 76 80 80 81 83 82 77 83 78 84 81 85
REMARK SMILES IDX 79 86 58 87 59 88 67 89 60 90 61 91 65 92 68 93 62 94 63 95
REMARK SMILES IDX 66 96 64 97
REMARK H PARENT 88 50 56 61
REMARK Flexibility Score: inf
ROOT
ATOM      1  C   UNL A   1      35.029  20.389  24.996  1.00  0.00     0.188 C 
ENDROOT
BRANCH   1   2
ATOM      2  C   UNL A   1      33.807  20.642  25.902  1.00  0.00     0.188 C 
BRANCH   2   3
ATOM      3  O   UNL A   1      33.977  21.073  27.236  1.00  0.00    -0.376 OA
BRANCH   3   4
ATOM      4  C   UNL A   1      33.277  22.201  27.734  1.00  0.00     0.202 C 
BRANCH   4   5
ATOM      5  C   UNL A   1      32.600  23.240  26.825  1.00  0.00     0.261 C 
BRANCH   5   6
ATOM      6  O   UNL A   1      33.466  24.229  26.257  1.00  0.00    -0.460 OA
BRANCH   6   7
ATOM      7  C   UNL A   1      33.225  24.532  24.959  1.00  0.00     0.338 C 
ATOM      8  O   UNL A   1      33.242  23.763  24.012  1.00  0.00    -0.246 OA
BRANCH   7   9
ATOM      9  C   UNL A   1      32.761  25.930  24.855  1.00  0.00     0.087 C 
ATOM     10  C   UNL A   1      31.039  32.111  26.043  1.00  0.00     0.047 C 
ATOM     11  C   UNL A   1      31.732  30.783  25.834  1.00  0.00    -0.019 A 
ATOM     12  C   UNL A   1      32.882  30.452  26.598  1.00  0.00     0.025 A 
ATOM     13  C   UNL A   1      31.229  29.816  24.940  1.00  0.00     0.064 A 
ATOM     14  Br  UNL A   1      33.554  31.737  27.858  1.00  0.00    -0.050 Br
ATOM     15  C   UNL A   1      33.512  29.188  26.482  1.00  0.00    -0.026 A 
ATOM     16  C   UNL A   1      31.822  28.543  24.840  1.00  0.00     0.142 A 
ATOM     17  Br  UNL A   1      29.682  30.165  23.863  1.00  0.00    -0.046 Br
ATOM     18  C   UNL A   1      34.772  28.839  27.247  1.00  0.00     0.046 C 
ATOM     19  C   UNL A   1      32.927  28.213  25.636  1.00  0.00     0.022 A 
ATOM     20  O   UNL A   1      31.272  27.673  23.933  1.00  0.00    -0.474 OA
ATOM     21  C   UNL A   1      33.397  26.828  25.619  1.00  0.00     0.027 C 
ATOM     22  C   UNL A   1      31.639  26.274  23.928  1.00  0.00     0.316 C 
BRANCH  22  23
ATOM     23  C   UNL A   1      30.382  25.434  24.191  1.00  0.00     0.430 C 
ATOM     24  F   UNL A   1      30.354  24.974  25.464  1.00  0.00    -0.167 F 
ATOM     25  F   UNL A   1      29.252  26.158  24.014  1.00  0.00    -0.167 F 
ATOM     26  F   UNL A   1      30.311  24.364  23.368  1.00  0.00    -0.167 F 
ENDBRANCH  22  23
ENDBRANCH   7   9
ENDBRANCH   6   7
ENDBRANCH   5   6
ENDBRANCH   4   5
ENDBRANCH   3   4
ENDBRANCH   2   3
ENDBRANCH   1   2
BRANCH   1  27
ATOM     27  O   UNL A   1      35.679  21.486  24.404  1.00  0.00    -0.376 OA
BRANCH  27  28
ATOM     28  C   UNL A   1      37.088  21.624  24.507  1.00  0.00     0.202 C 
BRANCH  28  29
ATOM     29  C   UNL A   1      38.017  20.750  25.375  1.00  0.00     0.261 C 
BRANCH  29  30
ATOM     30  O   UNL A   1      39.415  21.059  25.384  1.00  0.00    -0.460 OA
BRANCH  30  31
ATOM     31  C   UNL A   1      40.024  20.968  26.595  1.00  0.00     0.338 C 
ATOM     32  O   UNL A   1      40.391  19.961  27.168  1.00  0.00    -0.246 OA
BRANCH  31  33
ATOM     33  C   UNL A   1      40.375  22.328  27.050  1.00  0.00     0.060 A 
ATOM     34  C   UNL A   1      39.709  23.420  26.476  1.00  0.00     0.016 A 
ATOM     35  C   UNL A   1      41.364  22.526  28.013  1.00  0.00     0.016 A 
ATOM     36  C   UNL A   1      40.035  24.718  26.862  1.00  0.00     0.010 A 
ATOM     37  C   UNL A   1      41.713  23.830  28.376  1.00  0.00     0.010 A 
ATOM     38  C   UNL A   1      41.066  24.932  27.786  1.00  0.00    -0.014 A 
BRANCH  38  39
ATOM     39  C   UNL A   1      41.593  26.304  27.984  1.00  0.00     0.031 A 
ATOM     40  C   UNL A   1      42.962  26.624  27.449  1.00  0.00     0.074 A 
ATOM     41  C   UNL A   1      40.864  27.258  28.588  1.00  0.00     0.049 A 
ATOM     42  N   UNL A   1      43.650  27.732  27.536  1.00  0.00    -0.248 NA
ATOM     43  C   UNL A   1      43.644  25.547  26.713  1.00  0.00     0.031 C 
ATOM     44  C   UNL A   1      39.504  27.090  29.092  1.00  0.00     0.029 A 
ATOM     45  N   UNL A   1      41.174  28.563  28.881  1.00  0.00    -0.354 N 
ATOM     46  C   UNL A   1      44.841  27.488  26.864  1.00  0.00     0.074 A 
ATOM     47  C   UNL A   1      44.797  26.118  26.402  1.00  0.00     0.031 C 
ATOM     48  C   UNL A   1      39.099  28.248  29.644  1.00  0.00     0.029 A 
ATOM     49  C   UNL A   1      40.183  29.227  29.563  1.00  0.00     0.049 A 
ATOM     50  H   UNL A   1      42.026  28.985  28.627  1.00  0.00     0.167 HD
ATOM     51  C   UNL A   1      45.871  28.335  26.644  1.00  0.00     0.037 A 
ATOM     52  C   UNL A   1      40.168  30.471  30.081  1.00  0.00     0.037 A 
ATOM     53  C   UNL A   1      45.916  29.696  27.109  1.00  0.00     0.049 A 
ATOM     54  C   UNL A   1      41.376  31.361  29.913  1.00  0.00     0.074 A 
ATOM     55  C   UNL A   1      46.921  30.631  26.932  1.00  0.00     0.029 A 
ATOM     56  N   UNL A   1      44.917  30.314  27.845  1.00  0.00    -0.354 N 
ATOM     57  N   UNL A   1      42.493  31.130  29.267  1.00  0.00    -0.248 NA
ATOM     58  C   UNL A   1      41.321  32.687  30.549  1.00  0.00     0.031 C 
ATOM     59  C   UNL A   1      46.556  31.795  27.610  1.00  0.00     0.029 A 
ATOM     60  C   UNL A   1      45.296  31.609  28.157  1.00  0.00     0.049 A 
ATOM     61  H   UNL A   1      44.066  29.894  28.107  1.00  0.00     0.167 HD
ATOM     62  C   UNL A   1      43.258  32.283  29.393  1.00  0.00     0.074 A 
ATOM     63  C   UNL A   1      42.472  33.222  30.165  1.00  0.00     0.031 C 
ATOM     64  C   UNL A   1      44.499  32.540  28.914  1.00  0.00     0.037 A 
BRANCH  51  65
ATOM     65  C   UNL A   1      47.051  27.819  25.876  1.00  0.00     0.064 A 
ATOM     66  C   UNL A   1      47.089  27.858  24.475  1.00  0.00     0.173 A 
ATOM     67  C   UNL A   1      48.188  27.352  26.552  1.00  0.00     0.173 A 
ATOM     68  F   UNL A   1      46.021  28.281  23.783  1.00  0.00    -0.203 F 
ATOM     69  C   UNL A   1      48.221  27.445  23.778  1.00  0.00     0.198 A 
ATOM     70  C   UNL A   1      49.329  26.967  25.854  1.00  0.00     0.198 A 
ATOM     71  F   UNL A   1      48.203  27.295  27.894  1.00  0.00    -0.203 F 
ATOM     72  F   UNL A   1      48.226  27.465  22.439  1.00  0.00    -0.200 F 
ATOM     73  C   UNL A   1      49.344  27.012  24.468  1.00  0.00     0.200 A 
ATOM     74  F   UNL A   1      50.418  26.562  26.523  1.00  0.00    -0.200 F 
ATOM     75  F   UNL A   1      50.441  26.636  23.797  1.00  0.00    -0.200 F 
ENDBRANCH  51  65
BRANCH  52  76
ATOM     76  C   UNL A   1      38.972  30.955  30.823  1.00  0.00     0.064 A 
ATOM     77  C   UNL A   1      37.939  31.637  30.164  1.00  0.00     0.173 A 
ATOM     78  C   UNL A   1      38.845  30.767  32.207  1.00  0.00     0.173 A 
ATOM     79  F   UNL A   1      38.026  31.871  28.847  1.00  0.00    -0.203 F 
ATOM     80  C   UNL A   1      36.834  32.122  30.862  1.00  0.00     0.198 A 
ATOM     81  C   UNL A   1      37.725  31.224  32.900  1.00  0.00     0.198 A 
ATOM     82  F   UNL A   1      39.807  30.128  32.890  1.00  0.00    -0.203 F 
ATOM     83  F   UNL A   1      35.886  32.813  30.215  1.00  0.00    -0.200 F 
ATOM     84  C   UNL A   1      36.724  31.909  32.228  1.00  0.00     0.200 A 
ATOM     85  F   UNL A   1      37.619  31.007  34.218  1.00  0.00    -0.200 F 
ATOM     86  F   UNL A   1      35.660  32.371  32.898  1.00  0.00    -0.200 F 
ENDBRANCH  52  76
BRANCH  64  87
ATOM     87  C   UNL A   1      45.093  33.895  29.178  1.00  0.00     0.064 A 
ATOM     88  C   UNL A   1      45.919  34.134  30.286  1.00  0.00     0.173 A 
ATOM     89  C   UNL A   1      44.910  34.943  28.260  1.00  0.00     0.173 A 
ATOM     90  F   UNL A   1      46.119  33.171  31.198  1.00  0.00    -0.203 F 
ATOM     91  C   UNL A   1      46.529  35.372  30.471  1.00  0.00     0.198 A 
ATOM     92  C   UNL A   1      45.547  36.169  28.431  1.00  0.00     0.198 A 
ATOM     93  F   UNL A   1      44.140  34.764  27.176  1.00  0.00    -0.203 F 
ATOM     94  F   UNL A   1      47.287  35.587  31.556  1.00  0.00    -0.200 F 
ATOM     95  C   UNL A   1      46.352  36.383  29.539  1.00  0.00     0.200 A 
ATOM     96  F   UNL A   1      45.393  37.137  27.518  1.00  0.00    -0.200 F 
ATOM     97  F   UNL A   1      46.959  37.567  29.708  1.00  0.00    -0.200 F 
ENDBRANCH  64  87
ENDBRANCH  38  39
ENDBRANCH  31  33
ENDBRANCH  30  31
ENDBRANCH  29  30
ENDBRANCH  28  29
ENDBRANCH  27  28
ENDBRANCH   1  27
TORSDOF 18
ENDMDL
