MODEL 1
REMARK VINA RESULT:      -9.5      0.000      0.000
REMARK SMILES COc1ccc(-c2nc(NCC(=O)OCCOCCOCCOC(=O)c3ccc(-c4c5nc(c(-c6c(F)c(F)c(F)c(F)c6F)c6ccc([nH]6)c(-c6c(F)c(F)c(F)c(F)c6F)c6nc(c(-c7c(F)c(F)c(F)c(F)c7F)c7ccc4[nH]7)C=C6)C=C5)cc3)sc2-c2ccc(OC)cc2)cc1
REMARK SMILES IDX 18 1 17 2 16 3 15 4 14 5 12 6 13 7 11 8 10 9 9 11 7 12 8 13
REMARK SMILES IDX 90 14 89 15 6 16 3 17 4 18 100 19 5 20 99 21 2 22 1 23 91 24
REMARK SMILES IDX 92 25 98 26 93 27 97 28 94 29 95 30 96 31 19 32 20 33 21 34
REMARK SMILES IDX 22 35 23 36 24 37 25 38 26 39 27 40 88 41 28 42 87 43 29 44
REMARK SMILES IDX 30 45 31 46 81 47 32 48 86 49 80 50 82 51 33 52 85 53 79 54
REMARK SMILES IDX 78 55 34 57 66 58 46 59 65 60 47 61 50 62 64 63 83 64 48 65
REMARK SMILES IDX 49 66 63 68 84 69 51 70 35 71 36 72 44 73 37 74 38 75 42 76
REMARK SMILES IDX 45 77 39 78 40 79 43 80 41 81 67 82 68 83 76 84 69 85 70 86
REMARK SMILES IDX 74 87 77 88 71 89 72 90 75 91 73 92 52 93 53 94 61 95 54 96
REMARK SMILES IDX 55 97 59 98 62 99 56 100 57 101 60 102 58 103
REMARK H PARENT 10 10 82 56 50 67
REMARK Flexibility Score: inf
ROOT
ATOM      1  C   UNL A   1      33.567  34.448  33.050  1.00  0.00     0.188 C 
ENDROOT
BRANCH   1   2
ATOM      2  O   UNL A   1      33.390  34.497  31.638  1.00  0.00    -0.376 OA
BRANCH   2   3
ATOM      3  C   UNL A   1      33.564  35.746  30.971  1.00  0.00     0.202 C 
BRANCH   3   4
ATOM      4  C   UNL A   1      33.140  35.843  29.494  1.00  0.00     0.261 C 
BRANCH   4   5
ATOM      5  O   UNL A   1      32.836  34.574  28.876  1.00  0.00    -0.462 OA
BRANCH   5   6
ATOM      6  C   UNL A   1      33.858  33.938  28.239  1.00  0.00     0.325 C 
ATOM      7  O   UNL A   1      34.573  34.473  27.394  1.00  0.00    -0.250 OA
BRANCH   6   8
ATOM      8  C   UNL A   1      34.186  32.546  28.798  1.00  0.00     0.238 C 
BRANCH   8   9
ATOM      9  N   UNL A   1      34.877  31.609  27.920  1.00  0.00    -0.351 N 
ATOM     10  H   UNL A   1      35.851  31.718  27.831  1.00  0.00     0.163 HD
BRANCH   9  11
ATOM     11  C   UNL A   1      34.305  30.611  27.221  1.00  0.00     0.184 A 
ATOM     12  C   UNL A   1      32.905  29.679  25.773  1.00  0.00     0.091 A 
ATOM     13  N   UNL A   1      33.444  30.862  26.257  1.00  0.00    -0.220 NA
ATOM     14  C   UNL A   1      33.379  28.533  26.390  1.00  0.00     0.064 A 
ATOM     15  S   UNL A   1      34.584  28.950  27.529  1.00  0.00    -0.096 S 
BRANCH  12  16
ATOM     16  C   UNL A   1      31.957  29.640  24.664  1.00  0.00     0.002 A 
ATOM     17  C   UNL A   1      29.957  29.201  22.742  1.00  0.00     0.118 A 
ATOM     18  C   UNL A   1      29.749  30.122  23.768  1.00  0.00     0.047 A 
ATOM     19  C   UNL A   1      31.194  28.566  22.621  1.00  0.00     0.047 A 
ATOM     20  C   UNL A   1      30.743  30.337  24.730  1.00  0.00     0.014 A 
ATOM     21  C   UNL A   1      32.193  28.789  23.577  1.00  0.00     0.014 A 
BRANCH  17  22
ATOM     22  O   UNL A   1      28.918  29.013  21.872  1.00  0.00    -0.497 OA
ATOM     23  C   UNL A   1      27.681  29.548  22.341  1.00  0.00     0.278 C 
ENDBRANCH  17  22
ENDBRANCH  12  16
BRANCH  14  24
ATOM     24  C   UNL A   1      33.080  27.126  26.175  1.00  0.00    -0.006 A 
ATOM     25  C   UNL A   1      31.866  26.584  26.612  1.00  0.00     0.013 A 
ATOM     26  C   UNL A   1      34.012  26.303  25.536  1.00  0.00     0.013 A 
ATOM     27  C   UNL A   1      31.602  25.229  26.429  1.00  0.00     0.047 A 
ATOM     28  C   UNL A   1      33.741  24.947  25.351  1.00  0.00     0.047 A 
ATOM     29  C   UNL A   1      32.536  24.405  25.801  1.00  0.00     0.118 A 
BRANCH  29  30
ATOM     30  O   UNL A   1      32.161  23.095  25.694  1.00  0.00    -0.497 OA
ATOM     31  C   UNL A   1      33.215  22.143  25.626  1.00  0.00     0.278 C 
ENDBRANCH  29  30
ENDBRANCH  14  24
ENDBRANCH   9  11
ENDBRANCH   8   9
ENDBRANCH   6   8
ENDBRANCH   5   6
ENDBRANCH   4   5
ENDBRANCH   3   4
ENDBRANCH   2   3
ENDBRANCH   1   2
BRANCH   1  32
ATOM     32  C   UNL A   1      34.578  35.400  33.709  1.00  0.00     0.188 C 
BRANCH  32  33
ATOM     33  O   UNL A   1      35.912  34.954  33.650  1.00  0.00    -0.376 OA
BRANCH  33  34
ATOM     34  C   UNL A   1      36.219  33.720  34.265  1.00  0.00     0.202 C 
BRANCH  34  35
ATOM     35  C   UNL A   1      37.175  32.796  33.493  1.00  0.00     0.261 C 
BRANCH  35  36
ATOM     36  O   UNL A   1      36.559  31.861  32.587  1.00  0.00    -0.460 OA
BRANCH  36  37
ATOM     37  C   UNL A   1      37.138  30.648  32.468  1.00  0.00     0.338 C 
ATOM     38  O   UNL A   1      36.622  29.560  32.697  1.00  0.00    -0.246 OA
BRANCH  37  39
ATOM     39  C   UNL A   1      38.441  30.822  31.788  1.00  0.00     0.060 A 
ATOM     40  C   UNL A   1      39.616  30.811  32.555  1.00  0.00     0.016 A 
ATOM     41  C   UNL A   1      38.506  31.001  30.406  1.00  0.00     0.016 A 
ATOM     42  C   UNL A   1      40.855  31.023  31.947  1.00  0.00     0.010 A 
ATOM     43  C   UNL A   1      39.744  31.238  29.800  1.00  0.00     0.010 A 
ATOM     44  C   UNL A   1      40.919  31.291  30.573  1.00  0.00    -0.014 A 
BRANCH  44  45
ATOM     45  C   UNL A   1      42.162  31.863  29.994  1.00  0.00     0.031 A 
ATOM     46  C   UNL A   1      43.226  30.909  29.522  1.00  0.00     0.074 A 
ATOM     47  C   UNL A   1      42.347  33.188  29.868  1.00  0.00     0.049 A 
ATOM     48  N   UNL A   1      44.416  31.154  29.036  1.00  0.00    -0.248 NA
ATOM     49  C   UNL A   1      42.898  29.478  29.621  1.00  0.00     0.031 C 
ATOM     50  C   UNL A   1      41.384  34.218  30.245  1.00  0.00     0.029 A 
ATOM     51  N   UNL A   1      43.429  33.892  29.394  1.00  0.00    -0.354 N 
ATOM     52  C   UNL A   1      44.981  29.910  28.785  1.00  0.00     0.074 A 
ATOM     53  C   UNL A   1      44.021  28.914  29.206  1.00  0.00     0.031 C 
ATOM     54  C   UNL A   1      41.924  35.426  30.001  1.00  0.00     0.029 A 
ATOM     55  C   UNL A   1      43.280  35.253  29.484  1.00  0.00     0.049 A 
ATOM     56  H   UNL A   1      44.232  33.459  29.024  1.00  0.00     0.167 HD
ATOM     57  C   UNL A   1      46.189  29.621  28.243  1.00  0.00     0.037 A 
ATOM     58  C   UNL A   1      44.152  36.242  29.202  1.00  0.00     0.037 A 
ATOM     59  C   UNL A   1      47.148  30.613  27.831  1.00  0.00     0.049 A 
ATOM     60  C   UNL A   1      45.520  35.900  28.664  1.00  0.00     0.074 A 
ATOM     61  C   UNL A   1      48.394  30.423  27.261  1.00  0.00     0.029 A 
ATOM     62  N   UNL A   1      46.971  31.983  27.959  1.00  0.00    -0.354 N 
ATOM     63  N   UNL A   1      46.042  34.724  28.408  1.00  0.00    -0.248 NA
ATOM     64  C   UNL A   1      46.416  37.027  28.367  1.00  0.00     0.031 C 
ATOM     65  C   UNL A   1      48.997  31.676  27.100  1.00  0.00     0.029 A 
ATOM     66  C   UNL A   1      48.096  32.651  27.502  1.00  0.00     0.049 A 
ATOM     67  H   UNL A   1      46.164  32.417  28.320  1.00  0.00     0.167 HD
ATOM     68  C   UNL A   1      47.308  34.971  27.888  1.00  0.00     0.074 A 
ATOM     69  C   UNL A   1      47.471  36.408  27.857  1.00  0.00     0.031 C 
ATOM     70  C   UNL A   1      48.246  34.085  27.467  1.00  0.00     0.037 A 
BRANCH  57  71
ATOM     71  C   UNL A   1      46.550  28.169  28.109  1.00  0.00     0.064 A 
ATOM     72  C   UNL A   1      47.214  27.470  29.130  1.00  0.00     0.173 A 
ATOM     73  C   UNL A   1      46.232  27.467  26.936  1.00  0.00     0.173 A 
ATOM     74  F   UNL A   1      47.556  28.098  30.265  1.00  0.00    -0.203 F 
ATOM     75  C   UNL A   1      47.584  26.138  28.963  1.00  0.00     0.198 A 
ATOM     76  C   UNL A   1      46.570  26.124  26.789  1.00  0.00     0.198 A 
ATOM     77  F   UNL A   1      45.594  28.083  25.930  1.00  0.00    -0.203 F 
ATOM     78  F   UNL A   1      48.280  25.513  29.924  1.00  0.00    -0.200 F 
ATOM     79  C   UNL A   1      47.257  25.465  27.796  1.00  0.00     0.200 A 
ATOM     80  F   UNL A   1      46.240  25.472  25.665  1.00  0.00    -0.200 F 
ATOM     81  F   UNL A   1      47.615  24.183  27.637  1.00  0.00    -0.200 F 
ENDBRANCH  57  71
BRANCH  58  82
ATOM     82  C   UNL A   1      43.758  37.659  29.425  1.00  0.00     0.064 A 
ATOM     83  C   UNL A   1      44.073  38.319  30.622  1.00  0.00     0.173 A 
ATOM     84  C   UNL A   1      43.051  38.378  28.452  1.00  0.00     0.173 A 
ATOM     85  F   UNL A   1      44.724  37.665  31.596  1.00  0.00    -0.203 F 
ATOM     86  C   UNL A   1      43.684  39.639  30.840  1.00  0.00     0.198 A 
ATOM     87  C   UNL A   1      42.689  39.708  28.658  1.00  0.00     0.198 A 
ATOM     88  F   UNL A   1      42.719  37.793  27.292  1.00  0.00    -0.203 F 
ATOM     89  F   UNL A   1      43.959  40.231  32.010  1.00  0.00    -0.200 F 
ATOM     90  C   UNL A   1      43.000  40.335  29.855  1.00  0.00     0.200 A 
ATOM     91  F   UNL A   1      42.037  40.380  27.699  1.00  0.00    -0.200 F 
ATOM     92  F   UNL A   1      42.633  41.607  30.062  1.00  0.00    -0.200 F 
ENDBRANCH  58  82
BRANCH  70  93
ATOM     93  C   UNL A   1      49.516  34.642  26.882  1.00  0.00     0.064 A 
ATOM     94  C   UNL A   1      49.599  35.067  25.548  1.00  0.00     0.173 A 
ATOM     95  C   UNL A   1      50.661  34.780  27.684  1.00  0.00     0.173 A 
ATOM     96  F   UNL A   1      48.540  34.949  24.733  1.00  0.00    -0.203 F 
ATOM     97  C   UNL A   1      50.790  35.576  25.030  1.00  0.00     0.198 A 
ATOM     98  C   UNL A   1      51.837  35.323  27.175  1.00  0.00     0.198 A 
ATOM     99  F   UNL A   1      50.636  34.400  28.971  1.00  0.00    -0.203 F 
ATOM    100  F   UNL A   1      50.862  35.921  23.738  1.00  0.00    -0.200 F 
ATOM    101  C   UNL A   1      51.904  35.710  25.845  1.00  0.00     0.200 A 
ATOM    102  F   UNL A   1      52.906  35.468  27.969  1.00  0.00    -0.200 F 
ATOM    103  F   UNL A   1      53.046  36.204  25.347  1.00  0.00    -0.200 F 
ENDBRANCH  70  93
ENDBRANCH  44  45
ENDBRANCH  37  39
ENDBRANCH  36  37
ENDBRANCH  35  36
ENDBRANCH  34  35
ENDBRANCH  33  34
ENDBRANCH  32  33
ENDBRANCH   1  32
TORSDOF 23
ENDMDL
MODEL 2
REMARK VINA RESULT:      -9.4      4.792     11.744
REMARK SMILES COc1ccc(-c2nc(NCC(=O)OCCOCCOCCOC(=O)c3ccc(-c4c5nc(c(-c6c(F)c(F)c(F)c(F)c6F)c6ccc([nH]6)c(-c6c(F)c(F)c(F)c(F)c6F)c6nc(c(-c7c(F)c(F)c(F)c(F)c7F)c7ccc4[nH]7)C=C6)C=C5)cc3)sc2-c2ccc(OC)cc2)cc1
REMARK SMILES IDX 18 1 17 2 16 3 15 4 14 5 12 6 13 7 11 8 10 9 9 11 7 12 8 13
REMARK SMILES IDX 90 14 89 15 6 16 3 17 4 18 100 19 5 20 99 21 2 22 1 23 91 24
REMARK SMILES IDX 92 25 98 26 93 27 97 28 94 29 95 30 96 31 19 32 20 33 21 34
REMARK SMILES IDX 22 35 23 36 24 37 25 38 26 39 27 40 88 41 28 42 87 43 29 44
REMARK SMILES IDX 30 45 31 46 81 47 32 48 86 49 80 50 82 51 33 52 85 53 79 54
REMARK SMILES IDX 78 55 34 57 66 58 46 59 65 60 47 61 50 62 64 63 83 64 48 65
REMARK SMILES IDX 49 66 63 68 84 69 51 70 35 71 36 72 44 73 37 74 38 75 42 76
REMARK SMILES IDX 45 77 39 78 40 79 43 80 41 81 67 82 68 83 76 84 69 85 70 86
REMARK SMILES IDX 74 87 77 88 71 89 72 90 75 91 73 92 52 93 53 94 61 95 54 96
REMARK SMILES IDX 55 97 59 98 62 99 56 100 57 101 60 102 58 103
REMARK H PARENT 10 10 82 56 50 67
REMARK Flexibility Score: inf
ROOT
ATOM      1  C   UNL A   1      35.381  33.786  32.612  1.00  0.00     0.188 C 
ENDROOT
BRANCH   1   2
ATOM      2  O   UNL A   1      36.218  32.638  32.709  1.00  0.00    -0.376 OA
BRANCH   2   3
ATOM      3  C   UNL A   1      37.494  32.667  32.069  1.00  0.00     0.202 C 
BRANCH   3   4
ATOM      4  C   UNL A   1      38.725  33.019  32.924  1.00  0.00     0.261 C 
BRANCH   4   5
ATOM      5  O   UNL A   1      39.607  31.906  33.186  1.00  0.00    -0.462 OA
BRANCH   5   6
ATOM      6  C   UNL A   1      39.059  30.814  33.787  1.00  0.00     0.325 C 
ATOM      7  O   UNL A   1      38.880  29.740  33.216  1.00  0.00    -0.250 OA
BRANCH   6   8
ATOM      8  C   UNL A   1      38.857  30.957  35.302  1.00  0.00     0.238 C 
BRANCH   8   9
ATOM      9  N   UNL A   1      39.493  29.971  36.166  1.00  0.00    -0.351 N 
ATOM     10  H   UNL A   1      38.972  29.652  36.938  1.00  0.00     0.163 HD
BRANCH   9  11
ATOM     11  C   UNL A   1      40.727  29.457  36.007  1.00  0.00     0.184 A 
ATOM     12  C   UNL A   1      42.308  27.900  36.057  1.00  0.00     0.091 A 
ATOM     13  N   UNL A   1      40.950  28.167  36.147  1.00  0.00    -0.220 NA
ATOM     14  C   UNL A   1      43.103  29.015  35.844  1.00  0.00     0.064 A 
ATOM     15  S   UNL A   1      42.115  30.400  35.666  1.00  0.00    -0.096 S 
BRANCH  12  16
ATOM     16  C   UNL A   1      42.853  26.548  36.123  1.00  0.00     0.002 A 
ATOM     17  C   UNL A   1      44.277  24.128  36.064  1.00  0.00     0.118 A 
ATOM     18  C   UNL A   1      44.261  24.901  37.224  1.00  0.00     0.047 A 
ATOM     19  C   UNL A   1      43.511  24.515  34.963  1.00  0.00     0.047 A 
ATOM     20  C   UNL A   1      43.557  26.110  37.253  1.00  0.00     0.014 A 
ATOM     21  C   UNL A   1      42.797  25.720  34.995  1.00  0.00     0.014 A 
BRANCH  17  22
ATOM     22  O   UNL A   1      45.029  22.985  36.102  1.00  0.00    -0.497 OA
ATOM     23  C   UNL A   1      44.676  22.041  35.092  1.00  0.00     0.278 C 
ENDBRANCH  17  22
ENDBRANCH  12  16
BRANCH  14  24
ATOM     24  C   UNL A   1      44.541  29.161  35.687  1.00  0.00    -0.006 A 
ATOM     25  C   UNL A   1      45.200  28.572  34.602  1.00  0.00     0.013 A 
ATOM     26  C   UNL A   1      45.277  29.887  36.628  1.00  0.00     0.013 A 
ATOM     27  C   UNL A   1      46.582  28.691  34.478  1.00  0.00     0.047 A 
ATOM     28  C   UNL A   1      46.661  30.009  36.497  1.00  0.00     0.047 A 
ATOM     29  C   UNL A   1      47.318  29.407  35.422  1.00  0.00     0.118 A 
BRANCH  29  30
ATOM     30  O   UNL A   1      48.665  29.440  35.192  1.00  0.00    -0.497 OA
ATOM     31  C   UNL A   1      49.174  30.634  34.611  1.00  0.00     0.278 C 
ENDBRANCH  29  30
ENDBRANCH  14  24
ENDBRANCH   9  11
ENDBRANCH   8   9
ENDBRANCH   6   8
ENDBRANCH   5   6
ENDBRANCH   4   5
ENDBRANCH   3   4
ENDBRANCH   2   3
ENDBRANCH   1   2
BRANCH   1  32
ATOM     32  C   UNL A   1      34.485  33.953  31.374  1.00  0.00     0.188 C 
BRANCH  32  33
ATOM     33  O   UNL A   1      34.285  32.766  30.644  1.00  0.00    -0.376 OA
BRANCH  33  34
ATOM     34  C   UNL A   1      34.826  32.696  29.342  1.00  0.00     0.202 C 
BRANCH  34  35
ATOM     35  C   UNL A   1      33.988  31.942  28.298  1.00  0.00     0.261 C 
BRANCH  35  36
ATOM     36  O   UNL A   1      34.714  31.067  27.413  1.00  0.00    -0.460 OA
BRANCH  36  37
ATOM     37  C   UNL A   1      34.968  29.818  27.856  1.00  0.00     0.338 C 
ATOM     38  O   UNL A   1      34.217  28.851  27.803  1.00  0.00    -0.246 OA
BRANCH  37  39
ATOM     39  C   UNL A   1      36.402  29.736  28.214  1.00  0.00     0.060 A 
ATOM     40  C   UNL A   1      37.366  29.986  27.226  1.00  0.00     0.016 A 
ATOM     41  C   UNL A   1      36.795  29.408  29.512  1.00  0.00     0.016 A 
ATOM     42  C   UNL A   1      38.725  29.866  27.523  1.00  0.00     0.010 A 
ATOM     43  C   UNL A   1      38.156  29.264  29.803  1.00  0.00     0.010 A 
ATOM     44  C   UNL A   1      39.125  29.452  28.800  1.00  0.00    -0.014 A 
BRANCH  44  45
ATOM     45  C   UNL A   1      40.517  28.982  29.018  1.00  0.00     0.031 A 
ATOM     46  C   UNL A   1      41.482  29.919  29.693  1.00  0.00     0.074 A 
ATOM     47  C   UNL A   1      40.923  27.755  28.647  1.00  0.00     0.049 A 
ATOM     48  N   UNL A   1      42.758  29.771  29.945  1.00  0.00    -0.248 NA
ATOM     49  C   UNL A   1      40.926  31.206  30.139  1.00  0.00     0.031 C 
ATOM     50  C   UNL A   1      40.083  26.738  28.025  1.00  0.00     0.029 A 
ATOM     51  N   UNL A   1      42.161  27.166  28.736  1.00  0.00    -0.354 N 
ATOM     52  C   UNL A   1      43.156  30.948  30.565  1.00  0.00     0.074 A 
ATOM     53  C   UNL A   1      41.999  31.814  30.617  1.00  0.00     0.031 C 
ATOM     54  C   UNL A   1      40.834  25.651  27.771  1.00  0.00     0.029 A 
ATOM     55  C   UNL A   1      42.213  25.911  28.184  1.00  0.00     0.049 A 
ATOM     56  H   UNL A   1      42.937  27.604  29.156  1.00  0.00     0.167 HD
ATOM     57  C   UNL A   1      44.376  31.277  31.055  1.00  0.00     0.037 A 
ATOM     58  C   UNL A   1      43.261  25.080  28.013  1.00  0.00     0.037 A 
ATOM     59  C   UNL A   1      45.530  30.418  30.996  1.00  0.00     0.049 A 
ATOM     60  C   UNL A   1      44.627  25.491  28.503  1.00  0.00     0.074 A 
ATOM     61  C   UNL A   1      46.806  30.654  31.473  1.00  0.00     0.029 A 
ATOM     62  N   UNL A   1      45.549  29.161  30.408  1.00  0.00    -0.354 N 
ATOM     63  N   UNL A   1      44.995  26.596  29.108  1.00  0.00    -0.248 NA
ATOM     64  C   UNL A   1      45.722  24.534  28.295  1.00  0.00     0.031 C 
ATOM     65  C   UNL A   1      47.613  29.566  31.122  1.00  0.00     0.029 A 
ATOM     66  C   UNL A   1      46.822  28.619  30.489  1.00  0.00     0.049 A 
ATOM     67  H   UNL A   1      44.771  28.719  29.995  1.00  0.00     0.167 HD
ATOM     68  C   UNL A   1      46.351  26.450  29.383  1.00  0.00     0.074 A 
ATOM     69  C   UNL A   1      46.736  25.146  28.887  1.00  0.00     0.031 C 
ATOM     70  C   UNL A   1      47.195  27.315  29.999  1.00  0.00     0.037 A 
BRANCH  57  71
ATOM     71  C   UNL A   1      44.525  32.644  31.660  1.00  0.00     0.064 A 
ATOM     72  C   UNL A   1      44.502  32.849  33.049  1.00  0.00     0.173 A 
ATOM     73  C   UNL A   1      44.687  33.768  30.835  1.00  0.00     0.173 A 
ATOM     74  F   UNL A   1      44.333  31.811  33.882  1.00  0.00    -0.203 F 
ATOM     75  C   UNL A   1      44.590  34.131  33.586  1.00  0.00     0.198 A 
ATOM     76  C   UNL A   1      44.813  35.044  31.379  1.00  0.00     0.198 A 
ATOM     77  F   UNL A   1      44.719  33.631  29.502  1.00  0.00    -0.203 F 
ATOM     78  F   UNL A   1      44.495  34.308  34.911  1.00  0.00    -0.200 F 
ATOM     79  C   UNL A   1      44.751  35.226  32.750  1.00  0.00     0.200 A 
ATOM     80  F   UNL A   1      44.983  36.100  30.569  1.00  0.00    -0.200 F 
ATOM     81  F   UNL A   1      44.835  36.459  33.269  1.00  0.00    -0.200 F 
ENDBRANCH  57  71
BRANCH  58  82
ATOM     82  C   UNL A   1      43.060  23.768  27.340  1.00  0.00     0.064 A 
ATOM     83  C   UNL A   1      43.356  23.598  25.980  1.00  0.00     0.173 A 
ATOM     84  C   UNL A   1      42.559  22.662  28.041  1.00  0.00     0.173 A 
ATOM     85  F   UNL A   1      43.810  24.634  25.259  1.00  0.00    -0.203 F 
ATOM     86  C   UNL A   1      43.147  22.375  25.346  1.00  0.00     0.198 A 
ATOM     87  C   UNL A   1      42.380  21.431  27.414  1.00  0.00     0.198 A 
ATOM     88  F   UNL A   1      42.255  22.772  29.343  1.00  0.00    -0.203 F 
ATOM     89  F   UNL A   1      43.396  22.253  24.035  1.00  0.00    -0.200 F 
ATOM     90  C   UNL A   1      42.667  21.291  26.064  1.00  0.00     0.200 A 
ATOM     91  F   UNL A   1      41.925  20.383  28.114  1.00  0.00    -0.200 F 
ATOM     92  F   UNL A   1      42.473  20.113  25.455  1.00  0.00    -0.200 F 
ENDBRANCH  58  82
BRANCH  70  93
ATOM     93  C   UNL A   1      48.612  26.863  30.225  1.00  0.00     0.064 A 
ATOM     94  C   UNL A   1      49.635  27.120  29.300  1.00  0.00     0.173 A 
ATOM     95  C   UNL A   1      48.957  26.186  31.406  1.00  0.00     0.173 A 
ATOM     96  F   UNL A   1      49.362  27.754  28.149  1.00  0.00    -0.203 F 
ATOM     97  C   UNL A   1      50.939  26.687  29.532  1.00  0.00     0.198 A 
ATOM     98  C   UNL A   1      50.267  25.787  31.653  1.00  0.00     0.198 A 
ATOM     99  F   UNL A   1      48.022  25.922  32.332  1.00  0.00    -0.203 F 
ATOM    100  F   UNL A   1      51.887  26.893  28.607  1.00  0.00    -0.200 F 
ATOM    101  C   UNL A   1      51.256  26.028  30.710  1.00  0.00     0.200 A 
ATOM    102  F   UNL A   1      50.574  25.167  32.800  1.00  0.00    -0.200 F 
ATOM    103  F   UNL A   1      52.511  25.616  30.935  1.00  0.00    -0.200 F 
ENDBRANCH  70  93
ENDBRANCH  44  45
ENDBRANCH  37  39
ENDBRANCH  36  37
ENDBRANCH  35  36
ENDBRANCH  34  35
ENDBRANCH  33  34
ENDBRANCH  32  33
ENDBRANCH   1  32
TORSDOF 23
ENDMDL
MODEL 3
REMARK VINA RESULT:      -9.1      5.958      9.707
REMARK SMILES COc1ccc(-c2nc(NCC(=O)OCCOCCOCCOC(=O)c3ccc(-c4c5nc(c(-c6c(F)c(F)c(F)c(F)c6F)c6ccc([nH]6)c(-c6c(F)c(F)c(F)c(F)c6F)c6nc(c(-c7c(F)c(F)c(F)c(F)c7F)c7ccc4[nH]7)C=C6)C=C5)cc3)sc2-c2ccc(OC)cc2)cc1
REMARK SMILES IDX 18 1 17 2 16 3 15 4 14 5 12 6 13 7 11 8 10 9 9 11 7 12 8 13
REMARK SMILES IDX 90 14 89 15 6 16 3 17 4 18 100 19 5 20 99 21 2 22 1 23 91 24
REMARK SMILES IDX 92 25 98 26 93 27 97 28 94 29 95 30 96 31 19 32 20 33 21 34
REMARK SMILES IDX 22 35 23 36 24 37 25 38 26 39 27 40 88 41 28 42 87 43 29 44
REMARK SMILES IDX 30 45 31 46 81 47 32 48 86 49 80 50 82 51 33 52 85 53 79 54
REMARK SMILES IDX 78 55 34 57 66 58 46 59 65 60 47 61 50 62 64 63 83 64 48 65
REMARK SMILES IDX 49 66 63 68 84 69 51 70 35 71 36 72 44 73 37 74 38 75 42 76
REMARK SMILES IDX 45 77 39 78 40 79 43 80 41 81 67 82 68 83 76 84 69 85 70 86
REMARK SMILES IDX 74 87 77 88 71 89 72 90 75 91 73 92 52 93 53 94 61 95 54 96
REMARK SMILES IDX 55 97 59 98 62 99 56 100 57 101 60 102 58 103
REMARK H PARENT 10 10 82 56 50 67
REMARK Flexibility Score: inf
ROOT
ATOM      1  C   UNL A   1      33.240  30.407  27.032  1.00  0.00     0.188 C 
ENDROOT
BRANCH   1   2
ATOM      2  O   UNL A   1      33.236  29.033  27.407  1.00  0.00    -0.376 OA
BRANCH   2   3
ATOM      3  C   UNL A   1      31.983  28.364  27.540  1.00  0.00     0.202 C 
BRANCH   3   4
ATOM      4  C   UNL A   1      31.573  27.369  26.439  1.00  0.00     0.261 C 
BRANCH   4   5
ATOM      5  O   UNL A   1      32.291  27.525  25.196  1.00  0.00    -0.462 OA
BRANCH   5   6
ATOM      6  C   UNL A   1      31.606  28.064  24.151  1.00  0.00     0.325 C 
ATOM      7  O   UNL A   1      30.564  28.704  24.276  1.00  0.00    -0.250 OA
BRANCH   6   8
ATOM      8  C   UNL A   1      32.337  27.983  22.803  1.00  0.00     0.238 C 
BRANCH   8   9
ATOM      9  N   UNL A   1      32.431  26.678  22.161  1.00  0.00    -0.351 N 
ATOM     10  H   UNL A   1      32.187  26.630  21.209  1.00  0.00     0.163 HD
BRANCH   9  11
ATOM     11  C   UNL A   1      32.821  25.532  22.750  1.00  0.00     0.184 A 
ATOM     12  C   UNL A   1      34.246  24.071  23.622  1.00  0.00     0.091 A 
ATOM     13  N   UNL A   1      34.060  25.367  23.164  1.00  0.00    -0.220 NA
ATOM     14  C   UNL A   1      33.122  23.264  23.546  1.00  0.00     0.064 A 
ATOM     15  S   UNL A   1      31.795  24.179  22.976  1.00  0.00    -0.096 S 
BRANCH  12  16
ATOM     16  C   UNL A   1      35.508  23.609  24.191  1.00  0.00     0.002 A 
ATOM     17  C   UNL A   1      37.682  22.403  25.497  1.00  0.00     0.118 A 
ATOM     18  C   UNL A   1      37.365  22.040  24.189  1.00  0.00     0.047 A 
ATOM     19  C   UNL A   1      36.974  23.430  26.122  1.00  0.00     0.047 A 
ATOM     20  C   UNL A   1      36.278  22.635  23.539  1.00  0.00     0.014 A 
ATOM     21  C   UNL A   1      35.892  24.035  25.468  1.00  0.00     0.014 A 
BRANCH  17  22
ATOM     22  O   UNL A   1      38.729  21.739  26.078  1.00  0.00    -0.497 OA
ATOM     23  C   UNL A   1      39.716  22.609  26.629  1.00  0.00     0.278 C 
ENDBRANCH  17  22
ENDBRANCH  12  16
BRANCH  14  24
ATOM     24  C   UNL A   1      32.901  21.877  23.922  1.00  0.00    -0.006 A 
ATOM     25  C   UNL A   1      32.459  20.947  22.974  1.00  0.00     0.013 A 
ATOM     26  C   UNL A   1      33.124  21.465  25.239  1.00  0.00     0.013 A 
ATOM     27  C   UNL A   1      32.221  19.627  23.351  1.00  0.00     0.047 A 
ATOM     28  C   UNL A   1      32.889  20.141  25.611  1.00  0.00     0.047 A 
ATOM     29  C   UNL A   1      32.433  19.218  24.668  1.00  0.00     0.118 A 
BRANCH  29  30
ATOM     30  O   UNL A   1      32.152  17.903  24.909  1.00  0.00    -0.497 OA
ATOM     31  C   UNL A   1      32.968  16.952  24.237  1.00  0.00     0.278 C 
ENDBRANCH  29  30
ENDBRANCH  14  24
ENDBRANCH   9  11
ENDBRANCH   8   9
ENDBRANCH   6   8
ENDBRANCH   5   6
ENDBRANCH   4   5
ENDBRANCH   3   4
ENDBRANCH   2   3
ENDBRANCH   1   2
BRANCH   1  32
ATOM     32  C   UNL A   1      34.336  31.329  27.591  1.00  0.00     0.188 C 
BRANCH  32  33
ATOM     33  O   UNL A   1      34.474  31.276  28.991  1.00  0.00    -0.376 OA
BRANCH  33  34
ATOM     34  C   UNL A   1      35.181  32.324  29.622  1.00  0.00     0.202 C 
BRANCH  34  35
ATOM     35  C   UNL A   1      35.168  32.322  31.159  1.00  0.00     0.261 C 
BRANCH  35  36
ATOM     36  O   UNL A   1      36.211  31.563  31.801  1.00  0.00    -0.460 OA
BRANCH  36  37
ATOM     37  C   UNL A   1      36.728  32.070  32.939  1.00  0.00     0.338 C 
ATOM     38  O   UNL A   1      36.170  32.822  33.731  1.00  0.00    -0.246 OA
BRANCH  37  39
ATOM     39  C   UNL A   1      38.013  31.388  33.208  1.00  0.00     0.060 A 
ATOM     40  C   UNL A   1      39.212  32.094  33.024  1.00  0.00     0.016 A 
ATOM     41  C   UNL A   1      38.040  30.058  33.632  1.00  0.00     0.016 A 
ATOM     42  C   UNL A   1      40.440  31.460  33.222  1.00  0.00     0.010 A 
ATOM     43  C   UNL A   1      39.270  29.416  33.806  1.00  0.00     0.010 A 
ATOM     44  C   UNL A   1      40.475  30.101  33.562  1.00  0.00    -0.014 A 
BRANCH  44  45
ATOM     45  C   UNL A   1      41.744  29.342  33.423  1.00  0.00     0.031 A 
ATOM     46  C   UNL A   1      42.679  29.308  34.602  1.00  0.00     0.074 A 
ATOM     47  C   UNL A   1      42.063  28.683  32.296  1.00  0.00     0.049 A 
ATOM     48  N   UNL A   1      43.866  28.768  34.715  1.00  0.00    -0.248 NA
ATOM     49  C   UNL A   1      42.207  29.986  35.819  1.00  0.00     0.031 C 
ATOM     50  C   UNL A   1      41.231  28.599  31.100  1.00  0.00     0.029 A 
ATOM     51  N   UNL A   1      43.190  27.965  31.977  1.00  0.00    -0.354 N 
ATOM     52  C   UNL A   1      44.285  29.053  36.008  1.00  0.00     0.074 A 
ATOM     53  C   UNL A   1      43.244  29.844  36.628  1.00  0.00     0.031 C 
ATOM     54  C   UNL A   1      41.884  27.882  30.168  1.00  0.00     0.029 A 
ATOM     55  C   UNL A   1      43.190  27.486  30.691  1.00  0.00     0.049 A 
ATOM     56  H   UNL A   1      43.927  27.808  32.612  1.00  0.00     0.167 HD
ATOM     57  C   UNL A   1      45.431  28.682  36.630  1.00  0.00     0.037 A 
ATOM     58  C   UNL A   1      44.148  26.824  30.011  1.00  0.00     0.037 A 
ATOM     59  C   UNL A   1      46.470  27.901  36.010  1.00  0.00     0.049 A 
ATOM     60  C   UNL A   1      45.447  26.479  30.697  1.00  0.00     0.074 A 
ATOM     61  C   UNL A   1      47.662  27.464  36.557  1.00  0.00     0.029 A 
ATOM     62  N   UNL A   1      46.444  27.454  34.697  1.00  0.00    -0.354 N 
ATOM     63  N   UNL A   1      45.830  26.732  31.926  1.00  0.00    -0.248 NA
ATOM     64  C   UNL A   1      46.443  25.748  29.901  1.00  0.00     0.031 C 
ATOM     65  C   UNL A   1      48.386  26.804  35.558  1.00  0.00     0.029 A 
ATOM     66  C   UNL A   1      47.612  26.765  34.408  1.00  0.00     0.049 A 
ATOM     67  H   UNL A   1      45.704  27.602  34.064  1.00  0.00     0.167 HD
ATOM     68  C   UNL A   1      47.091  26.161  32.060  1.00  0.00     0.074 A 
ATOM     69  C   UNL A   1      47.403  25.541  30.790  1.00  0.00     0.031 C 
ATOM     70  C   UNL A   1      47.911  26.144  33.141  1.00  0.00     0.037 A 
BRANCH  57  71
ATOM     71  C   UNL A   1      45.630  29.158  38.040  1.00  0.00     0.064 A 
ATOM     72  C   UNL A   1      46.034  30.471  38.332  1.00  0.00     0.173 A 
ATOM     73  C   UNL A   1      45.419  28.284  39.118  1.00  0.00     0.173 A 
ATOM     74  F   UNL A   1      46.265  31.343  37.339  1.00  0.00    -0.203 F 
ATOM     75  C   UNL A   1      46.263  30.876  39.645  1.00  0.00     0.198 A 
ATOM     76  C   UNL A   1      45.612  28.705  40.431  1.00  0.00     0.198 A 
ATOM     77  F   UNL A   1      45.029  27.020  38.899  1.00  0.00    -0.203 F 
ATOM     78  F   UNL A   1      46.716  32.112  39.893  1.00  0.00    -0.200 F 
ATOM     79  C   UNL A   1      46.045  29.994  40.693  1.00  0.00     0.200 A 
ATOM     80  F   UNL A   1      45.388  27.855  41.444  1.00  0.00    -0.200 F 
ATOM     81  F   UNL A   1      46.267  30.386  41.956  1.00  0.00    -0.200 F 
ENDBRANCH  57  71
BRANCH  58  82
ATOM     82  C   UNL A   1      43.916  26.444  28.591  1.00  0.00     0.064 A 
ATOM     83  C   UNL A   1      44.210  27.331  27.546  1.00  0.00     0.173 A 
ATOM     84  C   UNL A   1      43.388  25.190  28.253  1.00  0.00     0.173 A 
ATOM     85  F   UNL A   1      44.690  28.554  27.820  1.00  0.00    -0.203 F 
ATOM     86  C   UNL A   1      43.971  26.982  26.218  1.00  0.00     0.198 A 
ATOM     87  C   UNL A   1      43.178  24.831  26.923  1.00  0.00     0.198 A 
ATOM     88  F   UNL A   1      43.084  24.306  29.215  1.00  0.00    -0.203 F 
ATOM     89  F   UNL A   1      44.219  27.866  25.242  1.00  0.00    -0.200 F 
ATOM     90  C   UNL A   1      43.464  25.730  25.907  1.00  0.00     0.200 A 
ATOM     91  F   UNL A   1      42.698  23.616  26.627  1.00  0.00    -0.200 F 
ATOM     92  F   UNL A   1      43.242  25.393  24.629  1.00  0.00    -0.200 F 
ENDBRANCH  58  82
BRANCH  70  93
ATOM     93  C   UNL A   1      49.205  25.386  33.022  1.00  0.00     0.064 A 
ATOM     94  C   UNL A   1      49.350  24.077  33.502  1.00  0.00     0.173 A 
ATOM     95  C   UNL A   1      50.311  25.974  32.386  1.00  0.00     0.173 A 
ATOM     96  F   UNL A   1      48.331  23.469  34.128  1.00  0.00    -0.203 F 
ATOM     97  C   UNL A   1      50.562  23.398  33.382  1.00  0.00     0.198 A 
ATOM     98  C   UNL A   1      51.508  25.281  32.234  1.00  0.00     0.198 A 
ATOM     99  F   UNL A   1      50.227  27.221  31.897  1.00  0.00    -0.203 F 
ATOM    100  F   UNL A   1      50.695  22.170  33.901  1.00  0.00    -0.200 F 
ATOM    101  C   UNL A   1      51.637  23.997  32.742  1.00  0.00     0.200 A 
ATOM    102  F   UNL A   1      52.539  25.855  31.599  1.00  0.00    -0.200 F 
ATOM    103  F   UNL A   1      52.799  23.342  32.623  1.00  0.00    -0.200 F 
ENDBRANCH  70  93
ENDBRANCH  44  45
ENDBRANCH  37  39
ENDBRANCH  36  37
ENDBRANCH  35  36
ENDBRANCH  34  35
ENDBRANCH  33  34
ENDBRANCH  32  33
ENDBRANCH   1  32
TORSDOF 23
ENDMDL
