MODEL 1
REMARK VINA RESULT:     -12.1      0.000      0.000
REMARK SMILES COc1c(C)cccc1C(=O)NCc1ccc(C(=O)OCCOCCOCCOC(=O)c2ccc(-c3c4nc(c(-c5c(F)c(F)c(F)c(F)c5F)c5ccc([nH]5)c(-c5c(F)c(F)c(F)c(F)c5F)c5nc(c(-c6c(F)c(F)c(F)c(F)c6F)c6ccc3[nH]6)C=C5)C=C4)cc2)cc1
REMARK SMILES IDX 24 1 23 2 22 3 21 4 20 5 18 6 19 7 17 8 14 9 15 10 96 11
REMARK SMILES IDX 16 12 95 13 13 14 12 15 10 16 11 17 9 19 3 20 4 21 5 22 6 23
REMARK SMILES IDX 8 24 7 25 2 26 1 27 25 28 26 29 27 30 28 31 29 32 30 33
REMARK SMILES IDX 31 34 32 35 33 36 94 37 34 38 93 39 35 40 36 41 37 42 87 43
REMARK SMILES IDX 38 44 92 45 86 46 88 47 39 48 91 49 85 50 84 51 40 53 72 54
REMARK SMILES IDX 52 55 71 56 53 57 56 58 70 59 89 60 54 61 55 62 69 64 90 65
REMARK SMILES IDX 57 66 41 67 42 68 50 69 43 70 44 71 48 72 51 73 45 74 46 75
REMARK SMILES IDX 49 76 47 77 73 78 74 79 82 80 75 81 76 82 80 83 83 84 77 85
REMARK SMILES IDX 78 86 81 87 79 88 58 89 59 90 67 91 60 92 61 93 65 94 68 95
REMARK SMILES IDX 62 96 63 97 66 98 64 99
REMARK H PARENT 12 18 88 52 56 63
REMARK Flexibility Score: inf
ROOT
ATOM      1  C   UNL A   1      31.261  30.122  25.063  1.00  0.00     0.188 C 
ENDROOT
BRANCH   1   2
ATOM      2  O   UNL A   1      30.254  31.113  24.871  1.00  0.00    -0.376 OA
BRANCH   2   3
ATOM      3  C   UNL A   1      29.438  31.062  23.659  1.00  0.00     0.202 C 
BRANCH   3   4
ATOM      4  C   UNL A   1      29.456  29.834  22.561  1.00  0.00     0.261 C 
BRANCH   4   5
ATOM      5  O   UNL A   1      29.291  28.082  22.799  1.00  0.00    -0.460 OA
BRANCH   5   6
ATOM      6  C   UNL A   1      29.007  26.913  23.680  1.00  0.00     0.338 C 
ATOM      7  O   UNL A   1      27.855  26.626  24.030  1.00  0.00    -0.246 OA
BRANCH   6   8
ATOM      8  C   UNL A   1      29.754  25.749  24.378  1.00  0.00     0.060 A 
ATOM      9  C   UNL A   1      31.221  23.506  25.392  1.00  0.00    -0.029 A 
ATOM     10  C   UNL A   1      30.875  23.601  24.037  1.00  0.00     0.006 A 
ATOM     11  C   UNL A   1      30.679  24.449  26.262  1.00  0.00     0.006 A 
ATOM     12  C   UNL A   1      30.157  24.693  23.548  1.00  0.00     0.016 A 
ATOM     13  C   UNL A   1      29.896  25.513  25.762  1.00  0.00     0.016 A 
BRANCH   9  14
ATOM     14  C   UNL A   1      32.017  22.288  25.787  1.00  0.00     0.152 C 
BRANCH  14  15
ATOM     15  N   UNL A   1      33.343  22.450  26.309  1.00  0.00    -0.348 N 
ATOM     16  C   UNL A   1      34.296  23.397  26.014  1.00  0.00     0.255 C 
ATOM     17  O   UNL A   1      35.397  23.198  26.545  1.00  0.00    -0.269 OA
ATOM     18  H   UNL A   1      33.612  21.779  26.979  1.00  0.00     0.164 HD
BRANCH  16  19
ATOM     19  C   UNL A   1      34.121  24.653  25.183  1.00  0.00     0.082 A 
ATOM     20  C   UNL A   1      34.057  24.826  23.785  1.00  0.00     0.134 A 
ATOM     21  C   UNL A   1      33.743  26.087  23.212  1.00  0.00    -0.008 A 
ATOM     22  C   UNL A   1      33.520  26.264  21.733  1.00  0.00     0.048 C 
ATOM     23  C   UNL A   1      33.657  27.218  24.031  1.00  0.00     0.007 A 
ATOM     24  C   UNL A   1      34.011  25.829  25.965  1.00  0.00     0.018 A 
ATOM     25  C   UNL A   1      33.806  27.092  25.403  1.00  0.00     0.001 A 
BRANCH  20  26
ATOM     26  O   UNL A   1      34.250  23.800  22.901  1.00  0.00    -0.496 OA
ATOM     27  C   UNL A   1      35.591  23.302  22.957  1.00  0.00     0.278 C 
ENDBRANCH  20  26
ENDBRANCH  16  19
ENDBRANCH  14  15
ENDBRANCH   9  14
ENDBRANCH   6   8
ENDBRANCH   5   6
ENDBRANCH   4   5
ENDBRANCH   3   4
ENDBRANCH   2   3
ENDBRANCH   1   2
BRANCH   1  28
ATOM     28  C   UNL A   1      31.746  29.934  26.532  1.00  0.00     0.188 C 
BRANCH  28  29
ATOM     29  O   UNL A   1      32.284  31.190  26.988  1.00  0.00    -0.376 OA
BRANCH  29  30
ATOM     30  C   UNL A   1      33.592  31.157  27.577  1.00  0.00     0.202 C 
BRANCH  30  31
ATOM     31  C   UNL A   1      34.131  32.522  28.052  1.00  0.00     0.261 C 
BRANCH  31  32
ATOM     32  O   UNL A   1      35.563  32.465  28.222  1.00  0.00    -0.460 OA
BRANCH  32  33
ATOM     33  C   UNL A   1      35.966  31.980  29.430  1.00  0.00     0.338 C 
ATOM     34  O   UNL A   1      36.055  32.629  30.451  1.00  0.00    -0.246 OA
BRANCH  33  35
ATOM     35  C   UNL A   1      36.522  30.614  29.239  1.00  0.00     0.060 A 
ATOM     36  C   UNL A   1      36.715  29.784  30.349  1.00  0.00     0.016 A 
ATOM     37  C   UNL A   1      37.122  30.299  28.026  1.00  0.00     0.016 A 
ATOM     38  C   UNL A   1      37.675  28.769  30.289  1.00  0.00     0.010 A 
ATOM     39  C   UNL A   1      38.151  29.380  28.015  1.00  0.00     0.010 A 
ATOM     40  C   UNL A   1      38.507  28.669  29.167  1.00  0.00    -0.014 A 
BRANCH  40  41
ATOM     41  C   UNL A   1      39.923  28.177  29.211  1.00  0.00     0.031 A 
ATOM     42  C   UNL A   1      40.139  26.634  28.483  1.00  0.00     0.074 A 
ATOM     43  C   UNL A   1      40.830  29.169  29.693  1.00  0.00     0.049 A 
ATOM     44  N   UNL A   1      41.146  25.833  28.757  1.00  0.00    -0.248 NA
ATOM     45  C   UNL A   1      39.301  25.866  27.549  1.00  0.00     0.031 C 
ATOM     46  C   UNL A   1      42.238  29.502  29.404  1.00  0.00     0.029 A 
ATOM     47  N   UNL A   1      40.665  30.159  30.724  1.00  0.00    -0.354 N 
ATOM     48  C   UNL A   1      41.302  24.709  28.016  1.00  0.00     0.074 A 
ATOM     49  C   UNL A   1      40.046  24.758  27.275  1.00  0.00     0.031 C 
ATOM     50  C   UNL A   1      42.832  30.442  30.112  1.00  0.00     0.029 A 
ATOM     51  C   UNL A   1      41.966  30.586  31.188  1.00  0.00     0.049 A 
ATOM     52  H   UNL A   1      39.803  30.493  31.060  1.00  0.00     0.167 HD
ATOM     53  C   UNL A   1      42.481  23.969  28.118  1.00  0.00     0.037 A 
ATOM     54  C   UNL A   1      42.515  30.420  32.421  1.00  0.00     0.037 A 
ATOM     55  C   UNL A   1      43.643  24.576  28.929  1.00  0.00     0.049 A 
ATOM     56  C   UNL A   1      43.656  29.367  32.649  1.00  0.00     0.074 A 
ATOM     57  C   UNL A   1      44.858  25.139  28.514  1.00  0.00     0.029 A 
ATOM     58  N   UNL A   1      43.704  24.734  30.331  1.00  0.00    -0.354 N 
ATOM     59  N   UNL A   1      44.252  28.557  31.777  1.00  0.00    -0.248 NA
ATOM     60  C   UNL A   1      44.156  29.138  34.006  1.00  0.00     0.031 C 
ATOM     61  C   UNL A   1      45.474  25.853  29.588  1.00  0.00     0.029 A 
ATOM     62  C   UNL A   1      44.725  25.660  30.730  1.00  0.00     0.049 A 
ATOM     63  H   UNL A   1      43.114  24.263  30.964  1.00  0.00     0.167 HD
ATOM     64  C   UNL A   1      44.816  27.478  32.510  1.00  0.00     0.074 A 
ATOM     65  C   UNL A   1      44.925  28.049  33.850  1.00  0.00     0.031 C 
ATOM     66  C   UNL A   1      44.907  26.122  32.146  1.00  0.00     0.037 A 
BRANCH  53  67
ATOM     67  C   UNL A   1      42.773  22.760  27.207  1.00  0.00     0.064 A 
ATOM     68  C   UNL A   1      42.146  21.500  27.400  1.00  0.00     0.173 A 
ATOM     69  C   UNL A   1      43.668  22.781  26.122  1.00  0.00     0.173 A 
ATOM     70  F   UNL A   1      41.137  21.332  28.261  1.00  0.00    -0.203 F 
ATOM     71  C   UNL A   1      42.501  20.348  26.689  1.00  0.00     0.198 A 
ATOM     72  C   UNL A   1      44.046  21.622  25.425  1.00  0.00     0.198 A 
ATOM     73  F   UNL A   1      44.152  23.933  25.647  1.00  0.00    -0.203 F 
ATOM     74  F   UNL A   1      41.883  19.188  26.951  1.00  0.00    -0.200 F 
ATOM     75  C   UNL A   1      43.479  20.401  25.724  1.00  0.00     0.200 A 
ATOM     76  F   UNL A   1      44.960  21.706  24.448  1.00  0.00    -0.200 F 
ATOM     77  F   UNL A   1      43.841  19.296  25.059  1.00  0.00    -0.200 F 
ENDBRANCH  53  67
BRANCH  54  78
ATOM     78  C   UNL A   1      41.685  31.245  33.349  1.00  0.00     0.064 A 
ATOM     79  C   UNL A   1      41.687  32.626  32.997  1.00  0.00     0.173 A 
ATOM     80  C   UNL A   1      40.466  30.689  33.745  1.00  0.00     0.173 A 
ATOM     81  F   UNL A   1      42.836  33.212  32.616  1.00  0.00    -0.203 F 
ATOM     82  C   UNL A   1      40.492  33.279  32.698  1.00  0.00     0.198 A 
ATOM     83  C   UNL A   1      39.273  31.360  33.471  1.00  0.00     0.198 A 
ATOM     84  F   UNL A   1      40.420  29.415  34.156  1.00  0.00    -0.203 F 
ATOM     85  F   UNL A   1      40.515  34.465  32.068  1.00  0.00    -0.200 F 
ATOM     86  C   UNL A   1      39.287  32.622  32.886  1.00  0.00     0.200 A 
ATOM     87  F   UNL A   1      38.104  30.721  33.628  1.00  0.00    -0.200 F 
ATOM     88  F   UNL A   1      38.151  33.163  32.425  1.00  0.00    -0.200 F 
ENDBRANCH  54  78
BRANCH  66  89
ATOM     89  C   UNL A   1      45.095  25.002  33.190  1.00  0.00     0.064 A 
ATOM     90  C   UNL A   1      46.328  24.403  33.525  1.00  0.00     0.173 A 
ATOM     91  C   UNL A   1      44.009  24.603  34.008  1.00  0.00     0.173 A 
ATOM     92  F   UNL A   1      47.482  24.806  32.976  1.00  0.00    -0.203 F 
ATOM     93  C   UNL A   1      46.438  23.393  34.489  1.00  0.00     0.198 A 
ATOM     94  C   UNL A   1      44.140  23.659  35.032  1.00  0.00     0.198 A 
ATOM     95  F   UNL A   1      42.790  25.143  33.860  1.00  0.00    -0.203 F 
ATOM     96  F   UNL A   1      47.620  22.795  34.696  1.00  0.00    -0.200 F 
ATOM     97  C   UNL A   1      45.346  23.026  35.248  1.00  0.00     0.200 A 
ATOM     98  F   UNL A   1      43.092  23.377  35.820  1.00  0.00    -0.200 F 
ATOM     99  F   UNL A   1      45.464  22.089  36.199  1.00  0.00    -0.200 F 
ENDBRANCH  66  89
ENDBRANCH  40  41
ENDBRANCH  33  35
ENDBRANCH  32  33
ENDBRANCH  31  32
ENDBRANCH  30  31
ENDBRANCH  29  30
ENDBRANCH  28  29
ENDBRANCH   1  28
TORSDOF 21
ENDMDL
MODEL 2
REMARK VINA RESULT:     -11.8      1.210      2.152
REMARK SMILES COc1c(C)cccc1C(=O)NCc1ccc(C(=O)OCCOCCOCCOC(=O)c2ccc(-c3c4nc(c(-c5c(F)c(F)c(F)c(F)c5F)c5ccc([nH]5)c(-c5c(F)c(F)c(F)c(F)c5F)c5nc(c(-c6c(F)c(F)c(F)c(F)c6F)c6ccc3[nH]6)C=C5)C=C4)cc2)cc1
REMARK SMILES IDX 24 1 23 2 22 3 21 4 20 5 18 6 19 7 17 8 14 9 15 10 96 11
REMARK SMILES IDX 16 12 95 13 13 14 12 15 10 16 11 17 9 19 3 20 4 21 5 22 6 23
REMARK SMILES IDX 8 24 7 25 2 26 1 27 25 28 26 29 27 30 28 31 29 32 30 33
REMARK SMILES IDX 31 34 32 35 33 36 94 37 34 38 93 39 35 40 36 41 37 42 87 43
REMARK SMILES IDX 38 44 92 45 86 46 88 47 39 48 91 49 85 50 84 51 40 53 72 54
REMARK SMILES IDX 52 55 71 56 53 57 56 58 70 59 89 60 54 61 55 62 69 64 90 65
REMARK SMILES IDX 57 66 41 67 42 68 50 69 43 70 44 71 48 72 51 73 45 74 46 75
REMARK SMILES IDX 49 76 47 77 73 78 74 79 82 80 75 81 76 82 80 83 83 84 77 85
REMARK SMILES IDX 78 86 81 87 79 88 58 89 59 90 67 91 60 92 61 93 65 94 68 95
REMARK SMILES IDX 62 96 63 97 66 98 64 99
REMARK H PARENT 12 18 88 52 56 63
REMARK Flexibility Score: inf
ROOT
ATOM      1  C   UNL A   1      31.518  29.802  25.120  1.00  0.00     0.188 C 
ENDROOT
BRANCH   1   2
ATOM      2  O   UNL A   1      30.572  29.663  24.063  1.00  0.00    -0.376 OA
BRANCH   2   3
ATOM      3  C   UNL A   1      30.546  28.416  23.301  1.00  0.00     0.202 C 
BRANCH   3   4
ATOM      4  C   UNL A   1      29.637  27.096  23.682  1.00  0.00     0.261 C 
BRANCH   4   5
ATOM      5  O   UNL A   1      29.523  26.182  25.200  1.00  0.00    -0.460 OA
BRANCH   5   6
ATOM      6  C   UNL A   1      30.018  25.109  26.109  1.00  0.00     0.338 C 
ATOM      7  O   UNL A   1      29.260  24.504  26.877  1.00  0.00    -0.246 OA
BRANCH   6   8
ATOM      8  C   UNL A   1      31.330  24.358  26.447  1.00  0.00     0.060 A 
ATOM      9  C   UNL A   1      33.906  23.217  26.978  1.00  0.00    -0.029 A 
ATOM     10  C   UNL A   1      33.762  24.357  26.174  1.00  0.00     0.006 A 
ATOM     11  C   UNL A   1      32.743  22.555  27.368  1.00  0.00     0.006 A 
ATOM     12  C   UNL A   1      32.506  24.907  25.915  1.00  0.00     0.016 A 
ATOM     13  C   UNL A   1      31.476  23.086  27.039  1.00  0.00     0.016 A 
BRANCH   9  14
ATOM     14  C   UNL A   1      35.317  22.738  27.200  1.00  0.00     0.152 C 
BRANCH  14  15
ATOM     15  N   UNL A   1      35.785  21.574  26.504  1.00  0.00    -0.348 N 
ATOM     16  C   UNL A   1      35.419  21.076  25.275  1.00  0.00     0.255 C 
ATOM     17  O   UNL A   1      35.917  19.977  24.998  1.00  0.00    -0.269 OA
ATOM     18  H   UNL A   1      36.472  21.052  26.980  1.00  0.00     0.164 HD
BRANCH  16  19
ATOM     19  C   UNL A   1      34.543  21.745  24.232  1.00  0.00     0.082 A 
ATOM     20  C   UNL A   1      33.183  21.552  23.917  1.00  0.00     0.134 A 
ATOM     21  C   UNL A   1      32.514  22.395  22.989  1.00  0.00    -0.008 A 
ATOM     22  C   UNL A   1      31.030  22.307  22.749  1.00  0.00     0.048 C 
ATOM     23  C   UNL A   1      33.248  23.327  22.248  1.00  0.00     0.007 A 
ATOM     24  C   UNL A   1      35.234  22.714  23.463  1.00  0.00     0.018 A 
ATOM     25  C   UNL A   1      34.607  23.476  22.473  1.00  0.00     0.001 A 
BRANCH  20  26
ATOM     26  O   UNL A   1      32.415  20.583  24.504  1.00  0.00    -0.496 OA
ATOM     27  C   UNL A   1      32.625  19.306  23.893  1.00  0.00     0.278 C 
ENDBRANCH  20  26
ENDBRANCH  16  19
ENDBRANCH  14  15
ENDBRANCH   9  14
ENDBRANCH   6   8
ENDBRANCH   5   6
ENDBRANCH   4   5
ENDBRANCH   3   4
ENDBRANCH   2   3
ENDBRANCH   1   2
BRANCH   1  28
ATOM     28  C   UNL A   1      31.380  31.095  25.979  1.00  0.00     0.188 C 
BRANCH  28  29
ATOM     29  O   UNL A   1      32.040  30.865  27.239  1.00  0.00    -0.376 OA
BRANCH  29  30
ATOM     30  C   UNL A   1      33.467  31.015  27.257  1.00  0.00     0.202 C 
BRANCH  30  31
ATOM     31  C   UNL A   1      33.981  32.317  27.905  1.00  0.00     0.261 C 
BRANCH  31  32
ATOM     32  O   UNL A   1      34.384  32.074  29.269  1.00  0.00    -0.460 OA
BRANCH  32  33
ATOM     33  C   UNL A   1      35.730  32.148  29.478  1.00  0.00     0.338 C 
ATOM     34  O   UNL A   1      36.357  33.172  29.646  1.00  0.00    -0.246 OA
BRANCH  33  35
ATOM     35  C   UNL A   1      36.332  30.814  29.208  1.00  0.00     0.060 A 
ATOM     36  C   UNL A   1      36.456  29.889  30.250  1.00  0.00     0.016 A 
ATOM     37  C   UNL A   1      37.033  30.624  28.024  1.00  0.00     0.016 A 
ATOM     38  C   UNL A   1      37.442  28.901  30.176  1.00  0.00     0.010 A 
ATOM     39  C   UNL A   1      38.082  29.727  28.012  1.00  0.00     0.010 A 
ATOM     40  C   UNL A   1      38.363  28.919  29.120  1.00  0.00    -0.014 A 
BRANCH  40  41
ATOM     41  C   UNL A   1      39.782  28.449  29.233  1.00  0.00     0.031 A 
ATOM     42  C   UNL A   1      40.061  26.916  28.505  1.00  0.00     0.074 A 
ATOM     43  C   UNL A   1      40.647  29.450  29.770  1.00  0.00     0.049 A 
ATOM     44  N   UNL A   1      41.065  26.128  28.824  1.00  0.00    -0.248 NA
ATOM     45  C   UNL A   1      39.284  26.143  27.523  1.00  0.00     0.031 C 
ATOM     46  C   UNL A   1      42.063  29.808  29.557  1.00  0.00     0.029 A 
ATOM     47  N   UNL A   1      40.413  30.428  30.799  1.00  0.00    -0.354 N 
ATOM     48  C   UNL A   1      41.277  25.014  28.083  1.00  0.00     0.074 A 
ATOM     49  C   UNL A   1      40.060  25.050  27.278  1.00  0.00     0.031 C 
ATOM     50  C   UNL A   1      42.604  30.751  30.303  1.00  0.00     0.029 A 
ATOM     51  C   UNL A   1      41.682  30.872  31.333  1.00  0.00     0.049 A 
ATOM     52  H   UNL A   1      39.529  30.746  31.093  1.00  0.00     0.167 HD
ATOM     53  C   UNL A   1      42.461  24.291  28.240  1.00  0.00     0.037 A 
ATOM     54  C   UNL A   1      42.169  30.703  32.591  1.00  0.00     0.037 A 
ATOM     55  C   UNL A   1      43.569  24.909  29.114  1.00  0.00     0.049 A 
ATOM     56  C   UNL A   1      43.313  29.666  32.870  1.00  0.00     0.074 A 
ATOM     57  C   UNL A   1      44.795  25.494  28.768  1.00  0.00     0.029 A 
ATOM     58  N   UNL A   1      43.556  25.055  30.520  1.00  0.00    -0.354 N 
ATOM     59  N   UNL A   1      43.966  28.873  32.023  1.00  0.00    -0.248 NA
ATOM     60  C   UNL A   1      43.746  29.432  34.249  1.00  0.00     0.031 C 
ATOM     61  C   UNL A   1      45.343  26.209  29.878  1.00  0.00     0.029 A 
ATOM     62  C   UNL A   1      44.539  25.993  30.979  1.00  0.00     0.049 A 
ATOM     63  H   UNL A   1      42.941  24.569  31.117  1.00  0.00     0.167 HD
ATOM     64  C   UNL A   1      44.509  27.797  32.775  1.00  0.00     0.074 A 
ATOM     65  C   UNL A   1      44.539  28.358  34.124  1.00  0.00     0.031 C 
ATOM     66  C   UNL A   1      44.640  26.445  32.406  1.00  0.00     0.037 A 
BRANCH  53  67
ATOM     67  C   UNL A   1      42.819  23.095  27.335  1.00  0.00     0.064 A 
ATOM     68  C   UNL A   1      42.228  21.815  27.506  1.00  0.00     0.173 A 
ATOM     69  C   UNL A   1      43.744  23.149  26.277  1.00  0.00     0.173 A 
ATOM     70  F   UNL A   1      41.200  21.612  28.338  1.00  0.00    -0.203 F 
ATOM     71  C   UNL A   1      42.641  20.678  26.804  1.00  0.00     0.198 A 
ATOM     72  C   UNL A   1      44.180  22.005  25.589  1.00  0.00     0.198 A 
ATOM     73  F   UNL A   1      44.205  24.318  25.820  1.00  0.00    -0.203 F 
ATOM     74  F   UNL A   1      42.055  19.497  27.045  1.00  0.00    -0.200 F 
ATOM     75  C   UNL A   1      43.646  20.766  25.868  1.00  0.00     0.200 A 
ATOM     76  F   UNL A   1      45.120  22.122  24.640  1.00  0.00    -0.200 F 
ATOM     77  F   UNL A   1      44.063  19.674  25.212  1.00  0.00    -0.200 F 
ENDBRANCH  53  67
BRANCH  54  78
ATOM     78  C   UNL A   1      41.278  31.507  33.482  1.00  0.00     0.064 A 
ATOM     79  C   UNL A   1      41.199  32.872  33.081  1.00  0.00     0.173 A 
ATOM     80  C   UNL A   1      40.092  30.889  33.886  1.00  0.00     0.173 A 
ATOM     81  F   UNL A   1      42.313  33.515  32.690  1.00  0.00    -0.203 F 
ATOM     82  C   UNL A   1      39.968  33.438  32.748  1.00  0.00     0.198 A 
ATOM     83  C   UNL A   1      38.862  31.475  33.578  1.00  0.00     0.198 A 
ATOM     84  F   UNL A   1      40.120  29.630  34.343  1.00  0.00    -0.203 F 
ATOM     85  F   UNL A   1      39.925  34.600  32.077  1.00  0.00    -0.200 F 
ATOM     86  C   UNL A   1      38.805  32.714  32.949  1.00  0.00     0.200 A 
ATOM     87  F   UNL A   1      37.734  30.770  33.747  1.00  0.00    -0.200 F 
ATOM     88  F   UNL A   1      37.642  33.166  32.458  1.00  0.00    -0.200 F 
ENDBRANCH  54  78
BRANCH  66  89
ATOM     89  C   UNL A   1      44.792  25.320  33.448  1.00  0.00     0.064 A 
ATOM     90  C   UNL A   1      43.769  24.862  34.305  1.00  0.00     0.173 A 
ATOM     91  C   UNL A   1      45.984  24.553  33.498  1.00  0.00     0.173 A 
ATOM     92  F   UNL A   1      42.525  25.355  34.246  1.00  0.00    -0.203 F 
ATOM     93  C   UNL A   1      43.965  23.828  35.229  1.00  0.00     0.198 A 
ATOM     94  C   UNL A   1      46.146  23.462  34.360  1.00  0.00     0.198 A 
ATOM     95  F   UNL A   1      47.018  24.820  32.688  1.00  0.00    -0.203 F 
ATOM     96  F   UNL A   1      42.983  23.501  36.082  1.00  0.00    -0.200 F 
ATOM     97  C   UNL A   1      45.151  23.123  35.252  1.00  0.00     0.200 A 
ATOM     98  F   UNL A   1      47.269  22.731  34.309  1.00  0.00    -0.200 F 
ATOM     99  F   UNL A   1      45.321  22.106  36.108  1.00  0.00    -0.200 F 
ENDBRANCH  66  89
ENDBRANCH  40  41
ENDBRANCH  33  35
ENDBRANCH  32  33
ENDBRANCH  31  32
ENDBRANCH  30  31
ENDBRANCH  29  30
ENDBRANCH  28  29
ENDBRANCH   1  28
TORSDOF 21
ENDMDL
MODEL 3
REMARK VINA RESULT:     -11.3      2.774      5.370
REMARK SMILES COc1c(C)cccc1C(=O)NCc1ccc(C(=O)OCCOCCOCCOC(=O)c2ccc(-c3c4nc(c(-c5c(F)c(F)c(F)c(F)c5F)c5ccc([nH]5)c(-c5c(F)c(F)c(F)c(F)c5F)c5nc(c(-c6c(F)c(F)c(F)c(F)c6F)c6ccc3[nH]6)C=C5)C=C4)cc2)cc1
REMARK SMILES IDX 24 1 23 2 22 3 21 4 20 5 18 6 19 7 17 8 14 9 15 10 96 11
REMARK SMILES IDX 16 12 95 13 13 14 12 15 10 16 11 17 9 19 3 20 4 21 5 22 6 23
REMARK SMILES IDX 8 24 7 25 2 26 1 27 25 28 26 29 27 30 28 31 29 32 30 33
REMARK SMILES IDX 31 34 32 35 33 36 94 37 34 38 93 39 35 40 36 41 37 42 87 43
REMARK SMILES IDX 38 44 92 45 86 46 88 47 39 48 91 49 85 50 84 51 40 53 72 54
REMARK SMILES IDX 52 55 71 56 53 57 56 58 70 59 89 60 54 61 55 62 69 64 90 65
REMARK SMILES IDX 57 66 41 67 42 68 50 69 43 70 44 71 48 72 51 73 45 74 46 75
REMARK SMILES IDX 49 76 47 77 73 78 74 79 82 80 75 81 76 82 80 83 83 84 77 85
REMARK SMILES IDX 78 86 81 87 79 88 58 89 59 90 67 91 60 92 61 93 65 94 68 95
REMARK SMILES IDX 62 96 63 97 66 98 64 99
REMARK H PARENT 12 18 88 52 56 63
REMARK Flexibility Score: inf
ROOT
ATOM      1  C   UNL A   1      31.216  27.598  23.909  1.00  0.00     0.188 C 
ENDROOT
BRANCH   1   2
ATOM      2  O   UNL A   1      30.893  26.709  24.976  1.00  0.00    -0.376 OA
BRANCH   2   3
ATOM      3  C   UNL A   1      30.029  25.562  24.698  1.00  0.00     0.202 C 
BRANCH   3   4
ATOM      4  C   UNL A   1      30.302  24.438  23.525  1.00  0.00     0.261 C 
BRANCH   4   5
ATOM      5  O   UNL A   1      31.816  23.678  22.995  1.00  0.00    -0.460 OA
BRANCH   5   6
ATOM      6  C   UNL A   1      33.306  23.635  22.969  1.00  0.00     0.338 C 
ATOM      7  O   UNL A   1      33.942  23.737  21.911  1.00  0.00    -0.246 OA
BRANCH   6   8
ATOM      8  C   UNL A   1      34.504  23.528  23.945  1.00  0.00     0.060 A 
ATOM      9  C   UNL A   1      36.897  23.305  25.507  1.00  0.00    -0.029 A 
ATOM     10  C   UNL A   1      36.872  22.948  24.151  1.00  0.00     0.006 A 
ATOM     11  C   UNL A   1      35.680  23.605  26.115  1.00  0.00     0.006 A 
ATOM     12  C   UNL A   1      35.704  23.055  23.395  1.00  0.00     0.016 A 
ATOM     13  C   UNL A   1      34.492  23.643  25.351  1.00  0.00     0.016 A 
BRANCH   9  14
ATOM     14  C   UNL A   1      38.226  23.165  26.203  1.00  0.00     0.152 C 
BRANCH  14  15
ATOM     15  N   UNL A   1      38.569  24.074  27.259  1.00  0.00    -0.348 N 
ATOM     16  C   UNL A   1      39.779  24.656  27.561  1.00  0.00     0.255 C 
ATOM     17  O   UNL A   1      39.785  25.304  28.616  1.00  0.00    -0.269 OA
ATOM     18  H   UNL A   1      37.826  24.315  27.859  1.00  0.00     0.164 HD
BRANCH  16  19
ATOM     19  C   UNL A   1      41.046  24.637  26.728  1.00  0.00     0.082 A 
ATOM     20  C   UNL A   1      41.924  23.577  26.418  1.00  0.00     0.134 A 
ATOM     21  C   UNL A   1      42.987  23.748  25.492  1.00  0.00    -0.008 A 
ATOM     22  C   UNL A   1      43.842  22.597  25.031  1.00  0.00     0.048 C 
ATOM     23  C   UNL A   1      43.278  25.025  25.001  1.00  0.00     0.007 A 
ATOM     24  C   UNL A   1      41.379  25.904  26.189  1.00  0.00     0.018 A 
ATOM     25  C   UNL A   1      42.486  26.103  25.360  1.00  0.00     0.001 A 
BRANCH  20  26
ATOM     26  O   UNL A   1      41.788  22.323  26.948  1.00  0.00    -0.496 OA
ATOM     27  C   UNL A   1      41.929  22.337  28.372  1.00  0.00     0.278 C 
ENDBRANCH  20  26
ENDBRANCH  16  19
ENDBRANCH  14  15
ENDBRANCH   9  14
ENDBRANCH   6   8
ENDBRANCH   5   6
ENDBRANCH   4   5
ENDBRANCH   3   4
ENDBRANCH   2   3
ENDBRANCH   1   2
BRANCH   1  28
ATOM     28  C   UNL A   1      32.192  28.756  24.273  1.00  0.00     0.188 C 
BRANCH  28  29
ATOM     29  O   UNL A   1      31.468  29.716  25.067  1.00  0.00    -0.376 OA
BRANCH  29  30
ATOM     30  C   UNL A   1      31.865  29.850  26.440  1.00  0.00     0.202 C 
BRANCH  30  31
ATOM     31  C   UNL A   1      32.895  30.964  26.718  1.00  0.00     0.261 C 
BRANCH  31  32
ATOM     32  O   UNL A   1      33.617  30.688  27.936  1.00  0.00    -0.460 OA
BRANCH  32  33
ATOM     33  C   UNL A   1      34.924  30.347  27.749  1.00  0.00     0.338 C 
ATOM     34  O   UNL A   1      35.319  29.456  27.028  1.00  0.00    -0.246 OA
BRANCH  33  35
ATOM     35  C   UNL A   1      35.755  31.059  28.757  1.00  0.00     0.060 A 
ATOM     36  C   UNL A   1      36.613  32.084  28.344  1.00  0.00     0.016 A 
ATOM     37  C   UNL A   1      35.900  30.500  30.020  1.00  0.00     0.016 A 
ATOM     38  C   UNL A   1      37.737  32.391  29.117  1.00  0.00     0.010 A 
ATOM     39  C   UNL A   1      37.073  30.721  30.712  1.00  0.00     0.010 A 
ATOM     40  C   UNL A   1      38.052  31.597  30.228  1.00  0.00    -0.014 A 
BRANCH  40  41
ATOM     41  C   UNL A   1      39.449  31.330  30.703  1.00  0.00     0.031 A 
ATOM     42  C   UNL A   1      40.237  30.063  29.849  1.00  0.00     0.074 A 
ATOM     43  C   UNL A   1      39.897  32.300  31.650  1.00  0.00     0.049 A 
ATOM     44  N   UNL A   1      41.255  29.382  30.331  1.00  0.00    -0.248 NA
ATOM     45  C   UNL A   1      39.949  29.427  28.554  1.00  0.00     0.031 C 
ATOM     46  C   UNL A   1      41.207  32.904  31.963  1.00  0.00     0.029 A 
ATOM     47  N   UNL A   1      39.183  32.972  32.703  1.00  0.00    -0.354 N 
ATOM     48  C   UNL A   1      41.896  28.510  29.516  1.00  0.00     0.074 A 
ATOM     49  C   UNL A   1      40.975  28.546  28.385  1.00  0.00     0.031 C 
ATOM     50  C   UNL A   1      41.305  33.722  32.992  1.00  0.00     0.029 A 
ATOM     51  C   UNL A   1      40.127  33.466  33.681  1.00  0.00     0.049 A 
ATOM     52  H   UNL A   1      38.206  33.079  32.751  1.00  0.00     0.167 HD
ATOM     53  C   UNL A   1      43.114  27.955  29.914  1.00  0.00     0.037 A 
ATOM     54  C   UNL A   1      40.267  33.090  34.980  1.00  0.00     0.037 A 
ATOM     55  C   UNL A   1      43.776  28.515  31.188  1.00  0.00     0.049 A 
ATOM     56  C   UNL A   1      41.480  32.199  35.425  1.00  0.00     0.074 A 
ATOM     57  C   UNL A   1      44.897  29.340  31.355  1.00  0.00     0.029 A 
ATOM     58  N   UNL A   1      43.339  28.333  32.519  1.00  0.00    -0.354 N 
ATOM     59  N   UNL A   1      42.496  31.726  34.707  1.00  0.00    -0.248 NA
ATOM     60  C   UNL A   1      41.548  31.724  36.809  1.00  0.00     0.031 C 
ATOM     61  C   UNL A   1      44.949  29.856  32.686  1.00  0.00     0.029 A 
ATOM     62  C   UNL A   1      43.934  29.278  33.420  1.00  0.00     0.049 A 
ATOM     63  H   UNL A   1      42.699  27.638  32.797  1.00  0.00     0.167 HD
ATOM     64  C   UNL A   1      43.021  30.599  35.396  1.00  0.00     0.074 A 
ATOM     65  C   UNL A   1      42.553  30.837  36.759  1.00  0.00     0.031 C 
ATOM     66  C   UNL A   1      43.533  29.403  34.861  1.00  0.00     0.037 A 
BRANCH  53  67
ATOM     67  C   UNL A   1      43.955  27.064  28.979  1.00  0.00     0.064 A 
ATOM     68  C   UNL A   1      44.028  25.654  29.142  1.00  0.00     0.173 A 
ATOM     69  C   UNL A   1      44.717  27.543  27.898  1.00  0.00     0.173 A 
ATOM     70  F   UNL A   1      43.237  24.996  29.996  1.00  0.00    -0.203 F 
ATOM     71  C   UNL A   1      44.898  24.840  28.409  1.00  0.00     0.198 A 
ATOM     72  C   UNL A   1      45.610  26.734  27.178  1.00  0.00     0.198 A 
ATOM     73  F   UNL A   1      44.570  28.794  27.450  1.00  0.00    -0.203 F 
ATOM     74  F   UNL A   1      44.931  23.520  28.644  1.00  0.00    -0.200 F 
ATOM     75  C   UNL A   1      45.718  25.386  27.449  1.00  0.00     0.200 A 
ATOM     76  F   UNL A   1      46.359  27.275  26.207  1.00  0.00    -0.200 F 
ATOM     77  F   UNL A   1      46.571  24.614  26.762  1.00  0.00    -0.200 F 
ENDBRANCH  53  67
BRANCH  54  78
ATOM     78  C   UNL A   1      39.014  33.527  35.665  1.00  0.00     0.064 A 
ATOM     79  C   UNL A   1      38.204  32.427  36.070  1.00  0.00     0.173 A 
ATOM     80  C   UNL A   1      39.142  34.592  36.562  1.00  0.00     0.173 A 
ATOM     81  F   UNL A   1      38.042  31.381  35.241  1.00  0.00    -0.203 F 
ATOM     82  C   UNL A   1      37.876  32.251  37.414  1.00  0.00     0.198 A 
ATOM     83  C   UNL A   1      38.784  34.421  37.900  1.00  0.00     0.198 A 
ATOM     84  F   UNL A   1      39.830  35.683  36.204  1.00  0.00    -0.203 F 
ATOM     85  F   UNL A   1      37.397  31.071  37.837  1.00  0.00    -0.200 F 
ATOM     86  C   UNL A   1      38.217  33.227  38.336  1.00  0.00     0.200 A 
ATOM     87  F   UNL A   1      39.132  35.351  38.801  1.00  0.00    -0.200 F 
ATOM     88  F   UNL A   1      38.082  32.986  39.647  1.00  0.00    -0.200 F 
ENDBRANCH  54  78
BRANCH  66  89
ATOM     89  C   UNL A   1      43.621  28.105  35.688  1.00  0.00     0.064 A 
ATOM     90  C   UNL A   1      42.519  27.414  36.235  1.00  0.00     0.173 A 
ATOM     91  C   UNL A   1      44.861  27.430  35.822  1.00  0.00     0.173 A 
ATOM     92  F   UNL A   1      41.259  27.819  36.032  1.00  0.00    -0.203 F 
ATOM     93  C   UNL A   1      42.661  26.232  36.973  1.00  0.00     0.198 A 
ATOM     94  C   UNL A   1      44.986  26.203  36.484  1.00  0.00     0.198 A 
ATOM     95  F   UNL A   1      45.985  27.927  35.287  1.00  0.00    -0.203 F 
ATOM     96  F   UNL A   1      41.587  25.672  37.548  1.00  0.00    -0.200 F 
ATOM     97  C   UNL A   1      43.894  25.623  37.092  1.00  0.00     0.200 A 
ATOM     98  F   UNL A   1      46.172  25.579  36.514  1.00  0.00    -0.200 F 
ATOM     99  F   UNL A   1      44.020  24.469  37.762  1.00  0.00    -0.200 F 
ENDBRANCH  66  89
ENDBRANCH  40  41
ENDBRANCH  33  35
ENDBRANCH  32  33
ENDBRANCH  31  32
ENDBRANCH  30  31
ENDBRANCH  29  30
ENDBRANCH  28  29
ENDBRANCH   1  28
TORSDOF 21
ENDMDL
