MODEL 1
REMARK VINA RESULT:     -10.6      0.000      0.000
REMARK SMILES C[C@H](C(=O)OCCOCCOCCOC(=O)c1ccc(-c2c3nc(c(-c4c(F)c(F)c(F)c(F)c4F)c4ccc([nH]4)c(-c4c(F)c(F)c(F)c(F)c4F)c4nc(c(-c5c(F)c(F)c(F)c(F)c5F)c5ccc2[nH]5)C=C4)C=C3)cc1)[C@@H](C)[NH2+]Cc1ccc(F)c(F)c1
REMARK SMILES IDX 9 1 8 2 7 3 6 4 5 5 3 6 4 7 2 8 1 9 80 10 81 11 82 12 83 15
REMARK SMILES IDX 84 16 85 17 91 18 86 19 89 20 87 21 90 22 88 23 10 24 11 25
REMARK SMILES IDX 12 26 13 27 14 28 15 29 16 30 17 31 18 32 79 33 19 34 78 35
REMARK SMILES IDX 20 36 21 37 22 38 72 39 23 40 77 41 71 42 73 43 24 44 76 45
REMARK SMILES IDX 70 46 69 47 25 49 57 50 37 51 56 52 38 53 41 54 55 55 74 56
REMARK SMILES IDX 39 57 40 58 54 60 75 61 42 62 26 63 27 64 35 65 28 66 29 67
REMARK SMILES IDX 33 68 36 69 30 70 31 71 34 72 32 73 58 74 59 75 67 76 60 77
REMARK SMILES IDX 61 78 65 79 68 80 62 81 63 82 66 83 64 84 43 85 44 86 52 87
REMARK SMILES IDX 45 88 46 89 50 90 53 91 47 92 48 93 51 94 49 95
REMARK H PARENT 82 13 82 14 73 48 41 59
REMARK Flexibility Score: inf
ROOT
ATOM      1  C   UNL A   1      39.628  21.666  26.292  1.00  0.00     0.188 C 
ENDROOT
BRANCH   1   2
ATOM      2  O   UNL A   1      38.348  21.426  25.726  1.00  0.00    -0.376 OA
BRANCH   2   3
ATOM      3  C   UNL A   1      37.567  22.537  25.307  1.00  0.00     0.202 C 
BRANCH   3   4
ATOM      4  C   UNL A   1      36.058  22.356  25.100  1.00  0.00     0.261 C 
BRANCH   4   5
ATOM      5  O   UNL A   1      35.630  22.529  23.739  1.00  0.00    -0.463 OA
BRANCH   5   6
ATOM      6  C   UNL A   1      34.653  23.446  23.495  1.00  0.00     0.314 C 
ATOM      7  O   UNL A   1      34.328  23.835  22.380  1.00  0.00    -0.252 OA
BRANCH   6   8
ATOM      8  C   UNL A   1      33.956  23.927  24.771  1.00  0.00     0.154 C 
ATOM      9  C   UNL A   1      33.961  25.460  24.794  1.00  0.00     0.026 C 
BRANCH   8  10
ATOM     10  C   UNL A   1      32.559  23.286  25.019  1.00  0.00     0.193 C 
ATOM     11  C   UNL A   1      31.480  24.230  24.459  1.00  0.00     0.076 C 
BRANCH  10  12
ATOM     12  N   UNL A   1      32.540  21.932  24.411  1.00  0.00    -0.340 N 
ATOM     13  H   UNL A   1      33.466  21.763  24.017  1.00  0.00     0.346 HD
ATOM     14  H   UNL A   1      31.776  21.963  23.738  1.00  0.00     0.346 HD
BRANCH  12  15
ATOM     15  C   UNL A   1      32.220  20.793  25.285  1.00  0.00     0.297 C 
BRANCH  15  16
ATOM     16  C   UNL A   1      32.579  19.459  24.669  1.00  0.00     0.009 A 
ATOM     17  C   UNL A   1      33.640  18.699  25.200  1.00  0.00     0.013 A 
ATOM     18  C   UNL A   1      32.010  19.083  23.441  1.00  0.00     0.052 A 
ATOM     19  C   UNL A   1      34.240  17.702  24.429  1.00  0.00     0.043 A 
ATOM     20  C   UNL A   1      32.615  18.085  22.684  1.00  0.00     0.159 A 
ATOM     21  C   UNL A   1      33.745  17.428  23.158  1.00  0.00     0.158 A 
ATOM     22  F   UNL A   1      32.162  17.838  21.447  1.00  0.00    -0.204 F 
ATOM     23  F   UNL A   1      34.400  16.562  22.374  1.00  0.00    -0.204 F 
ENDBRANCH  15  16
ENDBRANCH  12  15
ENDBRANCH  10  12
ENDBRANCH   8  10
ENDBRANCH   6   8
ENDBRANCH   5   6
ENDBRANCH   4   5
ENDBRANCH   3   4
ENDBRANCH   2   3
ENDBRANCH   1   2
BRANCH   1  24
ATOM     24  C   UNL A   1      40.625  20.497  26.450  1.00  0.00     0.188 C 
BRANCH  24  25
ATOM     25  O   UNL A   1      41.725  20.705  27.297  1.00  0.00    -0.376 OA
BRANCH  25  26
ATOM     26  C   UNL A   1      42.996  21.000  26.749  1.00  0.00     0.202 C 
BRANCH  26  27
ATOM     27  C   UNL A   1      43.262  21.628  25.362  1.00  0.00     0.261 C 
BRANCH  27  28
ATOM     28  O   UNL A   1      42.653  22.884  25.042  1.00  0.00    -0.460 OA
BRANCH  28  29
ATOM     29  C   UNL A   1      43.448  23.979  25.126  1.00  0.00     0.338 C 
ATOM     30  O   UNL A   1      44.427  24.236  24.438  1.00  0.00    -0.246 OA
BRANCH  29  31
ATOM     31  C   UNL A   1      42.832  24.949  26.055  1.00  0.00     0.060 A 
ATOM     32  C   UNL A   1      43.323  26.264  26.090  1.00  0.00     0.016 A 
ATOM     33  C   UNL A   1      41.783  24.567  26.890  1.00  0.00     0.016 A 
ATOM     34  C   UNL A   1      42.778  27.194  26.980  1.00  0.00     0.010 A 
ATOM     35  C   UNL A   1      41.256  25.492  27.798  1.00  0.00     0.010 A 
ATOM     36  C   UNL A   1      41.769  26.801  27.868  1.00  0.00    -0.014 A 
BRANCH  36  37
ATOM     37  C   UNL A   1      41.378  27.690  28.994  1.00  0.00     0.031 A 
ATOM     38  C   UNL A   1      42.162  27.606  30.276  1.00  0.00     0.074 A 
ATOM     39  C   UNL A   1      40.355  28.555  28.892  1.00  0.00     0.049 A 
ATOM     40  N   UNL A   1      41.956  28.203  31.423  1.00  0.00    -0.248 NA
ATOM     41  C   UNL A   1      43.339  26.723  30.260  1.00  0.00     0.031 C 
ATOM     42  C   UNL A   1      39.548  28.773  27.695  1.00  0.00     0.029 A 
ATOM     43  N   UNL A   1      39.810  29.404  29.826  1.00  0.00    -0.354 N 
ATOM     44  C   UNL A   1      42.969  27.761  32.264  1.00  0.00     0.074 A 
ATOM     45  C   UNL A   1      43.770  26.823  31.508  1.00  0.00     0.031 C 
ATOM     46  C   UNL A   1      38.595  29.681  27.973  1.00  0.00     0.029 A 
ATOM     47  C   UNL A   1      38.701  30.078  29.377  1.00  0.00     0.049 A 
ATOM     48  H   UNL A   1      40.181  29.517  30.732  1.00  0.00     0.167 HD
ATOM     49  C   UNL A   1      43.214  28.110  33.550  1.00  0.00     0.037 A 
ATOM     50  C   UNL A   1      37.851  30.893  30.035  1.00  0.00     0.037 A 
ATOM     51  C   UNL A   1      42.411  29.035  34.307  1.00  0.00     0.049 A 
ATOM     52  C   UNL A   1      38.091  31.197  31.495  1.00  0.00     0.074 A 
ATOM     53  C   UNL A   1      42.581  29.455  35.614  1.00  0.00     0.029 A 
ATOM     54  N   UNL A   1      41.278  29.674  33.826  1.00  0.00    -0.354 N 
ATOM     55  N   UNL A   1      39.057  30.788  32.281  1.00  0.00    -0.248 NA
ATOM     56  C   UNL A   1      37.118  32.080  32.158  1.00  0.00     0.031 C 
ATOM     57  C   UNL A   1      41.516  30.300  35.944  1.00  0.00     0.029 A 
ATOM     58  C   UNL A   1      40.722  30.463  34.820  1.00  0.00     0.049 A 
ATOM     59  H   UNL A   1      40.921  29.581  32.912  1.00  0.00     0.167 HD
ATOM     60  C   UNL A   1      38.830  31.388  33.515  1.00  0.00     0.074 A 
ATOM     61  C   UNL A   1      37.640  32.199  33.370  1.00  0.00     0.031 C 
ATOM     62  C   UNL A   1      39.542  31.277  34.663  1.00  0.00     0.037 A 
BRANCH  49  63
ATOM     63  C   UNL A   1      44.384  27.459  34.231  1.00  0.00     0.064 A 
ATOM     64  C   UNL A   1      44.264  26.224  34.889  1.00  0.00     0.173 A 
ATOM     65  C   UNL A   1      45.647  28.069  34.209  1.00  0.00     0.173 A 
ATOM     66  F   UNL A   1      43.076  25.605  34.953  1.00  0.00    -0.203 F 
ATOM     67  C   UNL A   1      45.359  25.642  35.525  1.00  0.00     0.198 A 
ATOM     68  C   UNL A   1      46.747  27.467  34.815  1.00  0.00     0.198 A 
ATOM     69  F   UNL A   1      45.819  29.247  33.591  1.00  0.00    -0.203 F 
ATOM     70  F   UNL A   1      45.208  24.491  36.194  1.00  0.00    -0.200 F 
ATOM     71  C   UNL A   1      46.599  26.260  35.480  1.00  0.00     0.200 A 
ATOM     72  F   UNL A   1      47.948  28.059  34.759  1.00  0.00    -0.200 F 
ATOM     73  F   UNL A   1      47.652  25.696  36.087  1.00  0.00    -0.200 F 
ENDBRANCH  49  63
BRANCH  50  74
ATOM     74  C   UNL A   1      36.671  31.465  29.330  1.00  0.00     0.064 A 
ATOM     75  C   UNL A   1      35.582  30.660  28.966  1.00  0.00     0.173 A 
ATOM     76  C   UNL A   1      36.624  32.821  28.975  1.00  0.00     0.173 A 
ATOM     77  F   UNL A   1      35.592  29.350  29.252  1.00  0.00    -0.203 F 
ATOM     78  C   UNL A   1      34.503  31.185  28.257  1.00  0.00     0.198 A 
ATOM     79  C   UNL A   1      35.530  33.353  28.296  1.00  0.00     0.198 A 
ATOM     80  F   UNL A   1      37.643  33.634  29.290  1.00  0.00    -0.203 F 
ATOM     81  F   UNL A   1      33.502  30.381  27.872  1.00  0.00    -0.200 F 
ATOM     82  C   UNL A   1      34.474  32.532  27.929  1.00  0.00     0.200 A 
ATOM     83  F   UNL A   1      35.502  34.657  27.989  1.00  0.00    -0.200 F 
ATOM     84  F   UNL A   1      33.436  33.036  27.248  1.00  0.00    -0.200 F 
ENDBRANCH  50  74
BRANCH  62  85
ATOM     85  C   UNL A   1      39.091  32.087  35.848  1.00  0.00     0.064 A 
ATOM     86  C   UNL A   1      38.249  31.554  36.836  1.00  0.00     0.173 A 
ATOM     87  C   UNL A   1      39.545  33.405  36.018  1.00  0.00     0.173 A 
ATOM     88  F   UNL A   1      37.777  30.304  36.718  1.00  0.00    -0.203 F 
ATOM     89  C   UNL A   1      37.859  32.318  37.934  1.00  0.00     0.198 A 
ATOM     90  C   UNL A   1      39.181  34.153  37.134  1.00  0.00     0.198 A 
ATOM     91  F   UNL A   1      40.358  33.963  35.109  1.00  0.00    -0.203 F 
ATOM     92  F   UNL A   1      37.015  31.804  38.839  1.00  0.00    -0.200 F 
ATOM     93  C   UNL A   1      38.332  33.613  38.087  1.00  0.00     0.200 A 
ATOM     94  F   UNL A   1      39.655  35.398  37.289  1.00  0.00    -0.200 F 
ATOM     95  F   UNL A   1      37.963  34.342  39.149  1.00  0.00    -0.200 F 
ENDBRANCH  62  85
ENDBRANCH  36  37
ENDBRANCH  29  31
ENDBRANCH  28  29
ENDBRANCH  27  28
ENDBRANCH  26  27
ENDBRANCH  25  26
ENDBRANCH  24  25
ENDBRANCH   1  24
TORSDOF 21
ENDMDL
MODEL 2
REMARK VINA RESULT:     -10.4      5.274      7.599
REMARK SMILES C[C@H](C(=O)OCCOCCOCCOC(=O)c1ccc(-c2c3nc(c(-c4c(F)c(F)c(F)c(F)c4F)c4ccc([nH]4)c(-c4c(F)c(F)c(F)c(F)c4F)c4nc(c(-c5c(F)c(F)c(F)c(F)c5F)c5ccc2[nH]5)C=C4)C=C3)cc1)[C@@H](C)[NH2+]Cc1ccc(F)c(F)c1
REMARK SMILES IDX 9 1 8 2 7 3 6 4 5 5 3 6 4 7 2 8 1 9 80 10 81 11 82 12 83 15
REMARK SMILES IDX 84 16 85 17 91 18 86 19 89 20 87 21 90 22 88 23 10 24 11 25
REMARK SMILES IDX 12 26 13 27 14 28 15 29 16 30 17 31 18 32 79 33 19 34 78 35
REMARK SMILES IDX 20 36 21 37 22 38 72 39 23 40 77 41 71 42 73 43 24 44 76 45
REMARK SMILES IDX 70 46 69 47 25 49 57 50 37 51 56 52 38 53 41 54 55 55 74 56
REMARK SMILES IDX 39 57 40 58 54 60 75 61 42 62 26 63 27 64 35 65 28 66 29 67
REMARK SMILES IDX 33 68 36 69 30 70 31 71 34 72 32 73 58 74 59 75 67 76 60 77
REMARK SMILES IDX 61 78 65 79 68 80 62 81 63 82 66 83 64 84 43 85 44 86 52 87
REMARK SMILES IDX 45 88 46 89 50 90 53 91 47 92 48 93 51 94 49 95
REMARK H PARENT 82 13 82 14 73 48 41 59
REMARK Flexibility Score: inf
ROOT
ATOM      1  C   UNL A   1      39.899  22.810  27.047  1.00  0.00     0.188 C 
ENDROOT
BRANCH   1   2
ATOM      2  O   UNL A   1      38.795  23.028  26.184  1.00  0.00    -0.376 OA
BRANCH   2   3
ATOM      3  C   UNL A   1      38.217  21.914  25.517  1.00  0.00     0.202 C 
BRANCH   3   4
ATOM      4  C   UNL A   1      36.690  21.802  25.428  1.00  0.00     0.261 C 
BRANCH   4   5
ATOM      5  O   UNL A   1      35.985  22.790  26.198  1.00  0.00    -0.463 OA
BRANCH   5   6
ATOM      6  C   UNL A   1      34.803  22.423  26.766  1.00  0.00     0.314 C 
ATOM      7  O   UNL A   1      34.669  21.492  27.550  1.00  0.00    -0.252 OA
BRANCH   6   8
ATOM      8  C   UNL A   1      33.639  23.330  26.356  1.00  0.00     0.154 C 
ATOM      9  C   UNL A   1      33.941  23.938  24.981  1.00  0.00     0.026 C 
BRANCH   8  10
ATOM     10  C   UNL A   1      32.236  22.663  26.469  1.00  0.00     0.193 C 
ATOM     11  C   UNL A   1      31.229  23.502  25.661  1.00  0.00     0.076 C 
BRANCH  10  12
ATOM     12  N   UNL A   1      32.339  21.255  26.013  1.00  0.00    -0.340 N 
ATOM     13  H   UNL A   1      31.763  20.690  26.638  1.00  0.00     0.346 HD
ATOM     14  H   UNL A   1      33.338  21.051  26.032  1.00  0.00     0.346 HD
BRANCH  12  15
ATOM     15  C   UNL A   1      31.923  20.948  24.636  1.00  0.00     0.297 C 
BRANCH  15  16
ATOM     16  C   UNL A   1      32.728  19.830  24.012  1.00  0.00     0.009 A 
ATOM     17  C   UNL A   1      32.168  19.043  22.988  1.00  0.00     0.013 A 
ATOM     18  C   UNL A   1      33.940  19.433  24.601  1.00  0.00     0.052 A 
ATOM     19  C   UNL A   1      32.710  17.791  22.692  1.00  0.00     0.043 A 
ATOM     20  C   UNL A   1      34.471  18.184  24.296  1.00  0.00     0.159 A 
ATOM     21  C   UNL A   1      33.838  17.354  23.378  1.00  0.00     0.158 A 
ATOM     22  F   UNL A   1      35.541  17.746  24.974  1.00  0.00    -0.204 F 
ATOM     23  F   UNL A   1      34.278  16.104  23.183  1.00  0.00    -0.204 F 
ENDBRANCH  15  16
ENDBRANCH  12  15
ENDBRANCH  10  12
ENDBRANCH   8  10
ENDBRANCH   6   8
ENDBRANCH   5   6
ENDBRANCH   4   5
ENDBRANCH   3   4
ENDBRANCH   2   3
ENDBRANCH   1   2
BRANCH   1  24
ATOM     24  C   UNL A   1      40.989  21.789  26.652  1.00  0.00     0.188 C 
BRANCH  24  25
ATOM     25  O   UNL A   1      40.897  20.506  27.214  1.00  0.00    -0.376 OA
BRANCH  25  26
ATOM     26  C   UNL A   1      42.030  19.658  27.236  1.00  0.00     0.202 C 
BRANCH  26  27
ATOM     27  C   UNL A   1      42.529  18.782  26.065  1.00  0.00     0.261 C 
BRANCH  27  28
ATOM     28  O   UNL A   1      42.918  19.417  24.841  1.00  0.00    -0.460 OA
BRANCH  28  29
ATOM     29  C   UNL A   1      44.249  19.562  24.634  1.00  0.00     0.338 C 
ATOM     30  O   UNL A   1      45.013  18.748  24.135  1.00  0.00    -0.246 OA
BRANCH  29  31
ATOM     31  C   UNL A   1      44.628  20.963  24.914  1.00  0.00     0.060 A 
ATOM     32  C   UNL A   1      45.237  21.272  26.141  1.00  0.00     0.016 A 
ATOM     33  C   UNL A   1      44.380  21.968  23.979  1.00  0.00     0.016 A 
ATOM     34  C   UNL A   1      45.579  22.592  26.443  1.00  0.00     0.010 A 
ATOM     35  C   UNL A   1      44.699  23.293  24.295  1.00  0.00     0.010 A 
ATOM     36  C   UNL A   1      45.274  23.617  25.539  1.00  0.00    -0.014 A 
BRANCH  36  37
ATOM     37  C   UNL A   1      45.377  25.039  25.958  1.00  0.00     0.031 A 
ATOM     38  C   UNL A   1      46.718  25.716  25.867  1.00  0.00     0.074 A 
ATOM     39  C   UNL A   1      44.312  25.725  26.409  1.00  0.00     0.049 A 
ATOM     40  N   UNL A   1      47.080  26.911  26.260  1.00  0.00    -0.248 NA
ATOM     41  C   UNL A   1      47.799  24.932  25.250  1.00  0.00     0.031 C 
ATOM     42  C   UNL A   1      42.949  25.207  26.499  1.00  0.00     0.029 A 
ATOM     43  N   UNL A   1      44.219  27.007  26.893  1.00  0.00    -0.354 N 
ATOM     44  C   UNL A   1      48.429  27.017  25.947  1.00  0.00     0.074 A 
ATOM     45  C   UNL A   1      48.829  25.756  25.361  1.00  0.00     0.031 C 
ATOM     46  C   UNL A   1      42.158  26.158  27.029  1.00  0.00     0.029 A 
ATOM     47  C   UNL A   1      42.966  27.334  27.351  1.00  0.00     0.049 A 
ATOM     48  H   UNL A   1      44.979  27.633  26.910  1.00  0.00     0.167 HD
ATOM     49  C   UNL A   1      49.259  28.072  26.126  1.00  0.00     0.037 A 
ATOM     50  C   UNL A   1      42.532  28.441  27.987  1.00  0.00     0.037 A 
ATOM     51  C   UNL A   1      48.865  29.323  26.720  1.00  0.00     0.049 A 
ATOM     52  C   UNL A   1      43.496  29.571  28.258  1.00  0.00     0.074 A 
ATOM     53  C   UNL A   1      49.632  30.453  26.941  1.00  0.00     0.029 A 
ATOM     54  N   UNL A   1      47.593  29.604  27.198  1.00  0.00    -0.354 N 
ATOM     55  N   UNL A   1      44.766  29.672  27.948  1.00  0.00    -0.248 NA
ATOM     56  C   UNL A   1      42.963  30.743  28.970  1.00  0.00     0.031 C 
ATOM     57  C   UNL A   1      48.843  31.395  27.608  1.00  0.00     0.029 A 
ATOM     58  C   UNL A   1      47.563  30.880  27.739  1.00  0.00     0.049 A 
ATOM     59  H   UNL A   1      46.826  28.988  27.159  1.00  0.00     0.167 HD
ATOM     60  C   UNL A   1      45.174  30.925  28.393  1.00  0.00     0.074 A 
ATOM     61  C   UNL A   1      44.012  31.553  28.984  1.00  0.00     0.031 C 
ATOM     62  C   UNL A   1      46.398  31.502  28.317  1.00  0.00     0.037 A 
BRANCH  49  63
ATOM     63  C   UNL A   1      50.691  27.905  25.704  1.00  0.00     0.064 A 
ATOM     64  C   UNL A   1      51.704  27.599  26.626  1.00  0.00     0.173 A 
ATOM     65  C   UNL A   1      51.051  28.031  24.353  1.00  0.00     0.173 A 
ATOM     66  F   UNL A   1      51.417  27.481  27.931  1.00  0.00    -0.203 F 
ATOM     67  C   UNL A   1      53.028  27.458  26.216  1.00  0.00     0.198 A 
ATOM     68  C   UNL A   1      52.370  27.855  23.942  1.00  0.00     0.198 A 
ATOM     69  F   UNL A   1      50.122  28.318  23.429  1.00  0.00    -0.203 F 
ATOM     70  F   UNL A   1      53.987  27.222  27.122  1.00  0.00    -0.200 F 
ATOM     71  C   UNL A   1      53.358  27.579  24.874  1.00  0.00     0.200 A 
ATOM     72  F   UNL A   1      52.684  27.957  22.643  1.00  0.00    -0.200 F 
ATOM     73  F   UNL A   1      54.630  27.437  24.480  1.00  0.00    -0.200 F 
ENDBRANCH  49  63
BRANCH  50  74
ATOM     74  C   UNL A   1      41.116  28.534  28.439  1.00  0.00     0.064 A 
ATOM     75  C   UNL A   1      40.734  28.104  29.719  1.00  0.00     0.173 A 
ATOM     76  C   UNL A   1      40.112  29.021  27.591  1.00  0.00     0.173 A 
ATOM     77  F   UNL A   1      41.650  27.599  30.558  1.00  0.00    -0.203 F 
ATOM     78  C   UNL A   1      39.400  28.140  30.122  1.00  0.00     0.198 A 
ATOM     79  C   UNL A   1      38.784  29.088  28.006  1.00  0.00     0.198 A 
ATOM     80  F   UNL A   1      40.421  29.436  26.353  1.00  0.00    -0.203 F 
ATOM     81  F   UNL A   1      39.054  27.670  31.329  1.00  0.00    -0.200 F 
ATOM     82  C   UNL A   1      38.427  28.638  29.269  1.00  0.00     0.200 A 
ATOM     83  F   UNL A   1      37.848  29.578  27.182  1.00  0.00    -0.200 F 
ATOM     84  F   UNL A   1      37.145  28.673  29.657  1.00  0.00    -0.200 F 
ENDBRANCH  50  74
BRANCH  62  85
ATOM     85  C   UNL A   1      46.543  32.905  28.841  1.00  0.00     0.064 A 
ATOM     86  C   UNL A   1      46.933  33.167  30.163  1.00  0.00     0.173 A 
ATOM     87  C   UNL A   1      46.332  34.003  27.991  1.00  0.00     0.173 A 
ATOM     88  F   UNL A   1      47.137  32.156  31.021  1.00  0.00    -0.203 F 
ATOM     89  C   UNL A   1      47.079  34.475  30.621  1.00  0.00     0.198 A 
ATOM     90  C   UNL A   1      46.513  35.307  28.443  1.00  0.00     0.198 A 
ATOM     91  F   UNL A   1      45.967  33.811  26.716  1.00  0.00    -0.203 F 
ATOM     92  F   UNL A   1      47.403  34.703  31.902  1.00  0.00    -0.200 F 
ATOM     93  C   UNL A   1      46.878  35.543  29.760  1.00  0.00     0.200 A 
ATOM     94  F   UNL A   1      46.336  36.337  27.603  1.00  0.00    -0.200 F 
ATOM     95  F   UNL A   1      47.029  36.800  30.200  1.00  0.00    -0.200 F 
ENDBRANCH  62  85
ENDBRANCH  36  37
ENDBRANCH  29  31
ENDBRANCH  28  29
ENDBRANCH  27  28
ENDBRANCH  26  27
ENDBRANCH  25  26
ENDBRANCH  24  25
ENDBRANCH   1  24
TORSDOF 21
ENDMDL
MODEL 3
REMARK VINA RESULT:      -9.8      5.380      8.152
REMARK SMILES C[C@H](C(=O)OCCOCCOCCOC(=O)c1ccc(-c2c3nc(c(-c4c(F)c(F)c(F)c(F)c4F)c4ccc([nH]4)c(-c4c(F)c(F)c(F)c(F)c4F)c4nc(c(-c5c(F)c(F)c(F)c(F)c5F)c5ccc2[nH]5)C=C4)C=C3)cc1)[C@@H](C)[NH2+]Cc1ccc(F)c(F)c1
REMARK SMILES IDX 9 1 8 2 7 3 6 4 5 5 3 6 4 7 2 8 1 9 80 10 81 11 82 12 83 15
REMARK SMILES IDX 84 16 85 17 91 18 86 19 89 20 87 21 90 22 88 23 10 24 11 25
REMARK SMILES IDX 12 26 13 27 14 28 15 29 16 30 17 31 18 32 79 33 19 34 78 35
REMARK SMILES IDX 20 36 21 37 22 38 72 39 23 40 77 41 71 42 73 43 24 44 76 45
REMARK SMILES IDX 70 46 69 47 25 49 57 50 37 51 56 52 38 53 41 54 55 55 74 56
REMARK SMILES IDX 39 57 40 58 54 60 75 61 42 62 26 63 27 64 35 65 28 66 29 67
REMARK SMILES IDX 33 68 36 69 30 70 31 71 34 72 32 73 58 74 59 75 67 76 60 77
REMARK SMILES IDX 61 78 65 79 68 80 62 81 63 82 66 83 64 84 43 85 44 86 52 87
REMARK SMILES IDX 45 88 46 89 50 90 53 91 47 92 48 93 51 94 49 95
REMARK H PARENT 82 13 82 14 73 48 41 59
REMARK Flexibility Score: inf
ROOT
ATOM      1  C   UNL A   1      39.564  22.708  26.823  1.00  0.00     0.188 C 
ENDROOT
BRANCH   1   2
ATOM      2  O   UNL A   1      38.548  22.789  25.835  1.00  0.00    -0.376 OA
BRANCH   2   3
ATOM      3  C   UNL A   1      37.893  21.595  25.429  1.00  0.00     0.202 C 
BRANCH   3   4
ATOM      4  C   UNL A   1      36.633  21.691  24.560  1.00  0.00     0.261 C 
BRANCH   4   5
ATOM      5  O   UNL A   1      36.311  23.027  24.140  1.00  0.00    -0.463 OA
BRANCH   5   6
ATOM      6  C   UNL A   1      35.101  23.230  23.550  1.00  0.00     0.314 C 
ATOM      7  O   UNL A   1      34.920  23.295  22.341  1.00  0.00    -0.252 OA
BRANCH   6   8
ATOM      8  C   UNL A   1      33.954  23.330  24.561  1.00  0.00     0.154 C 
ATOM      9  C   UNL A   1      34.093  24.642  25.343  1.00  0.00     0.026 C 
BRANCH   8  10
ATOM     10  C   UNL A   1      32.541  23.090  23.954  1.00  0.00     0.193 C 
ATOM     11  C   UNL A   1      31.522  23.007  25.105  1.00  0.00     0.076 C 
BRANCH  10  12
ATOM     12  N   UNL A   1      32.251  24.169  22.978  1.00  0.00    -0.340 N 
ATOM     13  H   UNL A   1      32.265  23.750  22.048  1.00  0.00     0.346 HD
ATOM     14  H   UNL A   1      32.967  24.873  23.153  1.00  0.00     0.346 HD
BRANCH  12  15
ATOM     15  C   UNL A   1      30.978  24.893  23.115  1.00  0.00     0.297 C 
BRANCH  15  16
ATOM     16  C   UNL A   1      31.165  26.363  23.413  1.00  0.00     0.009 A 
ATOM     17  C   UNL A   1      31.292  26.802  24.746  1.00  0.00     0.013 A 
ATOM     18  C   UNL A   1      30.989  27.309  22.390  1.00  0.00     0.052 A 
ATOM     19  C   UNL A   1      31.058  28.141  25.066  1.00  0.00     0.043 A 
ATOM     20  C   UNL A   1      30.761  28.641  22.723  1.00  0.00     0.159 A 
ATOM     21  C   UNL A   1      30.756  29.044  24.053  1.00  0.00     0.158 A 
ATOM     22  F   UNL A   1      30.439  29.509  21.754  1.00  0.00    -0.204 F 
ATOM     23  F   UNL A   1      30.408  30.297  24.376  1.00  0.00    -0.204 F 
ENDBRANCH  15  16
ENDBRANCH  12  15
ENDBRANCH  10  12
ENDBRANCH   8  10
ENDBRANCH   6   8
ENDBRANCH   5   6
ENDBRANCH   4   5
ENDBRANCH   3   4
ENDBRANCH   2   3
ENDBRANCH   1   2
BRANCH   1  24
ATOM     24  C   UNL A   1      40.810  21.832  26.569  1.00  0.00     0.188 C 
BRANCH  24  25
ATOM     25  O   UNL A   1      40.810  20.543  27.126  1.00  0.00    -0.376 OA
BRANCH  25  26
ATOM     26  C   UNL A   1      42.010  19.794  27.181  1.00  0.00     0.202 C 
BRANCH  26  27
ATOM     27  C   UNL A   1      42.545  18.856  26.076  1.00  0.00     0.261 C 
BRANCH  27  28
ATOM     28  O   UNL A   1      42.934  19.419  24.818  1.00  0.00    -0.460 OA
BRANCH  28  29
ATOM     29  C   UNL A   1      44.264  19.573  24.610  1.00  0.00     0.338 C 
ATOM     30  O   UNL A   1      45.034  18.762  24.115  1.00  0.00    -0.246 OA
BRANCH  29  31
ATOM     31  C   UNL A   1      44.633  20.978  24.886  1.00  0.00     0.060 A 
ATOM     32  C   UNL A   1      45.335  21.279  26.064  1.00  0.00     0.016 A 
ATOM     33  C   UNL A   1      44.285  21.993  23.995  1.00  0.00     0.016 A 
ATOM     34  C   UNL A   1      45.671  22.601  26.363  1.00  0.00     0.010 A 
ATOM     35  C   UNL A   1      44.599  23.320  24.309  1.00  0.00     0.010 A 
ATOM     36  C   UNL A   1      45.268  23.635  25.508  1.00  0.00    -0.014 A 
BRANCH  36  37
ATOM     37  C   UNL A   1      45.374  25.051  25.945  1.00  0.00     0.031 A 
ATOM     38  C   UNL A   1      46.718  25.724  25.873  1.00  0.00     0.074 A 
ATOM     39  C   UNL A   1      44.308  25.735  26.397  1.00  0.00     0.049 A 
ATOM     40  N   UNL A   1      47.082  26.912  26.283  1.00  0.00    -0.248 NA
ATOM     41  C   UNL A   1      47.801  24.943  25.253  1.00  0.00     0.031 C 
ATOM     42  C   UNL A   1      42.943  25.222  26.471  1.00  0.00     0.029 A 
ATOM     43  N   UNL A   1      44.217  27.012  26.896  1.00  0.00    -0.354 N 
ATOM     44  C   UNL A   1      48.434  27.017  25.980  1.00  0.00     0.074 A 
ATOM     45  C   UNL A   1      48.833  25.761  25.382  1.00  0.00     0.031 C 
ATOM     46  C   UNL A   1      42.152  26.169  27.007  1.00  0.00     0.029 A 
ATOM     47  C   UNL A   1      42.962  27.338  27.349  1.00  0.00     0.049 A 
ATOM     48  H   UNL A   1      44.980  27.635  26.926  1.00  0.00     0.167 HD
ATOM     49  C   UNL A   1      49.267  28.066  26.179  1.00  0.00     0.037 A 
ATOM     50  C   UNL A   1      42.527  28.439  27.996  1.00  0.00     0.037 A 
ATOM     51  C   UNL A   1      48.873  29.312  26.785  1.00  0.00     0.049 A 
ATOM     52  C   UNL A   1      43.494  29.561  28.288  1.00  0.00     0.074 A 
ATOM     53  C   UNL A   1      49.643  30.435  27.025  1.00  0.00     0.029 A 
ATOM     54  N   UNL A   1      47.599  29.592  27.257  1.00  0.00    -0.354 N 
ATOM     55  N   UNL A   1      44.767  29.661  27.988  1.00  0.00    -0.248 NA
ATOM     56  C   UNL A   1      42.961  30.727  29.011  1.00  0.00     0.031 C 
ATOM     57  C   UNL A   1      48.853  31.372  27.699  1.00  0.00     0.029 A 
ATOM     58  C   UNL A   1      47.570  30.860  27.815  1.00  0.00     0.049 A 
ATOM     59  H   UNL A   1      46.829  28.979  27.205  1.00  0.00     0.167 HD
ATOM     60  C   UNL A   1      45.176  30.907  28.452  1.00  0.00     0.074 A 
ATOM     61  C   UNL A   1      44.012  31.533  29.042  1.00  0.00     0.031 C 
ATOM     62  C   UNL A   1      46.403  31.480  28.392  1.00  0.00     0.037 A 
BRANCH  49  63
ATOM     63  C   UNL A   1      50.701  27.898  25.764  1.00  0.00     0.064 A 
ATOM     64  C   UNL A   1      51.702  27.554  26.686  1.00  0.00     0.173 A 
ATOM     65  C   UNL A   1      51.075  28.064  24.422  1.00  0.00     0.173 A 
ATOM     66  F   UNL A   1      51.402  27.399  27.984  1.00  0.00    -0.203 F 
ATOM     67  C   UNL A   1      53.029  27.414  26.284  1.00  0.00     0.198 A 
ATOM     68  C   UNL A   1      52.395  27.887  24.017  1.00  0.00     0.198 A 
ATOM     69  F   UNL A   1      50.157  28.388  23.498  1.00  0.00    -0.203 F 
ATOM     70  F   UNL A   1      53.977  27.140  27.191  1.00  0.00    -0.200 F 
ATOM     71  C   UNL A   1      53.372  27.573  24.950  1.00  0.00     0.200 A 
ATOM     72  F   UNL A   1      52.723  28.027  22.725  1.00  0.00    -0.200 F 
ATOM     73  F   UNL A   1      54.647  27.432  24.563  1.00  0.00    -0.200 F 
ENDBRANCH  49  63
BRANCH  50  74
ATOM     74  C   UNL A   1      41.109  28.531  28.440  1.00  0.00     0.064 A 
ATOM     75  C   UNL A   1      40.714  28.074  29.705  1.00  0.00     0.173 A 
ATOM     76  C   UNL A   1      40.115  29.047  27.595  1.00  0.00     0.173 A 
ATOM     77  F   UNL A   1      41.619  27.542  30.539  1.00  0.00    -0.203 F 
ATOM     78  C   UNL A   1      39.377  28.110  30.099  1.00  0.00     0.198 A 
ATOM     79  C   UNL A   1      38.784  29.114  28.002  1.00  0.00     0.198 A 
ATOM     80  F   UNL A   1      40.437  29.490  26.371  1.00  0.00    -0.203 F 
ATOM     81  F   UNL A   1      39.018  27.614  31.291  1.00  0.00    -0.200 F 
ATOM     82  C   UNL A   1      38.414  28.636  29.250  1.00  0.00     0.200 A 
ATOM     83  F   UNL A   1      37.859  29.631  27.182  1.00  0.00    -0.200 F 
ATOM     84  F   UNL A   1      37.130  28.672  29.629  1.00  0.00    -0.200 F 
ENDBRANCH  50  74
BRANCH  62  85
ATOM     85  C   UNL A   1      46.550  32.876  28.934  1.00  0.00     0.064 A 
ATOM     86  C   UNL A   1      46.932  33.120  30.262  1.00  0.00     0.173 A 
ATOM     87  C   UNL A   1      46.348  33.985  28.097  1.00  0.00     0.173 A 
ATOM     88  F   UNL A   1      47.127  32.098  31.108  1.00  0.00    -0.203 F 
ATOM     89  C   UNL A   1      47.080  34.422  30.737  1.00  0.00     0.198 A 
ATOM     90  C   UNL A   1      46.532  35.283  28.566  1.00  0.00     0.198 A 
ATOM     91  F   UNL A   1      45.991  33.810  26.817  1.00  0.00    -0.203 F 
ATOM     92  F   UNL A   1      47.397  34.632  32.022  1.00  0.00    -0.200 F 
ATOM     93  C   UNL A   1      46.888  35.501  29.888  1.00  0.00     0.200 A 
ATOM     94  F   UNL A   1      46.364  36.323  27.738  1.00  0.00    -0.200 F 
ATOM     95  F   UNL A   1      47.041  36.751  30.344  1.00  0.00    -0.200 F 
ENDBRANCH  62  85
ENDBRANCH  36  37
ENDBRANCH  29  31
ENDBRANCH  28  29
ENDBRANCH  27  28
ENDBRANCH  26  27
ENDBRANCH  25  26
ENDBRANCH  24  25
ENDBRANCH   1  24
TORSDOF 21
ENDMDL
