MODEL 1
REMARK VINA RESULT:     -10.9      0.000      0.000
REMARK SMILES CCCC[C@H](C(=O)OCCOCCOCCOC(=O)c1ccc(-c2c3nc(c(-c4c(F)c(F)c(F)c(F)c4F)c4ccc([nH]4)c(-c4c(F)c(F)c(F)c(F)c4F)c4nc(c(-c5c(F)c(F)c(F)c(F)c5F)c5ccc2[nH]5)C=C4)C=C3)cc1)N1C(=O)/C(=C/c2ccc(C)cc2)SC1=S
REMARK SMILES IDX 12 1 11 2 10 3 9 4 8 5 6 6 7 7 5 8 4 9 3 10 2 11 1 12 83 13
REMARK SMILES IDX 84 14 96 15 85 16 86 17 95 18 97 19 87 20 88 21 89 22 94 23
REMARK SMILES IDX 90 24 93 25 91 26 92 27 13 28 14 29 15 30 16 31 17 32 18 33
REMARK SMILES IDX 19 34 20 35 21 36 82 37 22 38 81 39 23 40 24 41 25 42 75 43
REMARK SMILES IDX 26 44 80 45 74 46 76 47 27 48 79 49 73 50 72 51 28 53 60 54
REMARK SMILES IDX 40 55 59 56 41 57 44 58 58 59 77 60 42 61 43 62 57 64 78 65
REMARK SMILES IDX 45 66 29 67 30 68 38 69 31 70 32 71 36 72 39 73 33 74 34 75
REMARK SMILES IDX 37 76 35 77 61 78 62 79 70 80 63 81 64 82 68 83 71 84 65 85
REMARK SMILES IDX 66 86 69 87 67 88 46 89 47 90 55 91 48 92 49 93 53 94 56 95
REMARK SMILES IDX 50 96 51 97 54 98 52 99
REMARK H PARENT 76 52 44 63
REMARK Flexibility Score: inf
ROOT
ATOM      1  C   UNL A   1      32.972  28.152  26.619  1.00  0.00     0.188 C 
ENDROOT
BRANCH   1   2
ATOM      2  O   UNL A   1      33.141  26.758  26.373  1.00  0.00    -0.376 OA
BRANCH   2   3
ATOM      3  C   UNL A   1      33.935  26.343  25.273  1.00  0.00     0.202 C 
BRANCH   3   4
ATOM      4  C   UNL A   1      34.838  25.132  25.510  1.00  0.00     0.261 C 
BRANCH   4   5
ATOM      5  O   UNL A   1      34.153  23.873  25.399  1.00  0.00    -0.462 OA
BRANCH   5   6
ATOM      6  C   UNL A   1      34.093  23.298  24.178  1.00  0.00     0.329 C 
ATOM      7  O   UNL A   1      35.006  23.329  23.357  1.00  0.00    -0.250 OA
BRANCH   6   8
ATOM      8  C   UNL A   1      32.687  22.778  23.806  1.00  0.00     0.202 C 
BRANCH   8   9
ATOM      9  C   UNL A   1      32.142  21.386  24.206  1.00  0.00     0.038 C 
BRANCH   9  10
ATOM     10  C   UNL A   1      32.528  20.111  23.433  1.00  0.00     0.002 C 
BRANCH  10  11
ATOM     11  C   UNL A   1      32.530  18.776  24.191  1.00  0.00    -0.003 C 
ATOM     12  C   UNL A   1      33.086  17.590  23.420  1.00  0.00     0.004 C 
ENDBRANCH  10  11
ENDBRANCH   9  10
ENDBRANCH   8   9
BRANCH   8  13
ATOM     13  N   UNL A   1      31.758  23.889  23.980  1.00  0.00    -0.278 N 
ATOM     14  C   UNL A   1      31.689  24.842  22.979  1.00  0.00     0.266 C 
ATOM     15  C   UNL A   1      30.955  24.090  25.081  1.00  0.00     0.149 C 
ATOM     16  O   UNL A   1      32.336  24.868  21.942  1.00  0.00    -0.268 OA
ATOM     17  C   UNL A   1      30.750  25.907  23.355  1.00  0.00     0.081 C 
ATOM     18  S   UNL A   1      29.998  25.547  24.851  1.00  0.00    -0.054 SA
ATOM     19  S   UNL A   1      30.869  23.186  26.480  1.00  0.00    -0.052 S 
ATOM     20  C   UNL A   1      30.645  26.990  22.577  1.00  0.00     0.029 C 
BRANCH  20  21
ATOM     21  C   UNL A   1      29.833  28.151  22.900  1.00  0.00    -0.024 A 
ATOM     22  C   UNL A   1      30.451  29.318  23.345  1.00  0.00     0.008 A 
ATOM     23  C   UNL A   1      28.443  28.096  22.761  1.00  0.00     0.008 A 
ATOM     24  C   UNL A   1      29.681  30.446  23.609  1.00  0.00     0.004 A 
ATOM     25  C   UNL A   1      27.676  29.226  23.020  1.00  0.00     0.004 A 
ATOM     26  C   UNL A   1      28.291  30.412  23.433  1.00  0.00    -0.051 A 
ATOM     27  C   UNL A   1      27.478  31.644  23.686  1.00  0.00     0.044 C 
ENDBRANCH  20  21
ENDBRANCH   8  13
ENDBRANCH   6   8
ENDBRANCH   5   6
ENDBRANCH   4   5
ENDBRANCH   3   4
ENDBRANCH   2   3
ENDBRANCH   1   2
BRANCH   1  28
ATOM     28  C   UNL A   1      33.510  29.203  25.627  1.00  0.00     0.188 C 
BRANCH  28  29
ATOM     29  O   UNL A   1      32.776  30.413  25.633  1.00  0.00    -0.376 OA
BRANCH  29  30
ATOM     30  C   UNL A   1      31.927  30.596  26.751  1.00  0.00     0.202 C 
BRANCH  30  31
ATOM     31  C   UNL A   1      31.853  32.069  27.164  1.00  0.00     0.261 C 
BRANCH  31  32
ATOM     32  O   UNL A   1      33.058  32.827  26.928  1.00  0.00    -0.460 OA
BRANCH  32  33
ATOM     33  C   UNL A   1      33.657  33.378  28.007  1.00  0.00     0.338 C 
ATOM     34  O   UNL A   1      33.203  34.254  28.726  1.00  0.00    -0.246 OA
BRANCH  33  35
ATOM     35  C   UNL A   1      34.886  32.607  28.317  1.00  0.00     0.060 A 
ATOM     36  C   UNL A   1      34.779  31.229  28.559  1.00  0.00     0.016 A 
ATOM     37  C   UNL A   1      36.135  33.231  28.376  1.00  0.00     0.016 A 
ATOM     38  C   UNL A   1      35.907  30.486  28.921  1.00  0.00     0.010 A 
ATOM     39  C   UNL A   1      37.261  32.490  28.756  1.00  0.00     0.010 A 
ATOM     40  C   UNL A   1      37.146  31.125  29.077  1.00  0.00    -0.014 A 
BRANCH  40  41
ATOM     41  C   UNL A   1      38.245  30.446  29.817  1.00  0.00     0.031 A 
ATOM     42  C   UNL A   1      38.464  30.833  31.258  1.00  0.00     0.074 A 
ATOM     43  C   UNL A   1      39.029  29.509  29.255  1.00  0.00     0.049 A 
ATOM     44  N   UNL A   1      39.392  30.448  32.098  1.00  0.00    -0.248 NA
ATOM     45  C   UNL A   1      37.503  31.792  31.824  1.00  0.00     0.031 C 
ATOM     46  C   UNL A   1      38.905  29.005  27.890  1.00  0.00     0.029 A 
ATOM     47  N   UNL A   1      40.100  28.820  29.774  1.00  0.00    -0.354 N 
ATOM     48  C   UNL A   1      39.132  31.125  33.283  1.00  0.00     0.074 A 
ATOM     49  C   UNL A   1      37.981  31.969  33.045  1.00  0.00     0.031 C 
ATOM     50  C   UNL A   1      39.875  28.096  27.674  1.00  0.00     0.029 A 
ATOM     51  C   UNL A   1      40.705  27.978  28.873  1.00  0.00     0.049 A 
ATOM     52  H   UNL A   1      40.405  28.921  30.705  1.00  0.00     0.167 HD
ATOM     53  C   UNL A   1      39.782  31.047  34.468  1.00  0.00     0.037 A 
ATOM     54  C   UNL A   1      41.814  27.221  28.998  1.00  0.00     0.037 A 
ATOM     55  C   UNL A   1      40.928  30.214  34.713  1.00  0.00     0.049 A 
ATOM     56  C   UNL A   1      42.570  27.207  30.307  1.00  0.00     0.074 A 
ATOM     57  C   UNL A   1      41.653  30.063  35.883  1.00  0.00     0.029 A 
ATOM     58  N   UNL A   1      41.525  29.393  33.766  1.00  0.00    -0.354 N 
ATOM     59  N   UNL A   1      42.306  27.835  31.427  1.00  0.00    -0.248 NA
ATOM     60  C   UNL A   1      43.778  26.370  30.365  1.00  0.00     0.031 C 
ATOM     61  C   UNL A   1      42.719  29.193  35.630  1.00  0.00     0.029 A 
ATOM     62  C   UNL A   1      42.620  28.751  34.321  1.00  0.00     0.049 A 
ATOM     63  H   UNL A   1      41.215  29.285  32.838  1.00  0.00     0.167 HD
ATOM     64  C   UNL A   1      43.287  27.439  32.330  1.00  0.00     0.074 A 
ATOM     65  C   UNL A   1      44.145  26.507  31.630  1.00  0.00     0.031 C 
ATOM     66  C   UNL A   1      43.460  27.810  33.623  1.00  0.00     0.037 A 
BRANCH  53  67
ATOM     67  C   UNL A   1      39.282  31.916  35.587  1.00  0.00     0.064 A 
ATOM     68  C   UNL A   1      39.707  33.246  35.735  1.00  0.00     0.173 A 
ATOM     69  C   UNL A   1      38.351  31.418  36.509  1.00  0.00     0.173 A 
ATOM     70  F   UNL A   1      40.610  33.764  34.890  1.00  0.00    -0.203 F 
ATOM     71  C   UNL A   1      39.240  34.033  36.785  1.00  0.00     0.198 A 
ATOM     72  C   UNL A   1      37.861  32.219  37.537  1.00  0.00     0.198 A 
ATOM     73  F   UNL A   1      37.912  30.154  36.413  1.00  0.00    -0.203 F 
ATOM     74  F   UNL A   1      39.702  35.282  36.940  1.00  0.00    -0.200 F 
ATOM     75  C   UNL A   1      38.312  33.522  37.680  1.00  0.00     0.200 A 
ATOM     76  F   UNL A   1      36.955  31.727  38.393  1.00  0.00    -0.200 F 
ATOM     77  F   UNL A   1      37.859  34.283  38.685  1.00  0.00    -0.200 F 
ENDBRANCH  53  67
BRANCH  54  78
ATOM     78  C   UNL A   1      42.301  26.407  27.849  1.00  0.00     0.064 A 
ATOM     79  C   UNL A   1      43.261  26.913  26.960  1.00  0.00     0.173 A 
ATOM     80  C   UNL A   1      41.780  25.132  27.586  1.00  0.00     0.173 A 
ATOM     81  F   UNL A   1      43.766  28.141  27.147  1.00  0.00    -0.203 F 
ATOM     82  C   UNL A   1      43.660  26.186  25.838  1.00  0.00     0.198 A 
ATOM     83  C   UNL A   1      42.203  24.393  26.482  1.00  0.00     0.198 A 
ATOM     84  F   UNL A   1      40.851  24.606  28.398  1.00  0.00    -0.203 F 
ATOM     85  F   UNL A   1      44.529  26.720  24.972  1.00  0.00    -0.200 F 
ATOM     86  C   UNL A   1      43.133  24.924  25.604  1.00  0.00     0.200 A 
ATOM     87  F   UNL A   1      41.696  23.172  26.263  1.00  0.00    -0.200 F 
ATOM     88  F   UNL A   1      43.513  24.228  24.524  1.00  0.00    -0.200 F 
ENDBRANCH  54  78
BRANCH  66  89
ATOM     89  C   UNL A   1      44.581  27.165  34.391  1.00  0.00     0.064 A 
ATOM     90  C   UNL A   1      45.863  27.734  34.458  1.00  0.00     0.173 A 
ATOM     91  C   UNL A   1      44.360  25.971  35.094  1.00  0.00     0.173 A 
ATOM     92  F   UNL A   1      46.133  28.869  33.797  1.00  0.00    -0.203 F 
ATOM     93  C   UNL A   1      46.888  27.110  35.167  1.00  0.00     0.198 A 
ATOM     94  C   UNL A   1      45.377  25.369  35.832  1.00  0.00     0.198 A 
ATOM     95  F   UNL A   1      43.151  25.388  35.076  1.00  0.00    -0.203 F 
ATOM     96  F   UNL A   1      48.118  27.641  35.166  1.00  0.00    -0.200 F 
ATOM     97  C   UNL A   1      46.642  25.934  35.858  1.00  0.00     0.200 A 
ATOM     98  F   UNL A   1      45.132  24.242  36.515  1.00  0.00    -0.200 F 
ATOM     99  F   UNL A   1      47.629  25.338  36.543  1.00  0.00    -0.200 F 
ENDBRANCH  66  89
ENDBRANCH  40  41
ENDBRANCH  33  35
ENDBRANCH  32  33
ENDBRANCH  31  32
ENDBRANCH  30  31
ENDBRANCH  29  30
ENDBRANCH  28  29
ENDBRANCH   1  28
TORSDOF 22
ENDMDL
MODEL 2
REMARK VINA RESULT:     -10.9      2.479      5.676
REMARK SMILES CCCC[C@H](C(=O)OCCOCCOCCOC(=O)c1ccc(-c2c3nc(c(-c4c(F)c(F)c(F)c(F)c4F)c4ccc([nH]4)c(-c4c(F)c(F)c(F)c(F)c4F)c4nc(c(-c5c(F)c(F)c(F)c(F)c5F)c5ccc2[nH]5)C=C4)C=C3)cc1)N1C(=O)/C(=C/c2ccc(C)cc2)SC1=S
REMARK SMILES IDX 12 1 11 2 10 3 9 4 8 5 6 6 7 7 5 8 4 9 3 10 2 11 1 12 83 13
REMARK SMILES IDX 84 14 96 15 85 16 86 17 95 18 97 19 87 20 88 21 89 22 94 23
REMARK SMILES IDX 90 24 93 25 91 26 92 27 13 28 14 29 15 30 16 31 17 32 18 33
REMARK SMILES IDX 19 34 20 35 21 36 82 37 22 38 81 39 23 40 24 41 25 42 75 43
REMARK SMILES IDX 26 44 80 45 74 46 76 47 27 48 79 49 73 50 72 51 28 53 60 54
REMARK SMILES IDX 40 55 59 56 41 57 44 58 58 59 77 60 42 61 43 62 57 64 78 65
REMARK SMILES IDX 45 66 29 67 30 68 38 69 31 70 32 71 36 72 39 73 33 74 34 75
REMARK SMILES IDX 37 76 35 77 61 78 62 79 70 80 63 81 64 82 68 83 71 84 65 85
REMARK SMILES IDX 66 86 69 87 67 88 46 89 47 90 55 91 48 92 49 93 53 94 56 95
REMARK SMILES IDX 50 96 51 97 54 98 52 99
REMARK H PARENT 76 52 44 63
REMARK Flexibility Score: inf
ROOT
ATOM      1  C   UNL A   1      34.411  32.217  28.404  1.00  0.00     0.188 C 
ENDROOT
BRANCH   1   2
ATOM      2  O   UNL A   1      34.206  31.428  27.235  1.00  0.00    -0.376 OA
BRANCH   2   3
ATOM      3  C   UNL A   1      33.672  30.120  27.370  1.00  0.00     0.202 C 
BRANCH   3   4
ATOM      4  C   UNL A   1      33.534  29.309  26.081  1.00  0.00     0.261 C 
BRANCH   4   5
ATOM      5  O   UNL A   1      32.216  29.363  25.507  1.00  0.00    -0.462 OA
BRANCH   5   6
ATOM      6  C   UNL A   1      32.031  28.768  24.309  1.00  0.00     0.329 C 
ATOM      7  O   UNL A   1      32.424  29.232  23.241  1.00  0.00    -0.250 OA
BRANCH   6   8
ATOM      8  C   UNL A   1      31.086  27.548  24.362  1.00  0.00     0.202 C 
BRANCH   8   9
ATOM      9  C   UNL A   1      29.684  27.507  23.709  1.00  0.00     0.038 C 
BRANCH   9  10
ATOM     10  C   UNL A   1      29.162  28.661  22.833  1.00  0.00     0.002 C 
BRANCH  10  11
ATOM     11  C   UNL A   1      27.745  29.189  23.098  1.00  0.00    -0.003 C 
ATOM     12  C   UNL A   1      27.656  30.664  23.456  1.00  0.00     0.004 C 
ENDBRANCH  10  11
ENDBRANCH   9  10
ENDBRANCH   8   9
BRANCH   8  13
ATOM     13  N   UNL A   1      31.906  26.359  24.161  1.00  0.00    -0.278 N 
ATOM     14  C   UNL A   1      32.460  25.754  25.276  1.00  0.00     0.266 C 
ATOM     15  C   UNL A   1      32.207  25.797  22.940  1.00  0.00     0.149 C 
ATOM     16  O   UNL A   1      32.345  26.111  26.439  1.00  0.00    -0.268 OA
ATOM     17  C   UNL A   1      33.297  24.616  24.874  1.00  0.00     0.081 C 
ATOM     18  S   UNL A   1      33.216  24.377  23.180  1.00  0.00    -0.054 SA
ATOM     19  S   UNL A   1      31.776  26.330  21.420  1.00  0.00    -0.052 S 
ATOM     20  C   UNL A   1      34.027  23.984  25.799  1.00  0.00     0.029 C 
BRANCH  20  21
ATOM     21  C   UNL A   1      34.970  22.917  25.506  1.00  0.00    -0.024 A 
ATOM     22  C   UNL A   1      36.335  23.197  25.482  1.00  0.00     0.008 A 
ATOM     23  C   UNL A   1      34.509  21.622  25.252  1.00  0.00     0.008 A 
ATOM     24  C   UNL A   1      37.242  22.168  25.248  1.00  0.00     0.004 A 
ATOM     25  C   UNL A   1      35.417  20.595  25.025  1.00  0.00     0.004 A 
ATOM     26  C   UNL A   1      36.790  20.859  25.035  1.00  0.00    -0.051 A 
ATOM     27  C   UNL A   1      37.779  19.755  24.821  1.00  0.00     0.044 C 
ENDBRANCH  20  21
ENDBRANCH   8  13
ENDBRANCH   6   8
ENDBRANCH   5   6
ENDBRANCH   4   5
ENDBRANCH   3   4
ENDBRANCH   2   3
ENDBRANCH   1   2
BRANCH   1  28
ATOM     28  C   UNL A   1      35.591  33.207  28.496  1.00  0.00     0.188 C 
BRANCH  28  29
ATOM     29  O   UNL A   1      35.192  34.538  28.762  1.00  0.00    -0.376 OA
BRANCH  29  30
ATOM     30  C   UNL A   1      33.918  34.896  28.259  1.00  0.00     0.202 C 
BRANCH  30  31
ATOM     31  C   UNL A   1      33.156  35.787  29.245  1.00  0.00     0.261 C 
BRANCH  31  32
ATOM     32  O   UNL A   1      32.531  35.086  30.339  1.00  0.00    -0.460 OA
BRANCH  32  33
ATOM     33  C   UNL A   1      32.671  35.621  31.572  1.00  0.00     0.338 C 
ATOM     34  O   UNL A   1      31.900  36.389  32.126  1.00  0.00    -0.246 OA
BRANCH  33  35
ATOM     35  C   UNL A   1      33.818  34.968  32.249  1.00  0.00     0.060 A 
ATOM     36  C   UNL A   1      35.072  35.596  32.216  1.00  0.00     0.016 A 
ATOM     37  C   UNL A   1      33.667  33.745  32.907  1.00  0.00     0.016 A 
ATOM     38  C   UNL A   1      36.189  34.974  32.785  1.00  0.00     0.010 A 
ATOM     39  C   UNL A   1      34.789  33.114  33.461  1.00  0.00     0.010 A 
ATOM     40  C   UNL A   1      36.063  33.702  33.362  1.00  0.00    -0.014 A 
BRANCH  40  41
ATOM     41  C   UNL A   1      37.277  32.879  33.618  1.00  0.00     0.031 A 
ATOM     42  C   UNL A   1      38.033  33.124  34.900  1.00  0.00     0.074 A 
ATOM     43  C   UNL A   1      37.707  31.934  32.764  1.00  0.00     0.049 A 
ATOM     44  N   UNL A   1      39.153  32.598  35.327  1.00  0.00    -0.248 NA
ATOM     45  C   UNL A   1      37.441  34.105  35.823  1.00  0.00     0.031 C 
ATOM     46  C   UNL A   1      37.055  31.558  31.513  1.00  0.00     0.029 A 
ATOM     47  N   UNL A   1      38.816  31.121  32.826  1.00  0.00    -0.354 N 
ATOM     48  C   UNL A   1      39.403  33.191  36.558  1.00  0.00     0.074 A 
ATOM     49  C   UNL A   1      38.337  34.141  36.795  1.00  0.00     0.031 C 
ATOM     50  C   UNL A   1      37.784  30.596  30.916  1.00  0.00     0.029 A 
ATOM     51  C   UNL A   1      38.969  30.313  31.726  1.00  0.00     0.049 A 
ATOM     52  H   UNL A   1      39.440  31.118  33.587  1.00  0.00     0.167 HD
ATOM     53  C   UNL A   1      40.420  32.962  37.422  1.00  0.00     0.037 A 
ATOM     54  C   UNL A   1      39.965  29.462  31.402  1.00  0.00     0.037 A 
ATOM     55  C   UNL A   1      41.485  32.023  37.194  1.00  0.00     0.049 A 
ATOM     56  C   UNL A   1      41.131  29.279  32.347  1.00  0.00     0.074 A 
ATOM     57  C   UNL A   1      42.558  31.717  38.013  1.00  0.00     0.029 A 
ATOM     58  N   UNL A   1      41.617  31.241  36.055  1.00  0.00    -0.354 N 
ATOM     59  N   UNL A   1      41.349  29.829  33.517  1.00  0.00    -0.248 NA
ATOM     60  C   UNL A   1      42.187  28.347  31.922  1.00  0.00     0.031 C 
ATOM     61  C   UNL A   1      43.368  30.791  37.349  1.00  0.00     0.029 A 
ATOM     62  C   UNL A   1      42.765  30.470  36.144  1.00  0.00     0.049 A 
ATOM     63  H   UNL A   1      40.989  31.236  35.298  1.00  0.00     0.167 HD
ATOM     64  C   UNL A   1      42.541  29.282  33.982  1.00  0.00     0.074 A 
ATOM     65  C   UNL A   1      42.992  28.347  32.974  1.00  0.00     0.031 C 
ATOM     66  C   UNL A   1      43.199  29.528  35.143  1.00  0.00     0.037 A 
BRANCH  53  67
ATOM     67  C   UNL A   1      40.444  33.770  38.688  1.00  0.00     0.064 A 
ATOM     68  C   UNL A   1      39.692  33.400  39.815  1.00  0.00     0.173 A 
ATOM     69  C   UNL A   1      41.244  34.918  38.782  1.00  0.00     0.173 A 
ATOM     70  F   UNL A   1      38.897  32.320  39.771  1.00  0.00    -0.203 F 
ATOM     71  C   UNL A   1      39.718  34.167  40.977  1.00  0.00     0.198 A 
ATOM     72  C   UNL A   1      41.293  35.663  39.956  1.00  0.00     0.198 A 
ATOM     73  F   UNL A   1      41.982  35.316  37.735  1.00  0.00    -0.203 F 
ATOM     74  F   UNL A   1      38.950  33.826  42.021  1.00  0.00    -0.200 F 
ATOM     75  C   UNL A   1      40.525  35.294  41.049  1.00  0.00     0.200 A 
ATOM     76  F   UNL A   1      42.082  36.745  40.029  1.00  0.00    -0.200 F 
ATOM     77  F   UNL A   1      40.554  36.027  42.170  1.00  0.00    -0.200 F 
ENDBRANCH  53  67
BRANCH  54  78
ATOM     78  C   UNL A   1      39.925  28.713  30.116  1.00  0.00     0.064 A 
ATOM     79  C   UNL A   1      39.359  27.432  30.042  1.00  0.00     0.173 A 
ATOM     80  C   UNL A   1      40.497  29.238  28.948  1.00  0.00     0.173 A 
ATOM     81  F   UNL A   1      38.830  26.869  31.139  1.00  0.00    -0.203 F 
ATOM     82  C   UNL A   1      39.391  26.695  28.858  1.00  0.00     0.198 A 
ATOM     83  C   UNL A   1      40.500  28.514  27.757  1.00  0.00     0.198 A 
ATOM     84  F   UNL A   1      41.061  30.455  28.966  1.00  0.00    -0.203 F 
ATOM     85  F   UNL A   1      38.902  25.449  28.834  1.00  0.00    -0.200 F 
ATOM     86  C   UNL A   1      39.958  27.240  27.716  1.00  0.00     0.200 A 
ATOM     87  F   UNL A   1      41.043  29.047  26.654  1.00  0.00    -0.200 F 
ATOM     88  F   UNL A   1      39.993  26.531  26.580  1.00  0.00    -0.200 F 
ENDBRANCH  54  78
BRANCH  66  89
ATOM     89  C   UNL A   1      44.447  28.734  35.419  1.00  0.00     0.064 A 
ATOM     90  C   UNL A   1      44.410  27.484  36.057  1.00  0.00     0.173 A 
ATOM     91  C   UNL A   1      45.699  29.221  35.011  1.00  0.00     0.173 A 
ATOM     92  F   UNL A   1      43.242  26.975  36.477  1.00  0.00    -0.203 F 
ATOM     93  C   UNL A   1      45.581  26.774  36.311  1.00  0.00     0.198 A 
ATOM     94  C   UNL A   1      46.864  28.491  35.234  1.00  0.00     0.198 A 
ATOM     95  F   UNL A   1      45.794  30.404  34.385  1.00  0.00    -0.203 F 
ATOM     96  F   UNL A   1      45.526  25.612  36.977  1.00  0.00    -0.200 F 
ATOM     97  C   UNL A   1      46.805  27.274  35.894  1.00  0.00     0.200 A 
ATOM     98  F   UNL A   1      48.043  28.968  34.812  1.00  0.00    -0.200 F 
ATOM     99  F   UNL A   1      47.930  26.587  36.136  1.00  0.00    -0.200 F 
ENDBRANCH  66  89
ENDBRANCH  40  41
ENDBRANCH  33  35
ENDBRANCH  32  33
ENDBRANCH  31  32
ENDBRANCH  30  31
ENDBRANCH  29  30
ENDBRANCH  28  29
ENDBRANCH   1  28
TORSDOF 22
ENDMDL
MODEL 3
REMARK VINA RESULT:     -10.7      0.697      7.021
REMARK SMILES CCCC[C@H](C(=O)OCCOCCOCCOC(=O)c1ccc(-c2c3nc(c(-c4c(F)c(F)c(F)c(F)c4F)c4ccc([nH]4)c(-c4c(F)c(F)c(F)c(F)c4F)c4nc(c(-c5c(F)c(F)c(F)c(F)c5F)c5ccc2[nH]5)C=C4)C=C3)cc1)N1C(=O)/C(=C/c2ccc(C)cc2)SC1=S
REMARK SMILES IDX 12 1 11 2 10 3 9 4 8 5 6 6 7 7 5 8 4 9 3 10 2 11 1 12 83 13
REMARK SMILES IDX 84 14 96 15 85 16 86 17 95 18 97 19 87 20 88 21 89 22 94 23
REMARK SMILES IDX 90 24 93 25 91 26 92 27 13 28 14 29 15 30 16 31 17 32 18 33
REMARK SMILES IDX 19 34 20 35 21 36 82 37 22 38 81 39 23 40 24 41 25 42 75 43
REMARK SMILES IDX 26 44 80 45 74 46 76 47 27 48 79 49 73 50 72 51 28 53 60 54
REMARK SMILES IDX 40 55 59 56 41 57 44 58 58 59 77 60 42 61 43 62 57 64 78 65
REMARK SMILES IDX 45 66 29 67 30 68 38 69 31 70 32 71 36 72 39 73 33 74 34 75
REMARK SMILES IDX 37 76 35 77 61 78 62 79 70 80 63 81 64 82 68 83 71 84 65 85
REMARK SMILES IDX 66 86 69 87 67 88 46 89 47 90 55 91 48 92 49 93 53 94 56 95
REMARK SMILES IDX 50 96 51 97 54 98 52 99
REMARK H PARENT 76 52 44 63
REMARK Flexibility Score: inf
ROOT
ATOM      1  C   UNL A   1      32.623  28.011  26.657  1.00  0.00     0.188 C 
ENDROOT
BRANCH   1   2
ATOM      2  O   UNL A   1      32.995  26.683  26.296  1.00  0.00    -0.376 OA
BRANCH   2   3
ATOM      3  C   UNL A   1      33.957  26.489  25.272  1.00  0.00     0.202 C 
BRANCH   3   4
ATOM      4  C   UNL A   1      34.740  25.177  25.317  1.00  0.00     0.261 C 
BRANCH   4   5
ATOM      5  O   UNL A   1      33.918  24.026  25.578  1.00  0.00    -0.462 OA
BRANCH   5   6
ATOM      6  C   UNL A   1      34.023  22.978  24.732  1.00  0.00     0.329 C 
ATOM      7  O   UNL A   1      35.089  22.538  24.310  1.00  0.00    -0.250 OA
BRANCH   6   8
ATOM      8  C   UNL A   1      32.669  22.505  24.160  1.00  0.00     0.202 C 
BRANCH   8   9
ATOM      9  C   UNL A   1      32.041  21.120  24.446  1.00  0.00     0.038 C 
BRANCH   9  10
ATOM     10  C   UNL A   1      32.480  19.857  23.683  1.00  0.00     0.002 C 
BRANCH  10  11
ATOM     11  C   UNL A   1      33.521  18.938  24.339  1.00  0.00    -0.003 C 
ATOM     12  C   UNL A   1      33.665  17.562  23.709  1.00  0.00     0.004 C 
ENDBRANCH  10  11
ENDBRANCH   9  10
ENDBRANCH   8   9
BRANCH   8  13
ATOM     13  N   UNL A   1      31.752  23.637  24.235  1.00  0.00    -0.278 N 
ATOM     14  C   UNL A   1      31.762  24.553  23.198  1.00  0.00     0.266 C 
ATOM     15  C   UNL A   1      30.887  23.893  25.277  1.00  0.00     0.149 C 
ATOM     16  O   UNL A   1      32.471  24.529  22.203  1.00  0.00    -0.268 OA
ATOM     17  C   UNL A   1      30.822  25.647  23.476  1.00  0.00     0.081 C 
ATOM     18  S   UNL A   1      29.973  25.356  24.935  1.00  0.00    -0.054 SA
ATOM     19  S   UNL A   1      30.698  23.043  26.699  1.00  0.00    -0.052 S 
ATOM     20  C   UNL A   1      30.786  26.701  22.655  1.00  0.00     0.029 C 
BRANCH  20  21
ATOM     21  C   UNL A   1      29.977  27.887  22.884  1.00  0.00    -0.024 A 
ATOM     22  C   UNL A   1      30.578  29.144  22.847  1.00  0.00     0.008 A 
ATOM     23  C   UNL A   1      28.608  27.766  23.137  1.00  0.00     0.008 A 
ATOM     24  C   UNL A   1      29.798  30.284  23.020  1.00  0.00     0.004 A 
ATOM     25  C   UNL A   1      27.830  28.905  23.303  1.00  0.00     0.004 A 
ATOM     26  C   UNL A   1      28.418  30.172  23.232  1.00  0.00    -0.051 A 
ATOM     27  C   UNL A   1      27.585  31.408  23.379  1.00  0.00     0.044 C 
ENDBRANCH  20  21
ENDBRANCH   8  13
ENDBRANCH   6   8
ENDBRANCH   5   6
ENDBRANCH   4   5
ENDBRANCH   3   4
ENDBRANCH   2   3
ENDBRANCH   1   2
BRANCH   1  28
ATOM     28  C   UNL A   1      33.493  29.217  26.246  1.00  0.00     0.188 C 
BRANCH  28  29
ATOM     29  O   UNL A   1      32.742  30.316  25.766  1.00  0.00    -0.376 OA
BRANCH  29  30
ATOM     30  C   UNL A   1      31.634  30.683  26.567  1.00  0.00     0.202 C 
BRANCH  30  31
ATOM     31  C   UNL A   1      31.568  32.199  26.772  1.00  0.00     0.261 C 
BRANCH  31  32
ATOM     32  O   UNL A   1      32.837  32.880  26.684  1.00  0.00    -0.460 OA
BRANCH  32  33
ATOM     33  C   UNL A   1      33.270  33.517  27.794  1.00  0.00     0.338 C 
ATOM     34  O   UNL A   1      32.667  34.367  28.430  1.00  0.00    -0.246 OA
BRANCH  33  35
ATOM     35  C   UNL A   1      34.526  32.875  28.254  1.00  0.00     0.060 A 
ATOM     36  C   UNL A   1      34.483  31.549  28.709  1.00  0.00     0.016 A 
ATOM     37  C   UNL A   1      35.738  33.571  28.244  1.00  0.00     0.016 A 
ATOM     38  C   UNL A   1      35.636  30.937  29.213  1.00  0.00     0.010 A 
ATOM     39  C   UNL A   1      36.888  32.965  28.766  1.00  0.00     0.010 A 
ATOM     40  C   UNL A   1      36.833  31.662  29.297  1.00  0.00    -0.014 A 
BRANCH  40  41
ATOM     41  C   UNL A   1      37.941  31.172  30.162  1.00  0.00     0.031 A 
ATOM     42  C   UNL A   1      38.900  30.169  29.574  1.00  0.00     0.074 A 
ATOM     43  C   UNL A   1      38.116  31.595  31.427  1.00  0.00     0.049 A 
ATOM     44  N   UNL A   1      39.900  29.535  30.134  1.00  0.00    -0.248 NA
ATOM     45  C   UNL A   1      38.697  29.834  28.155  1.00  0.00     0.031 C 
ATOM     46  C   UNL A   1      37.296  32.591  32.111  1.00  0.00     0.029 A 
ATOM     47  N   UNL A   1      39.049  31.222  32.366  1.00  0.00    -0.354 N 
ATOM     48  C   UNL A   1      40.433  28.721  29.142  1.00  0.00     0.074 A 
ATOM     49  C   UNL A   1      39.628  28.916  27.956  1.00  0.00     0.031 C 
ATOM     50  C   UNL A   1      37.754  32.739  33.369  1.00  0.00     0.029 A 
ATOM     51  C   UNL A   1      38.877  31.827  33.587  1.00  0.00     0.049 A 
ATOM     52  H   UNL A   1      39.773  30.580  32.181  1.00  0.00     0.167 HD
ATOM     53  C   UNL A   1      41.503  27.893  29.205  1.00  0.00     0.037 A 
ATOM     54  C   UNL A   1      39.536  31.645  34.750  1.00  0.00     0.037 A 
ATOM     55  C   UNL A   1      42.306  27.691  30.380  1.00  0.00     0.049 A 
ATOM     56  C   UNL A   1      40.678  30.658  34.818  1.00  0.00     0.074 A 
ATOM     57  C   UNL A   1      43.414  26.876  30.540  1.00  0.00     0.029 A 
ATOM     58  N   UNL A   1      42.084  28.305  31.604  1.00  0.00    -0.354 N 
ATOM     59  N   UNL A   1      41.187  29.908  33.871  1.00  0.00    -0.248 NA
ATOM     60  C   UNL A   1      41.340  30.500  36.122  1.00  0.00     0.031 C 
ATOM     61  C   UNL A   1      43.829  26.956  31.873  1.00  0.00     0.029 A 
ATOM     62  C   UNL A   1      43.021  27.871  32.527  1.00  0.00     0.049 A 
ATOM     63  H   UNL A   1      41.366  28.954  31.788  1.00  0.00     0.167 HD
ATOM     64  C   UNL A   1      42.250  29.223  34.453  1.00  0.00     0.074 A 
ATOM     65  C   UNL A   1      42.320  29.657  35.832  1.00  0.00     0.031 C 
ATOM     66  C   UNL A   1      43.095  28.320  33.895  1.00  0.00     0.037 A 
BRANCH  53  67
ATOM     67  C   UNL A   1      41.846  27.116  27.966  1.00  0.00     0.064 A 
ATOM     68  C   UNL A   1      42.732  27.620  27.000  1.00  0.00     0.173 A 
ATOM     69  C   UNL A   1      41.297  25.844  27.752  1.00  0.00     0.173 A 
ATOM     70  F   UNL A   1      43.270  28.839  27.148  1.00  0.00    -0.203 F 
ATOM     71  C   UNL A   1      43.030  26.889  25.852  1.00  0.00     0.198 A 
ATOM     72  C   UNL A   1      41.624  25.102  26.621  1.00  0.00     0.198 A 
ATOM     73  F   UNL A   1      40.445  25.316  28.644  1.00  0.00    -0.203 F 
ATOM     74  F   UNL A   1      43.835  27.413  24.917  1.00  0.00    -0.200 F 
ATOM     75  C   UNL A   1      42.482  25.628  25.667  1.00  0.00     0.200 A 
ATOM     76  F   UNL A   1      41.103  23.879  26.449  1.00  0.00    -0.200 F 
ATOM     77  F   UNL A   1      42.775  24.924  24.566  1.00  0.00    -0.200 F 
ENDBRANCH  53  67
BRANCH  54  78
ATOM     78  C   UNL A   1      39.134  32.404  35.967  1.00  0.00     0.064 A 
ATOM     79  C   UNL A   1      39.649  33.683  36.225  1.00  0.00     0.173 A 
ATOM     80  C   UNL A   1      38.272  31.847  36.922  1.00  0.00     0.173 A 
ATOM     81  F   UNL A   1      40.506  34.246  35.360  1.00  0.00    -0.203 F 
ATOM     82  C   UNL A   1      39.339  34.362  37.402  1.00  0.00     0.198 A 
ATOM     83  C   UNL A   1      37.936  32.540  38.083  1.00  0.00     0.198 A 
ATOM     84  F   UNL A   1      37.760  30.622  36.730  1.00  0.00    -0.203 F 
ATOM     85  F   UNL A   1      39.896  35.554  37.652  1.00  0.00    -0.200 F 
ATOM     86  C   UNL A   1      38.478  33.792  38.328  1.00  0.00     0.200 A 
ATOM     87  F   UNL A   1      37.099  31.987  38.973  1.00  0.00    -0.200 F 
ATOM     88  F   UNL A   1      38.183  34.443  39.461  1.00  0.00    -0.200 F 
ENDBRANCH  54  78
BRANCH  66  89
ATOM     89  C   UNL A   1      44.207  27.782  34.752  1.00  0.00     0.064 A 
ATOM     90  C   UNL A   1      44.071  26.600  35.497  1.00  0.00     0.173 A 
ATOM     91  C   UNL A   1      45.442  28.449  34.806  1.00  0.00     0.173 A 
ATOM     92  F   UNL A   1      42.910  25.929  35.490  1.00  0.00    -0.203 F 
ATOM     93  C   UNL A   1      45.114  26.129  36.292  1.00  0.00     0.198 A 
ATOM     94  C   UNL A   1      46.495  27.955  35.574  1.00  0.00     0.198 A 
ATOM     95  F   UNL A   1      45.635  29.576  34.106  1.00  0.00    -0.203 F 
ATOM     96  F   UNL A   1      44.938  25.032  37.041  1.00  0.00    -0.200 F 
ATOM     97  C   UNL A   1      46.325  26.802  36.325  1.00  0.00     0.200 A 
ATOM     98  F   UNL A   1      47.671  28.597  35.588  1.00  0.00    -0.200 F 
ATOM     99  F   UNL A   1      47.328  26.345  37.088  1.00  0.00    -0.200 F 
ENDBRANCH  66  89
ENDBRANCH  40  41
ENDBRANCH  33  35
ENDBRANCH  32  33
ENDBRANCH  31  32
ENDBRANCH  30  31
ENDBRANCH  29  30
ENDBRANCH  28  29
ENDBRANCH   1  28
TORSDOF 22
ENDMDL
