MODEL 1
REMARK VINA RESULT:     -10.6      0.000      0.000
REMARK SMILES CC(C)NC(=O)C[N@@H+]1CCC[C@H]1C(=O)OCCOCCOCCOC(=O)c1ccc(-c2c3nc(c(-c4c(F)c(F)c(F)c(F)c4F)c4ccc([nH]4)c(-c4c(F)c(F)c(F)c(F)c4F)c4nc(c(-c5c(F)c(F)c(F)c(F)c5F)c5ccc2[nH]5)C=C4)C=C3)cc1
REMARK SMILES IDX 19 1 18 2 17 3 16 4 15 5 13 6 14 7 12 8 8 9 9 10 10 12 11 13
REMARK SMILES IDX 7 14 5 15 4 16 6 18 2 19 1 20 3 21 20 22 21 23 22 24 23 25
REMARK SMILES IDX 24 26 25 27 26 28 27 29 28 30 89 31 29 32 88 33 30 34 31 35
REMARK SMILES IDX 32 36 82 37 33 38 87 39 81 40 83 41 34 42 86 43 80 44 79 45
REMARK SMILES IDX 35 47 67 48 47 49 66 50 48 51 51 52 65 53 84 54 49 55 50 56
REMARK SMILES IDX 64 58 85 59 52 60 36 61 37 62 45 63 38 64 39 65 43 66 46 67
REMARK SMILES IDX 40 68 41 69 44 70 42 71 68 72 69 73 77 74 70 75 71 76 75 77
REMARK SMILES IDX 78 78 72 79 73 80 76 81 74 82 53 83 54 84 62 85 55 86 56 87
REMARK SMILES IDX 60 88 63 89 57 90 58 91 61 92 59 93
REMARK H PARENT 8 11 4 17 83 46 51 57
REMARK Flexibility Score: inf
ROOT
ATOM      1  C   UNL A   1      33.487  28.011  22.453  1.00  0.00     0.188 C 
ENDROOT
BRANCH   1   2
ATOM      2  O   UNL A   1      33.458  26.632  22.092  1.00  0.00    -0.376 OA
BRANCH   2   3
ATOM      3  C   UNL A   1      32.298  25.911  22.495  1.00  0.00     0.202 C 
BRANCH   3   4
ATOM      4  C   UNL A   1      32.564  24.877  23.589  1.00  0.00     0.261 C 
BRANCH   4   5
ATOM      5  O   UNL A   1      33.973  24.727  23.837  1.00  0.00    -0.459 OA
BRANCH   5   6
ATOM      6  C   UNL A   1      34.586  23.563  23.524  1.00  0.00     0.365 C 
ATOM      7  O   UNL A   1      34.712  23.137  22.381  1.00  0.00    -0.245 OA
BRANCH   6   8
ATOM      8  C   UNL A   1      35.146  22.849  24.772  1.00  0.00     0.295 C 
ATOM      9  N   UNL A   1      35.109  21.356  24.626  1.00  0.00    -0.315 N 
ATOM     10  C   UNL A   1      36.454  20.851  24.971  1.00  0.00     0.263 C 
ATOM     11  H   UNL A   1      34.854  21.105  23.670  1.00  0.00     0.349 HD
ATOM     12  C   UNL A   1      37.130  21.964  25.751  1.00  0.00     0.068 C 
ATOM     13  C   UNL A   1      36.589  23.219  25.100  1.00  0.00     0.083 C 
BRANCH   9  14
ATOM     14  C   UNL A   1      34.094  20.753  25.524  1.00  0.00     0.364 C 
BRANCH  14  15
ATOM     15  C   UNL A   1      32.826  20.385  24.741  1.00  0.00     0.275 C 
ATOM     16  N   UNL A   1      32.716  19.114  24.235  1.00  0.00    -0.349 N 
ATOM     17  H   UNL A   1      31.987  18.956  23.593  1.00  0.00     0.163 HD
ATOM     18  O   UNL A   1      31.920  21.196  24.539  1.00  0.00    -0.268 OA
BRANCH  16  19
ATOM     19  C   UNL A   1      33.566  17.975  24.549  1.00  0.00     0.076 C 
ATOM     20  C   UNL A   1      32.881  17.057  25.552  1.00  0.00     0.030 C 
ATOM     21  C   UNL A   1      34.007  17.220  23.301  1.00  0.00     0.030 C 
ENDBRANCH  16  19
ENDBRANCH  14  15
ENDBRANCH   9  14
ENDBRANCH   6   8
ENDBRANCH   5   6
ENDBRANCH   4   5
ENDBRANCH   3   4
ENDBRANCH   2   3
ENDBRANCH   1   2
BRANCH   1  22
ATOM     22  C   UNL A   1      34.029  28.271  23.869  1.00  0.00     0.188 C 
BRANCH  22  23
ATOM     23  O   UNL A   1      33.104  28.485  24.927  1.00  0.00    -0.376 OA
BRANCH  23  24
ATOM     24  C   UNL A   1      32.039  29.400  24.701  1.00  0.00     0.202 C 
BRANCH  24  25
ATOM     25  C   UNL A   1      31.621  30.243  25.907  1.00  0.00     0.261 C 
BRANCH  25  26
ATOM     26  O   UNL A   1      32.589  30.180  26.972  1.00  0.00    -0.460 OA
BRANCH  26  27
ATOM     27  C   UNL A   1      33.227  31.342  27.251  1.00  0.00     0.338 C 
ATOM     28  O   UNL A   1      32.748  32.461  27.314  1.00  0.00    -0.246 OA
BRANCH  27  29
ATOM     29  C   UNL A   1      34.620  31.057  27.636  1.00  0.00     0.060 A 
ATOM     30  C   UNL A   1      34.986  29.728  27.898  1.00  0.00     0.016 A 
ATOM     31  C   UNL A   1      35.524  32.098  27.840  1.00  0.00     0.016 A 
ATOM     32  C   UNL A   1      36.250  29.438  28.412  1.00  0.00     0.010 A 
ATOM     33  C   UNL A   1      36.778  31.810  28.381  1.00  0.00     0.010 A 
ATOM     34  C   UNL A   1      37.129  30.485  28.706  1.00  0.00    -0.014 A 
BRANCH  34  35
ATOM     35  C   UNL A   1      38.331  30.257  29.540  1.00  0.00     0.031 A 
ATOM     36  C   UNL A   1      39.384  29.320  29.020  1.00  0.00     0.074 A 
ATOM     37  C   UNL A   1      38.462  30.822  30.750  1.00  0.00     0.049 A 
ATOM     38  N   UNL A   1      40.392  28.769  29.644  1.00  0.00    -0.248 NA
ATOM     39  C   UNL A   1      39.279  28.950  27.599  1.00  0.00     0.031 C 
ATOM     40  C   UNL A   1      37.555  31.811  31.325  1.00  0.00     0.029 A 
ATOM     41  N   UNL A   1      39.403  30.613  31.727  1.00  0.00    -0.354 N 
ATOM     42  C   UNL A   1      41.020  27.966  28.704  1.00  0.00     0.074 A 
ATOM     43  C   UNL A   1      40.285  28.099  27.465  1.00  0.00     0.031 C 
ATOM     44  C   UNL A   1      37.962  32.096  32.575  1.00  0.00     0.029 A 
ATOM     45  C   UNL A   1      39.126  31.271  32.898  1.00  0.00     0.049 A 
ATOM     46  H   UNL A   1      40.198  30.046  31.600  1.00  0.00     0.167 HD
ATOM     47  C   UNL A   1      42.109  27.178  28.865  1.00  0.00     0.037 A 
ATOM     48  C   UNL A   1      39.716  31.175  34.106  1.00  0.00     0.037 A 
ATOM     49  C   UNL A   1      42.838  27.056  30.099  1.00  0.00     0.049 A 
ATOM     50  C   UNL A   1      40.876  30.229  34.288  1.00  0.00     0.074 A 
ATOM     51  C   UNL A   1      43.950  26.281  30.373  1.00  0.00     0.029 A 
ATOM     52  N   UNL A   1      42.521  27.733  31.266  1.00  0.00    -0.354 N 
ATOM     53  N   UNL A   1      41.452  29.445  33.410  1.00  0.00    -0.248 NA
ATOM     54  C   UNL A   1      41.460  30.144  35.635  1.00  0.00     0.031 C 
ATOM     55  C   UNL A   1      44.283  26.461  31.720  1.00  0.00     0.029 A 
ATOM     56  C   UNL A   1      43.406  27.381  32.270  1.00  0.00     0.049 A 
ATOM     57  H   UNL A   1      41.776  28.371  31.367  1.00  0.00     0.167 HD
ATOM     58  C   UNL A   1      42.482  28.802  34.084  1.00  0.00     0.074 A 
ATOM     59  C   UNL A   1      42.452  29.284  35.449  1.00  0.00     0.031 C 
ATOM     60  C   UNL A   1      43.374  27.896  33.614  1.00  0.00     0.037 A 
BRANCH  47  61
ATOM     61  C   UNL A   1      42.549  26.357  27.692  1.00  0.00     0.064 A 
ATOM     62  C   UNL A   1      43.529  26.810  26.798  1.00  0.00     0.173 A 
ATOM     63  C   UNL A   1      41.994  25.087  27.474  1.00  0.00     0.173 A 
ATOM     64  F   UNL A   1      44.076  28.025  26.955  1.00  0.00    -0.203 F 
ATOM     65  C   UNL A   1      43.925  26.028  25.716  1.00  0.00     0.198 A 
ATOM     66  C   UNL A   1      42.409  24.298  26.405  1.00  0.00     0.198 A 
ATOM     67  F   UNL A   1      41.053  24.608  28.301  1.00  0.00    -0.203 F 
ATOM     68  F   UNL A   1      44.834  26.497  24.850  1.00  0.00    -0.200 F 
ATOM     69  C   UNL A   1      43.370  24.771  25.524  1.00  0.00     0.200 A 
ATOM     70  F   UNL A   1      41.878  23.081  26.227  1.00  0.00    -0.200 F 
ATOM     71  F   UNL A   1      43.755  24.019  24.484  1.00  0.00    -0.200 F 
ENDBRANCH  47  61
BRANCH  48  72
ATOM     72  C   UNL A   1      39.196  31.965  35.249  1.00  0.00     0.064 A 
ATOM     73  C   UNL A   1      39.518  33.320  35.398  1.00  0.00     0.173 A 
ATOM     74  C   UNL A   1      38.377  31.378  36.226  1.00  0.00     0.173 A 
ATOM     75  F   UNL A   1      40.323  33.917  34.506  1.00  0.00    -0.203 F 
ATOM     76  C   UNL A   1      39.051  34.057  36.484  1.00  0.00     0.198 A 
ATOM     77  C   UNL A   1      37.888  32.122  37.298  1.00  0.00     0.198 A 
ATOM     78  F   UNL A   1      38.044  30.083  36.134  1.00  0.00    -0.203 F 
ATOM     79  F   UNL A   1      39.408  35.341  36.624  1.00  0.00    -0.200 F 
ATOM     80  C   UNL A   1      38.231  33.459  37.430  1.00  0.00     0.200 A 
ATOM     81  F   UNL A   1      37.091  31.542  38.206  1.00  0.00    -0.200 F 
ATOM     82  F   UNL A   1      37.780  34.169  38.473  1.00  0.00    -0.200 F 
ENDBRANCH  48  72
BRANCH  60  83
ATOM     83  C   UNL A   1      44.430  27.407  34.559  1.00  0.00     0.064 A 
ATOM     84  C   UNL A   1      44.262  26.233  35.306  1.00  0.00     0.173 A 
ATOM     85  C   UNL A   1      45.659  28.078  34.650  1.00  0.00     0.173 A 
ATOM     86  F   UNL A   1      43.100  25.564  35.260  1.00  0.00    -0.203 F 
ATOM     87  C   UNL A   1      45.286  25.752  36.118  1.00  0.00     0.198 A 
ATOM     88  C   UNL A   1      46.688  27.583  35.445  1.00  0.00     0.198 A 
ATOM     89  F   UNL A   1      45.869  29.202  33.948  1.00  0.00    -0.203 F 
ATOM     90  F   UNL A   1      45.098  24.642  36.843  1.00  0.00    -0.200 F 
ATOM     91  C   UNL A   1      46.501  26.422  36.179  1.00  0.00     0.200 A 
ATOM     92  F   UNL A   1      47.863  28.224  35.493  1.00  0.00    -0.200 F 
ATOM     93  F   UNL A   1      47.491  25.948  36.948  1.00  0.00    -0.200 F 
ENDBRANCH  60  83
ENDBRANCH  34  35
ENDBRANCH  27  29
ENDBRANCH  26  27
ENDBRANCH  25  26
ENDBRANCH  24  25
ENDBRANCH  23  24
ENDBRANCH  22  23
ENDBRANCH   1  22
TORSDOF 20
ENDMDL
MODEL 2
REMARK VINA RESULT:     -10.4      0.842      2.521
REMARK SMILES CC(C)NC(=O)C[N@@H+]1CCC[C@H]1C(=O)OCCOCCOCCOC(=O)c1ccc(-c2c3nc(c(-c4c(F)c(F)c(F)c(F)c4F)c4ccc([nH]4)c(-c4c(F)c(F)c(F)c(F)c4F)c4nc(c(-c5c(F)c(F)c(F)c(F)c5F)c5ccc2[nH]5)C=C4)C=C3)cc1
REMARK SMILES IDX 19 1 18 2 17 3 16 4 15 5 13 6 14 7 12 8 8 9 9 10 10 12 11 13
REMARK SMILES IDX 7 14 5 15 4 16 6 18 2 19 1 20 3 21 20 22 21 23 22 24 23 25
REMARK SMILES IDX 24 26 25 27 26 28 27 29 28 30 89 31 29 32 88 33 30 34 31 35
REMARK SMILES IDX 32 36 82 37 33 38 87 39 81 40 83 41 34 42 86 43 80 44 79 45
REMARK SMILES IDX 35 47 67 48 47 49 66 50 48 51 51 52 65 53 84 54 49 55 50 56
REMARK SMILES IDX 64 58 85 59 52 60 36 61 37 62 45 63 38 64 39 65 43 66 46 67
REMARK SMILES IDX 40 68 41 69 44 70 42 71 68 72 69 73 77 74 70 75 71 76 75 77
REMARK SMILES IDX 78 78 72 79 73 80 76 81 74 82 53 83 54 84 62 85 55 86 56 87
REMARK SMILES IDX 60 88 63 89 57 90 58 91 61 92 59 93
REMARK H PARENT 8 11 4 17 83 46 51 57
REMARK Flexibility Score: inf
ROOT
ATOM      1  C   UNL A   1      33.555  28.380  22.702  1.00  0.00     0.188 C 
ENDROOT
BRANCH   1   2
ATOM      2  O   UNL A   1      33.562  27.058  22.170  1.00  0.00    -0.376 OA
BRANCH   2   3
ATOM      3  C   UNL A   1      32.855  26.082  22.927  1.00  0.00     0.202 C 
BRANCH   3   4
ATOM      4  C   UNL A   1      33.540  24.717  22.969  1.00  0.00     0.261 C 
BRANCH   4   5
ATOM      5  O   UNL A   1      32.605  23.653  22.724  1.00  0.00    -0.459 OA
BRANCH   5   6
ATOM      6  C   UNL A   1      32.185  22.883  23.755  1.00  0.00     0.365 C 
ATOM      7  O   UNL A   1      31.265  23.182  24.508  1.00  0.00    -0.245 OA
BRANCH   6   8
ATOM      8  C   UNL A   1      32.974  21.560  23.849  1.00  0.00     0.295 C 
ATOM      9  N   UNL A   1      33.168  21.125  25.271  1.00  0.00    -0.315 N 
ATOM     10  C   UNL A   1      32.746  19.711  25.356  1.00  0.00     0.263 C 
ATOM     11  H   UNL A   1      32.615  21.713  25.895  1.00  0.00     0.349 HD
ATOM     12  C   UNL A   1      32.748  19.190  23.930  1.00  0.00     0.068 C 
ATOM     13  C   UNL A   1      32.314  20.393  23.122  1.00  0.00     0.083 C 
BRANCH   9  14
ATOM     14  C   UNL A   1      34.587  21.257  25.686  1.00  0.00     0.364 C 
BRANCH  14  15
ATOM     15  C   UNL A   1      34.776  22.483  26.589  1.00  0.00     0.275 C 
ATOM     16  N   UNL A   1      36.006  23.091  26.618  1.00  0.00    -0.349 N 
ATOM     17  H   UNL A   1      36.154  23.756  27.329  1.00  0.00     0.163 HD
ATOM     18  O   UNL A   1      33.869  22.923  27.298  1.00  0.00    -0.268 OA
BRANCH  16  19
ATOM     19  C   UNL A   1      37.116  22.853  25.707  1.00  0.00     0.076 C 
ATOM     20  C   UNL A   1      36.780  23.360  24.311  1.00  0.00     0.030 C 
ATOM     21  C   UNL A   1      38.424  23.442  26.222  1.00  0.00     0.030 C 
ENDBRANCH  16  19
ENDBRANCH  14  15
ENDBRANCH   9  14
ENDBRANCH   6   8
ENDBRANCH   5   6
ENDBRANCH   4   5
ENDBRANCH   3   4
ENDBRANCH   2   3
ENDBRANCH   1   2
BRANCH   1  22
ATOM     22  C   UNL A   1      34.060  28.467  24.154  1.00  0.00     0.188 C 
BRANCH  22  23
ATOM     23  O   UNL A   1      33.117  28.694  25.193  1.00  0.00    -0.376 OA
BRANCH  23  24
ATOM     24  C   UNL A   1      32.123  29.688  24.981  1.00  0.00     0.202 C 
BRANCH  24  25
ATOM     25  C   UNL A   1      31.656  30.438  26.230  1.00  0.00     0.261 C 
BRANCH  25  26
ATOM     26  O   UNL A   1      32.655  30.430  27.269  1.00  0.00    -0.460 OA
BRANCH  26  27
ATOM     27  C   UNL A   1      33.356  31.580  27.412  1.00  0.00     0.338 C 
ATOM     28  O   UNL A   1      32.934  32.723  27.376  1.00  0.00    -0.246 OA
BRANCH  27  29
ATOM     29  C   UNL A   1      34.746  31.263  27.783  1.00  0.00     0.060 A 
ATOM     30  C   UNL A   1      35.088  29.925  28.024  1.00  0.00     0.016 A 
ATOM     31  C   UNL A   1      35.672  32.284  27.995  1.00  0.00     0.016 A 
ATOM     32  C   UNL A   1      36.350  29.603  28.526  1.00  0.00     0.010 A 
ATOM     33  C   UNL A   1      36.923  31.965  28.523  1.00  0.00     0.010 A 
ATOM     34  C   UNL A   1      37.251  30.630  28.828  1.00  0.00    -0.014 A 
BRANCH  34  35
ATOM     35  C   UNL A   1      38.454  30.368  29.650  1.00  0.00     0.031 A 
ATOM     36  C   UNL A   1      39.478  29.406  29.117  1.00  0.00     0.074 A 
ATOM     37  C   UNL A   1      38.610  30.924  30.861  1.00  0.00     0.049 A 
ATOM     38  N   UNL A   1      40.477  28.827  29.730  1.00  0.00    -0.248 NA
ATOM     39  C   UNL A   1      39.351  29.044  27.696  1.00  0.00     0.031 C 
ATOM     40  C   UNL A   1      37.734  31.934  31.447  1.00  0.00     0.029 A 
ATOM     41  N   UNL A   1      39.555  30.687  31.828  1.00  0.00    -0.354 N 
ATOM     42  C   UNL A   1      41.076  28.012  28.781  1.00  0.00     0.074 A 
ATOM     43  C   UNL A   1      40.333  28.168  27.550  1.00  0.00     0.031 C 
ATOM     44  C   UNL A   1      38.159  32.204  32.695  1.00  0.00     0.029 A 
ATOM     45  C   UNL A   1      39.305  31.347  33.005  1.00  0.00     0.049 A 
ATOM     46  H   UNL A   1      40.334  30.101  31.692  1.00  0.00     0.167 HD
ATOM     47  C   UNL A   1      42.146  27.196  28.930  1.00  0.00     0.037 A 
ATOM     48  C   UNL A   1      39.903  31.232  34.206  1.00  0.00     0.037 A 
ATOM     49  C   UNL A   1      42.882  27.050  30.157  1.00  0.00     0.049 A 
ATOM     50  C   UNL A   1      41.040  30.256  34.375  1.00  0.00     0.074 A 
ATOM     51  C   UNL A   1      43.976  26.245  30.418  1.00  0.00     0.029 A 
ATOM     52  N   UNL A   1      42.593  27.731  31.329  1.00  0.00    -0.354 N 
ATOM     53  N   UNL A   1      41.587  29.460  33.488  1.00  0.00    -0.248 NA
ATOM     54  C   UNL A   1      41.633  30.151  35.716  1.00  0.00     0.031 C 
ATOM     55  C   UNL A   1      44.326  26.411  31.762  1.00  0.00     0.029 A 
ATOM     56  C   UNL A   1      43.477  27.352  32.324  1.00  0.00     0.049 A 
ATOM     57  H   UNL A   1      41.866  28.386  31.439  1.00  0.00     0.167 HD
ATOM     58  C   UNL A   1      42.606  28.788  34.151  1.00  0.00     0.074 A 
ATOM     59  C   UNL A   1      42.602  29.267  35.518  1.00  0.00     0.031 C 
ATOM     60  C   UNL A   1      43.471  27.862  33.670  1.00  0.00     0.037 A 
BRANCH  47  61
ATOM     61  C   UNL A   1      42.554  26.368  27.750  1.00  0.00     0.064 A 
ATOM     62  C   UNL A   1      41.979  25.115  27.492  1.00  0.00     0.173 A 
ATOM     63  C   UNL A   1      43.518  26.848  26.852  1.00  0.00     0.173 A 
ATOM     64  F   UNL A   1      41.066  24.606  28.332  1.00  0.00    -0.203 F 
ATOM     65  C   UNL A   1      42.371  24.364  26.387  1.00  0.00     0.198 A 
ATOM     66  C   UNL A   1      43.889  26.106  25.735  1.00  0.00     0.198 A 
ATOM     67  F   UNL A   1      44.097  28.042  27.054  1.00  0.00    -0.203 F 
ATOM     68  F   UNL A   1      41.839  23.151  26.181  1.00  0.00    -0.200 F 
ATOM     69  C   UNL A   1      43.320  24.862  25.506  1.00  0.00     0.200 A 
ATOM     70  F   UNL A   1      44.800  26.593  24.880  1.00  0.00    -0.200 F 
ATOM     71  F   UNL A   1      43.692  24.140  24.440  1.00  0.00    -0.200 F 
ENDBRANCH  47  61
BRANCH  48  72
ATOM     72  C   UNL A   1      39.413  32.031  35.358  1.00  0.00     0.064 A 
ATOM     73  C   UNL A   1      39.818  33.359  35.540  1.00  0.00     0.173 A 
ATOM     74  C   UNL A   1      38.541  31.478  36.308  1.00  0.00     0.173 A 
ATOM     75  F   UNL A   1      40.675  33.922  34.674  1.00  0.00    -0.203 F 
ATOM     76  C   UNL A   1      39.379  34.102  36.634  1.00  0.00     0.198 A 
ATOM     77  C   UNL A   1      38.082  32.230  37.387  1.00  0.00     0.198 A 
ATOM     78  F   UNL A   1      38.128  30.208  36.183  1.00  0.00    -0.203 F 
ATOM     79  F   UNL A   1      39.814  35.358  36.806  1.00  0.00    -0.200 F 
ATOM     80  C   UNL A   1      38.506  33.539  37.553  1.00  0.00     0.200 A 
ATOM     81  F   UNL A   1      37.233  31.684  38.269  1.00  0.00    -0.200 F 
ATOM     82  F   UNL A   1      38.082  34.256  38.603  1.00  0.00    -0.200 F 
ENDBRANCH  48  72
BRANCH  60  83
ATOM     83  C   UNL A   1      44.522  27.342  34.603  1.00  0.00     0.064 A 
ATOM     84  C   UNL A   1      45.741  28.010  34.784  1.00  0.00     0.173 A 
ATOM     85  C   UNL A   1      44.268  26.207  35.388  1.00  0.00     0.173 A 
ATOM     86  F   UNL A   1      46.033  29.093  34.047  1.00  0.00    -0.203 F 
ATOM     87  C   UNL A   1      46.673  27.555  35.713  1.00  0.00     0.198 A 
ATOM     88  C   UNL A   1      45.192  25.768  36.332  1.00  0.00     0.198 A 
ATOM     89  F   UNL A   1      43.113  25.538  35.256  1.00  0.00    -0.203 F 
ATOM     90  F   UNL A   1      47.842  28.193  35.855  1.00  0.00    -0.200 F 
ATOM     91  C   UNL A   1      46.393  26.441  36.493  1.00  0.00     0.200 A 
ATOM     92  F   UNL A   1      44.915  24.699  37.091  1.00  0.00    -0.200 F 
ATOM     93  F   UNL A   1      47.284  26.014  37.399  1.00  0.00    -0.200 F 
ENDBRANCH  60  83
ENDBRANCH  34  35
ENDBRANCH  27  29
ENDBRANCH  26  27
ENDBRANCH  25  26
ENDBRANCH  24  25
ENDBRANCH  23  24
ENDBRANCH  22  23
ENDBRANCH   1  22
TORSDOF 20
ENDMDL
MODEL 3
REMARK VINA RESULT:     -10.2      1.307      2.200
REMARK SMILES CC(C)NC(=O)C[N@@H+]1CCC[C@H]1C(=O)OCCOCCOCCOC(=O)c1ccc(-c2c3nc(c(-c4c(F)c(F)c(F)c(F)c4F)c4ccc([nH]4)c(-c4c(F)c(F)c(F)c(F)c4F)c4nc(c(-c5c(F)c(F)c(F)c(F)c5F)c5ccc2[nH]5)C=C4)C=C3)cc1
REMARK SMILES IDX 19 1 18 2 17 3 16 4 15 5 13 6 14 7 12 8 8 9 9 10 10 12 11 13
REMARK SMILES IDX 7 14 5 15 4 16 6 18 2 19 1 20 3 21 20 22 21 23 22 24 23 25
REMARK SMILES IDX 24 26 25 27 26 28 27 29 28 30 89 31 29 32 88 33 30 34 31 35
REMARK SMILES IDX 32 36 82 37 33 38 87 39 81 40 83 41 34 42 86 43 80 44 79 45
REMARK SMILES IDX 35 47 67 48 47 49 66 50 48 51 51 52 65 53 84 54 49 55 50 56
REMARK SMILES IDX 64 58 85 59 52 60 36 61 37 62 45 63 38 64 39 65 43 66 46 67
REMARK SMILES IDX 40 68 41 69 44 70 42 71 68 72 69 73 77 74 70 75 71 76 75 77
REMARK SMILES IDX 78 78 72 79 73 80 76 81 74 82 53 83 54 84 62 85 55 86 56 87
REMARK SMILES IDX 60 88 63 89 57 90 58 91 61 92 59 93
REMARK H PARENT 8 11 4 17 83 46 51 57
REMARK Flexibility Score: inf
ROOT
ATOM      1  C   UNL A   1      31.704  27.105  26.508  1.00  0.00     0.188 C 
ENDROOT
BRANCH   1   2
ATOM      2  O   UNL A   1      30.748  26.085  26.785  1.00  0.00    -0.376 OA
BRANCH   2   3
ATOM      3  C   UNL A   1      30.316  25.319  25.665  1.00  0.00     0.202 C 
BRANCH   3   4
ATOM      4  C   UNL A   1      30.678  23.838  25.754  1.00  0.00     0.261 C 
BRANCH   4   5
ATOM      5  O   UNL A   1      32.097  23.636  25.637  1.00  0.00    -0.459 OA
BRANCH   5   6
ATOM      6  C   UNL A   1      32.778  23.072  26.661  1.00  0.00     0.365 C 
ATOM      7  O   UNL A   1      32.354  22.992  27.809  1.00  0.00    -0.245 OA
BRANCH   6   8
ATOM      8  C   UNL A   1      34.138  22.502  26.208  1.00  0.00     0.295 C 
ATOM      9  N   UNL A   1      34.052  21.857  24.857  1.00  0.00    -0.315 N 
ATOM     10  C   UNL A   1      35.147  22.413  24.037  1.00  0.00     0.263 C 
ATOM     11  H   UNL A   1      33.142  22.048  24.436  1.00  0.00     0.349 HD
ATOM     12  C   UNL A   1      36.137  23.016  25.018  1.00  0.00     0.068 C 
ATOM     13  C   UNL A   1      35.248  23.544  26.124  1.00  0.00     0.083 C 
BRANCH   9  14
ATOM     14  C   UNL A   1      34.189  20.382  24.955  1.00  0.00     0.364 C 
BRANCH  14  15
ATOM     15  C   UNL A   1      32.820  19.700  24.828  1.00  0.00     0.275 C 
ATOM     16  N   UNL A   1      32.778  18.388  24.428  1.00  0.00    -0.349 N 
ATOM     17  H   UNL A   1      31.894  18.029  24.184  1.00  0.00     0.163 HD
ATOM     18  O   UNL A   1      31.765  20.296  25.054  1.00  0.00    -0.268 OA
BRANCH  16  19
ATOM     19  C   UNL A   1      33.905  17.472  24.326  1.00  0.00     0.076 C 
ATOM     20  C   UNL A   1      33.806  16.383  25.386  1.00  0.00     0.030 C 
ATOM     21  C   UNL A   1      34.050  16.886  22.927  1.00  0.00     0.030 C 
ENDBRANCH  16  19
ENDBRANCH  14  15
ENDBRANCH   9  14
ENDBRANCH   6   8
ENDBRANCH   5   6
ENDBRANCH   4   5
ENDBRANCH   3   4
ENDBRANCH   2   3
ENDBRANCH   1   2
BRANCH   1  22
ATOM     22  C   UNL A   1      31.359  27.961  25.277  1.00  0.00     0.188 C 
BRANCH  22  23
ATOM     23  O   UNL A   1      31.465  29.375  25.375  1.00  0.00    -0.376 OA
BRANCH  23  24
ATOM     24  C   UNL A   1      32.512  29.906  26.177  1.00  0.00     0.202 C 
BRANCH  24  25
ATOM     25  C   UNL A   1      32.204  31.231  26.878  1.00  0.00     0.261 C 
BRANCH  25  26
ATOM     26  O   UNL A   1      33.245  32.206  26.670  1.00  0.00    -0.460 OA
BRANCH  26  27
ATOM     27  C   UNL A   1      33.700  32.820  27.789  1.00  0.00     0.338 C 
ATOM     28  O   UNL A   1      33.118  33.632  28.486  1.00  0.00    -0.246 OA
BRANCH  27  29
ATOM     29  C   UNL A   1      35.004  32.246  28.166  1.00  0.00     0.060 A 
ATOM     30  C   UNL A   1      35.044  30.931  28.651  1.00  0.00     0.016 A 
ATOM     31  C   UNL A   1      36.155  33.032  28.143  1.00  0.00     0.016 A 
ATOM     32  C   UNL A   1      36.233  30.408  29.161  1.00  0.00     0.010 A 
ATOM     33  C   UNL A   1      37.336  32.519  28.679  1.00  0.00     0.010 A 
ATOM     34  C   UNL A   1      37.368  31.221  29.226  1.00  0.00    -0.014 A 
BRANCH  34  35
ATOM     35  C   UNL A   1      38.540  30.826  30.041  1.00  0.00     0.031 A 
ATOM     36  C   UNL A   1      39.502  29.830  29.459  1.00  0.00     0.074 A 
ATOM     37  C   UNL A   1      38.718  31.297  31.286  1.00  0.00     0.049 A 
ATOM     38  N   UNL A   1      40.450  29.146  30.045  1.00  0.00    -0.248 NA
ATOM     39  C   UNL A   1      39.368  29.564  28.018  1.00  0.00     0.031 C 
ATOM     40  C   UNL A   1      37.906  32.328  31.925  1.00  0.00     0.029 A 
ATOM     41  N   UNL A   1      39.631  30.936  32.245  1.00  0.00    -0.354 N 
ATOM     42  C   UNL A   1      41.004  28.350  29.053  1.00  0.00     0.074 A 
ATOM     43  C   UNL A   1      40.290  28.632  27.827  1.00  0.00     0.031 C 
ATOM     44  C   UNL A   1      38.333  32.492  33.190  1.00  0.00     0.029 A 
ATOM     45  C   UNL A   1      39.412  31.540  33.457  1.00  0.00     0.049 A 
ATOM     46  H   UNL A   1      40.370  30.306  32.080  1.00  0.00     0.167 HD
ATOM     47  C   UNL A   1      42.013  27.454  29.162  1.00  0.00     0.037 A 
ATOM     48  C   UNL A   1      39.985  31.311  34.655  1.00  0.00     0.037 A 
ATOM     49  C   UNL A   1      42.721  27.183  30.383  1.00  0.00     0.049 A 
ATOM     50  C   UNL A   1      41.050  30.249  34.773  1.00  0.00     0.074 A 
ATOM     51  C   UNL A   1      43.753  26.290  30.605  1.00  0.00     0.029 A 
ATOM     52  N   UNL A   1      42.464  27.810  31.593  1.00  0.00    -0.354 N 
ATOM     53  N   UNL A   1      41.553  29.472  33.845  1.00  0.00    -0.248 NA
ATOM     54  C   UNL A   1      41.617  30.023  36.111  1.00  0.00     0.031 C 
ATOM     55  C   UNL A   1      44.096  26.350  31.959  1.00  0.00     0.029 A 
ATOM     56  C   UNL A   1      43.307  27.312  32.570  1.00  0.00     0.049 A 
ATOM     57  H   UNL A   1      41.783  28.507  31.736  1.00  0.00     0.167 HD
ATOM     58  C   UNL A   1      42.514  28.692  34.474  1.00  0.00     0.074 A 
ATOM     59  C   UNL A   1      42.524  29.086  35.867  1.00  0.00     0.031 C 
ATOM     60  C   UNL A   1      43.318  27.739  33.945  1.00  0.00     0.037 A 
BRANCH  47  61
ATOM     61  C   UNL A   1      42.378  26.673  27.936  1.00  0.00     0.064 A 
ATOM     62  C   UNL A   1      41.764  25.450  27.630  1.00  0.00     0.173 A 
ATOM     63  C   UNL A   1      43.340  27.169  27.045  1.00  0.00     0.173 A 
ATOM     64  F   UNL A   1      40.850  24.926  28.461  1.00  0.00    -0.203 F 
ATOM     65  C   UNL A   1      42.116  24.742  26.483  1.00  0.00     0.198 A 
ATOM     66  C   UNL A   1      43.672  26.470  25.888  1.00  0.00     0.198 A 
ATOM     67  F   UNL A   1      43.956  28.335  27.293  1.00  0.00    -0.203 F 
ATOM     68  F   UNL A   1      41.546  23.555  26.230  1.00  0.00    -0.200 F 
ATOM     69  C   UNL A   1      43.064  25.255  25.611  1.00  0.00     0.200 A 
ATOM     70  F   UNL A   1      44.582  26.973  25.041  1.00  0.00    -0.200 F 
ATOM     71  F   UNL A   1      43.398  24.575  24.506  1.00  0.00    -0.200 F 
ENDBRANCH  47  61
BRANCH  48  72
ATOM     72  C   UNL A   1      39.537  32.071  35.848  1.00  0.00     0.064 A 
ATOM     73  C   UNL A   1      38.484  31.607  36.647  1.00  0.00     0.173 A 
ATOM     74  C   UNL A   1      40.142  33.285  36.206  1.00  0.00     0.173 A 
ATOM     75  F   UNL A   1      37.855  30.467  36.327  1.00  0.00    -0.203 F 
ATOM     76  C   UNL A   1      38.046  32.332  37.754  1.00  0.00     0.198 A 
ATOM     77  C   UNL A   1      39.721  33.997  37.328  1.00  0.00     0.198 A 
ATOM     78  F   UNL A   1      41.150  33.777  35.471  1.00  0.00    -0.203 F 
ATOM     79  F   UNL A   1      37.010  31.886  38.477  1.00  0.00    -0.200 F 
ATOM     80  C   UNL A   1      38.669  33.523  38.096  1.00  0.00     0.200 A 
ATOM     81  F   UNL A   1      40.330  35.144  37.660  1.00  0.00    -0.200 F 
ATOM     82  F   UNL A   1      38.249  34.219  39.162  1.00  0.00    -0.200 F 
ENDBRANCH  48  72
BRANCH  60  83
ATOM     83  C   UNL A   1      44.319  27.091  34.854  1.00  0.00     0.064 A 
ATOM     84  C   UNL A   1      44.059  25.865  35.481  1.00  0.00     0.173 A 
ATOM     85  C   UNL A   1      45.587  27.666  35.029  1.00  0.00     0.173 A 
ATOM     86  F   UNL A   1      42.857  25.283  35.352  1.00  0.00    -0.203 F 
ATOM     87  C   UNL A   1      45.031  25.241  36.258  1.00  0.00     0.198 A 
ATOM     88  C   UNL A   1      46.564  27.030  35.788  1.00  0.00     0.198 A 
ATOM     89  F   UNL A   1      45.885  28.836  34.443  1.00  0.00    -0.203 F 
ATOM     90  F   UNL A   1      44.755  24.081  36.869  1.00  0.00    -0.200 F 
ATOM     91  C   UNL A   1      46.285  25.819  36.403  1.00  0.00     0.200 A 
ATOM     92  F   UNL A   1      47.777  27.583  35.917  1.00  0.00    -0.200 F 
ATOM     93  F   UNL A   1      47.225  25.208  37.138  1.00  0.00    -0.200 F 
ENDBRANCH  60  83
ENDBRANCH  34  35
ENDBRANCH  27  29
ENDBRANCH  26  27
ENDBRANCH  25  26
ENDBRANCH  24  25
ENDBRANCH  23  24
ENDBRANCH  22  23
ENDBRANCH   1  22
TORSDOF 20
ENDMDL
