MODEL 1
REMARK VINA RESULT:      -9.2      0.000      0.000
REMARK SMILES CC(C)Oc1ccc(-c2ccc(/C(=C\c3ccc(S(C)(=O)=O)cc3)C(=O)OCCOCCOCCOC(=O)c3ccc(-c4c5nc(c(-c6c(F)c(F)c(F)c(F)c6F)c6ccc([nH]6)c(-c6c(F)c(F)c(F)c(F)c6F)c6nc(c(-c7c(F)c(F)c(F)c(F)c7F)c7ccc4[nH]7)C=C6)C=C5)cc3)cc2)cc1
REMARK SMILES IDX 31 1 30 2 29 3 28 4 27 5 25 6 26 7 13 8 14 9 12 10 9 11
REMARK SMILES IDX 10 12 103 13 11 14 102 15 8 16 5 17 6 18 105 19 7 20 104 21
REMARK SMILES IDX 4 22 2 23 1 24 3 25 15 26 16 27 24 28 17 29 23 30 18 31
REMARK SMILES IDX 19 32 20 33 21 34 22 35 32 36 33 37 34 38 35 39 36 40 37 41
REMARK SMILES IDX 38 42 39 43 40 44 101 45 41 46 100 47 42 48 43 49 44 50
REMARK SMILES IDX 94 51 45 52 99 53 93 54 95 55 46 56 98 57 92 58 91 59 47 61
REMARK SMILES IDX 79 62 59 63 78 64 60 65 63 66 77 67 96 68 61 69 62 70 76 72
REMARK SMILES IDX 97 73 64 74 48 75 49 76 57 77 50 78 51 79 55 80 58 81 52 82
REMARK SMILES IDX 53 83 56 84 54 85 80 86 81 87 89 88 82 89 83 90 87 91 90 92
REMARK SMILES IDX 84 93 85 94 88 95 86 96 65 97 66 98 74 99 67 100 68 101
REMARK SMILES IDX 72 102 75 103 69 104 70 105 73 106 71 107
REMARK H PARENT 95 60 63 71
REMARK Flexibility Score: inf
ROOT
ATOM      1  C   UNL A   1      33.040  36.407  31.295  1.00  0.00     0.188 C 
ENDROOT
BRANCH   1   2
ATOM      2  O   UNL A   1      33.128  36.854  29.965  1.00  0.00    -0.376 OA
BRANCH   2   3
ATOM      3  C   UNL A   1      33.643  36.001  28.954  1.00  0.00     0.202 C 
BRANCH   3   4
ATOM      4  C   UNL A   1      33.266  34.519  28.734  1.00  0.00     0.261 C 
BRANCH   4   5
ATOM      5  O   UNL A   1      34.303  33.615  28.347  1.00  0.00    -0.460 OA
BRANCH   5   6
ATOM      6  C   UNL A   1      34.539  32.559  29.178  1.00  0.00     0.338 C 
ATOM      7  O   UNL A   1      34.485  32.597  30.399  1.00  0.00    -0.246 OA
BRANCH   6   8
ATOM      8  C   UNL A   1      34.726  31.286  28.393  1.00  0.00     0.067 C 
ATOM      9  C   UNL A   1      33.655  30.901  27.651  1.00  0.00     0.024 C 
BRANCH   8  10
ATOM     10  C   UNL A   1      36.023  30.539  28.517  1.00  0.00    -0.011 A 
ATOM     11  C   UNL A   1      38.328  28.822  28.623  1.00  0.00    -0.018 A 
ATOM     12  C   UNL A   1      38.117  29.703  27.559  1.00  0.00     0.009 A 
ATOM     13  C   UNL A   1      37.403  28.869  29.671  1.00  0.00     0.009 A 
ATOM     14  C   UNL A   1      37.018  30.574  27.536  1.00  0.00     0.009 A 
ATOM     15  C   UNL A   1      36.277  29.708  29.619  1.00  0.00     0.009 A 
BRANCH  11  16
ATOM     16  C   UNL A   1      39.503  27.926  28.649  1.00  0.00    -0.018 A 
ATOM     17  C   UNL A   1      41.760  26.213  28.750  1.00  0.00     0.119 A 
ATOM     18  C   UNL A   1      41.878  27.559  29.086  1.00  0.00     0.047 A 
ATOM     19  C   UNL A   1      40.518  25.713  28.381  1.00  0.00     0.047 A 
ATOM     20  C   UNL A   1      40.766  28.405  29.031  1.00  0.00     0.012 A 
ATOM     21  C   UNL A   1      39.408  26.567  28.315  1.00  0.00     0.012 A 
BRANCH  17  22
ATOM     22  O   UNL A   1      42.865  25.439  28.942  1.00  0.00    -0.491 OA
BRANCH  22  23
ATOM     23  C   UNL A   1      43.130  24.359  28.032  1.00  0.00     0.167 C 
ATOM     24  C   UNL A   1      44.439  24.514  27.266  1.00  0.00     0.052 C 
ATOM     25  C   UNL A   1      42.957  22.971  28.645  1.00  0.00     0.052 C 
ENDBRANCH  22  23
ENDBRANCH  17  22
ENDBRANCH  11  16
ENDBRANCH   8  10
BRANCH   9  26
ATOM     26  C   UNL A   1      33.584  29.771  26.711  1.00  0.00    -0.025 A 
ATOM     27  C   UNL A   1      33.530  28.488  27.272  1.00  0.00     0.009 A 
ATOM     28  C   UNL A   1      33.381  29.934  25.333  1.00  0.00     0.009 A 
ATOM     29  C   UNL A   1      33.131  27.398  26.501  1.00  0.00     0.021 A 
ATOM     30  C   UNL A   1      32.971  28.845  24.554  1.00  0.00     0.021 A 
ATOM     31  C   UNL A   1      32.811  27.592  25.154  1.00  0.00     0.067 A 
BRANCH  31  32
ATOM     32  S   UNL A   1      31.998  26.272  24.281  1.00  0.00     0.175 S 
ATOM     33  C   UNL A   1      33.287  25.516  23.333  1.00  0.00     0.163 C 
ATOM     34  O   UNL A   1      31.556  25.320  25.284  1.00  0.00    -0.224 OA
ATOM     35  O   UNL A   1      31.052  26.868  23.359  1.00  0.00    -0.224 OA
ENDBRANCH  31  32
ENDBRANCH   9  26
ENDBRANCH   6   8
ENDBRANCH   5   6
ENDBRANCH   4   5
ENDBRANCH   3   4
ENDBRANCH   2   3
ENDBRANCH   1   2
BRANCH   1  36
ATOM     36  C   UNL A   1      33.866  37.164  32.353  1.00  0.00     0.188 C 
BRANCH  36  37
ATOM     37  O   UNL A   1      34.590  36.450  33.332  1.00  0.00    -0.376 OA
BRANCH  37  38
ATOM     38  C   UNL A   1      34.887  35.079  33.115  1.00  0.00     0.202 C 
BRANCH  38  39
ATOM     39  C   UNL A   1      36.284  34.583  32.692  1.00  0.00     0.261 C 
BRANCH  39  40
ATOM     40  O   UNL A   1      36.959  33.686  33.586  1.00  0.00    -0.460 OA
BRANCH  40  41
ATOM     41  C   UNL A   1      37.114  32.417  33.139  1.00  0.00     0.338 C 
ATOM     42  O   UNL A   1      36.247  31.562  33.013  1.00  0.00    -0.246 OA
BRANCH  41  43
ATOM     43  C   UNL A   1      38.487  32.235  32.634  1.00  0.00     0.060 A 
ATOM     44  C   UNL A   1      38.672  31.681  31.360  1.00  0.00     0.016 A 
ATOM     45  C   UNL A   1      39.585  32.552  33.433  1.00  0.00     0.016 A 
ATOM     46  C   UNL A   1      39.958  31.429  30.886  1.00  0.00     0.010 A 
ATOM     47  C   UNL A   1      40.875  32.274  32.967  1.00  0.00     0.010 A 
ATOM     48  C   UNL A   1      41.067  31.690  31.701  1.00  0.00    -0.014 A 
BRANCH  48  49
ATOM     49  C   UNL A   1      42.410  31.200  31.303  1.00  0.00     0.031 A 
ATOM     50  C   UNL A   1      42.873  29.864  31.811  1.00  0.00     0.074 A 
ATOM     51  C   UNL A   1      43.200  31.915  30.483  1.00  0.00     0.049 A 
ATOM     52  N   UNL A   1      44.014  29.251  31.624  1.00  0.00    -0.248 NA
ATOM     53  C   UNL A   1      41.919  29.121  32.649  1.00  0.00     0.031 C 
ATOM     54  C   UNL A   1      42.847  33.200  29.888  1.00  0.00     0.029 A 
ATOM     55  N   UNL A   1      44.454  31.648  29.993  1.00  0.00    -0.354 N 
ATOM     56  C   UNL A   1      43.928  28.069  32.344  1.00  0.00     0.074 A 
ATOM     57  C   UNL A   1      42.627  28.052  32.978  1.00  0.00     0.031 C 
ATOM     58  C   UNL A   1      43.847  33.595  29.082  1.00  0.00     0.029 A 
ATOM     59  C   UNL A   1      44.938  32.624  29.157  1.00  0.00     0.049 A 
ATOM     60  H   UNL A   1      44.960  30.834  30.220  1.00  0.00     0.167 HD
ATOM     61  C   UNL A   1      44.853  27.088  32.472  1.00  0.00     0.037 A 
ATOM     62  C   UNL A   1      46.134  32.730  28.542  1.00  0.00     0.037 A 
ATOM     63  C   UNL A   1      46.149  27.109  31.846  1.00  0.00     0.049 A 
ATOM     64  C   UNL A   1      47.170  31.651  28.751  1.00  0.00     0.074 A 
ATOM     65  C   UNL A   1      47.152  26.157  31.909  1.00  0.00     0.029 A 
ATOM     66  N   UNL A   1      46.629  28.142  31.056  1.00  0.00    -0.354 N 
ATOM     67  N   UNL A   1      47.081  30.533  29.431  1.00  0.00    -0.248 NA
ATOM     68  C   UNL A   1      48.482  31.861  28.121  1.00  0.00     0.031 C 
ATOM     69  C   UNL A   1      48.261  26.641  31.209  1.00  0.00     0.029 A 
ATOM     70  C   UNL A   1      47.925  27.864  30.649  1.00  0.00     0.049 A 
ATOM     71  H   UNL A   1      46.125  28.953  30.816  1.00  0.00     0.167 HD
ATOM     72  C   UNL A   1      48.309  29.898  29.287  1.00  0.00     0.074 A 
ATOM     73  C   UNL A   1      49.121  30.746  28.443  1.00  0.00     0.031 C 
ATOM     74  C   UNL A   1      48.726  28.718  29.808  1.00  0.00     0.037 A 
BRANCH  61  75
ATOM     75  C   UNL A   1      44.514  25.929  33.365  1.00  0.00     0.064 A 
ATOM     76  C   UNL A   1      44.131  24.681  32.848  1.00  0.00     0.173 A 
ATOM     77  C   UNL A   1      44.602  26.062  34.759  1.00  0.00     0.173 A 
ATOM     78  F   UNL A   1      44.018  24.505  31.523  1.00  0.00    -0.203 F 
ATOM     79  C   UNL A   1      43.819  23.622  33.696  1.00  0.00     0.198 A 
ATOM     80  C   UNL A   1      44.322  24.990  35.602  1.00  0.00     0.198 A 
ATOM     81  F   UNL A   1      44.968  27.231  35.306  1.00  0.00    -0.203 F 
ATOM     82  F   UNL A   1      43.403  22.456  33.181  1.00  0.00    -0.200 F 
ATOM     83  C   UNL A   1      43.922  23.774  35.070  1.00  0.00     0.200 A 
ATOM     84  F   UNL A   1      44.437  25.136  36.930  1.00  0.00    -0.200 F 
ATOM     85  F   UNL A   1      43.629  22.750  35.884  1.00  0.00    -0.200 F 
ENDBRANCH  61  75
BRANCH  62  86
ATOM     86  C   UNL A   1      46.443  33.918  27.699  1.00  0.00     0.064 A 
ATOM     87  C   UNL A   1      47.049  35.059  28.244  1.00  0.00     0.173 A 
ATOM     88  C   UNL A   1      46.097  33.953  26.340  1.00  0.00     0.173 A 
ATOM     89  F   UNL A   1      47.360  35.096  29.547  1.00  0.00    -0.203 F 
ATOM     90  C   UNL A   1      47.277  36.195  27.466  1.00  0.00     0.198 A 
ATOM     91  C   UNL A   1      46.360  35.074  25.555  1.00  0.00     0.198 A 
ATOM     92  F   UNL A   1      45.502  32.895  25.769  1.00  0.00    -0.203 F 
ATOM     93  F   UNL A   1      47.797  37.295  28.028  1.00  0.00    -0.200 F 
ATOM     94  C   UNL A   1      46.940  36.198  26.121  1.00  0.00     0.200 A 
ATOM     95  F   UNL A   1      46.037  35.069  24.255  1.00  0.00    -0.200 F 
ATOM     96  F   UNL A   1      47.156  37.290  25.376  1.00  0.00    -0.200 F 
ENDBRANCH  62  86
BRANCH  74  97
ATOM     97  C   UNL A   1      50.113  28.253  29.458  1.00  0.00     0.064 A 
ATOM     98  C   UNL A   1      51.236  28.640  30.204  1.00  0.00     0.173 A 
ATOM     99  C   UNL A   1      50.314  27.368  28.387  1.00  0.00     0.173 A 
ATOM    100  F   UNL A   1      51.102  29.492  31.232  1.00  0.00    -0.203 F 
ATOM    101  C   UNL A   1      52.510  28.182  29.875  1.00  0.00     0.198 A 
ATOM    102  C   UNL A   1      51.584  26.884  28.082  1.00  0.00     0.198 A 
ATOM    103  F   UNL A   1      49.275  26.957  27.644  1.00  0.00    -0.203 F 
ATOM    104  F   UNL A   1      53.573  28.607  30.572  1.00  0.00    -0.200 F 
ATOM    105  C   UNL A   1      52.682  27.298  28.820  1.00  0.00     0.200 A 
ATOM    106  F   UNL A   1      51.744  26.014  27.075  1.00  0.00    -0.200 F 
ATOM    107  F   UNL A   1      53.906  26.850  28.513  1.00  0.00    -0.200 F 
ENDBRANCH  74  97
ENDBRANCH  48  49
ENDBRANCH  41  43
ENDBRANCH  40  41
ENDBRANCH  39  40
ENDBRANCH  38  39
ENDBRANCH  37  38
ENDBRANCH  36  37
ENDBRANCH   1  36
TORSDOF 23
ENDMDL
MODEL 2
REMARK VINA RESULT:      -8.6      6.069     13.734
REMARK SMILES CC(C)Oc1ccc(-c2ccc(/C(=C\c3ccc(S(C)(=O)=O)cc3)C(=O)OCCOCCOCCOC(=O)c3ccc(-c4c5nc(c(-c6c(F)c(F)c(F)c(F)c6F)c6ccc([nH]6)c(-c6c(F)c(F)c(F)c(F)c6F)c6nc(c(-c7c(F)c(F)c(F)c(F)c7F)c7ccc4[nH]7)C=C6)C=C5)cc3)cc2)cc1
REMARK SMILES IDX 31 1 30 2 29 3 28 4 27 5 25 6 26 7 13 8 14 9 12 10 9 11
REMARK SMILES IDX 10 12 103 13 11 14 102 15 8 16 5 17 6 18 105 19 7 20 104 21
REMARK SMILES IDX 4 22 2 23 1 24 3 25 15 26 16 27 24 28 17 29 23 30 18 31
REMARK SMILES IDX 19 32 20 33 21 34 22 35 32 36 33 37 34 38 35 39 36 40 37 41
REMARK SMILES IDX 38 42 39 43 40 44 101 45 41 46 100 47 42 48 43 49 44 50
REMARK SMILES IDX 94 51 45 52 99 53 93 54 95 55 46 56 98 57 92 58 91 59 47 61
REMARK SMILES IDX 79 62 59 63 78 64 60 65 63 66 77 67 96 68 61 69 62 70 76 72
REMARK SMILES IDX 97 73 64 74 48 75 49 76 57 77 50 78 51 79 55 80 58 81 52 82
REMARK SMILES IDX 53 83 56 84 54 85 80 86 81 87 89 88 82 89 83 90 87 91 90 92
REMARK SMILES IDX 84 93 85 94 88 95 86 96 65 97 66 98 74 99 67 100 68 101
REMARK SMILES IDX 72 102 75 103 69 104 70 105 73 106 71 107
REMARK H PARENT 95 60 63 71
REMARK Flexibility Score: inf
ROOT
ATOM      1  C   UNL A   1      51.997  21.296  32.799  1.00  0.00     0.188 C 
ENDROOT
BRANCH   1   2
ATOM      2  O   UNL A   1      52.314  20.307  33.745  1.00  0.00    -0.376 OA
BRANCH   2   3
ATOM      3  C   UNL A   1      51.286  19.646  34.465  1.00  0.00     0.202 C 
BRANCH   3   4
ATOM      4  C   UNL A   1      50.073  20.321  35.144  1.00  0.00     0.261 C 
BRANCH   4   5
ATOM      5  O   UNL A   1      49.079  20.913  34.303  1.00  0.00    -0.460 OA
BRANCH   5   6
ATOM      6  C   UNL A   1      47.922  20.210  34.132  1.00  0.00     0.338 C 
ATOM      7  O   UNL A   1      47.810  19.188  33.470  1.00  0.00    -0.246 OA
BRANCH   6   8
ATOM      8  C   UNL A   1      46.819  20.770  34.993  1.00  0.00     0.067 C 
ATOM      9  C   UNL A   1      46.227  21.895  34.514  1.00  0.00     0.024 C 
BRANCH   8  10
ATOM     10  C   UNL A   1      46.497  20.092  36.294  1.00  0.00    -0.011 A 
ATOM     11  C   UNL A   1      46.119  18.541  38.687  1.00  0.00    -0.018 A 
ATOM     12  C   UNL A   1      46.972  19.647  38.656  1.00  0.00     0.009 A 
ATOM     13  C   UNL A   1      45.400  18.268  37.518  1.00  0.00     0.009 A 
ATOM     14  C   UNL A   1      47.115  20.431  37.502  1.00  0.00     0.009 A 
ATOM     15  C   UNL A   1      45.585  19.026  36.349  1.00  0.00     0.009 A 
BRANCH  11  16
ATOM     16  C   UNL A   1      45.957  17.738  39.916  1.00  0.00    -0.018 A 
ATOM     17  C   UNL A   1      45.652  16.239  42.303  1.00  0.00     0.119 A 
ATOM     18  C   UNL A   1      46.865  16.855  42.005  1.00  0.00     0.047 A 
ATOM     19  C   UNL A   1      44.586  16.380  41.426  1.00  0.00     0.047 A 
ATOM     20  C   UNL A   1      47.016  17.590  40.825  1.00  0.00     0.012 A 
ATOM     21  C   UNL A   1      44.745  17.107  40.238  1.00  0.00     0.012 A 
BRANCH  17  22
ATOM     22  O   UNL A   1      45.559  15.641  43.525  1.00  0.00    -0.491 OA
BRANCH  22  23
ATOM     23  C   UNL A   1      46.725  15.025  44.094  1.00  0.00     0.167 C 
ATOM     24  C   UNL A   1      47.200  15.692  45.380  1.00  0.00     0.052 C 
ATOM     25  C   UNL A   1      46.636  13.505  44.207  1.00  0.00     0.052 C 
ENDBRANCH  22  23
ENDBRANCH  17  22
ENDBRANCH  11  16
ENDBRANCH   8  10
BRANCH   9  26
ATOM     26  C   UNL A   1      45.063  22.595  35.080  1.00  0.00    -0.025 A 
ATOM     27  C   UNL A   1      45.304  23.432  36.179  1.00  0.00     0.009 A 
ATOM     28  C   UNL A   1      43.803  22.609  34.464  1.00  0.00     0.009 A 
ATOM     29  C   UNL A   1      44.357  24.377  36.566  1.00  0.00     0.021 A 
ATOM     30  C   UNL A   1      42.850  23.562  34.842  1.00  0.00     0.021 A 
ATOM     31  C   UNL A   1      43.151  24.466  35.866  1.00  0.00     0.067 A 
BRANCH  31  32
ATOM     32  S   UNL A   1      42.106  25.877  36.159  1.00  0.00     0.175 S 
ATOM     33  C   UNL A   1      42.535  27.012  34.871  1.00  0.00     0.163 C 
ATOM     34  O   UNL A   1      40.741  25.436  35.937  1.00  0.00    -0.224 OA
ATOM     35  O   UNL A   1      42.499  26.463  37.425  1.00  0.00    -0.224 OA
ENDBRANCH  31  32
ENDBRANCH   9  26
ENDBRANCH   6   8
ENDBRANCH   5   6
ENDBRANCH   4   5
ENDBRANCH   3   4
ENDBRANCH   2   3
ENDBRANCH   1   2
BRANCH   1  36
ATOM     36  C   UNL A   1      52.565  22.710  33.035  1.00  0.00     0.188 C 
BRANCH  36  37
ATOM     37  O   UNL A   1      53.961  22.920  33.045  1.00  0.00    -0.376 OA
BRANCH  37  38
ATOM     38  C   UNL A   1      54.464  24.247  33.063  1.00  0.00     0.202 C 
BRANCH  38  39
ATOM     39  C   UNL A   1      54.432  25.171  31.829  1.00  0.00     0.261 C 
BRANCH  39  40
ATOM     40  O   UNL A   1      53.282  26.015  31.672  1.00  0.00    -0.460 OA
BRANCH  40  41
ATOM     41  C   UNL A   1      52.997  26.390  30.402  1.00  0.00     0.338 C 
ATOM     42  O   UNL A   1      53.782  26.520  29.471  1.00  0.00    -0.246 OA
BRANCH  41  43
ATOM     43  C   UNL A   1      51.536  26.459  30.223  1.00  0.00     0.060 A 
ATOM     44  C   UNL A   1      51.021  27.151  29.118  1.00  0.00     0.016 A 
ATOM     45  C   UNL A   1      50.677  25.899  31.169  1.00  0.00     0.016 A 
ATOM     46  C   UNL A   1      49.644  27.296  28.962  1.00  0.00     0.010 A 
ATOM     47  C   UNL A   1      49.295  26.068  31.025  1.00  0.00     0.010 A 
ATOM     48  C   UNL A   1      48.772  26.788  29.935  1.00  0.00    -0.014 A 
BRANCH  48  49
ATOM     49  C   UNL A   1      47.334  27.149  29.901  1.00  0.00     0.031 A 
ATOM     50  C   UNL A   1      46.359  26.182  29.291  1.00  0.00     0.074 A 
ATOM     51  C   UNL A   1      46.892  28.306  30.425  1.00  0.00     0.049 A 
ATOM     52  N   UNL A   1      45.066  26.298  29.121  1.00  0.00    -0.248 NA
ATOM     53  C   UNL A   1      46.921  24.915  28.801  1.00  0.00     0.031 C 
ATOM     54  C   UNL A   1      47.729  29.302  31.084  1.00  0.00     0.029 A 
ATOM     55  N   UNL A   1      45.622  28.824  30.503  1.00  0.00    -0.354 N 
ATOM     56  C   UNL A   1      44.666  25.136  28.478  1.00  0.00     0.074 A 
ATOM     57  C   UNL A   1      45.852  24.330  28.282  1.00  0.00     0.031 C 
ATOM     58  C   UNL A   1      46.946  30.299  31.533  1.00  0.00     0.029 A 
ATOM     59  C   UNL A   1      45.563  30.042  31.134  1.00  0.00     0.049 A 
ATOM     60  H   UNL A   1      44.830  28.366  30.140  1.00  0.00     0.167 HD
ATOM     61  C   UNL A   1      43.423  24.774  28.081  1.00  0.00     0.037 A 
ATOM     62  C   UNL A   1      44.514  30.864  31.345  1.00  0.00     0.037 A 
ATOM     63  C   UNL A   1      42.245  25.580  28.272  1.00  0.00     0.049 A 
ATOM     64  C   UNL A   1      43.150  30.464  30.837  1.00  0.00     0.074 A 
ATOM     65  C   UNL A   1      40.939  25.295  27.912  1.00  0.00     0.029 A 
ATOM     66  N   UNL A   1      42.231  26.835  28.860  1.00  0.00    -0.354 N 
ATOM     67  N   UNL A   1      42.777  29.361  30.232  1.00  0.00    -0.248 NA
ATOM     68  C   UNL A   1      42.062  31.436  31.025  1.00  0.00     0.031 C 
ATOM     69  C   UNL A   1      40.147  26.403  28.225  1.00  0.00     0.029 A 
ATOM     70  C   UNL A   1      40.945  27.351  28.846  1.00  0.00     0.049 A 
ATOM     71  H   UNL A   1      43.019  27.293  29.235  1.00  0.00     0.167 HD
ATOM     72  C   UNL A   1      41.414  29.495  29.995  1.00  0.00     0.074 A 
ATOM     73  C   UNL A   1      41.021  30.779  30.533  1.00  0.00     0.031 C 
ATOM     74  C   UNL A   1      40.564  28.632  29.385  1.00  0.00     0.037 A 
BRANCH  61  75
ATOM     75  C   UNL A   1      43.281  23.469  27.353  1.00  0.00     0.064 A 
ATOM     76  C   UNL A   1      42.686  22.347  27.951  1.00  0.00     0.173 A 
ATOM     77  C   UNL A   1      43.722  23.347  26.027  1.00  0.00     0.173 A 
ATOM     78  F   UNL A   1      42.260  22.405  29.221  1.00  0.00    -0.203 F 
ATOM     79  C   UNL A   1      42.567  21.145  27.257  1.00  0.00     0.198 A 
ATOM     80  C   UNL A   1      43.571  22.155  25.325  1.00  0.00     0.198 A 
ATOM     81  F   UNL A   1      44.295  24.390  25.406  1.00  0.00    -0.203 F 
ATOM     82  F   UNL A   1      42.044  20.072  27.866  1.00  0.00    -0.200 F 
ATOM     83  C   UNL A   1      43.002  21.053  25.944  1.00  0.00     0.200 A 
ATOM     84  F   UNL A   1      43.979  22.072  24.051  1.00  0.00    -0.200 F 
ATOM     85  F   UNL A   1      42.879  19.897  25.275  1.00  0.00    -0.200 F 
ENDBRANCH  61  75
BRANCH  62  86
ATOM     86  C   UNL A   1      44.709  32.169  32.035  1.00  0.00     0.064 A 
ATOM     87  C   UNL A   1      44.721  32.257  33.435  1.00  0.00     0.173 A 
ATOM     88  C   UNL A   1      44.844  33.361  31.308  1.00  0.00     0.173 A 
ATOM     89  F   UNL A   1      44.551  31.155  34.178  1.00  0.00    -0.203 F 
ATOM     90  C   UNL A   1      44.838  33.490  34.078  1.00  0.00     0.198 A 
ATOM     91  C   UNL A   1      44.999  34.587  31.952  1.00  0.00     0.198 A 
ATOM     92  F   UNL A   1      44.826  33.337  29.966  1.00  0.00    -0.203 F 
ATOM     93  F   UNL A   1      44.779  33.554  35.415  1.00  0.00    -0.200 F 
ATOM     94  C   UNL A   1      44.986  34.652  33.335  1.00  0.00     0.200 A 
ATOM     95  F   UNL A   1      45.148  35.705  31.230  1.00  0.00    -0.200 F 
ATOM     96  F   UNL A   1      45.096  35.835  33.954  1.00  0.00    -0.200 F 
ENDBRANCH  62  86
BRANCH  74  97
ATOM     97  C   UNL A   1      39.116  29.029  29.292  1.00  0.00     0.064 A 
ATOM     98  C   UNL A   1      38.271  29.016  30.411  1.00  0.00     0.173 A 
ATOM     99  C   UNL A   1      38.581  29.475  28.073  1.00  0.00     0.173 A 
ATOM    100  F   UNL A   1      38.728  28.589  31.598  1.00  0.00    -0.203 F 
ATOM    101  C   UNL A   1      36.937  29.407  30.307  1.00  0.00     0.198 A 
ATOM    102  C   UNL A   1      37.258  29.899  27.981  1.00  0.00     0.198 A 
ATOM    103  F   UNL A   1      39.348  29.517  26.972  1.00  0.00    -0.203 F 
ATOM    104  F   UNL A   1      36.135  29.337  31.379  1.00  0.00    -0.200 F 
ATOM    105  C   UNL A   1      36.435  29.856  29.095  1.00  0.00     0.200 A 
ATOM    106  F   UNL A   1      36.781  30.351  26.813  1.00  0.00    -0.200 F 
ATOM    107  F   UNL A   1      35.155  30.242  29.000  1.00  0.00    -0.200 F 
ENDBRANCH  74  97
ENDBRANCH  48  49
ENDBRANCH  41  43
ENDBRANCH  40  41
ENDBRANCH  39  40
ENDBRANCH  38  39
ENDBRANCH  37  38
ENDBRANCH  36  37
ENDBRANCH   1  36
TORSDOF 23
ENDMDL
MODEL 3
REMARK VINA RESULT:      -8.6      3.619      8.434
REMARK SMILES CC(C)Oc1ccc(-c2ccc(/C(=C\c3ccc(S(C)(=O)=O)cc3)C(=O)OCCOCCOCCOC(=O)c3ccc(-c4c5nc(c(-c6c(F)c(F)c(F)c(F)c6F)c6ccc([nH]6)c(-c6c(F)c(F)c(F)c(F)c6F)c6nc(c(-c7c(F)c(F)c(F)c(F)c7F)c7ccc4[nH]7)C=C6)C=C5)cc3)cc2)cc1
REMARK SMILES IDX 31 1 30 2 29 3 28 4 27 5 25 6 26 7 13 8 14 9 12 10 9 11
REMARK SMILES IDX 10 12 103 13 11 14 102 15 8 16 5 17 6 18 105 19 7 20 104 21
REMARK SMILES IDX 4 22 2 23 1 24 3 25 15 26 16 27 24 28 17 29 23 30 18 31
REMARK SMILES IDX 19 32 20 33 21 34 22 35 32 36 33 37 34 38 35 39 36 40 37 41
REMARK SMILES IDX 38 42 39 43 40 44 101 45 41 46 100 47 42 48 43 49 44 50
REMARK SMILES IDX 94 51 45 52 99 53 93 54 95 55 46 56 98 57 92 58 91 59 47 61
REMARK SMILES IDX 79 62 59 63 78 64 60 65 63 66 77 67 96 68 61 69 62 70 76 72
REMARK SMILES IDX 97 73 64 74 48 75 49 76 57 77 50 78 51 79 55 80 58 81 52 82
REMARK SMILES IDX 53 83 56 84 54 85 80 86 81 87 89 88 82 89 83 90 87 91 90 92
REMARK SMILES IDX 84 93 85 94 88 95 86 96 65 97 66 98 74 99 67 100 68 101
REMARK SMILES IDX 72 102 75 103 69 104 70 105 73 106 71 107
REMARK H PARENT 95 60 63 71
REMARK Flexibility Score: inf
ROOT
ATOM      1  C   UNL A   1      34.275  36.017  33.020  1.00  0.00     0.188 C 
ENDROOT
BRANCH   1   2
ATOM      2  O   UNL A   1      33.061  36.296  32.369  1.00  0.00    -0.376 OA
BRANCH   2   3
ATOM      3  C   UNL A   1      33.057  36.787  31.038  1.00  0.00     0.202 C 
BRANCH   3   4
ATOM      4  C   UNL A   1      32.988  35.932  29.753  1.00  0.00     0.261 C 
BRANCH   4   5
ATOM      5  O   UNL A   1      33.446  34.579  29.823  1.00  0.00    -0.460 OA
BRANCH   5   6
ATOM      6  C   UNL A   1      34.059  34.081  28.711  1.00  0.00     0.338 C 
ATOM      7  O   UNL A   1      34.048  34.603  27.606  1.00  0.00    -0.246 OA
BRANCH   6   8
ATOM      8  C   UNL A   1      34.889  32.869  29.050  1.00  0.00     0.067 C 
ATOM      9  C   UNL A   1      35.856  33.074  29.983  1.00  0.00     0.024 C 
BRANCH   8  10
ATOM     10  C   UNL A   1      34.625  31.580  28.326  1.00  0.00    -0.011 A 
ATOM     11  C   UNL A   1      34.157  29.302  26.633  1.00  0.00    -0.018 A 
ATOM     12  C   UNL A   1      35.414  29.561  27.185  1.00  0.00     0.009 A 
ATOM     13  C   UNL A   1      33.118  30.163  27.004  1.00  0.00     0.009 A 
ATOM     14  C   UNL A   1      35.627  30.644  28.050  1.00  0.00     0.009 A 
ATOM     15  C   UNL A   1      33.347  31.276  27.831  1.00  0.00     0.009 A 
BRANCH  11  16
ATOM     16  C   UNL A   1      33.939  28.144  25.743  1.00  0.00    -0.018 A 
ATOM     17  C   UNL A   1      33.474  25.912  24.056  1.00  0.00     0.119 A 
ATOM     18  C   UNL A   1      33.629  25.741  25.430  1.00  0.00     0.047 A 
ATOM     19  C   UNL A   1      33.533  27.192  23.522  1.00  0.00     0.047 A 
ATOM     20  C   UNL A   1      33.863  26.841  26.260  1.00  0.00     0.012 A 
ATOM     21  C   UNL A   1      33.781  28.291  24.357  1.00  0.00     0.012 A 
BRANCH  17  22
ATOM     22  O   UNL A   1      33.136  24.803  23.340  1.00  0.00    -0.491 OA
BRANCH  22  23
ATOM     23  C   UNL A   1      31.953  24.072  23.698  1.00  0.00     0.167 C 
ATOM     24  C   UNL A   1      32.020  23.448  25.088  1.00  0.00     0.052 C 
ATOM     25  C   UNL A   1      30.651  24.829  23.445  1.00  0.00     0.052 C 
ENDBRANCH  22  23
ENDBRANCH  17  22
ENDBRANCH  11  16
ENDBRANCH   8  10
BRANCH   9  26
ATOM     26  C   UNL A   1      36.740  32.061  30.583  1.00  0.00    -0.025 A 
ATOM     27  C   UNL A   1      36.212  31.315  31.646  1.00  0.00     0.009 A 
ATOM     28  C   UNL A   1      37.974  31.695  30.026  1.00  0.00     0.009 A 
ATOM     29  C   UNL A   1      36.829  30.133  32.051  1.00  0.00     0.021 A 
ATOM     30  C   UNL A   1      38.594  30.504  30.422  1.00  0.00     0.021 A 
ATOM     31  C   UNL A   1      37.994  29.711  31.406  1.00  0.00     0.067 A 
BRANCH  31  32
ATOM     32  S   UNL A   1      38.575  28.057  31.708  1.00  0.00     0.175 S 
ATOM     33  C   UNL A   1      40.233  28.276  32.287  1.00  0.00     0.163 C 
ATOM     34  O   UNL A   1      37.780  27.530  32.802  1.00  0.00    -0.224 OA
ATOM     35  O   UNL A   1      38.630  27.367  30.434  1.00  0.00    -0.224 OA
ENDBRANCH  31  32
ENDBRANCH   9  26
ENDBRANCH   6   8
ENDBRANCH   5   6
ENDBRANCH   4   5
ENDBRANCH   3   4
ENDBRANCH   2   3
ENDBRANCH   1   2
BRANCH   1  36
ATOM     36  C   UNL A   1      34.793  34.566  32.961  1.00  0.00     0.188 C 
BRANCH  36  37
ATOM     37  O   UNL A   1      34.847  33.784  34.136  1.00  0.00    -0.376 OA
BRANCH  37  38
ATOM     38  C   UNL A   1      35.569  34.266  35.259  1.00  0.00     0.202 C 
BRANCH  38  39
ATOM     39  C   UNL A   1      36.811  33.550  35.825  1.00  0.00     0.261 C 
BRANCH  39  40
ATOM     40  O   UNL A   1      37.101  32.239  35.315  1.00  0.00    -0.460 OA
BRANCH  40  41
ATOM     41  C   UNL A   1      38.254  31.681  35.752  1.00  0.00     0.338 C 
ATOM     42  O   UNL A   1      38.413  30.985  36.747  1.00  0.00    -0.246 OA
BRANCH  41  43
ATOM     43  C   UNL A   1      39.312  31.879  34.745  1.00  0.00     0.060 A 
ATOM     44  C   UNL A   1      40.607  31.421  35.024  1.00  0.00     0.016 A 
ATOM     45  C   UNL A   1      39.045  32.565  33.560  1.00  0.00     0.016 A 
ATOM     46  C   UNL A   1      41.643  31.659  34.123  1.00  0.00     0.010 A 
ATOM     47  C   UNL A   1      40.092  32.826  32.669  1.00  0.00     0.010 A 
ATOM     48  C   UNL A   1      41.400  32.395  32.956  1.00  0.00    -0.014 A 
BRANCH  48  49
ATOM     49  C   UNL A   1      42.537  32.859  32.124  1.00  0.00     0.031 A 
ATOM     50  C   UNL A   1      43.039  34.264  32.302  1.00  0.00     0.074 A 
ATOM     51  C   UNL A   1      43.134  32.041  31.239  1.00  0.00     0.049 A 
ATOM     52  N   UNL A   1      43.993  34.895  31.665  1.00  0.00    -0.248 NA
ATOM     53  C   UNL A   1      42.371  35.066  33.337  1.00  0.00     0.031 C 
ATOM     54  C   UNL A   1      42.771  30.647  31.007  1.00  0.00     0.029 A 
ATOM     55  N   UNL A   1      44.187  32.263  30.387  1.00  0.00    -0.354 N 
ATOM     56  C   UNL A   1      44.017  36.175  32.198  1.00  0.00     0.074 A 
ATOM     57  C   UNL A   1      42.980  36.235  33.206  1.00  0.00     0.031 C 
ATOM     58  C   UNL A   1      43.612  30.124  30.099  1.00  0.00     0.029 A 
ATOM     59  C   UNL A   1      44.530  31.164  29.637  1.00  0.00     0.049 A 
ATOM     60  H   UNL A   1      44.654  33.128  30.319  1.00  0.00     0.167 HD
ATOM     61  C   UNL A   1      44.827  37.211  31.873  1.00  0.00     0.037 A 
ATOM     62  C   UNL A   1      45.462  31.025  28.672  1.00  0.00     0.037 A 
ATOM     63  C   UNL A   1      45.854  37.152  30.866  1.00  0.00     0.049 A 
ATOM     64  C   UNL A   1      46.310  32.213  28.286  1.00  0.00     0.074 A 
ATOM     65  C   UNL A   1      46.732  38.147  30.472  1.00  0.00     0.029 A 
ATOM     66  N   UNL A   1      46.132  36.042  30.083  1.00  0.00    -0.354 N 
ATOM     67  N   UNL A   1      46.330  33.421  28.797  1.00  0.00    -0.248 NA
ATOM     68  C   UNL A   1      47.252  32.022  27.174  1.00  0.00     0.031 C 
ATOM     69  C   UNL A   1      47.497  37.659  29.409  1.00  0.00     0.029 A 
ATOM     70  C   UNL A   1      47.147  36.337  29.187  1.00  0.00     0.049 A 
ATOM     71  H   UNL A   1      45.677  35.172  30.154  1.00  0.00     0.167 HD
ATOM     72  C   UNL A   1      47.301  34.121  28.090  1.00  0.00     0.074 A 
ATOM     73  C   UNL A   1      47.859  33.199  27.124  1.00  0.00     0.031 C 
ATOM     74  C   UNL A   1      47.695  35.411  28.228  1.00  0.00     0.037 A 
BRANCH  61  75
ATOM     75  C   UNL A   1      44.600  38.516  32.581  1.00  0.00     0.064 A 
ATOM     76  C   UNL A   1      45.193  38.801  33.820  1.00  0.00     0.173 A 
ATOM     77  C   UNL A   1      43.797  39.507  31.995  1.00  0.00     0.173 A 
ATOM     78  F   UNL A   1      45.958  37.883  34.430  1.00  0.00    -0.203 F 
ATOM     79  C   UNL A   1      44.966  40.018  34.458  1.00  0.00     0.198 A 
ATOM     80  C   UNL A   1      43.600  40.734  32.620  1.00  0.00     0.198 A 
ATOM     81  F   UNL A   1      43.208  39.288  30.808  1.00  0.00    -0.203 F 
ATOM     82  F   UNL A   1      45.500  40.247  35.666  1.00  0.00    -0.200 F 
ATOM     83  C   UNL A   1      44.177  40.985  33.856  1.00  0.00     0.200 A 
ATOM     84  F   UNL A   1      42.848  41.673  32.028  1.00  0.00    -0.200 F 
ATOM     85  F   UNL A   1      43.965  42.158  34.468  1.00  0.00    -0.200 F 
ENDBRANCH  61  75
BRANCH  62  86
ATOM     86  C   UNL A   1      45.624  29.723  27.967  1.00  0.00     0.064 A 
ATOM     87  C   UNL A   1      44.769  29.351  26.919  1.00  0.00     0.173 A 
ATOM     88  C   UNL A   1      46.610  28.805  28.357  1.00  0.00     0.173 A 
ATOM     89  F   UNL A   1      43.781  30.172  26.536  1.00  0.00    -0.203 F 
ATOM     90  C   UNL A   1      44.882  28.104  26.305  1.00  0.00     0.198 A 
ATOM     91  C   UNL A   1      46.746  27.574  27.717  1.00  0.00     0.198 A 
ATOM     92  F   UNL A   1      47.447  29.102  29.363  1.00  0.00    -0.203 F 
ATOM     93  F   UNL A   1      44.010  27.747  25.352  1.00  0.00    -0.200 F 
ATOM     94  C   UNL A   1      45.876  27.221  26.699  1.00  0.00     0.200 A 
ATOM     95  F   UNL A   1      47.712  26.728  28.098  1.00  0.00    -0.200 F 
ATOM     96  F   UNL A   1      45.982  26.022  26.111  1.00  0.00    -0.200 F 
ENDBRANCH  62  86
BRANCH  74  97
ATOM     97  C   UNL A   1      48.804  35.900  27.337  1.00  0.00     0.064 A 
ATOM     98  C   UNL A   1      48.553  36.413  26.055  1.00  0.00     0.173 A 
ATOM     99  C   UNL A   1      50.131  35.898  27.792  1.00  0.00     0.173 A 
ATOM    100  F   UNL A   1      47.304  36.429  25.566  1.00  0.00    -0.203 F 
ATOM    101  C   UNL A   1      49.592  36.880  25.253  1.00  0.00     0.198 A 
ATOM    102  C   UNL A   1      51.163  36.398  27.002  1.00  0.00     0.198 A 
ATOM    103  F   UNL A   1      50.428  35.427  29.013  1.00  0.00    -0.203 F 
ATOM    104  F   UNL A   1      49.334  37.318  24.013  1.00  0.00    -0.200 F 
ATOM    105  C   UNL A   1      50.895  36.880  25.730  1.00  0.00     0.200 A 
ATOM    106  F   UNL A   1      52.418  36.416  27.473  1.00  0.00    -0.200 F 
ATOM    107  F   UNL A   1      51.891  37.340  24.961  1.00  0.00    -0.200 F 
ENDBRANCH  74  97
ENDBRANCH  48  49
ENDBRANCH  41  43
ENDBRANCH  40  41
ENDBRANCH  39  40
ENDBRANCH  38  39
ENDBRANCH  37  38
ENDBRANCH  36  37
ENDBRANCH   1  36
TORSDOF 23
ENDMDL
