MODEL 1
REMARK VINA RESULT:     -11.0      0.000      0.000
REMARK SMILES C[C@@H]1[C@@H](C(=O)OCCOCCOCCOC(=O)c2ccc(-c3c4nc(c(-c5c(F)c(F)c(F)c(F)c5F)c5ccc([nH]5)c(-c5c(F)c(F)c(F)c(F)c5F)c5nc(c(-c6c(F)c(F)c(F)c(F)c6F)c6ccc3[nH]6)C=C5)C=C4)cc2)CC[N@@H+]1[C@H]1CC[C@@H](C(F)(F)F)CC1
REMARK SMILES IDX 10 1 9 2 8 3 7 4 6 5 4 6 5 7 3 8 1 9 2 10 83 11 81 12 82 13
REMARK SMILES IDX 84 15 85 16 93 17 86 18 92 19 87 20 88 21 89 22 90 23 91 24
REMARK SMILES IDX 11 25 12 26 13 27 14 28 15 29 16 30 17 31 18 32 19 33 80 34
REMARK SMILES IDX 20 35 79 36 21 37 22 38 23 39 73 40 24 41 78 42 72 43 74 44
REMARK SMILES IDX 25 45 77 46 71 47 70 48 26 50 58 51 38 52 57 53 39 54 42 55
REMARK SMILES IDX 56 56 75 57 40 58 41 59 55 61 76 62 43 63 27 64 28 65 36 66
REMARK SMILES IDX 29 67 30 68 34 69 37 70 31 71 32 72 35 73 33 74 59 75 60 76
REMARK SMILES IDX 68 77 61 78 62 79 66 80 69 81 63 82 64 83 67 84 65 85 44 86
REMARK SMILES IDX 45 87 53 88 46 89 47 90 51 91 54 92 48 93 49 94 52 95 50 96
REMARK H PARENT 83 14 74 49 42 60
REMARK Flexibility Score: inf
ROOT
ATOM      1  C   UNL A   1      42.753  18.490  25.992  1.00  0.00     0.188 C 
ENDROOT
BRANCH   1   2
ATOM      2  O   UNL A   1      41.489  19.088  25.787  1.00  0.00    -0.376 OA
BRANCH   2   3
ATOM      3  C   UNL A   1      40.978  20.055  26.696  1.00  0.00     0.202 C 
BRANCH   3   4
ATOM      4  C   UNL A   1      40.364  21.395  26.265  1.00  0.00     0.261 C 
BRANCH   4   5
ATOM      5  O   UNL A   1      38.981  21.549  26.584  1.00  0.00    -0.463 OA
BRANCH   5   6
ATOM      6  C   UNL A   1      38.362  22.625  26.017  1.00  0.00     0.315 C 
ATOM      7  O   UNL A   1      38.699  23.790  26.178  1.00  0.00    -0.252 OA
BRANCH   6   8
ATOM      8  C   UNL A   1      37.248  22.157  25.105  1.00  0.00     0.162 C 
ATOM      9  C   UNL A   1      36.292  23.085  22.981  1.00  0.00     0.076 C 
ATOM     10  C   UNL A   1      36.514  23.353  24.474  1.00  0.00     0.195 C 
ATOM     11  N   UNL A   1      35.327  23.497  25.310  1.00  0.00    -0.330 N 
ATOM     12  C   UNL A   1      36.186  21.391  25.862  1.00  0.00     0.083 C 
ATOM     13  C   UNL A   1      35.257  22.480  26.348  1.00  0.00     0.263 C 
ATOM     14  H   UNL A   1      35.563  24.442  25.614  1.00  0.00     0.348 HD
BRANCH  11  15
ATOM     15  C   UNL A   1      34.099  24.177  24.956  1.00  0.00     0.184 C 
ATOM     16  C   UNL A   1      33.022  24.130  26.053  1.00  0.00     0.066 C 
ATOM     17  C   UNL A   1      34.365  25.601  24.443  1.00  0.00     0.066 C 
ATOM     18  C   UNL A   1      31.754  24.886  25.645  1.00  0.00     0.019 C 
ATOM     19  C   UNL A   1      33.078  26.307  24.036  1.00  0.00     0.019 C 
ATOM     20  C   UNL A   1      32.013  26.314  25.137  1.00  0.00     0.095 C 
BRANCH  20  21
ATOM     21  C   UNL A   1      32.342  27.288  26.266  1.00  0.00     0.391 C 
ATOM     22  F   UNL A   1      31.577  27.039  27.353  1.00  0.00    -0.171 F 
ATOM     23  F   UNL A   1      33.634  27.158  26.646  1.00  0.00    -0.171 F 
ATOM     24  F   UNL A   1      32.151  28.576  25.924  1.00  0.00    -0.171 F 
ENDBRANCH  20  21
ENDBRANCH  11  15
ENDBRANCH   6   8
ENDBRANCH   5   6
ENDBRANCH   4   5
ENDBRANCH   3   4
ENDBRANCH   2   3
ENDBRANCH   1   2
BRANCH   1  25
ATOM     25  C   UNL A   1      44.002  19.065  25.297  1.00  0.00     0.188 C 
BRANCH  25  26
ATOM     26  O   UNL A   1      44.321  20.425  25.462  1.00  0.00    -0.376 OA
BRANCH  26  27
ATOM     27  C   UNL A   1      44.804  21.171  24.356  1.00  0.00     0.202 C 
BRANCH  27  28
ATOM     28  C   UNL A   1      44.231  22.520  23.868  1.00  0.00     0.261 C 
BRANCH  28  29
ATOM     29  O   UNL A   1      43.670  23.408  24.845  1.00  0.00    -0.460 OA
BRANCH  29  30
ATOM     30  C   UNL A   1      44.402  24.515  25.113  1.00  0.00     0.338 C 
ATOM     31  O   UNL A   1      45.462  24.852  24.589  1.00  0.00    -0.246 OA
BRANCH  30  32
ATOM     32  C   UNL A   1      43.647  25.407  26.009  1.00  0.00     0.060 A 
ATOM     33  C   UNL A   1      43.942  26.779  26.007  1.00  0.00     0.016 A 
ATOM     34  C   UNL A   1      42.701  24.887  26.891  1.00  0.00     0.016 A 
ATOM     35  C   UNL A   1      43.297  27.637  26.898  1.00  0.00     0.010 A 
ATOM     36  C   UNL A   1      42.077  25.743  27.803  1.00  0.00     0.010 A 
ATOM     37  C   UNL A   1      42.390  27.116  27.829  1.00  0.00    -0.014 A 
BRANCH  37  38
ATOM     38  C   UNL A   1      41.906  27.959  28.950  1.00  0.00     0.031 A 
ATOM     39  C   UNL A   1      42.664  27.929  30.248  1.00  0.00     0.074 A 
ATOM     40  C   UNL A   1      40.817  28.736  28.823  1.00  0.00     0.049 A 
ATOM     41  N   UNL A   1      42.377  28.488  31.396  1.00  0.00    -0.248 NA
ATOM     42  C   UNL A   1      43.917  27.156  30.251  1.00  0.00     0.031 C 
ATOM     43  C   UNL A   1      40.030  28.901  27.604  1.00  0.00     0.029 A 
ATOM     44  N   UNL A   1      40.176  29.524  29.749  1.00  0.00    -0.354 N 
ATOM     45  C   UNL A   1      43.406  28.131  32.256  1.00  0.00     0.074 A 
ATOM     46  C   UNL A   1      44.310  27.284  31.510  1.00  0.00     0.031 C 
ATOM     47  C   UNL A   1      38.998  29.724  27.861  1.00  0.00     0.029 A 
ATOM     48  C   UNL A   1      39.029  30.110  29.271  1.00  0.00     0.049 A 
ATOM     49  H   UNL A   1      40.506  29.655  30.666  1.00  0.00     0.167 HD
ATOM     50  C   UNL A   1      43.587  28.485  33.551  1.00  0.00     0.037 A 
ATOM     51  C   UNL A   1      38.100  30.847  29.912  1.00  0.00     0.037 A 
ATOM     52  C   UNL A   1      42.682  29.321  34.296  1.00  0.00     0.049 A 
ATOM     53  C   UNL A   1      38.270  31.141  31.382  1.00  0.00     0.074 A 
ATOM     54  C   UNL A   1      42.776  29.734  35.614  1.00  0.00     0.029 A 
ATOM     55  N   UNL A   1      41.514  29.868  33.787  1.00  0.00    -0.354 N 
ATOM     56  N   UNL A   1      39.249  30.810  32.190  1.00  0.00    -0.248 NA
ATOM     57  C   UNL A   1      37.201  31.915  32.031  1.00  0.00     0.031 C 
ATOM     58  C   UNL A   1      41.638  30.487  35.918  1.00  0.00     0.029 A 
ATOM     59  C   UNL A   1      40.865  30.595  34.774  1.00  0.00     0.049 A 
ATOM     60  H   UNL A   1      41.193  29.757  32.864  1.00  0.00     0.167 HD
ATOM     61  C   UNL A   1      38.933  31.364  33.425  1.00  0.00     0.074 A 
ATOM     62  C   UNL A   1      37.677  32.062  33.260  1.00  0.00     0.031 C 
ATOM     63  C   UNL A   1      39.623  31.303  34.591  1.00  0.00     0.037 A 
BRANCH  50  64
ATOM     64  C   UNL A   1      44.797  27.945  34.254  1.00  0.00     0.064 A 
ATOM     65  C   UNL A   1      46.028  28.619  34.226  1.00  0.00     0.173 A 
ATOM     66  C   UNL A   1      44.717  26.756  34.995  1.00  0.00     0.173 A 
ATOM     67  F   UNL A   1      46.161  29.751  33.520  1.00  0.00    -0.203 F 
ATOM     68  C   UNL A   1      47.138  28.110  34.894  1.00  0.00     0.198 A 
ATOM     69  C   UNL A   1      45.821  26.266  35.687  1.00  0.00     0.198 A 
ATOM     70  F   UNL A   1      43.563  26.074  35.057  1.00  0.00    -0.203 F 
ATOM     71  F   UNL A   1      48.315  28.746  34.815  1.00  0.00    -0.200 F 
ATOM     72  C   UNL A   1      47.032  26.939  35.630  1.00  0.00     0.200 A 
ATOM     73  F   UNL A   1      45.713  25.142  36.409  1.00  0.00    -0.200 F 
ATOM     74  F   UNL A   1      48.099  26.456  36.280  1.00  0.00    -0.200 F 
ENDBRANCH  50  64
BRANCH  51  75
ATOM     75  C   UNL A   1      36.905  31.347  29.181  1.00  0.00     0.064 A 
ATOM     76  C   UNL A   1      36.781  32.702  28.841  1.00  0.00     0.173 A 
ATOM     77  C   UNL A   1      35.841  30.494  28.851  1.00  0.00     0.173 A 
ATOM     78  F   UNL A   1      37.757  33.564  29.163  1.00  0.00    -0.203 F 
ATOM     79  C   UNL A   1      35.631  33.188  28.223  1.00  0.00     0.198 A 
ATOM     80  C   UNL A   1      34.704  30.977  28.205  1.00  0.00     0.198 A 
ATOM     81  F   UNL A   1      35.903  29.191  29.161  1.00  0.00    -0.203 F 
ATOM     82  F   UNL A   1      35.514  34.499  27.966  1.00  0.00    -0.200 F 
ATOM     83  C   UNL A   1      34.595  32.325  27.902  1.00  0.00     0.200 A 
ATOM     84  F   UNL A   1      33.709  30.136  27.890  1.00  0.00    -0.200 F 
ATOM     85  F   UNL A   1      33.487  32.794  27.313  1.00  0.00    -0.200 F 
ENDBRANCH  51  75
BRANCH  63  86
ATOM     86  C   UNL A   1      39.069  32.053  35.769  1.00  0.00     0.064 A 
ATOM     87  C   UNL A   1      38.240  31.437  36.718  1.00  0.00     0.173 A 
ATOM     88  C   UNL A   1      39.411  33.399  35.975  1.00  0.00     0.173 A 
ATOM     89  F   UNL A   1      37.872  30.156  36.562  1.00  0.00    -0.203 F 
ATOM     90  C   UNL A   1      37.753  32.146  37.813  1.00  0.00     0.198 A 
ATOM     91  C   UNL A   1      38.950  34.096  37.089  1.00  0.00     0.198 A 
ATOM     92  F   UNL A   1      40.208  34.036  35.104  1.00  0.00    -0.203 F 
ATOM     93  F   UNL A   1      36.923  31.549  38.681  1.00  0.00    -0.200 F 
ATOM     94  C   UNL A   1      38.115  33.471  38.002  1.00  0.00     0.200 A 
ATOM     95  F   UNL A   1      39.315  35.371  37.278  1.00  0.00    -0.200 F 
ATOM     96  F   UNL A   1      37.654  34.149  39.063  1.00  0.00    -0.200 F 
ENDBRANCH  63  86
ENDBRANCH  37  38
ENDBRANCH  30  32
ENDBRANCH  29  30
ENDBRANCH  28  29
ENDBRANCH  27  28
ENDBRANCH  26  27
ENDBRANCH  25  26
ENDBRANCH   1  25
TORSDOF 19
ENDMDL
MODEL 2
REMARK VINA RESULT:     -10.9      4.140      9.308
REMARK SMILES C[C@@H]1[C@@H](C(=O)OCCOCCOCCOC(=O)c2ccc(-c3c4nc(c(-c5c(F)c(F)c(F)c(F)c5F)c5ccc([nH]5)c(-c5c(F)c(F)c(F)c(F)c5F)c5nc(c(-c6c(F)c(F)c(F)c(F)c6F)c6ccc3[nH]6)C=C5)C=C4)cc2)CC[N@@H+]1[C@H]1CC[C@@H](C(F)(F)F)CC1
REMARK SMILES IDX 10 1 9 2 8 3 7 4 6 5 4 6 5 7 3 8 1 9 2 10 83 11 81 12 82 13
REMARK SMILES IDX 84 15 85 16 93 17 86 18 92 19 87 20 88 21 89 22 90 23 91 24
REMARK SMILES IDX 11 25 12 26 13 27 14 28 15 29 16 30 17 31 18 32 19 33 80 34
REMARK SMILES IDX 20 35 79 36 21 37 22 38 23 39 73 40 24 41 78 42 72 43 74 44
REMARK SMILES IDX 25 45 77 46 71 47 70 48 26 50 58 51 38 52 57 53 39 54 42 55
REMARK SMILES IDX 56 56 75 57 40 58 41 59 55 61 76 62 43 63 27 64 28 65 36 66
REMARK SMILES IDX 29 67 30 68 34 69 37 70 31 71 32 72 35 73 33 74 59 75 60 76
REMARK SMILES IDX 68 77 61 78 62 79 66 80 69 81 63 82 64 83 67 84 65 85 44 86
REMARK SMILES IDX 45 87 53 88 46 89 47 90 51 91 54 92 48 93 49 94 52 95 50 96
REMARK H PARENT 83 14 74 49 42 60
REMARK Flexibility Score: inf
ROOT
ATOM      1  C   UNL A   1      31.387  29.346  24.275  1.00  0.00     0.188 C 
ENDROOT
BRANCH   1   2
ATOM      2  O   UNL A   1      31.750  27.984  24.185  1.00  0.00    -0.376 OA
BRANCH   2   3
ATOM      3  C   UNL A   1      31.555  27.098  25.279  1.00  0.00     0.202 C 
BRANCH   3   4
ATOM      4  C   UNL A   1      31.879  25.597  25.236  1.00  0.00     0.261 C 
BRANCH   4   5
ATOM      5  O   UNL A   1      31.959  24.965  26.513  1.00  0.00    -0.463 OA
BRANCH   5   6
ATOM      6  C   UNL A   1      32.048  23.603  26.491  1.00  0.00     0.315 C 
ATOM      7  O   UNL A   1      31.165  22.839  26.855  1.00  0.00    -0.252 OA
BRANCH   6   8
ATOM      8  C   UNL A   1      33.370  23.184  25.883  1.00  0.00     0.162 C 
ATOM      9  C   UNL A   1      34.088  22.751  23.519  1.00  0.00     0.076 C 
ATOM     10  C   UNL A   1      33.149  22.298  24.644  1.00  0.00     0.195 C 
ATOM     11  N   UNL A   1      33.331  20.946  25.161  1.00  0.00    -0.330 N 
ATOM     12  C   UNL A   1      34.185  22.340  26.836  1.00  0.00     0.083 C 
ATOM     13  C   UNL A   1      33.682  20.940  26.574  1.00  0.00     0.263 C 
ATOM     14  H   UNL A   1      32.384  20.648  24.927  1.00  0.00     0.348 HD
BRANCH  11  15
ATOM     15  C   UNL A   1      33.638  19.761  24.390  1.00  0.00     0.184 C 
ATOM     16  C   UNL A   1      34.820  18.945  24.944  1.00  0.00     0.066 C 
ATOM     17  C   UNL A   1      32.388  18.904  24.142  1.00  0.00     0.066 C 
ATOM     18  C   UNL A   1      35.088  17.688  24.113  1.00  0.00     0.019 C 
ATOM     19  C   UNL A   1      32.701  17.674  23.300  1.00  0.00     0.019 C 
ATOM     20  C   UNL A   1      33.842  16.822  23.867  1.00  0.00     0.095 C 
BRANCH  20  21
ATOM     21  C   UNL A   1      33.424  16.029  25.103  1.00  0.00     0.391 C 
ATOM     22  F   UNL A   1      34.359  15.105  25.419  1.00  0.00    -0.171 F 
ATOM     23  F   UNL A   1      33.292  16.848  26.171  1.00  0.00    -0.171 F 
ATOM     24  F   UNL A   1      32.254  15.382  24.944  1.00  0.00    -0.171 F 
ENDBRANCH  20  21
ENDBRANCH  11  15
ENDBRANCH   6   8
ENDBRANCH   5   6
ENDBRANCH   4   5
ENDBRANCH   3   4
ENDBRANCH   2   3
ENDBRANCH   1   2
BRANCH   1  25
ATOM     25  C   UNL A   1      31.513  30.093  25.617  1.00  0.00     0.188 C 
BRANCH  25  26
ATOM     26  O   UNL A   1      31.145  31.448  25.690  1.00  0.00    -0.376 OA
BRANCH  26  27
ATOM     27  C   UNL A   1      31.395  32.179  26.881  1.00  0.00     0.202 C 
BRANCH  27  28
ATOM     28  C   UNL A   1      32.257  33.457  26.982  1.00  0.00     0.261 C 
BRANCH  28  29
ATOM     29  O   UNL A   1      32.603  33.936  28.289  1.00  0.00    -0.460 OA
BRANCH  29  30
ATOM     30  C   UNL A   1      33.782  34.596  28.373  1.00  0.00     0.338 C 
ATOM     31  O   UNL A   1      33.959  35.812  28.335  1.00  0.00    -0.246 OA
BRANCH  30  32
ATOM     32  C   UNL A   1      34.857  33.654  28.726  1.00  0.00     0.060 A 
ATOM     33  C   UNL A   1      34.519  32.442  29.347  1.00  0.00     0.016 A 
ATOM     34  C   UNL A   1      36.192  33.990  28.507  1.00  0.00     0.016 A 
ATOM     35  C   UNL A   1      35.520  31.563  29.762  1.00  0.00     0.010 A 
ATOM     36  C   UNL A   1      37.195  33.122  28.951  1.00  0.00     0.010 A 
ATOM     37  C   UNL A   1      36.865  31.918  29.603  1.00  0.00    -0.014 A 
BRANCH  37  38
ATOM     38  C   UNL A   1      37.928  31.132  30.275  1.00  0.00     0.031 A 
ATOM     39  C   UNL A   1      38.209  31.402  31.728  1.00  0.00     0.074 A 
ATOM     40  C   UNL A   1      38.634  30.197  29.616  1.00  0.00     0.049 A 
ATOM     41  N   UNL A   1      39.153  30.927  32.498  1.00  0.00    -0.248 NA
ATOM     42  C   UNL A   1      37.299  32.344  32.400  1.00  0.00     0.031 C 
ATOM     43  C   UNL A   1      38.421  29.798  28.227  1.00  0.00     0.029 A 
ATOM     44  N   UNL A   1      39.689  29.423  30.033  1.00  0.00    -0.354 N 
ATOM     45  C   UNL A   1      38.956  31.513  33.741  1.00  0.00     0.074 A 
ATOM     46  C   UNL A   1      37.821  32.402  33.617  1.00  0.00     0.031 C 
ATOM     47  C   UNL A   1      39.332  28.866  27.898  1.00  0.00     0.029 A 
ATOM     48  C   UNL A   1      40.216  28.633  29.040  1.00  0.00     0.049 A 
ATOM     49  H   UNL A   1      40.036  29.435  30.953  1.00  0.00     0.167 HD
ATOM     50  C   UNL A   1      39.653  31.322  34.886  1.00  0.00     0.037 A 
ATOM     51  C   UNL A   1      41.305  27.839  29.050  1.00  0.00     0.037 A 
ATOM     52  C   UNL A   1      40.787  30.444  35.007  1.00  0.00     0.049 A 
ATOM     53  C   UNL A   1      42.128  27.722  30.310  1.00  0.00     0.074 A 
ATOM     54  C   UNL A   1      41.563  30.185  36.124  1.00  0.00     0.029 A 
ATOM     55  N   UNL A   1      41.312  29.686  33.971  1.00  0.00    -0.354 N 
ATOM     56  N   UNL A   1      41.933  28.272  31.485  1.00  0.00    -0.248 NA
ATOM     57  C   UNL A   1      43.326  26.872  30.244  1.00  0.00     0.031 C 
ATOM     58  C   UNL A   1      42.588  29.311  35.751  1.00  0.00     0.029 A 
ATOM     59  C   UNL A   1      42.416  28.978  34.418  1.00  0.00     0.049 A 
ATOM     60  H   UNL A   1      40.953  29.656  33.056  1.00  0.00     0.167 HD
ATOM     61  C   UNL A   1      42.956  27.805  32.302  1.00  0.00     0.074 A 
ATOM     62  C   UNL A   1      43.766  26.920  31.493  1.00  0.00     0.031 C 
ATOM     63  C   UNL A   1      43.203  28.083  33.607  1.00  0.00     0.037 A 
BRANCH  50  64
ATOM     64  C   UNL A   1      39.224  32.099  36.096  1.00  0.00     0.064 A 
ATOM     65  C   UNL A   1      39.720  33.385  36.360  1.00  0.00     0.173 A 
ATOM     66  C   UNL A   1      38.277  31.567  36.984  1.00  0.00     0.173 A 
ATOM     67  F   UNL A   1      40.639  33.933  35.551  1.00  0.00    -0.203 F 
ATOM     68  C   UNL A   1      39.303  34.097  37.481  1.00  0.00     0.198 A 
ATOM     69  C   UNL A   1      37.838  32.294  38.086  1.00  0.00     0.198 A 
ATOM     70  F   UNL A   1      37.768  30.342  36.776  1.00  0.00    -0.203 F 
ATOM     71  F   UNL A   1      39.825  35.304  37.739  1.00  0.00    -0.200 F 
ATOM     72  C   UNL A   1      38.357  33.555  38.339  1.00  0.00     0.200 A 
ATOM     73  F   UNL A   1      36.914  31.774  38.906  1.00  0.00    -0.200 F 
ATOM     74  F   UNL A   1      37.949  34.246  39.411  1.00  0.00    -0.200 F 
ENDBRANCH  50  64
BRANCH  51  75
ATOM     75  C   UNL A   1      41.706  27.100  27.823  1.00  0.00     0.064 A 
ATOM     76  C   UNL A   1      41.239  25.800  27.577  1.00  0.00     0.173 A 
ATOM     77  C   UNL A   1      42.601  27.655  26.896  1.00  0.00     0.173 A 
ATOM     78  F   UNL A   1      40.407  25.213  28.450  1.00  0.00    -0.203 F 
ATOM     79  C   UNL A   1      41.671  25.077  26.468  1.00  0.00     0.198 A 
ATOM     80  C   UNL A   1      43.008  26.942  25.770  1.00  0.00     0.198 A 
ATOM     81  F   UNL A   1      43.085  28.891  27.087  1.00  0.00    -0.203 F 
ATOM     82  F   UNL A   1      41.256  23.815  26.291  1.00  0.00    -0.200 F 
ATOM     83  C   UNL A   1      42.552  25.650  25.563  1.00  0.00     0.200 A 
ATOM     84  F   UNL A   1      43.853  27.503  24.894  1.00  0.00    -0.200 F 
ATOM     85  F   UNL A   1      42.971  24.951  24.499  1.00  0.00    -0.200 F 
ENDBRANCH  51  75
BRANCH  63  86
ATOM     86  C   UNL A   1      44.361  27.384  34.262  1.00  0.00     0.064 A 
ATOM     87  C   UNL A   1      44.226  26.117  34.850  1.00  0.00     0.173 A 
ATOM     88  C   UNL A   1      45.635  27.973  34.260  1.00  0.00     0.173 A 
ATOM     89  F   UNL A   1      43.027  25.516  34.890  1.00  0.00    -0.203 F 
ATOM     90  C   UNL A   1      45.317  25.479  35.434  1.00  0.00     0.198 A 
ATOM     91  C   UNL A   1      46.730  27.317  34.815  1.00  0.00     0.198 A 
ATOM     92  F   UNL A   1      45.822  29.179  33.704  1.00  0.00    -0.203 F 
ATOM     93  F   UNL A   1      45.154  24.291  36.033  1.00  0.00    -0.200 F 
ATOM     94  C   UNL A   1      46.569  26.075  35.409  1.00  0.00     0.200 A 
ATOM     95  F   UNL A   1      47.942  27.888  34.775  1.00  0.00    -0.200 F 
ATOM     96  F   UNL A   1      47.620  25.454  35.963  1.00  0.00    -0.200 F 
ENDBRANCH  63  86
ENDBRANCH  37  38
ENDBRANCH  30  32
ENDBRANCH  29  30
ENDBRANCH  28  29
ENDBRANCH  27  28
ENDBRANCH  26  27
ENDBRANCH  25  26
ENDBRANCH   1  25
TORSDOF 19
ENDMDL
MODEL 3
REMARK VINA RESULT:     -10.8      4.980      9.820
REMARK SMILES C[C@@H]1[C@@H](C(=O)OCCOCCOCCOC(=O)c2ccc(-c3c4nc(c(-c5c(F)c(F)c(F)c(F)c5F)c5ccc([nH]5)c(-c5c(F)c(F)c(F)c(F)c5F)c5nc(c(-c6c(F)c(F)c(F)c(F)c6F)c6ccc3[nH]6)C=C5)C=C4)cc2)CC[N@@H+]1[C@H]1CC[C@@H](C(F)(F)F)CC1
REMARK SMILES IDX 10 1 9 2 8 3 7 4 6 5 4 6 5 7 3 8 1 9 2 10 83 11 81 12 82 13
REMARK SMILES IDX 84 15 85 16 93 17 86 18 92 19 87 20 88 21 89 22 90 23 91 24
REMARK SMILES IDX 11 25 12 26 13 27 14 28 15 29 16 30 17 31 18 32 19 33 80 34
REMARK SMILES IDX 20 35 79 36 21 37 22 38 23 39 73 40 24 41 78 42 72 43 74 44
REMARK SMILES IDX 25 45 77 46 71 47 70 48 26 50 58 51 38 52 57 53 39 54 42 55
REMARK SMILES IDX 56 56 75 57 40 58 41 59 55 61 76 62 43 63 27 64 28 65 36 66
REMARK SMILES IDX 29 67 30 68 34 69 37 70 31 71 32 72 35 73 33 74 59 75 60 76
REMARK SMILES IDX 68 77 61 78 62 79 66 80 69 81 63 82 64 83 67 84 65 85 44 86
REMARK SMILES IDX 45 87 53 88 46 89 47 90 51 91 54 92 48 93 49 94 52 95 50 96
REMARK H PARENT 83 14 74 49 42 60
REMARK Flexibility Score: inf
ROOT
ATOM      1  C   UNL A   1      32.802  27.080  24.119  1.00  0.00     0.188 C 
ENDROOT
BRANCH   1   2
ATOM      2  O   UNL A   1      31.393  26.984  24.063  1.00  0.00    -0.376 OA
BRANCH   2   3
ATOM      3  C   UNL A   1      30.718  25.821  24.523  1.00  0.00     0.202 C 
BRANCH   3   4
ATOM      4  C   UNL A   1      30.421  25.531  26.002  1.00  0.00     0.261 C 
BRANCH   4   5
ATOM      5  O   UNL A   1      31.563  25.185  26.786  1.00  0.00    -0.463 OA
BRANCH   5   6
ATOM      6  C   UNL A   1      31.872  23.857  26.821  1.00  0.00     0.315 C 
ATOM      7  O   UNL A   1      31.207  22.999  27.384  1.00  0.00    -0.252 OA
BRANCH   6   8
ATOM      8  C   UNL A   1      33.117  23.595  25.998  1.00  0.00     0.162 C 
ATOM      9  C   UNL A   1      33.475  23.178  23.551  1.00  0.00     0.076 C 
ATOM     10  C   UNL A   1      32.812  22.644  24.827  1.00  0.00     0.195 C 
ATOM     11  N   UNL A   1      33.264  21.348  25.322  1.00  0.00    -0.330 N 
ATOM     12  C   UNL A   1      34.190  22.902  26.806  1.00  0.00     0.083 C 
ATOM     13  C   UNL A   1      33.847  21.439  26.652  1.00  0.00     0.263 C 
ATOM     14  H   UNL A   1      32.341  20.918  25.258  1.00  0.00     0.348 HD
BRANCH  11  15
ATOM     15  C   UNL A   1      33.596  20.188  24.523  1.00  0.00     0.184 C 
ATOM     16  C   UNL A   1      34.741  19.339  25.104  1.00  0.00     0.066 C 
ATOM     17  C   UNL A   1      32.350  19.355  24.186  1.00  0.00     0.066 C 
ATOM     18  C   UNL A   1      35.036  18.109  24.241  1.00  0.00     0.019 C 
ATOM     19  C   UNL A   1      32.690  18.152  23.315  1.00  0.00     0.019 C 
ATOM     20  C   UNL A   1      33.794  17.267  23.905  1.00  0.00     0.095 C 
BRANCH  20  21
ATOM     21  C   UNL A   1      33.309  16.436  25.091  1.00  0.00     0.391 C 
ATOM     22  F   UNL A   1      32.713  15.298  24.667  1.00  0.00    -0.171 F 
ATOM     23  F   UNL A   1      34.349  16.076  25.876  1.00  0.00    -0.171 F 
ATOM     24  F   UNL A   1      32.425  17.090  25.867  1.00  0.00    -0.171 F 
ENDBRANCH  20  21
ENDBRANCH  11  15
ENDBRANCH   6   8
ENDBRANCH   5   6
ENDBRANCH   4   5
ENDBRANCH   3   4
ENDBRANCH   2   3
ENDBRANCH   1   2
BRANCH   1  25
ATOM     25  C   UNL A   1      33.474  27.972  25.181  1.00  0.00     0.188 C 
BRANCH  25  26
ATOM     26  O   UNL A   1      32.827  28.192  26.410  1.00  0.00    -0.376 OA
BRANCH  26  27
ATOM     27  C   UNL A   1      32.186  29.434  26.652  1.00  0.00     0.202 C 
BRANCH  27  28
ATOM     28  C   UNL A   1      32.865  30.691  27.240  1.00  0.00     0.261 C 
BRANCH  28  29
ATOM     29  O   UNL A   1      34.296  30.773  27.186  1.00  0.00    -0.460 OA
BRANCH  29  30
ATOM     30  C   UNL A   1      34.899  31.177  28.329  1.00  0.00     0.338 C 
ATOM     31  O   UNL A   1      34.444  31.934  29.184  1.00  0.00    -0.246 OA
BRANCH  30  32
ATOM     32  C   UNL A   1      36.143  30.415  28.532  1.00  0.00     0.060 A 
ATOM     33  C   UNL A   1      36.359  29.787  29.768  1.00  0.00     0.016 A 
ATOM     34  C   UNL A   1      37.117  30.374  27.536  1.00  0.00     0.016 A 
ATOM     35  C   UNL A   1      37.560  29.123  30.017  1.00  0.00     0.010 A 
ATOM     36  C   UNL A   1      38.332  29.732  27.797  1.00  0.00     0.010 A 
ATOM     37  C   UNL A   1      38.570  29.127  29.046  1.00  0.00    -0.014 A 
BRANCH  37  38
ATOM     38  C   UNL A   1      39.937  28.667  29.391  1.00  0.00     0.031 A 
ATOM     39  C   UNL A   1      40.795  29.551  30.253  1.00  0.00     0.074 A 
ATOM     40  C   UNL A   1      40.413  27.490  28.950  1.00  0.00     0.049 A 
ATOM     41  N   UNL A   1      42.051  29.419  30.596  1.00  0.00    -0.248 NA
ATOM     42  C   UNL A   1      40.144  30.754  30.798  1.00  0.00     0.031 C 
ATOM     43  C   UNL A   1      39.666  26.515  28.159  1.00  0.00     0.029 A 
ATOM     44  N   UNL A   1      41.657  26.924  29.097  1.00  0.00    -0.354 N 
ATOM     45  C   UNL A   1      42.341  30.520  31.390  1.00  0.00     0.074 A 
ATOM     46  C   UNL A   1      41.142  31.327  31.455  1.00  0.00     0.031 C 
ATOM     47  C   UNL A   1      40.472  25.478  27.873  1.00  0.00     0.029 A 
ATOM     48  C   UNL A   1      41.801  25.735  28.425  1.00  0.00     0.049 A 
ATOM     49  H   UNL A   1      42.375  27.332  29.632  1.00  0.00     0.167 HD
ATOM     50  C   UNL A   1      43.502  30.827  32.016  1.00  0.00     0.037 A 
ATOM     51  C   UNL A   1      42.893  24.963  28.253  1.00  0.00     0.037 A 
ATOM     52  C   UNL A   1      44.698  30.029  31.944  1.00  0.00     0.049 A 
ATOM     53  C   UNL A   1      44.203  25.381  28.875  1.00  0.00     0.074 A 
ATOM     54  C   UNL A   1      45.926  30.258  32.540  1.00  0.00     0.029 A 
ATOM     55  N   UNL A   1      44.816  28.849  31.225  1.00  0.00    -0.354 N 
ATOM     56  N   UNL A   1      44.472  26.418  29.632  1.00  0.00    -0.248 NA
ATOM     57  C   UNL A   1      45.365  24.517  28.616  1.00  0.00     0.031 C 
ATOM     58  C   UNL A   1      46.802  29.245  32.140  1.00  0.00     0.029 A 
ATOM     59  C   UNL A   1      46.104  28.351  31.344  1.00  0.00     0.049 A 
ATOM     60  H   UNL A   1      44.092  28.428  30.708  1.00  0.00     0.167 HD
ATOM     61  C   UNL A   1      45.816  26.309  29.969  1.00  0.00     0.074 A 
ATOM     62  C   UNL A   1      46.308  25.101  29.342  1.00  0.00     0.031 C 
ATOM     63  C   UNL A   1      46.576  27.136  30.731  1.00  0.00     0.037 A 
BRANCH  50  64
ATOM     64  C   UNL A   1      43.543  32.098  32.814  1.00  0.00     0.064 A 
ATOM     65  C   UNL A   1      43.246  32.117  34.185  1.00  0.00     0.173 A 
ATOM     66  C   UNL A   1      43.920  33.306  32.207  1.00  0.00     0.173 A 
ATOM     67  F   UNL A   1      42.866  30.992  34.809  1.00  0.00    -0.203 F 
ATOM     68  C   UNL A   1      43.301  33.303  34.913  1.00  0.00     0.198 A 
ATOM     69  C   UNL A   1      44.004  34.483  32.944  1.00  0.00     0.198 A 
ATOM     70  F   UNL A   1      44.217  33.342  30.899  1.00  0.00    -0.203 F 
ATOM     71  F   UNL A   1      42.967  33.305  36.211  1.00  0.00    -0.200 F 
ATOM     72  C   UNL A   1      43.687  34.482  34.295  1.00  0.00     0.200 A 
ATOM     73  F   UNL A   1      44.390  35.620  32.349  1.00  0.00    -0.200 F 
ATOM     74  F   UNL A   1      43.748  35.620  34.999  1.00  0.00    -0.200 F 
ENDBRANCH  50  64
BRANCH  51  75
ATOM     75  C   UNL A   1      42.813  23.721  27.439  1.00  0.00     0.064 A 
ATOM     76  C   UNL A   1      42.413  22.505  28.013  1.00  0.00     0.173 A 
ATOM     77  C   UNL A   1      43.181  23.710  26.085  1.00  0.00     0.173 A 
ATOM     78  F   UNL A   1      42.083  22.456  29.312  1.00  0.00    -0.203 F 
ATOM     79  C   UNL A   1      42.409  21.325  27.273  1.00  0.00     0.198 A 
ATOM     80  C   UNL A   1      43.146  22.534  25.337  1.00  0.00     0.198 A 
ATOM     81  F   UNL A   1      43.579  24.843  25.488  1.00  0.00    -0.203 F 
ATOM     82  F   UNL A   1      42.081  20.167  27.864  1.00  0.00    -0.200 F 
ATOM     83  C   UNL A   1      42.771  21.341  25.935  1.00  0.00     0.200 A 
ATOM     84  F   UNL A   1      43.489  22.557  24.042  1.00  0.00    -0.200 F 
ATOM     85  F   UNL A   1      42.771  20.205  25.225  1.00  0.00    -0.200 F 
ENDBRANCH  51  75
BRANCH  63  86
ATOM     86  C   UNL A   1      48.004  26.738  30.980  1.00  0.00     0.064 A 
ATOM     87  C   UNL A   1      49.055  27.211  30.181  1.00  0.00     0.173 A 
ATOM     88  C   UNL A   1      48.328  25.906  32.063  1.00  0.00     0.173 A 
ATOM     89  F   UNL A   1      48.799  27.999  29.125  1.00  0.00    -0.203 F 
ATOM     90  C   UNL A   1      50.374  26.846  30.441  1.00  0.00     0.198 A 
ATOM     91  C   UNL A   1      49.650  25.570  32.341  1.00  0.00     0.198 A 
ATOM     92  F   UNL A   1      47.363  25.432  32.865  1.00  0.00    -0.203 F 
ATOM     93  F   UNL A   1      51.357  27.271  29.635  1.00  0.00    -0.200 F 
ATOM     94  C   UNL A   1      50.671  26.033  31.525  1.00  0.00     0.200 A 
ATOM     95  F   UNL A   1      49.936  24.798  33.398  1.00  0.00    -0.200 F 
ATOM     96  F   UNL A   1      51.941  25.691  31.780  1.00  0.00    -0.200 F 
ENDBRANCH  63  86
ENDBRANCH  37  38
ENDBRANCH  30  32
ENDBRANCH  29  30
ENDBRANCH  28  29
ENDBRANCH  27  28
ENDBRANCH  26  27
ENDBRANCH  25  26
ENDBRANCH   1  25
TORSDOF 19
ENDMDL
