MODEL 1
REMARK VINA RESULT:     -10.3      0.000      0.000
REMARK SMILES COc1ccc2c(c1)c(CC(=O)OCCOCCOCCOC(=O)c1ccc(-c3c4nc(c(-c5c(F)c(F)c(F)c(F)c5F)c5ccc([nH]5)c(-c5c(F)c(F)c(F)c(F)c5F)c5nc(c(-c6c(F)c(F)c(F)c(F)c6F)c6ccc3[nH]6)C=C5)C=C4)cc1)c(C)n2Cc1ccn(C(F)F)c(=O)c1
REMARK SMILES IDX 17 1 16 2 15 3 14 4 13 5 11 6 12 7 10 8 9 9 3 10 4 11 8 12
REMARK SMILES IDX 5 13 7 14 6 15 90 16 88 17 89 18 2 19 1 20 91 21 92 22 93 23
REMARK SMILES IDX 101 24 94 25 99 26 95 27 100 28 96 29 97 30 98 31 18 32
REMARK SMILES IDX 19 33 20 34 21 35 22 36 23 37 24 38 25 39 26 40 87 41 27 42
REMARK SMILES IDX 86 43 28 44 29 45 30 46 80 47 31 48 85 49 79 50 81 51 32 52
REMARK SMILES IDX 84 53 78 54 77 55 33 57 65 58 45 59 64 60 46 61 49 62 63 63
REMARK SMILES IDX 82 64 47 65 48 66 62 68 83 69 50 70 34 71 35 72 43 73 36 74
REMARK SMILES IDX 37 75 41 76 44 77 38 78 39 79 42 80 40 81 66 82 67 83 75 84
REMARK SMILES IDX 68 85 69 86 73 87 76 88 70 89 71 90 74 91 72 92 51 93 52 94
REMARK SMILES IDX 60 95 53 96 54 97 58 98 61 99 55 100 56 101 59 102 57 103
REMARK H PARENT 81 56 49 67
REMARK Flexibility Score: inf
ROOT
ATOM      1  C   UNL A   1      42.404  21.992  27.130  1.00  0.00     0.188 C 
ENDROOT
BRANCH   1   2
ATOM      2  O   UNL A   1      41.619  20.900  27.556  1.00  0.00    -0.376 OA
BRANCH   2   3
ATOM      3  C   UNL A   1      41.470  19.779  26.713  1.00  0.00     0.202 C 
BRANCH   3   4
ATOM      4  C   UNL A   1      40.071  19.585  26.123  1.00  0.00     0.261 C 
BRANCH   4   5
ATOM      5  O   UNL A   1      39.341  20.823  25.879  1.00  0.00    -0.463 OA
BRANCH   5   6
ATOM      6  C   UNL A   1      38.122  20.619  25.335  1.00  0.00     0.310 C 
ATOM      7  O   UNL A   1      37.904  19.589  24.694  1.00  0.00    -0.252 OA
BRANCH   6   8
ATOM      8  C   UNL A   1      36.967  21.576  25.620  1.00  0.00     0.160 C 
BRANCH   8   9
ATOM      9  C   UNL A   1      35.677  21.749  24.864  1.00  0.00    -0.008 A 
ATOM     10  C   UNL A   1      33.137  18.828  24.801  1.00  0.00     0.119 A 
ATOM     11  C   UNL A   1      32.224  19.418  23.949  1.00  0.00     0.048 A 
ATOM     12  C   UNL A   1      34.282  19.535  25.177  1.00  0.00     0.057 A 
ATOM     13  C   UNL A   1      32.474  20.697  23.431  1.00  0.00     0.031 A 
ATOM     14  C   UNL A   1      34.579  20.823  24.696  1.00  0.00     0.007 A 
ATOM     15  C   UNL A   1      33.670  21.361  23.785  1.00  0.00     0.049 A 
ATOM     16  N   UNL A   1      34.208  22.569  23.397  1.00  0.00    -0.340 N 
ATOM     17  C   UNL A   1      35.521  22.644  23.812  1.00  0.00     0.020 A 
ATOM     18  C   UNL A   1      36.561  23.501  23.174  1.00  0.00     0.065 C 
BRANCH  10  19
ATOM     19  O   UNL A   1      32.936  17.614  25.396  1.00  0.00    -0.497 OA
ATOM     20  C   UNL A   1      33.459  16.502  24.669  1.00  0.00     0.278 C 
ENDBRANCH  10  19
BRANCH  16  21
ATOM     21  C   UNL A   1      33.472  23.639  22.730  1.00  0.00     0.158 C 
BRANCH  21  22
ATOM     22  C   UNL A   1      33.068  24.671  23.754  1.00  0.00    -0.021 A 
ATOM     23  C   UNL A   1      33.616  26.007  23.635  1.00  0.00     0.024 A 
ATOM     24  C   UNL A   1      32.323  24.361  24.827  1.00  0.00     0.077 A 
ATOM     25  C   UNL A   1      33.526  26.867  24.656  1.00  0.00     0.095 A 
ATOM     26  C   UNL A   1      32.114  25.348  25.931  1.00  0.00     0.255 A 
ATOM     27  N   UNL A   1      32.820  26.541  25.794  1.00  0.00    -0.258 N 
ATOM     28  O   UNL A   1      31.388  25.049  26.849  1.00  0.00    -0.269 OA
BRANCH  27  29
ATOM     29  C   UNL A   1      32.705  27.492  26.868  1.00  0.00     0.451 C 
ATOM     30  F   UNL A   1      33.817  28.260  26.948  1.00  0.00    -0.185 F 
ATOM     31  F   UNL A   1      31.637  28.308  26.702  1.00  0.00    -0.185 F 
ENDBRANCH  27  29
ENDBRANCH  21  22
ENDBRANCH  16  21
ENDBRANCH   8   9
ENDBRANCH   6   8
ENDBRANCH   5   6
ENDBRANCH   4   5
ENDBRANCH   3   4
ENDBRANCH   2   3
ENDBRANCH   1   2
BRANCH   1  32
ATOM     32  C   UNL A   1      42.612  22.371  25.658  1.00  0.00     0.188 C 
BRANCH  32  33
ATOM     33  O   UNL A   1      43.657  21.808  24.906  1.00  0.00    -0.376 OA
BRANCH  33  34
ATOM     34  C   UNL A   1      44.777  22.643  24.659  1.00  0.00     0.202 C 
BRANCH  34  35
ATOM     35  C   UNL A   1      44.588  24.169  24.838  1.00  0.00     0.261 C 
BRANCH  35  36
ATOM     36  O   UNL A   1      45.433  24.713  25.892  1.00  0.00    -0.460 OA
BRANCH  36  37
ATOM     37  C   UNL A   1      45.017  24.508  27.178  1.00  0.00     0.338 C 
ATOM     38  O   UNL A   1      45.520  23.726  27.967  1.00  0.00    -0.246 OA
BRANCH  37  39
ATOM     39  C   UNL A   1      44.120  25.644  27.595  1.00  0.00     0.060 A 
ATOM     40  C   UNL A   1      43.025  26.129  26.874  1.00  0.00     0.016 A 
ATOM     41  C   UNL A   1      44.569  26.400  28.673  1.00  0.00     0.016 A 
ATOM     42  C   UNL A   1      42.500  27.424  27.144  1.00  0.00     0.010 A 
ATOM     43  C   UNL A   1      44.125  27.714  28.870  1.00  0.00     0.010 A 
ATOM     44  C   UNL A   1      43.105  28.272  28.088  1.00  0.00    -0.014 A 
BRANCH  44  45
ATOM     45  C   UNL A   1      42.520  29.547  28.585  1.00  0.00     0.031 A 
ATOM     46  C   UNL A   1      43.367  30.680  28.220  1.00  0.00     0.074 A 
ATOM     47  C   UNL A   1      41.399  29.899  29.265  1.00  0.00     0.049 A 
ATOM     48  N   UNL A   1      44.191  31.215  29.053  1.00  0.00    -0.248 NA
ATOM     49  C   UNL A   1      43.455  31.167  26.845  1.00  0.00     0.031 C 
ATOM     50  C   UNL A   1      40.477  29.030  29.938  1.00  0.00     0.029 A 
ATOM     51  N   UNL A   1      40.830  31.134  29.522  1.00  0.00    -0.354 N 
ATOM     52  C   UNL A   1      44.765  32.257  28.370  1.00  0.00     0.074 A 
ATOM     53  C   UNL A   1      44.433  32.065  26.978  1.00  0.00     0.031 C 
ATOM     54  C   UNL A   1      39.327  29.660  30.273  1.00  0.00     0.029 A 
ATOM     55  C   UNL A   1      39.519  31.080  30.022  1.00  0.00     0.049 A 
ATOM     56  H   UNL A   1      41.305  31.982  29.366  1.00  0.00     0.167 HD
ATOM     57  C   UNL A   1      45.232  33.329  29.054  1.00  0.00     0.037 A 
ATOM     58  C   UNL A   1      38.791  31.997  30.715  1.00  0.00     0.037 A 
ATOM     59  C   UNL A   1      45.393  33.055  30.464  1.00  0.00     0.049 A 
ATOM     60  C   UNL A   1      39.752  32.840  31.446  1.00  0.00     0.074 A 
ATOM     61  C   UNL A   1      46.103  32.113  31.190  1.00  0.00     0.029 A 
ATOM     62  N   UNL A   1      44.462  33.554  31.341  1.00  0.00    -0.354 N 
ATOM     63  N   UNL A   1      40.428  32.435  32.483  1.00  0.00    -0.248 NA
ATOM     64  C   UNL A   1      40.270  34.011  30.765  1.00  0.00     0.031 C 
ATOM     65  C   UNL A   1      45.273  31.776  32.301  1.00  0.00     0.029 A 
ATOM     66  C   UNL A   1      44.124  32.561  32.230  1.00  0.00     0.049 A 
ATOM     67  H   UNL A   1      44.097  34.468  31.334  1.00  0.00     0.167 HD
ATOM     68  C   UNL A   1      41.681  32.993  32.303  1.00  0.00     0.074 A 
ATOM     69  C   UNL A   1      41.493  34.032  31.294  1.00  0.00     0.031 C 
ATOM     70  C   UNL A   1      42.801  32.389  32.795  1.00  0.00     0.037 A 
BRANCH  57  71
ATOM     71  C   UNL A   1      45.207  34.697  28.459  1.00  0.00     0.064 A 
ATOM     72  C   UNL A   1      43.987  35.365  28.303  1.00  0.00     0.173 A 
ATOM     73  C   UNL A   1      46.331  35.294  27.845  1.00  0.00     0.173 A 
ATOM     74  F   UNL A   1      42.854  34.835  28.787  1.00  0.00    -0.203 F 
ATOM     75  C   UNL A   1      43.900  36.559  27.585  1.00  0.00     0.198 A 
ATOM     76  C   UNL A   1      46.256  36.517  27.190  1.00  0.00     0.198 A 
ATOM     77  F   UNL A   1      47.514  34.667  27.770  1.00  0.00    -0.203 F 
ATOM     78  F   UNL A   1      42.703  37.122  27.378  1.00  0.00    -0.200 F 
ATOM     79  C   UNL A   1      45.035  37.141  27.044  1.00  0.00     0.200 A 
ATOM     80  F   UNL A   1      47.361  37.045  26.649  1.00  0.00    -0.200 F 
ATOM     81  F   UNL A   1      44.947  38.273  26.336  1.00  0.00    -0.200 F 
ENDBRANCH  57  71
BRANCH  58  82
ATOM     82  C   UNL A   1      37.367  32.385  30.513  1.00  0.00     0.064 A 
ATOM     83  C   UNL A   1      36.412  32.227  31.535  1.00  0.00     0.173 A 
ATOM     84  C   UNL A   1      36.952  33.125  29.391  1.00  0.00     0.173 A 
ATOM     85  F   UNL A   1      36.717  31.538  32.644  1.00  0.00    -0.203 F 
ATOM     86  C   UNL A   1      35.146  32.822  31.466  1.00  0.00     0.198 A 
ATOM     87  C   UNL A   1      35.686  33.716  29.319  1.00  0.00     0.198 A 
ATOM     88  F   UNL A   1      37.796  33.350  28.375  1.00  0.00    -0.203 F 
ATOM     89  F   UNL A   1      34.289  32.698  32.490  1.00  0.00    -0.200 F 
ATOM     90  C   UNL A   1      34.791  33.581  30.364  1.00  0.00     0.200 A 
ATOM     91  F   UNL A   1      35.357  34.459  28.251  1.00  0.00    -0.200 F 
ATOM     92  F   UNL A   1      33.604  34.204  30.323  1.00  0.00    -0.200 F 
ENDBRANCH  58  82
BRANCH  70  93
ATOM     93  C   UNL A   1      42.626  31.308  33.837  1.00  0.00     0.064 A 
ATOM     94  C   UNL A   1      42.488  31.542  35.216  1.00  0.00     0.173 A 
ATOM     95  C   UNL A   1      42.464  29.985  33.403  1.00  0.00     0.173 A 
ATOM     96  F   UNL A   1      42.562  32.781  35.710  1.00  0.00    -0.203 F 
ATOM     97  C   UNL A   1      42.219  30.507  36.113  1.00  0.00     0.198 A 
ATOM     98  C   UNL A   1      42.166  28.955  34.294  1.00  0.00     0.198 A 
ATOM     99  F   UNL A   1      42.556  29.693  32.095  1.00  0.00    -0.203 F 
ATOM    100  F   UNL A   1      42.097  30.763  37.424  1.00  0.00    -0.200 F 
ATOM    101  C   UNL A   1      42.046  29.214  35.649  1.00  0.00     0.200 A 
ATOM    102  F   UNL A   1      41.968  27.712  33.833  1.00  0.00    -0.200 F 
ATOM    103  F   UNL A   1      41.745  28.225  36.502  1.00  0.00    -0.200 F 
ENDBRANCH  70  93
ENDBRANCH  44  45
ENDBRANCH  37  39
ENDBRANCH  36  37
ENDBRANCH  35  36
ENDBRANCH  34  35
ENDBRANCH  33  34
ENDBRANCH  32  33
ENDBRANCH   1  32
TORSDOF 22
ENDMDL
MODEL 2
REMARK VINA RESULT:     -10.1      6.016     13.031
REMARK SMILES COc1ccc2c(c1)c(CC(=O)OCCOCCOCCOC(=O)c1ccc(-c3c4nc(c(-c5c(F)c(F)c(F)c(F)c5F)c5ccc([nH]5)c(-c5c(F)c(F)c(F)c(F)c5F)c5nc(c(-c6c(F)c(F)c(F)c(F)c6F)c6ccc3[nH]6)C=C5)C=C4)cc1)c(C)n2Cc1ccn(C(F)F)c(=O)c1
REMARK SMILES IDX 17 1 16 2 15 3 14 4 13 5 11 6 12 7 10 8 9 9 3 10 4 11 8 12
REMARK SMILES IDX 5 13 7 14 6 15 90 16 88 17 89 18 2 19 1 20 91 21 92 22 93 23
REMARK SMILES IDX 101 24 94 25 99 26 95 27 100 28 96 29 97 30 98 31 18 32
REMARK SMILES IDX 19 33 20 34 21 35 22 36 23 37 24 38 25 39 26 40 87 41 27 42
REMARK SMILES IDX 86 43 28 44 29 45 30 46 80 47 31 48 85 49 79 50 81 51 32 52
REMARK SMILES IDX 84 53 78 54 77 55 33 57 65 58 45 59 64 60 46 61 49 62 63 63
REMARK SMILES IDX 82 64 47 65 48 66 62 68 83 69 50 70 34 71 35 72 43 73 36 74
REMARK SMILES IDX 37 75 41 76 44 77 38 78 39 79 42 80 40 81 66 82 67 83 75 84
REMARK SMILES IDX 68 85 69 86 73 87 76 88 70 89 71 90 74 91 72 92 51 93 52 94
REMARK SMILES IDX 60 95 53 96 54 97 58 98 61 99 55 100 56 101 59 102 57 103
REMARK H PARENT 81 56 49 67
REMARK Flexibility Score: inf
ROOT
ATOM      1  C   UNL A   1      34.309  35.293  32.938  1.00  0.00     0.188 C 
ENDROOT
BRANCH   1   2
ATOM      2  O   UNL A   1      34.133  33.969  33.392  1.00  0.00    -0.376 OA
BRANCH   2   3
ATOM      3  C   UNL A   1      34.750  32.908  32.698  1.00  0.00     0.202 C 
BRANCH   3   4
ATOM      4  C   UNL A   1      36.272  33.005  32.575  1.00  0.00     0.261 C 
BRANCH   4   5
ATOM      5  O   UNL A   1      37.008  32.408  33.682  1.00  0.00    -0.463 OA
BRANCH   5   6
ATOM      6  C   UNL A   1      37.863  31.440  33.288  1.00  0.00     0.310 C 
ATOM      7  O   UNL A   1      37.439  30.472  32.654  1.00  0.00    -0.252 OA
BRANCH   6   8
ATOM      8  C   UNL A   1      39.368  31.594  33.490  1.00  0.00     0.160 C 
BRANCH   8   9
ATOM      9  C   UNL A   1      40.137  32.793  33.976  1.00  0.00    -0.008 A 
ATOM     10  C   UNL A   1      39.638  33.986  37.625  1.00  0.00     0.119 A 
ATOM     11  C   UNL A   1      40.442  35.105  37.548  1.00  0.00     0.048 A 
ATOM     12  C   UNL A   1      39.506  33.155  36.509  1.00  0.00     0.057 A 
ATOM     13  C   UNL A   1      41.080  35.427  36.341  1.00  0.00     0.031 A 
ATOM     14  C   UNL A   1      40.130  33.423  35.277  1.00  0.00     0.007 A 
ATOM     15  C   UNL A   1      40.880  34.598  35.214  1.00  0.00     0.049 A 
ATOM     16  N   UNL A   1      41.314  34.689  33.909  1.00  0.00    -0.340 N 
ATOM     17  C   UNL A   1      40.626  33.782  33.130  1.00  0.00     0.020 A 
ATOM     18  C   UNL A   1      40.421  33.917  31.660  1.00  0.00     0.065 C 
BRANCH  10  19
ATOM     19  O   UNL A   1      39.035  33.570  38.780  1.00  0.00    -0.497 OA
ATOM     20  C   UNL A   1      37.927  32.690  38.587  1.00  0.00     0.278 C 
ENDBRANCH  10  19
BRANCH  16  21
ATOM     21  C   UNL A   1      42.397  35.549  33.443  1.00  0.00     0.158 C 
BRANCH  21  22
ATOM     22  C   UNL A   1      43.710  34.825  33.620  1.00  0.00    -0.021 A 
ATOM     23  C   UNL A   1      44.667  34.865  32.533  1.00  0.00     0.024 A 
ATOM     24  C   UNL A   1      43.965  34.056  34.690  1.00  0.00     0.077 A 
ATOM     25  C   UNL A   1      45.704  34.019  32.516  1.00  0.00     0.095 A 
ATOM     26  C   UNL A   1      45.180  33.187  34.742  1.00  0.00     0.255 A 
ATOM     27  N   UNL A   1      45.944  33.174  33.577  1.00  0.00    -0.258 N 
ATOM     28  O   UNL A   1      45.402  32.556  35.749  1.00  0.00    -0.269 OA
BRANCH  27  29
ATOM     29  C   UNL A   1      47.085  32.297  33.557  1.00  0.00     0.451 C 
ATOM     30  F   UNL A   1      47.273  31.787  32.317  1.00  0.00    -0.185 F 
ATOM     31  F   UNL A   1      48.218  32.939  33.928  1.00  0.00    -0.185 F 
ENDBRANCH  27  29
ENDBRANCH  21  22
ENDBRANCH  16  21
ENDBRANCH   8   9
ENDBRANCH   6   8
ENDBRANCH   5   6
ENDBRANCH   4   5
ENDBRANCH   3   4
ENDBRANCH   2   3
ENDBRANCH   1   2
BRANCH   1  32
ATOM     32  C   UNL A   1      33.813  35.803  31.578  1.00  0.00     0.188 C 
BRANCH  32  33
ATOM     33  O   UNL A   1      34.247  35.209  30.380  1.00  0.00    -0.376 OA
BRANCH  33  34
ATOM     34  C   UNL A   1      33.240  34.891  29.434  1.00  0.00     0.202 C 
BRANCH  34  35
ATOM     35  C   UNL A   1      33.320  33.512  28.737  1.00  0.00     0.261 C 
BRANCH  35  36
ATOM     36  O   UNL A   1      34.524  32.776  29.096  1.00  0.00    -0.460 OA
BRANCH  36  37
ATOM     37  C   UNL A   1      35.504  32.702  28.145  1.00  0.00     0.338 C 
ATOM     38  O   UNL A   1      35.643  33.475  27.212  1.00  0.00    -0.246 OA
BRANCH  37  39
ATOM     39  C   UNL A   1      36.594  31.782  28.629  1.00  0.00     0.060 A 
ATOM     40  C   UNL A   1      37.632  32.129  29.498  1.00  0.00     0.016 A 
ATOM     41  C   UNL A   1      36.683  30.558  27.972  1.00  0.00     0.016 A 
ATOM     42  C   UNL A   1      38.806  31.327  29.577  1.00  0.00     0.010 A 
ATOM     43  C   UNL A   1      37.878  29.827  27.967  1.00  0.00     0.010 A 
ATOM     44  C   UNL A   1      38.981  30.211  28.741  1.00  0.00    -0.014 A 
BRANCH  44  45
ATOM     45  C   UNL A   1      40.065  29.201  28.885  1.00  0.00     0.031 A 
ATOM     46  C   UNL A   1      40.260  28.850  30.290  1.00  0.00     0.074 A 
ATOM     47  C   UNL A   1      40.883  28.530  28.035  1.00  0.00     0.049 A 
ATOM     48  N   UNL A   1      41.208  29.361  30.998  1.00  0.00    -0.248 NA
ATOM     49  C   UNL A   1      39.296  28.033  31.022  1.00  0.00     0.031 C 
ATOM     50  C   UNL A   1      41.089  28.783  26.638  1.00  0.00     0.029 A 
ATOM     51  N   UNL A   1      41.737  27.459  28.236  1.00  0.00    -0.354 N 
ATOM     52  C   UNL A   1      41.094  28.768  32.229  1.00  0.00     0.074 A 
ATOM     53  C   UNL A   1      39.803  28.120  32.254  1.00  0.00     0.031 C 
ATOM     54  C   UNL A   1      41.744  27.772  26.023  1.00  0.00     0.029 A 
ATOM     55  C   UNL A   1      42.210  26.860  27.057  1.00  0.00     0.049 A 
ATOM     56  H   UNL A   1      41.993  27.143  29.133  1.00  0.00     0.167 HD
ATOM     57  C   UNL A   1      42.191  28.637  33.013  1.00  0.00     0.037 A 
ATOM     58  C   UNL A   1      43.297  26.074  26.830  1.00  0.00     0.037 A 
ATOM     59  C   UNL A   1      43.278  29.489  32.584  1.00  0.00     0.049 A 
ATOM     60  C   UNL A   1      44.299  26.428  27.848  1.00  0.00     0.074 A 
ATOM     61  C   UNL A   1      43.416  30.851  32.386  1.00  0.00     0.029 A 
ATOM     62  N   UNL A   1      44.331  28.920  31.909  1.00  0.00    -0.354 N 
ATOM     63  N   UNL A   1      44.972  27.543  27.845  1.00  0.00    -0.248 NA
ATOM     64  C   UNL A   1      44.253  25.715  29.110  1.00  0.00     0.031 C 
ATOM     65  C   UNL A   1      44.260  30.992  31.243  1.00  0.00     0.029 A 
ATOM     66  C   UNL A   1      44.636  29.715  30.830  1.00  0.00     0.049 A 
ATOM     67  H   UNL A   1      44.789  28.085  32.157  1.00  0.00     0.167 HD
ATOM     68  C   UNL A   1      45.028  27.903  29.180  1.00  0.00     0.074 A 
ATOM     69  C   UNL A   1      44.665  26.695  29.915  1.00  0.00     0.031 C 
ATOM     70  C   UNL A   1      45.108  29.212  29.556  1.00  0.00     0.037 A 
BRANCH  57  71
ATOM     71  C   UNL A   1      42.343  27.483  33.947  1.00  0.00     0.064 A 
ATOM     72  C   UNL A   1      41.841  27.573  35.250  1.00  0.00     0.173 A 
ATOM     73  C   UNL A   1      43.154  26.361  33.664  1.00  0.00     0.173 A 
ATOM     74  F   UNL A   1      41.124  28.640  35.631  1.00  0.00    -0.203 F 
ATOM     75  C   UNL A   1      42.125  26.596  36.206  1.00  0.00     0.198 A 
ATOM     76  C   UNL A   1      43.379  25.355  34.595  1.00  0.00     0.198 A 
ATOM     77  F   UNL A   1      43.836  26.251  32.515  1.00  0.00    -0.203 F 
ATOM     78  F   UNL A   1      41.704  26.760  37.466  1.00  0.00    -0.200 F 
ATOM     79  C   UNL A   1      42.879  25.482  35.874  1.00  0.00     0.200 A 
ATOM     80  F   UNL A   1      44.136  24.303  34.261  1.00  0.00    -0.200 F 
ATOM     81  F   UNL A   1      43.170  24.558  36.797  1.00  0.00    -0.200 F 
ENDBRANCH  57  71
BRANCH  58  82
ATOM     82  C   UNL A   1      43.378  24.830  26.015  1.00  0.00     0.064 A 
ATOM     83  C   UNL A   1      44.422  24.625  25.092  1.00  0.00     0.173 A 
ATOM     84  C   UNL A   1      42.561  23.715  26.279  1.00  0.00     0.173 A 
ATOM     85  F   UNL A   1      45.252  25.630  24.779  1.00  0.00    -0.203 F 
ATOM     86  C   UNL A   1      44.668  23.372  24.517  1.00  0.00     0.198 A 
ATOM     87  C   UNL A   1      42.805  22.464  25.702  1.00  0.00     0.198 A 
ATOM     88  F   UNL A   1      41.556  23.802  27.160  1.00  0.00    -0.203 F 
ATOM     89  F   UNL A   1      45.712  23.206  23.691  1.00  0.00    -0.200 F 
ATOM     90  C   UNL A   1      43.870  22.288  24.838  1.00  0.00     0.200 A 
ATOM     91  F   UNL A   1      42.031  21.418  26.028  1.00  0.00    -0.200 F 
ATOM     92  F   UNL A   1      44.142  21.073  24.339  1.00  0.00    -0.200 F 
ENDBRANCH  58  82
BRANCH  70  93
ATOM     93  C   UNL A   1      45.496  30.230  28.508  1.00  0.00     0.064 A 
ATOM     94  C   UNL A   1      44.584  30.930  27.699  1.00  0.00     0.173 A 
ATOM     95  C   UNL A   1      46.843  30.605  28.410  1.00  0.00     0.173 A 
ATOM     96  F   UNL A   1      43.274  30.684  27.774  1.00  0.00    -0.203 F 
ATOM     97  C   UNL A   1      45.001  31.938  26.827  1.00  0.00     0.198 A 
ATOM     98  C   UNL A   1      47.256  31.632  27.562  1.00  0.00     0.198 A 
ATOM     99  F   UNL A   1      47.764  29.997  29.174  1.00  0.00    -0.203 F 
ATOM    100  F   UNL A   1      44.106  32.584  26.065  1.00  0.00    -0.200 F 
ATOM    101  C   UNL A   1      46.336  32.297  26.768  1.00  0.00     0.200 A 
ATOM    102  F   UNL A   1      48.546  31.995  27.535  1.00  0.00    -0.200 F 
ATOM    103  F   UNL A   1      46.734  33.293  25.965  1.00  0.00    -0.200 F 
ENDBRANCH  70  93
ENDBRANCH  44  45
ENDBRANCH  37  39
ENDBRANCH  36  37
ENDBRANCH  35  36
ENDBRANCH  34  35
ENDBRANCH  33  34
ENDBRANCH  32  33
ENDBRANCH   1  32
TORSDOF 22
ENDMDL
MODEL 3
REMARK VINA RESULT:     -10.0      5.986     13.216
REMARK SMILES COc1ccc2c(c1)c(CC(=O)OCCOCCOCCOC(=O)c1ccc(-c3c4nc(c(-c5c(F)c(F)c(F)c(F)c5F)c5ccc([nH]5)c(-c5c(F)c(F)c(F)c(F)c5F)c5nc(c(-c6c(F)c(F)c(F)c(F)c6F)c6ccc3[nH]6)C=C5)C=C4)cc1)c(C)n2Cc1ccn(C(F)F)c(=O)c1
REMARK SMILES IDX 17 1 16 2 15 3 14 4 13 5 11 6 12 7 10 8 9 9 3 10 4 11 8 12
REMARK SMILES IDX 5 13 7 14 6 15 90 16 88 17 89 18 2 19 1 20 91 21 92 22 93 23
REMARK SMILES IDX 101 24 94 25 99 26 95 27 100 28 96 29 97 30 98 31 18 32
REMARK SMILES IDX 19 33 20 34 21 35 22 36 23 37 24 38 25 39 26 40 87 41 27 42
REMARK SMILES IDX 86 43 28 44 29 45 30 46 80 47 31 48 85 49 79 50 81 51 32 52
REMARK SMILES IDX 84 53 78 54 77 55 33 57 65 58 45 59 64 60 46 61 49 62 63 63
REMARK SMILES IDX 82 64 47 65 48 66 62 68 83 69 50 70 34 71 35 72 43 73 36 74
REMARK SMILES IDX 37 75 41 76 44 77 38 78 39 79 42 80 40 81 66 82 67 83 75 84
REMARK SMILES IDX 68 85 69 86 73 87 76 88 70 89 71 90 74 91 72 92 51 93 52 94
REMARK SMILES IDX 60 95 53 96 54 97 58 98 61 99 55 100 56 101 59 102 57 103
REMARK H PARENT 81 56 49 67
REMARK Flexibility Score: inf
ROOT
ATOM      1  C   UNL A   1      36.418  33.998  34.155  1.00  0.00     0.188 C 
ENDROOT
BRANCH   1   2
ATOM      2  O   UNL A   1      36.358  32.617  34.440  1.00  0.00    -0.376 OA
BRANCH   2   3
ATOM      3  C   UNL A   1      37.546  31.856  34.442  1.00  0.00     0.202 C 
BRANCH   3   4
ATOM      4  C   UNL A   1      38.263  31.761  33.093  1.00  0.00     0.261 C 
BRANCH   4   5
ATOM      5  O   UNL A   1      39.713  31.884  33.168  1.00  0.00    -0.463 OA
BRANCH   5   6
ATOM      6  C   UNL A   1      40.152  33.134  32.908  1.00  0.00     0.310 C 
ATOM      7  O   UNL A   1      39.562  33.828  32.078  1.00  0.00    -0.252 OA
BRANCH   6   8
ATOM      8  C   UNL A   1      41.282  33.753  33.725  1.00  0.00     0.160 C 
BRANCH   8   9
ATOM      9  C   UNL A   1      41.462  33.778  35.219  1.00  0.00    -0.008 A 
ATOM     10  C   UNL A   1      43.503  30.954  36.908  1.00  0.00     0.119 A 
ATOM     11  C   UNL A   1      43.301  31.358  38.212  1.00  0.00     0.048 A 
ATOM     12  C   UNL A   1      42.960  31.708  35.863  1.00  0.00     0.057 A 
ATOM     13  C   UNL A   1      42.517  32.489  38.482  1.00  0.00     0.031 A 
ATOM     14  C   UNL A   1      42.174  32.855  36.075  1.00  0.00     0.007 A 
ATOM     15  C   UNL A   1      41.935  33.196  37.406  1.00  0.00     0.049 A 
ATOM     16  N   UNL A   1      41.087  34.281  37.362  1.00  0.00    -0.340 N 
ATOM     17  C   UNL A   1      40.586  34.424  36.085  1.00  0.00     0.020 A 
ATOM     18  C   UNL A   1      39.303  35.105  35.753  1.00  0.00     0.065 C 
BRANCH  10  19
ATOM     19  O   UNL A   1      44.304  29.903  36.560  1.00  0.00    -0.497 OA
ATOM     20  C   UNL A   1      45.478  29.762  37.361  1.00  0.00     0.278 C 
ENDBRANCH  10  19
BRANCH  16  21
ATOM     21  C   UNL A   1      40.831  35.191  38.474  1.00  0.00     0.158 C 
BRANCH  21  22
ATOM     22  C   UNL A   1      39.740  34.614  39.342  1.00  0.00    -0.021 A 
ATOM     23  C   UNL A   1      39.085  33.399  38.902  1.00  0.00     0.024 A 
ATOM     24  C   UNL A   1      39.281  35.248  40.432  1.00  0.00     0.077 A 
ATOM     25  C   UNL A   1      37.937  33.008  39.468  1.00  0.00     0.095 A 
ATOM     26  C   UNL A   1      38.064  34.761  41.152  1.00  0.00     0.255 A 
ATOM     27  N   UNL A   1      37.415  33.686  40.549  1.00  0.00    -0.258 N 
ATOM     28  O   UNL A   1      37.720  35.326  42.163  1.00  0.00    -0.269 OA
BRANCH  27  29
ATOM     29  C   UNL A   1      36.199  33.230  41.168  1.00  0.00     0.451 C 
ATOM     30  F   UNL A   1      35.448  32.529  40.286  1.00  0.00    -0.185 F 
ATOM     31  F   UNL A   1      36.448  32.437  42.237  1.00  0.00    -0.185 F 
ENDBRANCH  27  29
ENDBRANCH  21  22
ENDBRANCH  16  21
ENDBRANCH   8   9
ENDBRANCH   6   8
ENDBRANCH   5   6
ENDBRANCH   4   5
ENDBRANCH   3   4
ENDBRANCH   2   3
ENDBRANCH   1   2
BRANCH   1  32
ATOM     32  C   UNL A   1      35.637  34.670  33.019  1.00  0.00     0.188 C 
BRANCH  32  33
ATOM     33  O   UNL A   1      34.765  33.930  32.202  1.00  0.00    -0.376 OA
BRANCH  33  34
ATOM     34  C   UNL A   1      34.063  34.657  31.208  1.00  0.00     0.202 C 
BRANCH  34  35
ATOM     35  C   UNL A   1      34.114  34.124  29.756  1.00  0.00     0.261 C 
BRANCH  35  36
ATOM     36  O   UNL A   1      34.367  32.690  29.700  1.00  0.00    -0.460 OA
BRANCH  36  37
ATOM     37  C   UNL A   1      35.002  32.224  28.583  1.00  0.00     0.338 C 
ATOM     38  O   UNL A   1      34.813  32.620  27.445  1.00  0.00    -0.246 OA
BRANCH  37  39
ATOM     39  C   UNL A   1      36.222  31.444  28.997  1.00  0.00     0.060 A 
ATOM     40  C   UNL A   1      37.398  31.984  29.524  1.00  0.00     0.016 A 
ATOM     41  C   UNL A   1      36.242  30.108  28.607  1.00  0.00     0.016 A 
ATOM     42  C   UNL A   1      38.607  31.232  29.508  1.00  0.00     0.010 A 
ATOM     43  C   UNL A   1      37.450  29.407  28.494  1.00  0.00     0.010 A 
ATOM     44  C   UNL A   1      38.667  29.963  28.908  1.00  0.00    -0.014 A 
BRANCH  44  45
ATOM     45  C   UNL A   1      39.815  29.021  29.018  1.00  0.00     0.031 A 
ATOM     46  C   UNL A   1      40.078  28.691  30.417  1.00  0.00     0.074 A 
ATOM     47  C   UNL A   1      40.643  28.396  28.143  1.00  0.00     0.049 A 
ATOM     48  N   UNL A   1      41.017  29.262  31.090  1.00  0.00    -0.248 NA
ATOM     49  C   UNL A   1      39.191  27.821  31.185  1.00  0.00     0.031 C 
ATOM     50  C   UNL A   1      40.785  28.653  26.739  1.00  0.00     0.029 A 
ATOM     51  N   UNL A   1      41.567  27.380  28.318  1.00  0.00    -0.354 N 
ATOM     52  C   UNL A   1      40.981  28.670  32.327  1.00  0.00     0.074 A 
ATOM     53  C   UNL A   1      39.734  27.946  32.398  1.00  0.00     0.031 C 
ATOM     54  C   UNL A   1      41.478  27.679  26.105  1.00  0.00     0.029 A 
ATOM     55  C   UNL A   1      42.034  26.804  27.126  1.00  0.00     0.049 A 
ATOM     56  H   UNL A   1      41.872  27.085  29.207  1.00  0.00     0.167 HD
ATOM     57  C   UNL A   1      42.111  28.611  33.072  1.00  0.00     0.037 A 
ATOM     58  C   UNL A   1      43.158  26.083  26.865  1.00  0.00     0.037 A 
ATOM     59  C   UNL A   1      43.129  29.524  32.604  1.00  0.00     0.049 A 
ATOM     60  C   UNL A   1      44.171  26.504  27.847  1.00  0.00     0.074 A 
ATOM     61  C   UNL A   1      43.177  30.892  32.395  1.00  0.00     0.029 A 
ATOM     62  N   UNL A   1      44.190  29.017  31.895  1.00  0.00    -0.354 N 
ATOM     63  N   UNL A   1      44.775  27.657  27.816  1.00  0.00    -0.248 NA
ATOM     64  C   UNL A   1      44.212  25.797  29.112  1.00  0.00     0.031 C 
ATOM     65  C   UNL A   1      43.971  31.077  31.223  1.00  0.00     0.029 A 
ATOM     66  C   UNL A   1      44.409  29.822  30.803  1.00  0.00     0.049 A 
ATOM     67  H   UNL A   1      44.706  28.212  32.130  1.00  0.00     0.167 HD
ATOM     68  C   UNL A   1      44.855  28.028  29.147  1.00  0.00     0.074 A 
ATOM     69  C   UNL A   1      44.591  26.804  29.898  1.00  0.00     0.031 C 
ATOM     70  C   UNL A   1      44.868  29.341  29.515  1.00  0.00     0.037 A 
BRANCH  57  71
ATOM     71  C   UNL A   1      42.364  27.474  34.005  1.00  0.00     0.064 A 
ATOM     72  C   UNL A   1      41.996  27.583  35.351  1.00  0.00     0.173 A 
ATOM     73  C   UNL A   1      43.149  26.351  33.659  1.00  0.00     0.173 A 
ATOM     74  F   UNL A   1      41.314  28.653  35.785  1.00  0.00    -0.203 F 
ATOM     75  C   UNL A   1      42.382  26.624  36.289  1.00  0.00     0.198 A 
ATOM     76  C   UNL A   1      43.474  25.362  34.580  1.00  0.00     0.198 A 
ATOM     77  F   UNL A   1      43.712  26.225  32.449  1.00  0.00    -0.203 F 
ATOM     78  F   UNL A   1      42.090  26.807  37.582  1.00  0.00    -0.200 F 
ATOM     79  C   UNL A   1      43.106  25.508  35.900  1.00  0.00     0.200 A 
ATOM     80  F   UNL A   1      44.201  24.308  34.187  1.00  0.00    -0.200 F 
ATOM     81  F   UNL A   1      43.495  24.601  36.804  1.00  0.00    -0.200 F 
ENDBRANCH  57  71
BRANCH  58  82
ATOM     82  C   UNL A   1      43.287  24.842  26.052  1.00  0.00     0.064 A 
ATOM     83  C   UNL A   1      44.362  24.658  25.161  1.00  0.00     0.173 A 
ATOM     84  C   UNL A   1      42.484  23.712  26.291  1.00  0.00     0.173 A 
ATOM     85  F   UNL A   1      45.182  25.678  24.873  1.00  0.00    -0.203 F 
ATOM     86  C   UNL A   1      44.649  23.410  24.593  1.00  0.00     0.198 A 
ATOM     87  C   UNL A   1      42.768  22.467  25.722  1.00  0.00     0.198 A 
ATOM     88  F   UNL A   1      41.452  23.780  27.141  1.00  0.00    -0.203 F 
ATOM     89  F   UNL A   1      45.720  23.264  23.799  1.00  0.00    -0.200 F 
ATOM     90  C   UNL A   1      43.862  22.311  24.889  1.00  0.00     0.200 A 
ATOM     91  F   UNL A   1      42.004  21.406  26.024  1.00  0.00    -0.200 F 
ATOM     92  F   UNL A   1      44.171  21.102  24.399  1.00  0.00    -0.200 F 
ENDBRANCH  58  82
BRANCH  70  93
ATOM     93  C   UNL A   1      45.157  30.375  28.451  1.00  0.00     0.064 A 
ATOM     94  C   UNL A   1      44.188  30.948  27.610  1.00  0.00     0.173 A 
ATOM     95  C   UNL A   1      46.454  30.900  28.368  1.00  0.00     0.173 A 
ATOM     96  F   UNL A   1      42.913  30.555  27.668  1.00  0.00    -0.203 F 
ATOM     97  C   UNL A   1      44.503  31.978  26.722  1.00  0.00     0.198 A 
ATOM     98  C   UNL A   1      46.763  31.950  27.504  1.00  0.00     0.198 A 
ATOM     99  F   UNL A   1      47.423  30.419  29.162  1.00  0.00    -0.203 F 
ATOM    100  F   UNL A   1      43.555  32.501  25.929  1.00  0.00    -0.200 F 
ATOM    101  C   UNL A   1      45.789  32.487  26.678  1.00  0.00     0.200 A 
ATOM    102  F   UNL A   1      48.003  32.459  27.490  1.00  0.00    -0.200 F 
ATOM    103  F   UNL A   1      46.086  33.506  25.859  1.00  0.00    -0.200 F 
ENDBRANCH  70  93
ENDBRANCH  44  45
ENDBRANCH  37  39
ENDBRANCH  36  37
ENDBRANCH  35  36
ENDBRANCH  34  35
ENDBRANCH  33  34
ENDBRANCH  32  33
ENDBRANCH   1  32
TORSDOF 22
ENDMDL
