MODEL 1
REMARK VINA RESULT:     -11.3      0.000      0.000
REMARK SMILES O=C(N[C@@H](C(=O)OCCOCCOCCOC(=O)c1ccc(-c2c3nc(c(-c4c(F)c(F)c(F)c(F)c4F)c4ccc([nH]4)c(-c4c(F)c(F)c(F)c(F)c4F)c4nc(c(-c5c(F)c(F)c(F)c(F)c5F)c5ccc2[nH]5)C=C4)C=C3)cc1)c1ccccc1)c1ccc(Br)nc1
REMARK SMILES IDX 11 1 10 2 9 3 8 4 7 5 5 6 6 7 4 8 3 9 1 10 2 11 88 13 89 14
REMARK SMILES IDX 94 15 90 16 93 17 91 18 92 19 82 20 83 21 87 22 84 23 86 24
REMARK SMILES IDX 85 25 12 26 13 27 14 28 15 29 16 30 17 31 18 32 19 33 20 34
REMARK SMILES IDX 81 35 21 36 80 37 22 38 23 39 24 40 74 41 25 42 79 43 73 44
REMARK SMILES IDX 75 45 26 46 78 47 72 48 71 49 27 51 59 52 39 53 58 54 40 55
REMARK SMILES IDX 43 56 57 57 76 58 41 59 42 60 56 62 77 63 44 64 28 65 29 66
REMARK SMILES IDX 37 67 30 68 31 69 35 70 38 71 32 72 33 73 36 74 34 75 60 76
REMARK SMILES IDX 61 77 69 78 62 79 63 80 67 81 70 82 64 83 65 84 68 85 66 86
REMARK SMILES IDX 45 87 46 88 54 89 47 90 48 91 52 92 55 93 49 94 50 95 53 96
REMARK SMILES IDX 51 97
REMARK H PARENT 3 12 75 50 43 61
REMARK Flexibility Score: inf
ROOT
ATOM      1  C   UNL A   1      33.663  22.927  23.214  1.00  0.00     0.188 C 
ENDROOT
BRANCH   1   2
ATOM      2  O   UNL A   1      32.988  21.774  23.687  1.00  0.00    -0.376 OA
BRANCH   2   3
ATOM      3  C   UNL A   1      31.822  21.941  24.487  1.00  0.00     0.202 C 
BRANCH   3   4
ATOM      4  C   UNL A   1      31.941  22.276  25.990  1.00  0.00     0.261 C 
BRANCH   4   5
ATOM      5  O   UNL A   1      32.069  23.680  26.317  1.00  0.00    -0.461 OA
BRANCH   5   6
ATOM      6  C   UNL A   1      30.923  24.417  26.294  1.00  0.00     0.333 C 
ATOM      7  O   UNL A   1      29.910  24.104  26.916  1.00  0.00    -0.249 OA
BRANCH   6   8
ATOM      8  C   UNL A   1      31.021  25.748  25.481  1.00  0.00     0.223 C 
BRANCH   8   9
ATOM      9  N   UNL A   1      31.356  25.657  24.042  1.00  0.00    -0.335 N 
ATOM     10  O   UNL A   1      31.498  26.214  21.869  1.00  0.00    -0.269 OA
ATOM     11  C   UNL A   1      31.085  26.484  22.991  1.00  0.00     0.253 C 
ATOM     12  H   UNL A   1      31.870  24.852  23.799  1.00  0.00     0.165 HD
BRANCH  11  13
ATOM     13  C   UNL A   1      30.265  27.678  23.185  1.00  0.00     0.058 A 
ATOM     14  C   UNL A   1      30.896  28.889  23.450  1.00  0.00     0.018 A 
ATOM     15  C   UNL A   1      28.882  27.646  23.107  1.00  0.00     0.126 A 
ATOM     16  C   UNL A   1      30.122  30.045  23.517  1.00  0.00     0.037 A 
ATOM     17  N   UNL A   1      28.111  28.754  23.147  1.00  0.00    -0.249 NA
ATOM     18  C   UNL A   1      28.751  29.933  23.330  1.00  0.00     0.106 A 
ATOM     19  Br  UNL A   1      27.703  31.511  23.283  1.00  0.00    -0.029 Br
ENDBRANCH  11  13
ENDBRANCH   8   9
BRANCH   8  20
ATOM     20  C   UNL A   1      31.915  26.829  26.124  1.00  0.00    -0.014 A 
ATOM     21  C   UNL A   1      31.435  27.797  27.023  1.00  0.00     0.006 A 
ATOM     22  C   UNL A   1      33.272  26.921  25.745  1.00  0.00     0.006 A 
ATOM     23  C   UNL A   1      32.272  28.802  27.524  1.00  0.00     0.000 A 
ATOM     24  C   UNL A   1      34.104  27.929  26.241  1.00  0.00     0.000 A 
ATOM     25  C   UNL A   1      33.602  28.872  27.129  1.00  0.00     0.000 A 
ENDBRANCH   8  20
ENDBRANCH   6   8
ENDBRANCH   5   6
ENDBRANCH   4   5
ENDBRANCH   3   4
ENDBRANCH   2   3
ENDBRANCH   1   2
BRANCH   1  26
ATOM     26  C   UNL A   1      35.075  23.228  23.729  1.00  0.00     0.188 C 
BRANCH  26  27
ATOM     27  O   UNL A   1      35.240  23.272  25.120  1.00  0.00    -0.376 OA
BRANCH  27  28
ATOM     28  C   UNL A   1      35.719  22.137  25.819  1.00  0.00     0.202 C 
BRANCH  28  29
ATOM     29  C   UNL A   1      36.865  21.222  25.335  1.00  0.00     0.261 C 
BRANCH  29  30
ATOM     30  O   UNL A   1      38.163  21.796  25.143  1.00  0.00    -0.460 OA
BRANCH  30  31
ATOM     31  C   UNL A   1      39.142  21.395  25.994  1.00  0.00     0.338 C 
ATOM     32  O   UNL A   1      39.613  20.285  26.109  1.00  0.00    -0.246 OA
BRANCH  31  33
ATOM     33  C   UNL A   1      39.708  22.622  26.604  1.00  0.00     0.060 A 
ATOM     34  C   UNL A   1      39.213  23.878  26.218  1.00  0.00     0.016 A 
ATOM     35  C   UNL A   1      40.705  22.519  27.571  1.00  0.00     0.016 A 
ATOM     36  C   UNL A   1      39.731  25.043  26.790  1.00  0.00     0.010 A 
ATOM     37  C   UNL A   1      41.247  23.682  28.115  1.00  0.00     0.010 A 
ATOM     38  C   UNL A   1      40.784  24.949  27.705  1.00  0.00    -0.014 A 
BRANCH  38  39
ATOM     39  C   UNL A   1      41.590  26.137  28.070  1.00  0.00     0.031 A 
ATOM     40  C   UNL A   1      40.894  27.239  28.819  1.00  0.00     0.074 A 
ATOM     41  C   UNL A   1      42.871  26.277  27.692  1.00  0.00     0.049 A 
ATOM     42  N   UNL A   1      41.276  28.467  29.043  1.00  0.00    -0.248 NA
ATOM     43  C   UNL A   1      39.570  26.906  29.372  1.00  0.00     0.031 C 
ATOM     44  C   UNL A   1      43.674  25.259  27.023  1.00  0.00     0.029 A 
ATOM     45  N   UNL A   1      43.708  27.363  27.789  1.00  0.00    -0.354 N 
ATOM     46  C   UNL A   1      40.229  29.063  29.734  1.00  0.00     0.074 A 
ATOM     47  C   UNL A   1      39.190  28.068  29.879  1.00  0.00     0.031 C 
ATOM     48  C   UNL A   1      44.881  25.780  26.735  1.00  0.00     0.029 A 
ATOM     49  C   UNL A   1      44.911  27.183  27.149  1.00  0.00     0.049 A 
ATOM     50  H   UNL A   1      43.470  28.189  28.269  1.00  0.00     0.167 HD
ATOM     51  C   UNL A   1      40.142  30.330  30.200  1.00  0.00     0.037 A 
ATOM     52  C   UNL A   1      45.894  28.068  26.888  1.00  0.00     0.037 A 
ATOM     53  C   UNL A   1      41.180  31.313  30.047  1.00  0.00     0.049 A 
ATOM     54  C   UNL A   1      45.739  29.504  27.336  1.00  0.00     0.074 A 
ATOM     55  C   UNL A   1      41.197  32.624  30.489  1.00  0.00     0.029 A 
ATOM     56  N   UNL A   1      42.382  31.093  29.392  1.00  0.00    -0.354 N 
ATOM     57  N   UNL A   1      44.750  30.068  27.988  1.00  0.00    -0.248 NA
ATOM     58  C   UNL A   1      46.833  30.429  27.003  1.00  0.00     0.031 C 
ATOM     59  C   UNL A   1      42.383  33.215  30.048  1.00  0.00     0.029 A 
ATOM     60  C   UNL A   1      43.139  32.251  29.397  1.00  0.00     0.049 A 
ATOM     61  H   UNL A   1      42.656  30.240  28.983  1.00  0.00     0.167 HD
ATOM     62  C   UNL A   1      45.125  31.392  28.186  1.00  0.00     0.074 A 
ATOM     63  C   UNL A   1      46.428  31.554  27.578  1.00  0.00     0.031 C 
ATOM     64  C   UNL A   1      44.453  32.383  28.821  1.00  0.00     0.037 A 
BRANCH  51  65
ATOM     65  C   UNL A   1      38.867  30.736  30.878  1.00  0.00     0.064 A 
ATOM     66  C   UNL A   1      37.744  31.162  30.153  1.00  0.00     0.173 A 
ATOM     67  C   UNL A   1      38.760  30.673  32.276  1.00  0.00     0.173 A 
ATOM     68  F   UNL A   1      37.798  31.256  28.817  1.00  0.00    -0.203 F 
ATOM     69  C   UNL A   1      36.571  31.535  30.805  1.00  0.00     0.198 A 
ATOM     70  C   UNL A   1      37.575  31.012  32.922  1.00  0.00     0.198 A 
ATOM     71  F   UNL A   1      39.804  30.272  33.017  1.00  0.00    -0.203 F 
ATOM     72  F   UNL A   1      35.529  31.989  30.096  1.00  0.00    -0.200 F 
ATOM     73  C   UNL A   1      36.485  31.451  32.186  1.00  0.00     0.200 A 
ATOM     74  F   UNL A   1      37.490  30.916  34.255  1.00  0.00    -0.200 F 
ATOM     75  F   UNL A   1      35.352  31.801  32.810  1.00  0.00    -0.200 F 
ENDBRANCH  51  65
BRANCH  52  76
ATOM     76  C   UNL A   1      47.106  27.641  26.138  1.00  0.00     0.064 A 
ATOM     77  C   UNL A   1      47.153  27.720  24.739  1.00  0.00     0.173 A 
ATOM     78  C   UNL A   1      48.228  27.115  26.796  1.00  0.00     0.173 A 
ATOM     79  F   UNL A   1      46.095  28.189  24.060  1.00  0.00    -0.203 F 
ATOM     80  C   UNL A   1      48.263  27.271  24.027  1.00  0.00     0.198 A 
ATOM     81  C   UNL A   1      49.351  26.697  26.086  1.00  0.00     0.198 A 
ATOM     82  F   UNL A   1      48.235  27.012  28.133  1.00  0.00    -0.203 F 
ATOM     83  F   UNL A   1      48.257  27.307  22.687  1.00  0.00    -0.200 F 
ATOM     84  C   UNL A   1      49.364  26.765  24.701  1.00  0.00     0.200 A 
ATOM     85  F   UNL A   1      50.418  26.219  26.742  1.00  0.00    -0.200 F 
ATOM     86  F   UNL A   1      50.432  26.333  24.016  1.00  0.00    -0.200 F 
ENDBRANCH  52  76
BRANCH  64  87
ATOM     87  C   UNL A   1      45.132  33.714  28.980  1.00  0.00     0.064 A 
ATOM     88  C   UNL A   1      46.040  33.969  30.017  1.00  0.00     0.173 A 
ATOM     89  C   UNL A   1      44.945  34.712  28.010  1.00  0.00     0.173 A 
ATOM     90  F   UNL A   1      46.245  33.054  30.976  1.00  0.00    -0.203 F 
ATOM     91  C   UNL A   1      46.732  35.177  30.078  1.00  0.00     0.198 A 
ATOM     92  C   UNL A   1      45.663  35.903  28.057  1.00  0.00     0.198 A 
ATOM     93  F   UNL A   1      44.094  34.514  26.991  1.00  0.00    -0.203 F 
ATOM     94  F   UNL A   1      47.577  35.411  31.092  1.00  0.00    -0.200 F 
ATOM     95  C   UNL A   1      46.554  36.136  29.092  1.00  0.00     0.200 A 
ATOM     96  F   UNL A   1      45.503  36.819  27.091  1.00  0.00    -0.200 F 
ATOM     97  F   UNL A   1      47.242  37.285  29.139  1.00  0.00    -0.200 F 
ENDBRANCH  64  87
ENDBRANCH  38  39
ENDBRANCH  31  33
ENDBRANCH  30  31
ENDBRANCH  29  30
ENDBRANCH  28  29
ENDBRANCH  27  28
ENDBRANCH  26  27
ENDBRANCH   1  26
TORSDOF 20
ENDMDL
MODEL 2
REMARK VINA RESULT:     -10.8      5.591      9.499
REMARK SMILES O=C(N[C@@H](C(=O)OCCOCCOCCOC(=O)c1ccc(-c2c3nc(c(-c4c(F)c(F)c(F)c(F)c4F)c4ccc([nH]4)c(-c4c(F)c(F)c(F)c(F)c4F)c4nc(c(-c5c(F)c(F)c(F)c(F)c5F)c5ccc2[nH]5)C=C4)C=C3)cc1)c1ccccc1)c1ccc(Br)nc1
REMARK SMILES IDX 11 1 10 2 9 3 8 4 7 5 5 6 6 7 4 8 3 9 1 10 2 11 88 13 89 14
REMARK SMILES IDX 94 15 90 16 93 17 91 18 92 19 82 20 83 21 87 22 84 23 86 24
REMARK SMILES IDX 85 25 12 26 13 27 14 28 15 29 16 30 17 31 18 32 19 33 20 34
REMARK SMILES IDX 81 35 21 36 80 37 22 38 23 39 24 40 74 41 25 42 79 43 73 44
REMARK SMILES IDX 75 45 26 46 78 47 72 48 71 49 27 51 59 52 39 53 58 54 40 55
REMARK SMILES IDX 43 56 57 57 76 58 41 59 42 60 56 62 77 63 44 64 28 65 29 66
REMARK SMILES IDX 37 67 30 68 31 69 35 70 38 71 32 72 33 73 36 74 34 75 60 76
REMARK SMILES IDX 61 77 69 78 62 79 63 80 67 81 70 82 64 83 65 84 68 85 66 86
REMARK SMILES IDX 45 87 46 88 54 89 47 90 48 91 52 92 55 93 49 94 50 95 53 96
REMARK SMILES IDX 51 97
REMARK H PARENT 3 12 75 50 43 61
REMARK Flexibility Score: inf
ROOT
ATOM      1  C   UNL A   1      35.034  31.491  27.721  1.00  0.00     0.188 C 
ENDROOT
BRANCH   1   2
ATOM      2  O   UNL A   1      34.467  30.253  27.327  1.00  0.00    -0.376 OA
BRANCH   2   3
ATOM      3  C   UNL A   1      33.160  30.244  26.761  1.00  0.00     0.202 C 
BRANCH   3   4
ATOM      4  C   UNL A   1      32.844  29.368  25.530  1.00  0.00     0.261 C 
BRANCH   4   5
ATOM      5  O   UNL A   1      31.462  28.964  25.377  1.00  0.00    -0.461 OA
BRANCH   5   6
ATOM      6  C   UNL A   1      31.243  27.661  25.048  1.00  0.00     0.333 C 
ATOM      7  O   UNL A   1      31.242  26.750  25.874  1.00  0.00    -0.249 OA
BRANCH   6   8
ATOM      8  C   UNL A   1      30.900  27.417  23.543  1.00  0.00     0.223 C 
BRANCH   8   9
ATOM      9  N   UNL A   1      32.024  27.288  22.589  1.00  0.00    -0.335 N 
ATOM     10  O   UNL A   1      33.758  26.384  21.481  1.00  0.00    -0.269 OA
ATOM     11  C   UNL A   1      32.912  26.278  22.361  1.00  0.00     0.253 C 
ATOM     12  H   UNL A   1      32.155  28.077  22.014  1.00  0.00     0.165 HD
BRANCH  11  13
ATOM     13  C   UNL A   1      32.889  25.075  23.191  1.00  0.00     0.058 A 
ATOM     14  C   UNL A   1      31.960  24.080  22.906  1.00  0.00     0.018 A 
ATOM     15  C   UNL A   1      33.766  24.889  24.247  1.00  0.00     0.126 A 
ATOM     16  C   UNL A   1      32.018  22.887  23.620  1.00  0.00     0.037 A 
ATOM     17  N   UNL A   1      33.857  23.734  24.942  1.00  0.00    -0.249 NA
ATOM     18  C   UNL A   1      32.994  22.750  24.599  1.00  0.00     0.106 A 
ATOM     19  Br  UNL A   1      33.172  21.085  25.485  1.00  0.00    -0.029 Br
ENDBRANCH  11  13
ENDBRANCH   8   9
BRANCH   8  20
ATOM     20  C   UNL A   1      29.868  28.402  22.952  1.00  0.00    -0.014 A 
ATOM     21  C   UNL A   1      30.219  29.511  22.164  1.00  0.00     0.006 A 
ATOM     22  C   UNL A   1      28.501  28.249  23.273  1.00  0.00     0.006 A 
ATOM     23  C   UNL A   1      29.253  30.416  21.710  1.00  0.00     0.000 A 
ATOM     24  C   UNL A   1      27.539  29.158  22.825  1.00  0.00     0.000 A 
ATOM     25  C   UNL A   1      27.915  30.244  22.045  1.00  0.00     0.000 A 
ENDBRANCH   8  20
ENDBRANCH   6   8
ENDBRANCH   5   6
ENDBRANCH   4   5
ENDBRANCH   3   4
ENDBRANCH   2   3
ENDBRANCH   1   2
BRANCH   1  26
ATOM     26  C   UNL A   1      34.154  32.517  28.445  1.00  0.00     0.188 C 
BRANCH  26  27
ATOM     27  O   UNL A   1      33.974  33.751  27.807  1.00  0.00    -0.376 OA
BRANCH  27  28
ATOM     28  C   UNL A   1      34.212  34.959  28.508  1.00  0.00     0.202 C 
BRANCH  28  29
ATOM     29  C   UNL A   1      33.150  35.729  29.323  1.00  0.00     0.261 C 
BRANCH  29  30
ATOM     30  O   UNL A   1      32.566  35.088  30.462  1.00  0.00    -0.460 OA
BRANCH  30  31
ATOM     31  C   UNL A   1      32.754  35.687  31.666  1.00  0.00     0.338 C 
ATOM     32  O   UNL A   1      32.044  36.509  32.203  1.00  0.00    -0.246 OA
BRANCH  31  33
ATOM     33  C   UNL A   1      33.874  34.975  32.327  1.00  0.00     0.060 A 
ATOM     34  C   UNL A   1      35.158  35.545  32.319  1.00  0.00     0.016 A 
ATOM     35  C   UNL A   1      33.641  33.762  32.971  1.00  0.00     0.016 A 
ATOM     36  C   UNL A   1      36.221  34.890  32.944  1.00  0.00     0.010 A 
ATOM     37  C   UNL A   1      34.710  33.091  33.563  1.00  0.00     0.010 A 
ATOM     38  C   UNL A   1      36.008  33.637  33.526  1.00  0.00    -0.014 A 
BRANCH  38  39
ATOM     39  C   UNL A   1      37.145  32.757  33.886  1.00  0.00     0.031 A 
ATOM     40  C   UNL A   1      37.848  33.036  35.185  1.00  0.00     0.074 A 
ATOM     41  C   UNL A   1      37.591  31.792  33.066  1.00  0.00     0.049 A 
ATOM     42  N   UNL A   1      38.997  32.597  35.623  1.00  0.00    -0.248 NA
ATOM     43  C   UNL A   1      37.161  33.958  36.106  1.00  0.00     0.031 C 
ATOM     44  C   UNL A   1      36.959  31.381  31.816  1.00  0.00     0.029 A 
ATOM     45  N   UNL A   1      38.715  31.007  33.153  1.00  0.00    -0.354 N 
ATOM     46  C   UNL A   1      39.187  33.213  36.853  1.00  0.00     0.074 A 
ATOM     47  C   UNL A   1      38.043  34.066  37.086  1.00  0.00     0.031 C 
ATOM     48  C   UNL A   1      37.726  30.442  31.231  1.00  0.00     0.029 A 
ATOM     49  C   UNL A   1      38.927  30.230  32.039  1.00  0.00     0.049 A 
ATOM     50  H   UNL A   1      39.312  31.001  33.937  1.00  0.00     0.167 HD
ATOM     51  C   UNL A   1      40.227  33.081  37.709  1.00  0.00     0.037 A 
ATOM     52  C   UNL A   1      39.993  29.479  31.696  1.00  0.00     0.037 A 
ATOM     53  C   UNL A   1      41.361  32.231  37.466  1.00  0.00     0.049 A 
ATOM     54  C   UNL A   1      41.186  29.416  32.623  1.00  0.00     0.074 A 
ATOM     55  C   UNL A   1      42.465  32.017  38.272  1.00  0.00     0.029 A 
ATOM     56  N   UNL A   1      41.539  31.462  36.326  1.00  0.00    -0.354 N 
ATOM     57  N   UNL A   1      41.366  29.997  33.785  1.00  0.00    -0.248 NA
ATOM     58  C   UNL A   1      42.329  28.599  32.186  1.00  0.00     0.031 C 
ATOM     59  C   UNL A   1      43.340  31.167  37.591  1.00  0.00     0.029 A 
ATOM     60  C   UNL A   1      42.747  30.790  36.396  1.00  0.00     0.049 A 
ATOM     61  H   UNL A   1      40.901  31.403  35.577  1.00  0.00     0.167 HD
ATOM     62  C   UNL A   1      42.612  29.578  34.237  1.00  0.00     0.074 A 
ATOM     63  C   UNL A   1      43.151  28.699  33.221  1.00  0.00     0.031 C 
ATOM     64  C   UNL A   1      43.249  29.887  35.392  1.00  0.00     0.037 A 
BRANCH  51  65
ATOM     65  C   UNL A   1      40.205  33.903  38.963  1.00  0.00     0.064 A 
ATOM     66  C   UNL A   1      40.833  35.156  39.038  1.00  0.00     0.173 A 
ATOM     67  C   UNL A   1      39.523  33.441  40.099  1.00  0.00     0.173 A 
ATOM     68  F   UNL A   1      41.512  35.636  37.986  1.00  0.00    -0.203 F 
ATOM     69  C   UNL A   1      40.800  35.903  40.214  1.00  0.00     0.198 A 
ATOM     70  C   UNL A   1      39.463  34.206  41.260  1.00  0.00     0.198 A 
ATOM     71  F   UNL A   1      38.906  32.251  40.080  1.00  0.00    -0.203 F 
ATOM     72  F   UNL A   1      41.452  37.072  40.280  1.00  0.00    -0.200 F 
ATOM     73  C   UNL A   1      40.109  35.431  41.319  1.00  0.00     0.200 A 
ATOM     74  F   UNL A   1      38.782  33.755  42.322  1.00  0.00    -0.200 F 
ATOM     75  F   UNL A   1      40.071  36.156  42.446  1.00  0.00    -0.200 F 
ENDBRANCH  51  65
BRANCH  52  76
ATOM     76  C   UNL A   1      40.005  28.744  30.403  1.00  0.00     0.064 A 
ATOM     77  C   UNL A   1      40.578  29.314  29.257  1.00  0.00     0.173 A 
ATOM     78  C   UNL A   1      39.419  27.477  30.273  1.00  0.00     0.173 A 
ATOM     79  F   UNL A   1      41.127  30.536  29.320  1.00  0.00    -0.203 F 
ATOM     80  C   UNL A   1      40.545  28.655  28.030  1.00  0.00     0.198 A 
ATOM     81  C   UNL A   1      39.416  26.804  29.053  1.00  0.00     0.198 A 
ATOM     82  F   UNL A   1      38.852  26.888  31.337  1.00  0.00    -0.203 F 
ATOM     83  F   UNL A   1      41.051  29.248  26.939  1.00  0.00    -0.200 F 
ATOM     84  C   UNL A   1      39.969  27.398  27.930  1.00  0.00     0.200 A 
ATOM     85  F   UNL A   1      38.868  25.584  28.964  1.00  0.00    -0.200 F 
ATOM     86  F   UNL A   1      39.938  26.763  26.749  1.00  0.00    -0.200 F 
ENDBRANCH  52  76
BRANCH  64  87
ATOM     87  C   UNL A   1      44.561  29.215  35.682  1.00  0.00     0.064 A 
ATOM     88  C   UNL A   1      45.789  29.796  35.339  1.00  0.00     0.173 A 
ATOM     89  C   UNL A   1      44.584  28.016  36.415  1.00  0.00     0.173 A 
ATOM     90  F   UNL A   1      45.823  30.934  34.629  1.00  0.00    -0.203 F 
ATOM     91  C   UNL A   1      46.992  29.199  35.713  1.00  0.00     0.198 A 
ATOM     92  C   UNL A   1      45.786  27.441  36.814  1.00  0.00     0.198 A 
ATOM     93  F   UNL A   1      43.436  27.424  36.777  1.00  0.00    -0.203 F 
ATOM     94  F   UNL A   1      48.155  29.757  35.351  1.00  0.00    -0.200 F 
ATOM     95  C   UNL A   1      46.989  28.031  36.461  1.00  0.00     0.200 A 
ATOM     96  F   UNL A   1      45.779  26.324  37.555  1.00  0.00    -0.200 F 
ATOM     97  F   UNL A   1      48.147  27.474  36.843  1.00  0.00    -0.200 F 
ENDBRANCH  64  87
ENDBRANCH  38  39
ENDBRANCH  31  33
ENDBRANCH  30  31
ENDBRANCH  29  30
ENDBRANCH  28  29
ENDBRANCH  27  28
ENDBRANCH  26  27
ENDBRANCH   1  26
TORSDOF 20
ENDMDL
MODEL 3
REMARK VINA RESULT:     -10.8      5.436      9.341
REMARK SMILES O=C(N[C@@H](C(=O)OCCOCCOCCOC(=O)c1ccc(-c2c3nc(c(-c4c(F)c(F)c(F)c(F)c4F)c4ccc([nH]4)c(-c4c(F)c(F)c(F)c(F)c4F)c4nc(c(-c5c(F)c(F)c(F)c(F)c5F)c5ccc2[nH]5)C=C4)C=C3)cc1)c1ccccc1)c1ccc(Br)nc1
REMARK SMILES IDX 11 1 10 2 9 3 8 4 7 5 5 6 6 7 4 8 3 9 1 10 2 11 88 13 89 14
REMARK SMILES IDX 94 15 90 16 93 17 91 18 92 19 82 20 83 21 87 22 84 23 86 24
REMARK SMILES IDX 85 25 12 26 13 27 14 28 15 29 16 30 17 31 18 32 19 33 20 34
REMARK SMILES IDX 81 35 21 36 80 37 22 38 23 39 24 40 74 41 25 42 79 43 73 44
REMARK SMILES IDX 75 45 26 46 78 47 72 48 71 49 27 51 59 52 39 53 58 54 40 55
REMARK SMILES IDX 43 56 57 57 76 58 41 59 42 60 56 62 77 63 44 64 28 65 29 66
REMARK SMILES IDX 37 67 30 68 31 69 35 70 38 71 32 72 33 73 36 74 34 75 60 76
REMARK SMILES IDX 61 77 69 78 62 79 63 80 67 81 70 82 64 83 65 84 68 85 66 86
REMARK SMILES IDX 45 87 46 88 54 89 47 90 48 91 52 92 55 93 49 94 50 95 53 96
REMARK SMILES IDX 51 97
REMARK H PARENT 3 12 75 50 43 61
REMARK Flexibility Score: inf
ROOT
ATOM      1  C   UNL A   1      35.060  31.285  27.978  1.00  0.00     0.188 C 
ENDROOT
BRANCH   1   2
ATOM      2  O   UNL A   1      34.509  30.148  27.337  1.00  0.00    -0.376 OA
BRANCH   2   3
ATOM      3  C   UNL A   1      33.258  30.273  26.669  1.00  0.00     0.202 C 
BRANCH   3   4
ATOM      4  C   UNL A   1      32.874  29.300  25.533  1.00  0.00     0.261 C 
BRANCH   4   5
ATOM      5  O   UNL A   1      31.474  28.940  25.454  1.00  0.00    -0.461 OA
BRANCH   5   6
ATOM      6  C   UNL A   1      31.197  27.646  25.132  1.00  0.00     0.333 C 
ATOM      7  O   UNL A   1      31.159  26.740  25.962  1.00  0.00    -0.249 OA
BRANCH   6   8
ATOM      8  C   UNL A   1      30.840  27.410  23.629  1.00  0.00     0.223 C 
BRANCH   8   9
ATOM      9  N   UNL A   1      31.956  27.280  22.665  1.00  0.00    -0.335 N 
ATOM     10  O   UNL A   1      33.806  26.472  21.674  1.00  0.00    -0.269 OA
ATOM     11  C   UNL A   1      33.003  26.407  22.598  1.00  0.00     0.253 C 
ATOM     12  H   UNL A   1      31.940  27.945  21.939  1.00  0.00     0.165 HD
BRANCH  11  13
ATOM     13  C   UNL A   1      33.202  25.413  23.651  1.00  0.00     0.058 A 
ATOM     14  C   UNL A   1      34.164  25.652  24.627  1.00  0.00     0.018 A 
ATOM     15  C   UNL A   1      32.461  24.244  23.714  1.00  0.00     0.126 A 
ATOM     16  C   UNL A   1      34.270  24.763  25.693  1.00  0.00     0.037 A 
ATOM     17  N   UNL A   1      32.529  23.377  24.747  1.00  0.00    -0.249 NA
ATOM     18  C   UNL A   1      33.418  23.666  25.725  1.00  0.00     0.106 A 
ATOM     19  Br  UNL A   1      33.458  22.522  27.235  1.00  0.00    -0.029 Br
ENDBRANCH  11  13
ENDBRANCH   8   9
BRANCH   8  20
ATOM     20  C   UNL A   1      29.808  28.402  23.051  1.00  0.00    -0.014 A 
ATOM     21  C   UNL A   1      28.424  28.296  23.271  1.00  0.00     0.006 A 
ATOM     22  C   UNL A   1      30.244  29.430  22.186  1.00  0.00     0.006 A 
ATOM     23  C   UNL A   1      27.522  29.179  22.666  1.00  0.00     0.000 A 
ATOM     24  C   UNL A   1      29.341  30.305  21.577  1.00  0.00     0.000 A 
ATOM     25  C   UNL A   1      27.979  30.178  21.815  1.00  0.00     0.000 A 
ENDBRANCH   8  20
ENDBRANCH   6   8
ENDBRANCH   5   6
ENDBRANCH   4   5
ENDBRANCH   3   4
ENDBRANCH   2   3
ENDBRANCH   1   2
BRANCH   1  26
ATOM     26  C   UNL A   1      34.130  32.432  28.389  1.00  0.00     0.188 C 
BRANCH  26  27
ATOM     27  O   UNL A   1      34.206  33.606  27.628  1.00  0.00    -0.376 OA
BRANCH  27  28
ATOM     28  C   UNL A   1      34.417  34.856  28.262  1.00  0.00     0.202 C 
BRANCH  28  29
ATOM     29  C   UNL A   1      33.300  35.745  28.850  1.00  0.00     0.261 C 
BRANCH  29  30
ATOM     30  O   UNL A   1      32.590  35.277  30.001  1.00  0.00    -0.460 OA
BRANCH  30  31
ATOM     31  C   UNL A   1      32.860  35.893  31.181  1.00  0.00     0.338 C 
ATOM     32  O   UNL A   1      32.276  36.832  31.676  1.00  0.00    -0.246 OA
BRANCH  31  33
ATOM     33  C   UNL A   1      33.863  35.056  31.881  1.00  0.00     0.060 A 
ATOM     34  C   UNL A   1      34.946  35.669  32.530  1.00  0.00     0.016 A 
ATOM     35  C   UNL A   1      33.710  33.671  31.911  1.00  0.00     0.016 A 
ATOM     36  C   UNL A   1      35.895  34.893  33.201  1.00  0.00     0.010 A 
ATOM     37  C   UNL A   1      34.675  32.895  32.550  1.00  0.00     0.010 A 
ATOM     38  C   UNL A   1      35.787  33.500  33.170  1.00  0.00    -0.014 A 
BRANCH  38  39
ATOM     39  C   UNL A   1      36.927  32.635  33.555  1.00  0.00     0.031 A 
ATOM     40  C   UNL A   1      37.601  32.926  34.866  1.00  0.00     0.074 A 
ATOM     41  C   UNL A   1      37.401  31.674  32.746  1.00  0.00     0.049 A 
ATOM     42  N   UNL A   1      38.747  32.502  35.328  1.00  0.00    -0.248 NA
ATOM     43  C   UNL A   1      36.885  33.841  35.770  1.00  0.00     0.031 C 
ATOM     44  C   UNL A   1      36.799  31.252  31.485  1.00  0.00     0.029 A 
ATOM     45  N   UNL A   1      38.533  30.903  32.857  1.00  0.00    -0.354 N 
ATOM     46  C   UNL A   1      38.904  33.123  36.559  1.00  0.00     0.074 A 
ATOM     47  C   UNL A   1      37.746  33.963  36.768  1.00  0.00     0.031 C 
ATOM     48  C   UNL A   1      37.589  30.322  30.917  1.00  0.00     0.029 A 
ATOM     49  C   UNL A   1      38.776  30.126  31.750  1.00  0.00     0.049 A 
ATOM     50  H   UNL A   1      39.114  30.906  33.652  1.00  0.00     0.167 HD
ATOM     51  C   UNL A   1      39.929  33.006  37.436  1.00  0.00     0.037 A 
ATOM     52  C   UNL A   1      39.858  29.388  31.429  1.00  0.00     0.037 A 
ATOM     53  C   UNL A   1      41.078  32.170  37.218  1.00  0.00     0.049 A 
ATOM     54  C   UNL A   1      41.033  29.342  32.380  1.00  0.00     0.074 A 
ATOM     55  C   UNL A   1      42.168  31.972  38.045  1.00  0.00     0.029 A 
ATOM     56  N   UNL A   1      41.288  31.401  36.083  1.00  0.00    -0.354 N 
ATOM     57  N   UNL A   1      41.183  29.928  33.543  1.00  0.00    -0.248 NA
ATOM     58  C   UNL A   1      42.194  28.538  31.967  1.00  0.00     0.031 C 
ATOM     59  C   UNL A   1      43.068  31.131  37.385  1.00  0.00     0.029 A 
ATOM     60  C   UNL A   1      42.502  30.744  36.179  1.00  0.00     0.049 A 
ATOM     61  H   UNL A   1      40.666  31.332  35.323  1.00  0.00     0.167 HD
ATOM     62  C   UNL A   1      42.425  29.525  34.021  1.00  0.00     0.074 A 
ATOM     63  C   UNL A   1      42.995  28.651  33.018  1.00  0.00     0.031 C 
ATOM     64  C   UNL A   1      43.036  29.845  35.188  1.00  0.00     0.037 A 
BRANCH  51  65
ATOM     65  C   UNL A   1      39.873  33.832  38.687  1.00  0.00     0.064 A 
ATOM     66  C   UNL A   1      39.302  33.344  39.872  1.00  0.00     0.173 A 
ATOM     67  C   UNL A   1      40.424  35.122  38.707  1.00  0.00     0.173 A 
ATOM     68  F   UNL A   1      38.747  32.123  39.902  1.00  0.00    -0.203 F 
ATOM     69  C   UNL A   1      39.260  34.129  41.022  1.00  0.00     0.198 A 
ATOM     70  C   UNL A   1      40.412  35.890  39.867  1.00  0.00     0.198 A 
ATOM     71  F   UNL A   1      40.983  35.636  37.602  1.00  0.00    -0.203 F 
ATOM     72  F   UNL A   1      38.662  33.663  42.127  1.00  0.00    -0.200 F 
ATOM     73  C   UNL A   1      39.822  35.396  41.021  1.00  0.00     0.200 A 
ATOM     74  F   UNL A   1      40.970  37.108  39.868  1.00  0.00    -0.200 F 
ATOM     75  F   UNL A   1      39.790  36.145  42.131  1.00  0.00    -0.200 F 
ENDBRANCH  51  65
BRANCH  52  76
ATOM     76  C   UNL A   1      39.905  28.650  30.138  1.00  0.00     0.064 A 
ATOM     77  C   UNL A   1      39.364  27.362  30.025  1.00  0.00     0.173 A 
ATOM     78  C   UNL A   1      40.518  29.198  29.002  1.00  0.00     0.173 A 
ATOM     79  F   UNL A   1      38.791  26.781  31.090  1.00  0.00    -0.203 F 
ATOM     80  C   UNL A   1      39.453  26.643  28.835  1.00  0.00     0.198 A 
ATOM     81  C   UNL A   1      40.577  28.492  27.802  1.00  0.00     0.198 A 
ATOM     82  F   UNL A   1      41.057  30.425  29.056  1.00  0.00    -0.203 F 
ATOM     83  F   UNL A   1      38.976  25.392  28.772  1.00  0.00    -0.200 F 
ATOM     84  C   UNL A   1      40.054  27.211  27.722  1.00  0.00     0.200 A 
ATOM     85  F   UNL A   1      41.149  29.050  26.726  1.00  0.00    -0.200 F 
ATOM     86  F   UNL A   1      40.139  26.520  26.577  1.00  0.00    -0.200 F 
ENDBRANCH  52  76
BRANCH  64  87
ATOM     87  C   UNL A   1      44.350  29.190  35.505  1.00  0.00     0.064 A 
ATOM     88  C   UNL A   1      44.429  27.956  36.165  1.00  0.00     0.173 A 
ATOM     89  C   UNL A   1      45.545  29.764  35.042  1.00  0.00     0.173 A 
ATOM     90  F   UNL A   1      43.318  27.371  36.638  1.00  0.00    -0.203 F 
ATOM     91  C   UNL A   1      45.656  27.323  36.353  1.00  0.00     0.198 A 
ATOM     92  C   UNL A   1      46.765  29.114  35.204  1.00  0.00     0.198 A 
ATOM     93  F   UNL A   1      45.524  30.940  34.396  1.00  0.00    -0.203 F 
ATOM     94  F   UNL A   1      45.711  26.156  37.009  1.00  0.00    -0.200 F 
ATOM     95  C   UNL A   1      46.819  27.895  35.861  1.00  0.00     0.200 A 
ATOM     96  F   UNL A   1      47.884  29.660  34.709  1.00  0.00    -0.200 F 
ATOM     97  F   UNL A   1      47.995  27.271  36.020  1.00  0.00    -0.200 F 
ENDBRANCH  64  87
ENDBRANCH  38  39
ENDBRANCH  31  33
ENDBRANCH  30  31
ENDBRANCH  29  30
ENDBRANCH  28  29
ENDBRANCH  27  28
ENDBRANCH  26  27
ENDBRANCH   1  26
TORSDOF 20
ENDMDL
