MODEL 1
REMARK VINA RESULT:     -12.2      0.000      0.000
REMARK SMILES Cc1c(NC(=O)c2ccc(Br)cc2N)cccc1C(=O)OCCOCCOCCOC(=O)c1ccc(-c2c3nc(c(-c4c(F)c(F)c(F)c(F)c4F)c4ccc([nH]4)c(-c4c(F)c(F)c(F)c(F)c4F)c4nc(c(-c5c(F)c(F)c(F)c(F)c5F)c5ccc2[nH]5)C=C4)C=C3)cc1
REMARK SMILES IDX 25 1 24 2 23 3 22 4 21 5 19 6 20 7 18 8 1 9 2 10 3 11 15 12
REMARK SMILES IDX 17 13 16 14 4 15 5 16 6 18 7 19 8 20 13 21 9 22 12 23 10 24
REMARK SMILES IDX 11 25 14 26 26 29 27 30 28 31 29 32 30 33 31 34 32 35 33 36
REMARK SMILES IDX 34 37 95 38 35 39 94 40 36 41 37 42 38 43 88 44 39 45 93 46
REMARK SMILES IDX 87 47 89 48 40 49 92 50 86 51 85 52 41 54 73 55 53 56 72 57
REMARK SMILES IDX 54 58 57 59 71 60 90 61 55 62 56 63 70 65 91 66 58 67 42 68
REMARK SMILES IDX 43 69 51 70 44 71 45 72 49 73 52 74 46 75 47 76 50 77 48 78
REMARK SMILES IDX 74 79 75 80 83 81 76 82 77 83 81 84 84 85 78 86 79 87 82 88
REMARK SMILES IDX 80 89 59 90 60 91 68 92 61 93 62 94 66 95 69 96 63 97 64 98
REMARK SMILES IDX 67 99 65 100
REMARK H PARENT 4 17 14 27 14 28 89 53 57 64
REMARK Flexibility Score: inf
ROOT
ATOM      1  C   UNL A   1      38.533  20.231  25.148  1.00  0.00     0.188 C 
ENDROOT
BRANCH   1   2
ATOM      2  O   UNL A   1      38.349  21.565  25.689  1.00  0.00    -0.376 OA
BRANCH   2   3
ATOM      3  C   UNL A   1      37.386  22.533  25.213  1.00  0.00     0.202 C 
BRANCH   3   4
ATOM      4  C   UNL A   1      36.047  23.010  26.120  1.00  0.00     0.261 C 
BRANCH   4   5
ATOM      5  O   UNL A   1      34.415  22.859  25.798  1.00  0.00    -0.460 OA
BRANCH   5   6
ATOM      6  C   UNL A   1      33.650  22.256  24.766  1.00  0.00     0.338 C 
ATOM      7  O   UNL A   1      33.588  21.063  24.474  1.00  0.00    -0.246 OA
BRANCH   6   8
ATOM      8  C   UNL A   1      32.820  22.853  23.712  1.00  0.00     0.065 A 
ATOM      9  C   UNL A   1      30.933  23.110  25.336  1.00  0.00     0.047 C 
ATOM     10  C   UNL A   1      31.649  23.496  24.079  1.00  0.00    -0.013 A 
ATOM     11  C   UNL A   1      31.211  24.555  23.256  1.00  0.00     0.045 A 
ATOM     12  C   UNL A   1      31.982  25.060  22.191  1.00  0.00     0.026 A 
ATOM     13  C   UNL A   1      33.545  23.318  22.555  1.00  0.00     0.016 A 
ATOM     14  C   UNL A   1      33.155  24.435  21.828  1.00  0.00     0.003 A 
BRANCH  11  15
ATOM     15  N   UNL A   1      29.925  25.050  23.468  1.00  0.00    -0.322 N 
ATOM     16  C   UNL A   1      29.566  26.156  24.207  1.00  0.00     0.257 C 
ATOM     17  H   UNL A   1      29.190  24.553  23.042  1.00  0.00     0.170 HD
ATOM     18  O   UNL A   1      28.372  26.408  24.357  1.00  0.00    -0.269 OA
BRANCH  16  19
ATOM     19  C   UNL A   1      30.586  27.066  24.810  1.00  0.00     0.063 A 
ATOM     20  C   UNL A   1      30.925  26.758  26.138  1.00  0.00     0.017 A 
ATOM     21  C   UNL A   1      31.216  28.149  24.151  1.00  0.00     0.045 A 
ATOM     22  C   UNL A   1      31.889  27.503  26.816  1.00  0.00     0.016 A 
ATOM     23  C   UNL A   1      32.190  28.880  24.851  1.00  0.00     0.042 A 
ATOM     24  C   UNL A   1      32.521  28.557  26.166  1.00  0.00     0.020 A 
ATOM     25  Br  UNL A   1      33.813  29.586  27.084  1.00  0.00    -0.051 Br
BRANCH  21  26
ATOM     26  N   UNL A   1      30.843  28.637  22.897  1.00  0.00    -0.398 N 
ATOM     27  H   UNL A   1      30.725  29.605  22.760  1.00  0.00     0.156 HD
ATOM     28  H   UNL A   1      30.697  28.013  22.149  1.00  0.00     0.156 HD
ENDBRANCH  21  26
ENDBRANCH  16  19
ENDBRANCH  11  15
ENDBRANCH   6   8
ENDBRANCH   5   6
ENDBRANCH   4   5
ENDBRANCH   3   4
ENDBRANCH   2   3
ENDBRANCH   1   2
BRANCH   1  29
ATOM     29  C   UNL A   1      39.469  19.170  25.749  1.00  0.00     0.188 C 
BRANCH  29  30
ATOM     30  O   UNL A   1      40.812  19.622  25.764  1.00  0.00    -0.376 OA
BRANCH  30  31
ATOM     31  C   UNL A   1      41.465  19.597  27.027  1.00  0.00     0.202 C 
BRANCH  31  32
ATOM     32  C   UNL A   1      42.048  20.966  27.450  1.00  0.00     0.261 C 
BRANCH  32  33
ATOM     33  O   UNL A   1      41.112  22.044  27.189  1.00  0.00    -0.460 OA
BRANCH  33  34
ATOM     34  C   UNL A   1      41.449  22.962  26.224  1.00  0.00     0.338 C 
ATOM     35  O   UNL A   1      42.312  22.791  25.374  1.00  0.00    -0.246 OA
BRANCH  34  36
ATOM     36  C   UNL A   1      40.786  24.280  26.508  1.00  0.00     0.060 A 
ATOM     37  C   UNL A   1      41.106  25.543  25.981  1.00  0.00     0.016 A 
ATOM     38  C   UNL A   1      40.038  24.305  27.629  1.00  0.00     0.016 A 
ATOM     39  C   UNL A   1      40.809  26.784  26.705  1.00  0.00     0.010 A 
ATOM     40  C   UNL A   1      40.090  25.478  28.369  1.00  0.00     0.010 A 
ATOM     41  C   UNL A   1      40.342  26.800  28.020  1.00  0.00    -0.014 A 
BRANCH  41  42
ATOM     42  C   UNL A   1      40.224  28.024  29.081  1.00  0.00     0.031 A 
ATOM     43  C   UNL A   1      39.241  29.396  29.203  1.00  0.00     0.074 A 
ATOM     44  C   UNL A   1      41.178  27.981  30.037  1.00  0.00     0.049 A 
ATOM     45  N   UNL A   1      39.627  30.534  29.758  1.00  0.00    -0.248 NA
ATOM     46  C   UNL A   1      37.851  29.681  28.673  1.00  0.00     0.031 C 
ATOM     47  C   UNL A   1      41.329  28.834  31.210  1.00  0.00     0.029 A 
ATOM     48  N   UNL A   1      42.377  27.249  29.992  1.00  0.00    -0.354 N 
ATOM     49  C   UNL A   1      38.554  31.435  29.732  1.00  0.00     0.074 A 
ATOM     50  C   UNL A   1      37.649  30.977  28.774  1.00  0.00     0.031 C 
ATOM     51  C   UNL A   1      42.631  28.870  31.534  1.00  0.00     0.029 A 
ATOM     52  C   UNL A   1      43.348  28.114  30.523  1.00  0.00     0.049 A 
ATOM     53  H   UNL A   1      42.509  26.331  29.660  1.00  0.00     0.167 HD
ATOM     54  C   UNL A   1      38.356  32.461  30.597  1.00  0.00     0.037 A 
ATOM     55  C   UNL A   1      44.384  28.555  29.759  1.00  0.00     0.037 A 
ATOM     56  C   UNL A   1      39.624  32.820  31.161  1.00  0.00     0.049 A 
ATOM     57  C   UNL A   1      44.466  30.062  29.687  1.00  0.00     0.074 A 
ATOM     58  C   UNL A   1      40.266  32.515  32.340  1.00  0.00     0.029 A 
ATOM     59  N   UNL A   1      40.595  33.245  30.263  1.00  0.00    -0.354 N 
ATOM     60  N   UNL A   1      43.518  30.877  30.070  1.00  0.00    -0.248 NA
ATOM     61  C   UNL A   1      45.625  30.771  29.154  1.00  0.00     0.031 C 
ATOM     62  C   UNL A   1      41.666  32.577  32.069  1.00  0.00     0.029 A 
ATOM     63  C   UNL A   1      41.855  32.999  30.761  1.00  0.00     0.049 A 
ATOM     64  H   UNL A   1      40.408  33.665  29.392  1.00  0.00     0.167 HD
ATOM     65  C   UNL A   1      43.872  32.165  29.765  1.00  0.00     0.074 A 
ATOM     66  C   UNL A   1      45.220  32.047  29.243  1.00  0.00     0.031 C 
ATOM     67  C   UNL A   1      43.020  33.223  29.911  1.00  0.00     0.037 A 
BRANCH  54  68
ATOM     68  C   UNL A   1      36.983  33.070  30.915  1.00  0.00     0.064 A 
ATOM     69  C   UNL A   1      36.345  32.803  32.141  1.00  0.00     0.173 A 
ATOM     70  C   UNL A   1      36.184  33.837  30.017  1.00  0.00     0.173 A 
ATOM     71  F   UNL A   1      36.938  32.029  33.061  1.00  0.00    -0.203 F 
ATOM     72  C   UNL A   1      35.062  33.293  32.453  1.00  0.00     0.198 A 
ATOM     73  C   UNL A   1      34.946  34.395  30.359  1.00  0.00     0.198 A 
ATOM     74  F   UNL A   1      36.513  34.019  28.731  1.00  0.00    -0.203 F 
ATOM     75  F   UNL A   1      34.481  32.949  33.610  1.00  0.00    -0.200 F 
ATOM     76  C   UNL A   1      34.377  34.113  31.576  1.00  0.00     0.200 A 
ATOM     77  F   UNL A   1      34.299  35.173  29.476  1.00  0.00    -0.200 F 
ATOM     78  F   UNL A   1      33.163  34.591  31.880  1.00  0.00    -0.200 F 
ENDBRANCH  54  68
BRANCH  55  79
ATOM     79  C   UNL A   1      44.840  27.574  28.723  1.00  0.00     0.064 A 
ATOM     80  C   UNL A   1      45.452  26.377  29.170  1.00  0.00     0.173 A 
ATOM     81  C   UNL A   1      44.444  27.610  27.381  1.00  0.00     0.173 A 
ATOM     82  F   UNL A   1      45.869  26.274  30.443  1.00  0.00    -0.203 F 
ATOM     83  C   UNL A   1      45.542  25.244  28.364  1.00  0.00     0.198 A 
ATOM     84  C   UNL A   1      44.565  26.476  26.561  1.00  0.00     0.198 A 
ATOM     85  F   UNL A   1      43.811  28.683  26.888  1.00  0.00    -0.203 F 
ATOM     86  F   UNL A   1      46.002  24.093  28.877  1.00  0.00    -0.200 F 
ATOM     87  C   UNL A   1      45.083  25.289  27.062  1.00  0.00     0.200 A 
ATOM     88  F   UNL A   1      44.048  26.490  25.323  1.00  0.00    -0.200 F 
ATOM     89  F   UNL A   1      45.066  24.174  26.317  1.00  0.00    -0.200 F 
ENDBRANCH  55  79
BRANCH  67  90
ATOM     90  C   UNL A   1      43.213  34.573  29.248  1.00  0.00     0.064 A 
ATOM     91  C   UNL A   1      43.311  35.785  29.957  1.00  0.00     0.173 A 
ATOM     92  C   UNL A   1      43.476  34.662  27.861  1.00  0.00     0.173 A 
ATOM     93  F   UNL A   1      43.229  35.826  31.293  1.00  0.00    -0.203 F 
ATOM     94  C   UNL A   1      43.563  37.001  29.316  1.00  0.00     0.198 A 
ATOM     95  C   UNL A   1      43.806  35.867  27.237  1.00  0.00     0.198 A 
ATOM     96  F   UNL A   1      43.458  33.576  27.074  1.00  0.00    -0.203 F 
ATOM     97  F   UNL A   1      43.582  38.135  30.032  1.00  0.00    -0.200 F 
ATOM     98  C   UNL A   1      43.824  37.041  27.961  1.00  0.00     0.200 A 
ATOM     99  F   UNL A   1      44.128  35.878  25.936  1.00  0.00    -0.200 F 
ATOM    100  F   UNL A   1      44.117  38.202  27.360  1.00  0.00    -0.200 F 
ENDBRANCH  67  90
ENDBRANCH  41  42
ENDBRANCH  34  36
ENDBRANCH  33  34
ENDBRANCH  32  33
ENDBRANCH  31  32
ENDBRANCH  30  31
ENDBRANCH  29  30
ENDBRANCH   1  29
TORSDOF 20
ENDMDL
MODEL 2
REMARK VINA RESULT:     -12.0      4.218     10.250
REMARK SMILES Cc1c(NC(=O)c2ccc(Br)cc2N)cccc1C(=O)OCCOCCOCCOC(=O)c1ccc(-c2c3nc(c(-c4c(F)c(F)c(F)c(F)c4F)c4ccc([nH]4)c(-c4c(F)c(F)c(F)c(F)c4F)c4nc(c(-c5c(F)c(F)c(F)c(F)c5F)c5ccc2[nH]5)C=C4)C=C3)cc1
REMARK SMILES IDX 25 1 24 2 23 3 22 4 21 5 19 6 20 7 18 8 1 9 2 10 3 11 15 12
REMARK SMILES IDX 17 13 16 14 4 15 5 16 6 18 7 19 8 20 13 21 9 22 12 23 10 24
REMARK SMILES IDX 11 25 14 26 26 29 27 30 28 31 29 32 30 33 31 34 32 35 33 36
REMARK SMILES IDX 34 37 95 38 35 39 94 40 36 41 37 42 38 43 88 44 39 45 93 46
REMARK SMILES IDX 87 47 89 48 40 49 92 50 86 51 85 52 41 54 73 55 53 56 72 57
REMARK SMILES IDX 54 58 57 59 71 60 90 61 55 62 56 63 70 65 91 66 58 67 42 68
REMARK SMILES IDX 43 69 51 70 44 71 45 72 49 73 52 74 46 75 47 76 50 77 48 78
REMARK SMILES IDX 74 79 75 80 83 81 76 82 77 83 81 84 84 85 78 86 79 87 82 88
REMARK SMILES IDX 80 89 59 90 60 91 68 92 61 93 62 94 66 95 69 96 63 97 64 98
REMARK SMILES IDX 67 99 65 100
REMARK H PARENT 4 17 14 27 14 28 89 53 57 64
REMARK Flexibility Score: inf
ROOT
ATOM      1  C   UNL A   1      34.349  34.299  27.961  1.00  0.00     0.188 C 
ENDROOT
BRANCH   1   2
ATOM      2  O   UNL A   1      35.169  33.127  27.721  1.00  0.00    -0.376 OA
BRANCH   2   3
ATOM      3  C   UNL A   1      34.693  31.761  27.717  1.00  0.00     0.202 C 
BRANCH   3   4
ATOM      4  C   UNL A   1      33.135  31.340  27.228  1.00  0.00     0.261 C 
BRANCH   4   5
ATOM      5  O   UNL A   1      32.311  29.894  27.372  1.00  0.00    -0.460 OA
BRANCH   5   6
ATOM      6  C   UNL A   1      32.491  28.584  26.857  1.00  0.00     0.338 C 
ATOM      7  O   UNL A   1      33.446  27.829  27.037  1.00  0.00    -0.246 OA
BRANCH   6   8
ATOM      8  C   UNL A   1      31.683  27.804  25.911  1.00  0.00     0.065 A 
ATOM      9  C   UNL A   1      33.161  28.543  24.031  1.00  0.00     0.047 C 
ATOM     10  C   UNL A   1      32.186  27.583  24.639  1.00  0.00    -0.013 A 
ATOM     11  C   UNL A   1      31.790  26.395  23.988  1.00  0.00     0.045 A 
ATOM     12  C   UNL A   1      31.042  25.390  24.629  1.00  0.00     0.026 A 
ATOM     13  C   UNL A   1      30.832  26.808  26.514  1.00  0.00     0.016 A 
ATOM     14  C   UNL A   1      30.548  25.595  25.898  1.00  0.00     0.003 A 
BRANCH  11  15
ATOM     15  N   UNL A   1      32.088  26.272  22.631  1.00  0.00    -0.322 N 
ATOM     16  C   UNL A   1      32.950  25.372  22.043  1.00  0.00     0.257 C 
ATOM     17  H   UNL A   1      31.630  26.897  22.025  1.00  0.00     0.170 HD
ATOM     18  O   UNL A   1      33.157  25.453  20.834  1.00  0.00    -0.269 OA
BRANCH  16  19
ATOM     19  C   UNL A   1      33.621  24.294  22.830  1.00  0.00     0.063 A 
ATOM     20  C   UNL A   1      34.695  24.735  23.621  1.00  0.00     0.017 A 
ATOM     21  C   UNL A   1      33.245  22.929  22.842  1.00  0.00     0.045 A 
ATOM     22  C   UNL A   1      35.392  23.842  24.433  1.00  0.00     0.016 A 
ATOM     23  C   UNL A   1      33.957  22.049  23.675  1.00  0.00     0.042 A 
ATOM     24  C   UNL A   1      35.015  22.505  24.460  1.00  0.00     0.020 A 
ATOM     25  Br  UNL A   1      35.968  21.283  25.542  1.00  0.00    -0.051 Br
BRANCH  21  26
ATOM     26  N   UNL A   1      32.305  22.359  21.982  1.00  0.00    -0.398 N 
ATOM     27  H   UNL A   1      32.290  21.385  21.844  1.00  0.00     0.156 HD
ATOM     28  H   UNL A   1      31.656  22.933  21.512  1.00  0.00     0.156 HD
ENDBRANCH  21  26
ENDBRANCH  16  19
ENDBRANCH  11  15
ENDBRANCH   6   8
ENDBRANCH   5   6
ENDBRANCH   4   5
ENDBRANCH   3   4
ENDBRANCH   2   3
ENDBRANCH   1   2
BRANCH   1  29
ATOM     29  C   UNL A   1      33.159  34.343  28.934  1.00  0.00     0.188 C 
BRANCH  29  30
ATOM     30  O   UNL A   1      32.722  35.674  29.146  1.00  0.00    -0.376 OA
BRANCH  30  31
ATOM     31  C   UNL A   1      33.373  36.385  30.193  1.00  0.00     0.202 C 
BRANCH  31  32
ATOM     32  C   UNL A   1      32.870  36.006  31.605  1.00  0.00     0.261 C 
BRANCH  32  33
ATOM     33  O   UNL A   1      33.364  34.703  32.011  1.00  0.00    -0.460 OA
BRANCH  33  34
ATOM     34  C   UNL A   1      34.512  34.663  32.765  1.00  0.00     0.338 C 
ATOM     35  O   UNL A   1      34.929  35.590  33.444  1.00  0.00    -0.246 OA
BRANCH  34  36
ATOM     36  C   UNL A   1      35.296  33.420  32.450  1.00  0.00     0.060 A 
ATOM     37  C   UNL A   1      35.862  32.501  33.350  1.00  0.00     0.016 A 
ATOM     38  C   UNL A   1      35.793  33.368  31.197  1.00  0.00     0.016 A 
ATOM     39  C   UNL A   1      37.030  31.687  32.996  1.00  0.00     0.010 A 
ATOM     40  C   UNL A   1      37.059  32.815  31.068  1.00  0.00     0.010 A 
ATOM     41  C   UNL A   1      37.757  31.877  31.820  1.00  0.00    -0.014 A 
BRANCH  41  42
ATOM     42  C   UNL A   1      39.209  31.303  31.374  1.00  0.00     0.031 A 
ATOM     43  C   UNL A   1      39.734  29.931  30.532  1.00  0.00     0.074 A 
ATOM     44  C   UNL A   1      40.233  32.043  31.852  1.00  0.00     0.049 A 
ATOM     45  N   UNL A   1      40.896  29.334  30.745  1.00  0.00    -0.248 NA
ATOM     46  C   UNL A   1      39.040  29.063  29.503  1.00  0.00     0.031 C 
ATOM     47  C   UNL A   1      41.659  31.906  31.577  1.00  0.00     0.029 A 
ATOM     48  N   UNL A   1      40.177  32.969  32.907  1.00  0.00    -0.354 N 
ATOM     49  C   UNL A   1      41.025  28.266  29.847  1.00  0.00     0.074 A 
ATOM     50  C   UNL A   1      39.748  27.961  29.377  1.00  0.00     0.031 C 
ATOM     51  C   UNL A   1      42.334  32.385  32.634  1.00  0.00     0.029 A 
ATOM     52  C   UNL A   1      41.355  32.753  33.640  1.00  0.00     0.049 A 
ATOM     53  H   UNL A   1      39.467  33.627  33.092  1.00  0.00     0.167 HD
ATOM     54  C   UNL A   1      42.193  27.747  29.392  1.00  0.00     0.037 A 
ATOM     55  C   UNL A   1      41.305  32.314  34.928  1.00  0.00     0.037 A 
ATOM     56  C   UNL A   1      43.218  28.054  30.346  1.00  0.00     0.049 A 
ATOM     57  C   UNL A   1      42.076  31.033  35.145  1.00  0.00     0.074 A 
ATOM     58  C   UNL A   1      44.184  29.032  30.429  1.00  0.00     0.029 A 
ATOM     59  N   UNL A   1      43.035  27.548  31.626  1.00  0.00    -0.354 N 
ATOM     60  N   UNL A   1      42.520  30.261  34.189  1.00  0.00    -0.248 NA
ATOM     61  C   UNL A   1      42.389  30.509  36.471  1.00  0.00     0.031 C 
ATOM     62  C   UNL A   1      44.433  29.240  31.818  1.00  0.00     0.029 A 
ATOM     63  C   UNL A   1      43.684  28.333  32.554  1.00  0.00     0.049 A 
ATOM     64  H   UNL A   1      42.514  26.740  31.841  1.00  0.00     0.167 HD
ATOM     65  C   UNL A   1      43.075  29.133  34.732  1.00  0.00     0.074 A 
ATOM     66  C   UNL A   1      43.014  29.362  36.163  1.00  0.00     0.031 C 
ATOM     67  C   UNL A   1      43.491  28.072  33.977  1.00  0.00     0.037 A 
BRANCH  54  68
ATOM     68  C   UNL A   1      42.346  27.001  28.059  1.00  0.00     0.064 A 
ATOM     69  C   UNL A   1      42.145  25.610  27.987  1.00  0.00     0.173 A 
ATOM     70  C   UNL A   1      42.798  27.571  26.832  1.00  0.00     0.173 A 
ATOM     71  F   UNL A   1      41.794  24.916  29.079  1.00  0.00    -0.203 F 
ATOM     72  C   UNL A   1      42.330  24.875  26.800  1.00  0.00     0.198 A 
ATOM     73  C   UNL A   1      42.899  26.857  25.632  1.00  0.00     0.198 A 
ATOM     74  F   UNL A   1      43.249  28.830  26.742  1.00  0.00    -0.203 F 
ATOM     75  F   UNL A   1      42.187  23.543  26.811  1.00  0.00    -0.200 F 
ATOM     76  C   UNL A   1      42.676  25.503  25.617  1.00  0.00     0.200 A 
ATOM     77  F   UNL A   1      43.255  27.494  24.506  1.00  0.00    -0.200 F 
ATOM     78  F   UNL A   1      42.837  24.805  24.485  1.00  0.00    -0.200 F 
ENDBRANCH  54  68
BRANCH  55  79
ATOM     79  C   UNL A   1      40.106  32.789  35.689  1.00  0.00     0.064 A 
ATOM     80  C   UNL A   1      39.113  31.836  36.022  1.00  0.00     0.173 A 
ATOM     81  C   UNL A   1      40.034  34.023  36.348  1.00  0.00     0.173 A 
ATOM     82  F   UNL A   1      39.111  30.635  35.421  1.00  0.00    -0.203 F 
ATOM     83  C   UNL A   1      38.189  32.052  37.042  1.00  0.00     0.198 A 
ATOM     84  C   UNL A   1      39.081  34.249  37.355  1.00  0.00     0.198 A 
ATOM     85  F   UNL A   1      40.963  34.964  36.132  1.00  0.00    -0.203 F 
ATOM     86  F   UNL A   1      37.360  31.066  37.415  1.00  0.00    -0.200 F 
ATOM     87  C   UNL A   1      38.184  33.255  37.721  1.00  0.00     0.200 A 
ATOM     88  F   UNL A   1      39.124  35.384  38.070  1.00  0.00    -0.200 F 
ATOM     89  F   UNL A   1      37.372  33.430  38.774  1.00  0.00    -0.200 F 
ENDBRANCH  55  79
BRANCH  67  90
ATOM     90  C   UNL A   1      43.746  26.682  34.524  1.00  0.00     0.064 A 
ATOM     91  C   UNL A   1      45.026  26.186  34.834  1.00  0.00     0.173 A 
ATOM     92  C   UNL A   1      42.667  25.852  34.913  1.00  0.00     0.173 A 
ATOM     93  F   UNL A   1      46.128  26.926  34.654  1.00  0.00    -0.203 F 
ATOM     94  C   UNL A   1      45.216  24.925  35.406  1.00  0.00     0.198 A 
ATOM     95  C   UNL A   1      42.858  24.628  35.556  1.00  0.00     0.198 A 
ATOM     96  F   UNL A   1      41.394  26.223  34.715  1.00  0.00    -0.203 F 
ATOM     97  F   UNL A   1      46.461  24.477  35.621  1.00  0.00    -0.200 F 
ATOM     98  C   UNL A   1      44.134  24.154  35.780  1.00  0.00     0.200 A 
ATOM     99  F   UNL A   1      41.799  23.925  35.979  1.00  0.00    -0.200 F 
ATOM    100  F   UNL A   1      44.320  22.968  36.376  1.00  0.00    -0.200 F 
ENDBRANCH  67  90
ENDBRANCH  41  42
ENDBRANCH  34  36
ENDBRANCH  33  34
ENDBRANCH  32  33
ENDBRANCH  31  32
ENDBRANCH  30  31
ENDBRANCH  29  30
ENDBRANCH   1  29
TORSDOF 20
ENDMDL
MODEL 3
REMARK VINA RESULT:     -12.0      3.728     10.097
REMARK SMILES Cc1c(NC(=O)c2ccc(Br)cc2N)cccc1C(=O)OCCOCCOCCOC(=O)c1ccc(-c2c3nc(c(-c4c(F)c(F)c(F)c(F)c4F)c4ccc([nH]4)c(-c4c(F)c(F)c(F)c(F)c4F)c4nc(c(-c5c(F)c(F)c(F)c(F)c5F)c5ccc2[nH]5)C=C4)C=C3)cc1
REMARK SMILES IDX 25 1 24 2 23 3 22 4 21 5 19 6 20 7 18 8 1 9 2 10 3 11 15 12
REMARK SMILES IDX 17 13 16 14 4 15 5 16 6 18 7 19 8 20 13 21 9 22 12 23 10 24
REMARK SMILES IDX 11 25 14 26 26 29 27 30 28 31 29 32 30 33 31 34 32 35 33 36
REMARK SMILES IDX 34 37 95 38 35 39 94 40 36 41 37 42 38 43 88 44 39 45 93 46
REMARK SMILES IDX 87 47 89 48 40 49 92 50 86 51 85 52 41 54 73 55 53 56 72 57
REMARK SMILES IDX 54 58 57 59 71 60 90 61 55 62 56 63 70 65 91 66 58 67 42 68
REMARK SMILES IDX 43 69 51 70 44 71 45 72 49 73 52 74 46 75 47 76 50 77 48 78
REMARK SMILES IDX 74 79 75 80 83 81 76 82 77 83 81 84 84 85 78 86 79 87 82 88
REMARK SMILES IDX 80 89 59 90 60 91 68 92 61 93 62 94 66 95 69 96 63 97 64 98
REMARK SMILES IDX 67 99 65 100
REMARK H PARENT 4 17 14 27 14 28 89 53 57 64
REMARK Flexibility Score: inf
ROOT
ATOM      1  C   UNL A   1      33.327  34.246  28.025  1.00  0.00     0.188 C 
ENDROOT
BRANCH   1   2
ATOM      2  O   UNL A   1      32.066  33.590  27.728  1.00  0.00    -0.376 OA
BRANCH   2   3
ATOM      3  C   UNL A   1      31.758  32.893  26.499  1.00  0.00     0.202 C 
BRANCH   3   4
ATOM      4  C   UNL A   1      31.433  31.239  26.445  1.00  0.00     0.261 C 
BRANCH   4   5
ATOM      5  O   UNL A   1      32.128  30.032  25.523  1.00  0.00    -0.460 OA
BRANCH   5   6
ATOM      6  C   UNL A   1      31.937  28.631  25.399  1.00  0.00     0.338 C 
ATOM      7  O   UNL A   1      32.446  27.740  26.078  1.00  0.00    -0.246 OA
BRANCH   6   8
ATOM      8  C   UNL A   1      31.192  27.847  24.407  1.00  0.00     0.065 A 
ATOM      9  C   UNL A   1      33.136  27.981  22.835  1.00  0.00     0.047 C 
ATOM     10  C   UNL A   1      31.884  27.323  23.326  1.00  0.00    -0.013 A 
ATOM     11  C   UNL A   1      31.391  26.125  22.767  1.00  0.00     0.045 A 
ATOM     12  C   UNL A   1      30.339  25.390  23.347  1.00  0.00     0.026 A 
ATOM     13  C   UNL A   1      30.052  27.133  24.925  1.00  0.00     0.016 A 
ATOM     14  C   UNL A   1      29.655  25.897  24.430  1.00  0.00     0.003 A 
BRANCH  11  15
ATOM     15  N   UNL A   1      31.922  25.716  21.544  1.00  0.00    -0.322 N 
ATOM     16  C   UNL A   1      32.851  24.721  21.327  1.00  0.00     0.257 C 
ATOM     17  H   UNL A   1      31.598  26.191  20.746  1.00  0.00     0.170 HD
ATOM     18  O   UNL A   1      33.272  24.542  20.185  1.00  0.00    -0.269 OA
BRANCH  16  19
ATOM     19  C   UNL A   1      33.340  23.844  22.433  1.00  0.00     0.063 A 
ATOM     20  C   UNL A   1      34.399  24.388  23.179  1.00  0.00     0.017 A 
ATOM     21  C   UNL A   1      32.813  22.575  22.772  1.00  0.00     0.045 A 
ATOM     22  C   UNL A   1      34.934  23.694  24.263  1.00  0.00     0.016 A 
ATOM     23  C   UNL A   1      33.362  21.898  23.874  1.00  0.00     0.042 A 
ATOM     24  C   UNL A   1      34.408  22.455  24.609  1.00  0.00     0.020 A 
ATOM     25  Br  UNL A   1      35.140  21.497  26.064  1.00  0.00    -0.051 Br
BRANCH  21  26
ATOM     26  N   UNL A   1      31.876  21.877  22.007  1.00  0.00    -0.398 N 
ATOM     27  H   UNL A   1      31.999  20.916  21.834  1.00  0.00     0.156 HD
ATOM     28  H   UNL A   1      31.092  22.347  21.641  1.00  0.00     0.156 HD
ENDBRANCH  21  26
ENDBRANCH  16  19
ENDBRANCH  11  15
ENDBRANCH   6   8
ENDBRANCH   5   6
ENDBRANCH   4   5
ENDBRANCH   3   4
ENDBRANCH   2   3
ENDBRANCH   1   2
BRANCH   1  29
ATOM     29  C   UNL A   1      33.473  35.479  28.932  1.00  0.00     0.188 C 
BRANCH  29  30
ATOM     30  O   UNL A   1      32.847  35.268  30.185  1.00  0.00    -0.376 OA
BRANCH  30  31
ATOM     31  C   UNL A   1      33.412  35.964  31.290  1.00  0.00     0.202 C 
BRANCH  31  32
ATOM     32  C   UNL A   1      34.321  35.083  32.177  1.00  0.00     0.261 C 
BRANCH  32  33
ATOM     33  O   UNL A   1      35.194  34.246  31.375  1.00  0.00    -0.460 OA
BRANCH  33  34
ATOM     34  C   UNL A   1      34.857  32.921  31.238  1.00  0.00     0.338 C 
ATOM     35  O   UNL A   1      34.047  32.334  31.941  1.00  0.00    -0.246 OA
BRANCH  34  36
ATOM     36  C   UNL A   1      35.789  32.247  30.271  1.00  0.00     0.060 A 
ATOM     37  C   UNL A   1      35.739  30.924  29.798  1.00  0.00     0.016 A 
ATOM     38  C   UNL A   1      36.977  32.863  30.109  1.00  0.00     0.016 A 
ATOM     39  C   UNL A   1      36.941  30.217  29.342  1.00  0.00     0.010 A 
ATOM     40  C   UNL A   1      38.080  32.032  29.972  1.00  0.00     0.010 A 
ATOM     41  C   UNL A   1      38.228  30.736  29.492  1.00  0.00    -0.014 A 
BRANCH  41  42
ATOM     42  C   UNL A   1      39.677  30.023  29.326  1.00  0.00     0.031 A 
ATOM     43  C   UNL A   1      40.192  28.455  28.953  1.00  0.00     0.074 A 
ATOM     44  C   UNL A   1      40.703  30.847  29.635  1.00  0.00     0.049 A 
ATOM     45  N   UNL A   1      41.315  27.919  29.405  1.00  0.00    -0.248 NA
ATOM     46  C   UNL A   1      39.521  27.340  28.177  1.00  0.00     0.031 C 
ATOM     47  C   UNL A   1      42.135  30.604  29.504  1.00  0.00     0.029 A 
ATOM     48  N   UNL A   1      40.626  32.042  30.371  1.00  0.00    -0.354 N 
ATOM     49  C   UNL A   1      41.450  26.633  28.864  1.00  0.00     0.074 A 
ATOM     50  C   UNL A   1      40.189  26.234  28.421  1.00  0.00     0.031 C 
ATOM     51  C   UNL A   1      42.770  31.354  30.418  1.00  0.00     0.029 A 
ATOM     52  C   UNL A   1      41.752  32.022  31.210  1.00  0.00     0.049 A 
ATOM     53  H   UNL A   1      39.935  32.741  30.311  1.00  0.00     0.167 HD
ATOM     54  C   UNL A   1      42.619  25.977  28.656  1.00  0.00     0.037 A 
ATOM     55  C   UNL A   1      41.613  31.978  32.563  1.00  0.00     0.037 A 
ATOM     56  C   UNL A   1      43.602  26.525  29.544  1.00  0.00     0.049 A 
ATOM     57  C   UNL A   1      42.318  30.798  33.191  1.00  0.00     0.074 A 
ATOM     58  C   UNL A   1      44.600  27.462  29.403  1.00  0.00     0.029 A 
ATOM     59  N   UNL A   1      43.328  26.419  30.901  1.00  0.00    -0.354 N 
ATOM     60  N   UNL A   1      42.783  29.772  32.530  1.00  0.00    -0.248 NA
ATOM     61  C   UNL A   1      42.536  30.676  34.629  1.00  0.00     0.031 C 
ATOM     62  C   UNL A   1      44.781  28.061  30.685  1.00  0.00     0.029 A 
ATOM     63  C   UNL A   1      43.956  27.425  31.602  1.00  0.00     0.049 A 
ATOM     64  H   UNL A   1      42.764  25.721  31.306  1.00  0.00     0.167 HD
ATOM     65  C   UNL A   1      43.260  28.838  33.411  1.00  0.00     0.074 A 
ATOM     66  C   UNL A   1      43.131  29.476  34.707  1.00  0.00     0.031 C 
ATOM     67  C   UNL A   1      43.674  27.594  33.023  1.00  0.00     0.037 A 
BRANCH  54  68
ATOM     68  C   UNL A   1      42.815  24.872  27.608  1.00  0.00     0.064 A 
ATOM     69  C   UNL A   1      42.351  23.565  27.848  1.00  0.00     0.173 A 
ATOM     70  C   UNL A   1      43.550  24.998  26.392  1.00  0.00     0.173 A 
ATOM     71  F   UNL A   1      41.709  23.270  28.987  1.00  0.00    -0.203 F 
ATOM     72  C   UNL A   1      42.558  22.506  26.941  1.00  0.00     0.198 A 
ATOM     73  C   UNL A   1      43.682  23.967  25.452  1.00  0.00     0.198 A 
ATOM     74  F   UNL A   1      44.253  26.095  26.081  1.00  0.00    -0.203 F 
ATOM     75  F   UNL A   1      42.150  21.270  27.257  1.00  0.00    -0.200 F 
ATOM     76  C   UNL A   1      43.195  22.715  25.732  1.00  0.00     0.200 A 
ATOM     77  F   UNL A   1      44.322  24.199  24.295  1.00  0.00    -0.200 F 
ATOM     78  F   UNL A   1      43.379  21.710  24.865  1.00  0.00    -0.200 F 
ENDBRANCH  54  68
BRANCH  55  79
ATOM     79  C   UNL A   1      40.394  32.682  33.075  1.00  0.00     0.064 A 
ATOM     80  C   UNL A   1      39.266  31.894  33.408  1.00  0.00     0.173 A 
ATOM     81  C   UNL A   1      40.386  34.007  33.527  1.00  0.00     0.173 A 
ATOM     82  F   UNL A   1      39.199  30.616  32.998  1.00  0.00    -0.203 F 
ATOM     83  C   UNL A   1      38.258  32.359  34.250  1.00  0.00     0.198 A 
ATOM     84  C   UNL A   1      39.353  34.483  34.350  1.00  0.00     0.198 A 
ATOM     85  F   UNL A   1      41.436  34.809  33.301  1.00  0.00    -0.203 F 
ATOM     86  F   UNL A   1      37.284  31.529  34.649  1.00  0.00    -0.200 F 
ATOM     87  C   UNL A   1      38.310  33.651  34.734  1.00  0.00     0.200 A 
ATOM     88  F   UNL A   1      39.439  35.710  34.887  1.00  0.00    -0.200 F 
ATOM     89  F   UNL A   1      37.404  34.070  35.630  1.00  0.00    -0.200 F 
ENDBRANCH  55  79
BRANCH  67  90
ATOM     90  C   UNL A   1      43.842  26.418  33.965  1.00  0.00     0.064 A 
ATOM     91  C   UNL A   1      42.784  25.842  34.693  1.00  0.00     0.173 A 
ATOM     92  C   UNL A   1      45.071  25.720  34.033  1.00  0.00     0.173 A 
ATOM     93  F   UNL A   1      41.533  26.313  34.604  1.00  0.00    -0.203 F 
ATOM     94  C   UNL A   1      42.963  24.712  35.495  1.00  0.00     0.198 A 
ATOM     95  C   UNL A   1      45.226  24.546  34.772  1.00  0.00     0.198 A 
ATOM     96  F   UNL A   1      46.150  26.136  33.354  1.00  0.00    -0.203 F 
ATOM     97  F   UNL A   1      41.935  24.244  36.217  1.00  0.00    -0.200 F 
ATOM     98  C   UNL A   1      44.178  24.056  35.524  1.00  0.00     0.200 A 
ATOM     99  F   UNL A   1      46.389  23.881  34.732  1.00  0.00    -0.200 F 
ATOM    100  F   UNL A   1      44.330  22.943  36.253  1.00  0.00    -0.200 F 
ENDBRANCH  67  90
ENDBRANCH  41  42
ENDBRANCH  34  36
ENDBRANCH  33  34
ENDBRANCH  32  33
ENDBRANCH  31  32
ENDBRANCH  30  31
ENDBRANCH  29  30
ENDBRANCH   1  29
TORSDOF 20
ENDMDL
