MODEL 1
REMARK VINA RESULT:     -10.6      0.000      0.000
REMARK SMILES CCCc1nc2cc(C(=O)OCCOCCOCCOC(=O)c3ccc(-c4c5nc(c(-c6c(F)c(F)c(F)c(F)c6F)c6ccc([nH]6)c(-c6c(F)c(F)c(F)c(F)c6F)c6nc(c(-c7c(F)c(F)c(F)c(F)c7F)c7ccc4[nH]7)C=C6)C=C5)cc3)ccc2n1[C@H](CO)C(C)C
REMARK SMILES IDX 15 1 14 2 13 3 12 4 11 5 9 6 10 7 8 8 4 9 5 10 89 11 6 12
REMARK SMILES IDX 88 13 7 14 87 15 86 16 3 17 2 18 1 19 90 20 93 21 94 22
REMARK SMILES IDX 95 23 91 24 92 25 16 27 17 28 18 29 19 30 20 31 21 32 22 33
REMARK SMILES IDX 23 34 24 35 85 36 25 37 84 38 26 39 27 40 28 41 78 42 29 43
REMARK SMILES IDX 83 44 77 45 79 46 30 47 82 48 76 49 75 50 31 52 63 53 43 54
REMARK SMILES IDX 62 55 44 56 47 57 61 58 80 59 45 60 46 61 60 63 81 64 48 65
REMARK SMILES IDX 32 66 33 67 41 68 34 69 35 70 39 71 42 72 36 73 37 74 40 75
REMARK SMILES IDX 38 76 64 77 65 78 73 79 66 80 67 81 71 82 74 83 68 84 69 85
REMARK SMILES IDX 72 86 70 87 49 88 50 89 58 90 51 91 52 92 56 93 59 94 53 95
REMARK SMILES IDX 54 96 57 97 55 98
REMARK H PARENT 92 26 79 51 47 62
REMARK Flexibility Score: inf
ROOT
ATOM      1  C   UNL A   1      38.442  21.532  25.344  1.00  0.00     0.188 C 
ENDROOT
BRANCH   1   2
ATOM      2  O   UNL A   1      37.474  20.534  25.145  1.00  0.00    -0.376 OA
BRANCH   2   3
ATOM      3  C   UNL A   1      36.116  20.868  25.332  1.00  0.00     0.202 C 
BRANCH   3   4
ATOM      4  C   UNL A   1      34.968  19.929  24.914  1.00  0.00     0.261 C 
BRANCH   4   5
ATOM      5  O   UNL A   1      33.626  20.425  25.128  1.00  0.00    -0.460 OA
BRANCH   5   6
ATOM      6  C   UNL A   1      32.961  20.784  24.000  1.00  0.00     0.338 C 
ATOM      7  O   UNL A   1      32.225  20.044  23.348  1.00  0.00    -0.246 OA
BRANCH   6   8
ATOM      8  C   UNL A   1      33.073  22.233  23.666  1.00  0.00     0.062 A 
ATOM      9  C   UNL A   1      33.215  26.568  25.168  1.00  0.00     0.110 A 
ATOM     10  N   UNL A   1      33.788  25.438  25.515  1.00  0.00    -0.233 NA
ATOM     11  N   UNL A   1      32.608  26.378  23.925  1.00  0.00    -0.322 N 
ATOM     12  C   UNL A   1      33.459  24.484  24.575  1.00  0.00     0.090 A 
ATOM     13  C   UNL A   1      32.651  25.022  23.595  1.00  0.00     0.069 A 
ATOM     14  C   UNL A   1      33.735  23.099  24.547  1.00  0.00     0.046 A 
ATOM     15  C   UNL A   1      32.125  24.176  22.588  1.00  0.00     0.029 A 
ATOM     16  C   UNL A   1      32.321  22.781  22.653  1.00  0.00     0.018 A 
BRANCH   9  17
ATOM     17  C   UNL A   1      33.397  27.880  25.920  1.00  0.00     0.075 C 
BRANCH  17  18
ATOM     18  C   UNL A   1      32.380  28.267  27.008  1.00  0.00     0.005 C 
ATOM     19  C   UNL A   1      31.963  29.728  27.038  1.00  0.00     0.004 C 
ENDBRANCH  17  18
ENDBRANCH   9  17
BRANCH  11  20
ATOM     20  C   UNL A   1      31.998  27.463  23.157  1.00  0.00     0.117 C 
BRANCH  20  21
ATOM     21  C   UNL A   1      30.754  28.083  23.834  1.00  0.00     0.008 C 
ATOM     22  C   UNL A   1      30.388  29.463  23.301  1.00  0.00     0.009 C 
ATOM     23  C   UNL A   1      29.548  27.138  23.767  1.00  0.00     0.009 C 
ENDBRANCH  20  21
BRANCH  20  24
ATOM     24  C   UNL A   1      33.094  28.476  22.838  1.00  0.00     0.181 C 
BRANCH  24  25
ATOM     25  O   UNL A   1      33.783  28.114  21.646  1.00  0.00    -0.394 OA
ATOM     26  H   UNL A   1      34.733  28.264  21.764  1.00  0.00     0.210 HD
ENDBRANCH  24  25
ENDBRANCH  20  24
ENDBRANCH  11  20
ENDBRANCH   6   8
ENDBRANCH   5   6
ENDBRANCH   4   5
ENDBRANCH   3   4
ENDBRANCH   2   3
ENDBRANCH   1   2
BRANCH   1  27
ATOM     27  C   UNL A   1      39.638  21.234  26.282  1.00  0.00     0.188 C 
BRANCH  27  28
ATOM     28  O   UNL A   1      40.384  20.051  26.093  1.00  0.00    -0.376 OA
BRANCH  28  29
ATOM     29  C   UNL A   1      41.629  19.975  26.769  1.00  0.00     0.202 C 
BRANCH  29  30
ATOM     30  C   UNL A   1      42.118  21.203  27.576  1.00  0.00     0.261 C 
BRANCH  30  31
ATOM     31  O   UNL A   1      43.196  21.950  26.949  1.00  0.00    -0.460 OA
BRANCH  31  32
ATOM     32  C   UNL A   1      42.854  22.936  26.067  1.00  0.00     0.338 C 
ATOM     33  O   UNL A   1      42.730  22.801  24.860  1.00  0.00    -0.246 OA
BRANCH  32  34
ATOM     34  C   UNL A   1      42.269  24.097  26.825  1.00  0.00     0.060 A 
ATOM     35  C   UNL A   1      41.052  24.730  26.528  1.00  0.00     0.016 A 
ATOM     36  C   UNL A   1      43.128  24.728  27.718  1.00  0.00     0.016 A 
ATOM     37  C   UNL A   1      40.804  26.071  26.955  1.00  0.00     0.010 A 
ATOM     38  C   UNL A   1      42.852  26.033  28.150  1.00  0.00     0.010 A 
ATOM     39  C   UNL A   1      41.755  26.797  27.692  1.00  0.00    -0.014 A 
BRANCH  39  40
ATOM     40  C   UNL A   1      41.468  28.162  28.317  1.00  0.00     0.031 A 
ATOM     41  C   UNL A   1      42.532  29.058  27.850  1.00  0.00     0.074 A 
ATOM     42  C   UNL A   1      40.513  28.739  29.133  1.00  0.00     0.049 A 
ATOM     43  N   UNL A   1      43.519  29.399  28.608  1.00  0.00    -0.248 NA
ATOM     44  C   UNL A   1      42.712  29.383  26.430  1.00  0.00     0.031 C 
ATOM     45  C   UNL A   1      39.386  28.118  29.813  1.00  0.00     0.029 A 
ATOM     46  N   UNL A   1      40.245  30.081  29.456  1.00  0.00    -0.354 N 
ATOM     47  C   UNL A   1      44.282  30.230  27.825  1.00  0.00     0.074 A 
ATOM     48  C   UNL A   1      43.917  29.960  26.460  1.00  0.00     0.031 C 
ATOM     49  C   UNL A   1      38.378  28.992  30.058  1.00  0.00     0.029 A 
ATOM     50  C   UNL A   1      38.896  30.330  29.869  1.00  0.00     0.049 A 
ATOM     51  H   UNL A   1      40.927  30.789  29.403  1.00  0.00     0.167 HD
ATOM     52  C   UNL A   1      44.858  31.312  28.402  1.00  0.00     0.037 A 
ATOM     53  C   UNL A   1      38.293  31.483  30.309  1.00  0.00     0.037 A 
ATOM     54  C   UNL A   1      44.796  31.229  29.843  1.00  0.00     0.049 A 
ATOM     55  C   UNL A   1      39.366  32.222  30.999  1.00  0.00     0.074 A 
ATOM     56  C   UNL A   1      45.458  30.500  30.809  1.00  0.00     0.029 A 
ATOM     57  N   UNL A   1      43.617  31.658  30.401  1.00  0.00    -0.354 N 
ATOM     58  N   UNL A   1      39.901  31.803  32.111  1.00  0.00    -0.248 NA
ATOM     59  C   UNL A   1      40.083  33.286  30.309  1.00  0.00     0.031 C 
ATOM     60  C   UNL A   1      44.607  30.453  31.949  1.00  0.00     0.029 A 
ATOM     61  C   UNL A   1      43.463  31.195  31.686  1.00  0.00     0.049 A 
ATOM     62  H   UNL A   1      42.962  32.227  29.937  1.00  0.00     0.167 HD
ATOM     63  C   UNL A   1      41.220  32.161  31.968  1.00  0.00     0.074 A 
ATOM     64  C   UNL A   1      41.244  33.213  30.962  1.00  0.00     0.031 C 
ATOM     65  C   UNL A   1      42.200  31.313  32.373  1.00  0.00     0.037 A 
BRANCH  52  66
ATOM     66  C   UNL A   1      45.084  32.607  27.688  1.00  0.00     0.064 A 
ATOM     67  C   UNL A   1      46.377  32.918  27.238  1.00  0.00     0.173 A 
ATOM     68  C   UNL A   1      44.140  33.655  27.633  1.00  0.00     0.173 A 
ATOM     69  F   UNL A   1      47.357  32.005  27.299  1.00  0.00    -0.203 F 
ATOM     70  C   UNL A   1      46.701  34.193  26.775  1.00  0.00     0.198 A 
ATOM     71  C   UNL A   1      44.450  34.907  27.115  1.00  0.00     0.198 A 
ATOM     72  F   UNL A   1      42.920  33.548  28.172  1.00  0.00    -0.203 F 
ATOM     73  F   UNL A   1      47.967  34.475  26.439  1.00  0.00    -0.200 F 
ATOM     74  C   UNL A   1      45.736  35.182  26.702  1.00  0.00     0.200 A 
ATOM     75  F   UNL A   1      43.508  35.860  27.083  1.00  0.00    -0.200 F 
ATOM     76  F   UNL A   1      46.053  36.414  26.283  1.00  0.00    -0.200 F 
ENDBRANCH  52  66
BRANCH  53  77
ATOM     77  C   UNL A   1      36.897  32.056  30.278  1.00  0.00     0.064 A 
ATOM     78  C   UNL A   1      36.023  31.901  31.386  1.00  0.00     0.173 A 
ATOM     79  C   UNL A   1      36.480  33.012  29.341  1.00  0.00     0.173 A 
ATOM     80  F   UNL A   1      36.264  30.972  32.322  1.00  0.00    -0.203 F 
ATOM     81  C   UNL A   1      34.918  32.739  31.614  1.00  0.00     0.198 A 
ATOM     82  C   UNL A   1      35.372  33.853  29.572  1.00  0.00     0.198 A 
ATOM     83  F   UNL A   1      37.175  33.202  28.212  1.00  0.00    -0.203 F 
ATOM     84  F   UNL A   1      34.189  32.605  32.732  1.00  0.00    -0.200 F 
ATOM     85  C   UNL A   1      34.622  33.748  30.726  1.00  0.00     0.200 A 
ATOM     86  F   UNL A   1      35.070  34.827  28.702  1.00  0.00    -0.200 F 
ATOM     87  F   UNL A   1      33.646  34.631  30.989  1.00  0.00    -0.200 F 
ENDBRANCH  53  77
BRANCH  65  88
ATOM     88  C   UNL A   1      41.895  30.375  33.501  1.00  0.00     0.064 A 
ATOM     89  C   UNL A   1      41.559  29.020  33.358  1.00  0.00     0.173 A 
ATOM     90  C   UNL A   1      42.049  30.865  34.802  1.00  0.00     0.173 A 
ATOM     91  F   UNL A   1      41.419  28.473  32.150  1.00  0.00    -0.203 F 
ATOM     92  C   UNL A   1      41.399  28.193  34.471  1.00  0.00     0.198 A 
ATOM     93  C   UNL A   1      41.916  30.034  35.910  1.00  0.00     0.198 A 
ATOM     94  F   UNL A   1      42.375  32.153  34.997  1.00  0.00    -0.203 F 
ATOM     95  F   UNL A   1      41.087  26.898  34.309  1.00  0.00    -0.200 F 
ATOM     96  C   UNL A   1      41.593  28.698  35.745  1.00  0.00     0.200 A 
ATOM     97  F   UNL A   1      42.132  30.526  37.137  1.00  0.00    -0.200 F 
ATOM     98  F   UNL A   1      41.489  27.895  36.813  1.00  0.00    -0.200 F 
ENDBRANCH  65  88
ENDBRANCH  39  40
ENDBRANCH  32  34
ENDBRANCH  31  32
ENDBRANCH  30  31
ENDBRANCH  29  30
ENDBRANCH  28  29
ENDBRANCH  27  28
ENDBRANCH   1  27
TORSDOF 23
ENDMDL
MODEL 2
REMARK VINA RESULT:      -9.9      7.773     12.232
REMARK SMILES CCCc1nc2cc(C(=O)OCCOCCOCCOC(=O)c3ccc(-c4c5nc(c(-c6c(F)c(F)c(F)c(F)c6F)c6ccc([nH]6)c(-c6c(F)c(F)c(F)c(F)c6F)c6nc(c(-c7c(F)c(F)c(F)c(F)c7F)c7ccc4[nH]7)C=C6)C=C5)cc3)ccc2n1[C@H](CO)C(C)C
REMARK SMILES IDX 15 1 14 2 13 3 12 4 11 5 9 6 10 7 8 8 4 9 5 10 89 11 6 12
REMARK SMILES IDX 88 13 7 14 87 15 86 16 3 17 2 18 1 19 90 20 93 21 94 22
REMARK SMILES IDX 95 23 91 24 92 25 16 27 17 28 18 29 19 30 20 31 21 32 22 33
REMARK SMILES IDX 23 34 24 35 85 36 25 37 84 38 26 39 27 40 28 41 78 42 29 43
REMARK SMILES IDX 83 44 77 45 79 46 30 47 82 48 76 49 75 50 31 52 63 53 43 54
REMARK SMILES IDX 62 55 44 56 47 57 61 58 80 59 45 60 46 61 60 63 81 64 48 65
REMARK SMILES IDX 32 66 33 67 41 68 34 69 35 70 39 71 42 72 36 73 37 74 40 75
REMARK SMILES IDX 38 76 64 77 65 78 73 79 66 80 67 81 71 82 74 83 68 84 69 85
REMARK SMILES IDX 72 86 70 87 49 88 50 89 58 90 51 91 52 92 56 93 59 94 53 95
REMARK SMILES IDX 54 96 57 97 55 98
REMARK H PARENT 92 26 79 51 47 62
REMARK Flexibility Score: inf
ROOT
ATOM      1  C   UNL A   1      38.541  28.312  29.826  1.00  0.00     0.188 C 
ENDROOT
BRANCH   1   2
ATOM      2  O   UNL A   1      37.499  29.130  29.358  1.00  0.00    -0.376 OA
BRANCH   2   3
ATOM      3  C   UNL A   1      37.830  30.377  28.786  1.00  0.00     0.202 C 
BRANCH   3   4
ATOM      4  C   UNL A   1      36.758  31.393  28.345  1.00  0.00     0.261 C 
BRANCH   4   5
ATOM      5  O   UNL A   1      35.800  30.927  27.365  1.00  0.00    -0.460 OA
BRANCH   5   6
ATOM      6  C   UNL A   1      34.505  30.967  27.766  1.00  0.00     0.338 C 
ATOM      7  O   UNL A   1      34.057  31.717  28.634  1.00  0.00    -0.246 OA
BRANCH   6   8
ATOM      8  C   UNL A   1      33.594  30.106  26.960  1.00  0.00     0.062 A 
ATOM      9  C   UNL A   1      32.982  27.549  23.198  1.00  0.00     0.110 A 
ATOM     10  N   UNL A   1      33.920  27.662  24.110  1.00  0.00    -0.233 NA
ATOM     11  N   UNL A   1      31.853  28.232  23.655  1.00  0.00    -0.322 N 
ATOM     12  C   UNL A   1      33.460  28.509  25.095  1.00  0.00     0.090 A 
ATOM     13  C   UNL A   1      32.185  28.951  24.804  1.00  0.00     0.069 A 
ATOM     14  C   UNL A   1      34.119  29.032  26.231  1.00  0.00     0.046 A 
ATOM     15  C   UNL A   1      31.573  29.909  25.650  1.00  0.00     0.029 A 
ATOM     16  C   UNL A   1      32.299  30.498  26.705  1.00  0.00     0.018 A 
BRANCH   9  17
ATOM     17  C   UNL A   1      33.086  26.641  21.978  1.00  0.00     0.075 C 
BRANCH  17  18
ATOM     18  C   UNL A   1      33.268  25.127  22.185  1.00  0.00     0.005 C 
ATOM     19  C   UNL A   1      32.835  24.586  23.537  1.00  0.00     0.004 C 
ENDBRANCH  17  18
ENDBRANCH   9  17
BRANCH  11  20
ATOM     20  C   UNL A   1      30.563  28.198  22.966  1.00  0.00     0.117 C 
BRANCH  20  21
ATOM     21  C   UNL A   1      29.424  27.575  23.805  1.00  0.00     0.008 C 
ATOM     22  C   UNL A   1      28.029  27.958  23.327  1.00  0.00     0.009 C 
ATOM     23  C   UNL A   1      29.565  26.051  23.900  1.00  0.00     0.009 C 
ENDBRANCH  20  21
BRANCH  20  24
ATOM     24  C   UNL A   1      30.265  29.613  22.477  1.00  0.00     0.181 C 
BRANCH  24  25
ATOM     25  O   UNL A   1      31.187  30.001  21.464  1.00  0.00    -0.394 OA
ATOM     26  H   UNL A   1      31.131  30.959  21.326  1.00  0.00     0.210 HD
ENDBRANCH  24  25
ENDBRANCH  20  24
ENDBRANCH  11  20
ENDBRANCH   6   8
ENDBRANCH   5   6
ENDBRANCH   4   5
ENDBRANCH   3   4
ENDBRANCH   2   3
ENDBRANCH   1   2
BRANCH   1  27
ATOM     27  C   UNL A   1      39.679  28.955  30.657  1.00  0.00     0.188 C 
BRANCH  27  28
ATOM     28  O   UNL A   1      41.018  28.617  30.368  1.00  0.00    -0.376 OA
BRANCH  28  29
ATOM     29  C   UNL A   1      41.333  28.405  29.001  1.00  0.00     0.202 C 
BRANCH  29  30
ATOM     30  C   UNL A   1      42.608  27.601  28.643  1.00  0.00     0.261 C 
BRANCH  30  31
ATOM     31  O   UNL A   1      43.005  26.619  29.639  1.00  0.00    -0.460 OA
BRANCH  31  32
ATOM     32  C   UNL A   1      43.499  25.426  29.190  1.00  0.00     0.338 C 
ATOM     33  O   UNL A   1      43.664  25.118  28.021  1.00  0.00    -0.246 OA
BRANCH  32  34
ATOM     34  C   UNL A   1      44.175  24.713  30.329  1.00  0.00     0.060 A 
ATOM     35  C   UNL A   1      43.782  23.474  30.860  1.00  0.00     0.016 A 
ATOM     36  C   UNL A   1      45.092  25.467  31.054  1.00  0.00     0.016 A 
ATOM     37  C   UNL A   1      44.141  23.104  32.192  1.00  0.00     0.010 A 
ATOM     38  C   UNL A   1      45.455  25.070  32.348  1.00  0.00     0.010 A 
ATOM     39  C   UNL A   1      44.904  23.951  33.013  1.00  0.00    -0.014 A 
BRANCH  39  40
ATOM     40  C   UNL A   1      45.457  23.528  34.372  1.00  0.00     0.031 A 
ATOM     41  C   UNL A   1      45.268  24.677  35.267  1.00  0.00     0.074 A 
ATOM     42  C   UNL A   1      46.026  22.407  34.948  1.00  0.00     0.049 A 
ATOM     43  N   UNL A   1      46.245  25.454  35.594  1.00  0.00    -0.248 NA
ATOM     44  C   UNL A   1      43.936  25.194  35.604  1.00  0.00     0.031 C 
ATOM     45  C   UNL A   1      46.409  21.148  34.327  1.00  0.00     0.029 A 
ATOM     46  N   UNL A   1      46.290  22.075  36.288  1.00  0.00    -0.354 N 
ATOM     47  C   UNL A   1      45.676  26.386  36.428  1.00  0.00     0.074 A 
ATOM     48  C   UNL A   1      44.261  26.358  36.173  1.00  0.00     0.031 C 
ATOM     49  C   UNL A   1      46.415  20.115  35.205  1.00  0.00     0.029 A 
ATOM     50  C   UNL A   1      46.371  20.668  36.541  1.00  0.00     0.049 A 
ATOM     51  H   UNL A   1      46.410  22.753  36.992  1.00  0.00     0.167 HD
ATOM     52  C   UNL A   1      46.387  26.811  37.500  1.00  0.00     0.037 A 
ATOM     53  C   UNL A   1      46.666  19.981  37.694  1.00  0.00     0.037 A 
ATOM     54  C   UNL A   1      47.770  26.405  37.404  1.00  0.00     0.049 A 
ATOM     55  C   UNL A   1      47.601  20.860  38.420  1.00  0.00     0.074 A 
ATOM     56  C   UNL A   1      48.858  26.814  36.661  1.00  0.00     0.029 A 
ATOM     57  N   UNL A   1      48.033  25.128  37.835  1.00  0.00    -0.354 N 
ATOM     58  N   UNL A   1      48.804  21.111  37.986  1.00  0.00    -0.248 NA
ATOM     59  C   UNL A   1      47.115  21.725  39.486  1.00  0.00     0.031 C 
ATOM     60  C   UNL A   1      49.761  25.714  36.608  1.00  0.00     0.029 A 
ATOM     61  C   UNL A   1      49.239  24.669  37.360  1.00  0.00     0.049 A 
ATOM     62  H   UNL A   1      47.432  24.605  38.412  1.00  0.00     0.167 HD
ATOM     63  C   UNL A   1      48.986  22.428  38.338  1.00  0.00     0.074 A 
ATOM     64  C   UNL A   1      48.026  22.696  39.399  1.00  0.00     0.031 C 
ATOM     65  C   UNL A   1      49.605  23.279  37.480  1.00  0.00     0.037 A 
BRANCH  52  66
ATOM     66  C   UNL A   1      45.762  27.206  38.800  1.00  0.00     0.064 A 
ATOM     67  C   UNL A   1      46.075  28.460  39.351  1.00  0.00     0.173 A 
ATOM     68  C   UNL A   1      45.056  26.319  39.642  1.00  0.00     0.173 A 
ATOM     69  F   UNL A   1      46.789  29.352  38.651  1.00  0.00    -0.203 F 
ATOM     70  C   UNL A   1      45.714  28.793  40.657  1.00  0.00     0.198 A 
ATOM     71  C   UNL A   1      44.644  26.677  40.920  1.00  0.00     0.198 A 
ATOM     72  F   UNL A   1      44.830  25.043  39.307  1.00  0.00    -0.203 F 
ATOM     73  F   UNL A   1      46.109  29.963  41.176  1.00  0.00    -0.200 F 
ATOM     74  C   UNL A   1      44.989  27.908  41.435  1.00  0.00     0.200 A 
ATOM     75  F   UNL A   1      43.971  25.791  41.668  1.00  0.00    -0.200 F 
ATOM     76  F   UNL A   1      44.665  28.217  42.697  1.00  0.00    -0.200 F 
ENDBRANCH  52  66
BRANCH  53  77
ATOM     77  C   UNL A   1      46.307  18.635  38.276  1.00  0.00     0.064 A 
ATOM     78  C   UNL A   1      46.970  18.143  39.431  1.00  0.00     0.173 A 
ATOM     79  C   UNL A   1      45.136  17.941  37.941  1.00  0.00     0.173 A 
ATOM     80  F   UNL A   1      48.139  18.669  39.824  1.00  0.00    -0.203 F 
ATOM     81  C   UNL A   1      46.425  17.151  40.264  1.00  0.00     0.198 A 
ATOM     82  C   UNL A   1      44.589  16.946  38.778  1.00  0.00     0.198 A 
ATOM     83  F   UNL A   1      44.457  18.256  36.831  1.00  0.00    -0.203 F 
ATOM     84  F   UNL A   1      47.054  16.799  41.395  1.00  0.00    -0.200 F 
ATOM     85  C   UNL A   1      45.208  16.586  39.958  1.00  0.00     0.200 A 
ATOM     86  F   UNL A   1      43.411  16.382  38.476  1.00  0.00    -0.200 F 
ATOM     87  F   UNL A   1      44.617  15.727  40.804  1.00  0.00    -0.200 F 
ENDBRANCH  53  77
BRANCH  65  88
ATOM     88  C   UNL A   1      50.615  22.708  36.532  1.00  0.00     0.064 A 
ATOM     89  C   UNL A   1      51.920  22.322  36.875  1.00  0.00     0.173 A 
ATOM     90  C   UNL A   1      50.194  22.455  35.223  1.00  0.00     0.173 A 
ATOM     91  F   UNL A   1      52.386  22.507  38.111  1.00  0.00    -0.203 F 
ATOM     92  C   UNL A   1      52.757  21.696  35.950  1.00  0.00     0.198 A 
ATOM     93  C   UNL A   1      51.018  21.807  34.308  1.00  0.00     0.198 A 
ATOM     94  F   UNL A   1      48.954  22.799  34.841  1.00  0.00    -0.203 F 
ATOM     95  F   UNL A   1      53.997  21.327  36.304  1.00  0.00    -0.200 F 
ATOM     96  C   UNL A   1      52.299  21.426  34.672  1.00  0.00     0.200 A 
ATOM     97  F   UNL A   1      50.557  21.526  33.082  1.00  0.00    -0.200 F 
ATOM     98  F   UNL A   1      53.082  20.781  33.796  1.00  0.00    -0.200 F 
ENDBRANCH  65  88
ENDBRANCH  39  40
ENDBRANCH  32  34
ENDBRANCH  31  32
ENDBRANCH  30  31
ENDBRANCH  29  30
ENDBRANCH  28  29
ENDBRANCH  27  28
ENDBRANCH   1  27
TORSDOF 23
ENDMDL
MODEL 3
REMARK VINA RESULT:      -9.4      1.913      2.817
REMARK SMILES CCCc1nc2cc(C(=O)OCCOCCOCCOC(=O)c3ccc(-c4c5nc(c(-c6c(F)c(F)c(F)c(F)c6F)c6ccc([nH]6)c(-c6c(F)c(F)c(F)c(F)c6F)c6nc(c(-c7c(F)c(F)c(F)c(F)c7F)c7ccc4[nH]7)C=C6)C=C5)cc3)ccc2n1[C@H](CO)C(C)C
REMARK SMILES IDX 15 1 14 2 13 3 12 4 11 5 9 6 10 7 8 8 4 9 5 10 89 11 6 12
REMARK SMILES IDX 88 13 7 14 87 15 86 16 3 17 2 18 1 19 90 20 93 21 94 22
REMARK SMILES IDX 95 23 91 24 92 25 16 27 17 28 18 29 19 30 20 31 21 32 22 33
REMARK SMILES IDX 23 34 24 35 85 36 25 37 84 38 26 39 27 40 28 41 78 42 29 43
REMARK SMILES IDX 83 44 77 45 79 46 30 47 82 48 76 49 75 50 31 52 63 53 43 54
REMARK SMILES IDX 62 55 44 56 47 57 61 58 80 59 45 60 46 61 60 63 81 64 48 65
REMARK SMILES IDX 32 66 33 67 41 68 34 69 35 70 39 71 42 72 36 73 37 74 40 75
REMARK SMILES IDX 38 76 64 77 65 78 73 79 66 80 67 81 71 82 74 83 68 84 69 85
REMARK SMILES IDX 72 86 70 87 49 88 50 89 58 90 51 91 52 92 56 93 59 94 53 95
REMARK SMILES IDX 54 96 57 97 55 98
REMARK H PARENT 92 26 79 51 47 62
REMARK Flexibility Score: inf
ROOT
ATOM      1  C   UNL A   1      37.842  21.907  25.227  1.00  0.00     0.188 C 
ENDROOT
BRANCH   1   2
ATOM      2  O   UNL A   1      36.456  21.768  25.044  1.00  0.00    -0.376 OA
BRANCH   2   3
ATOM      3  C   UNL A   1      35.861  20.522  25.336  1.00  0.00     0.202 C 
BRANCH   3   4
ATOM      4  C   UNL A   1      34.488  20.110  24.770  1.00  0.00     0.261 C 
BRANCH   4   5
ATOM      5  O   UNL A   1      33.359  20.261  25.663  1.00  0.00    -0.460 OA
BRANCH   5   6
ATOM      6  C   UNL A   1      33.377  21.382  26.426  1.00  0.00     0.338 C 
ATOM      7  O   UNL A   1      33.872  21.464  27.551  1.00  0.00    -0.246 OA
BRANCH   6   8
ATOM      8  C   UNL A   1      32.864  22.597  25.731  1.00  0.00     0.062 A 
ATOM      9  C   UNL A   1      31.910  27.082  25.939  1.00  0.00     0.110 A 
ATOM     10  N   UNL A   1      32.921  26.323  26.295  1.00  0.00    -0.233 NA
ATOM     11  N   UNL A   1      31.066  26.321  25.129  1.00  0.00    -0.322 N 
ATOM     12  C   UNL A   1      32.684  25.047  25.829  1.00  0.00     0.090 A 
ATOM     13  C   UNL A   1      31.483  24.989  25.153  1.00  0.00     0.069 A 
ATOM     14  C   UNL A   1      33.409  23.852  26.033  1.00  0.00     0.046 A 
ATOM     15  C   UNL A   1      31.012  23.740  24.680  1.00  0.00     0.029 A 
ATOM     16  C   UNL A   1      31.698  22.550  25.001  1.00  0.00     0.018 A 
BRANCH   9  17
ATOM     17  C   UNL A   1      31.834  28.580  26.210  1.00  0.00     0.075 C 
BRANCH  17  18
ATOM     18  C   UNL A   1      32.221  29.564  25.093  1.00  0.00     0.005 C 
ATOM     19  C   UNL A   1      33.455  29.197  24.285  1.00  0.00     0.004 C 
ENDBRANCH  17  18
ENDBRANCH   9  17
BRANCH  11  20
ATOM     20  C   UNL A   1      29.910  26.881  24.429  1.00  0.00     0.117 C 
BRANCH  20  21
ATOM     21  C   UNL A   1      30.152  27.122  22.920  1.00  0.00     0.008 C 
ATOM     22  C   UNL A   1      29.839  28.542  22.467  1.00  0.00     0.009 C 
ATOM     23  C   UNL A   1      31.573  26.722  22.508  1.00  0.00     0.009 C 
ENDBRANCH  20  21
BRANCH  20  24
ATOM     24  C   UNL A   1      28.712  25.984  24.724  1.00  0.00     0.181 C 
BRANCH  24  25
ATOM     25  O   UNL A   1      27.725  26.109  23.705  1.00  0.00    -0.394 OA
ATOM     26  H   UNL A   1      27.034  26.723  23.999  1.00  0.00     0.210 HD
ENDBRANCH  24  25
ENDBRANCH  20  24
ENDBRANCH  11  20
ENDBRANCH   6   8
ENDBRANCH   5   6
ENDBRANCH   4   5
ENDBRANCH   3   4
ENDBRANCH   2   3
ENDBRANCH   1   2
BRANCH   1  27
ATOM     27  C   UNL A   1      38.667  20.667  25.649  1.00  0.00     0.188 C 
BRANCH  27  28
ATOM     28  O   UNL A   1      39.967  20.848  26.168  1.00  0.00    -0.376 OA
BRANCH  28  29
ATOM     29  C   UNL A   1      40.353  22.184  26.448  1.00  0.00     0.202 C 
BRANCH  29  30
ATOM     30  C   UNL A   1      41.766  22.659  26.029  1.00  0.00     0.261 C 
BRANCH  30  31
ATOM     31  O   UNL A   1      42.254  23.821  26.753  1.00  0.00    -0.460 OA
BRANCH  31  32
ATOM     32  C   UNL A   1      42.193  23.789  28.118  1.00  0.00     0.338 C 
ATOM     33  O   UNL A   1      42.831  23.043  28.842  1.00  0.00    -0.246 OA
BRANCH  32  34
ATOM     34  C   UNL A   1      41.541  25.052  28.612  1.00  0.00     0.060 A 
ATOM     35  C   UNL A   1      40.332  25.582  28.135  1.00  0.00     0.016 A 
ATOM     36  C   UNL A   1      42.333  25.864  29.417  1.00  0.00     0.016 A 
ATOM     37  C   UNL A   1      40.033  26.970  28.289  1.00  0.00     0.010 A 
ATOM     38  C   UNL A   1      42.006  27.217  29.580  1.00  0.00     0.010 A 
ATOM     39  C   UNL A   1      40.923  27.850  28.928  1.00  0.00    -0.014 A 
BRANCH  39  40
ATOM     40  C   UNL A   1      40.573  29.297  29.269  1.00  0.00     0.031 A 
ATOM     41  C   UNL A   1      41.756  30.096  28.930  1.00  0.00     0.074 A 
ATOM     42  C   UNL A   1      39.491  30.006  29.758  1.00  0.00     0.049 A 
ATOM     43  N   UNL A   1      42.567  30.533  29.833  1.00  0.00    -0.248 NA
ATOM     44  C   UNL A   1      42.260  30.199  27.554  1.00  0.00     0.031 C 
ATOM     45  C   UNL A   1      38.213  29.512  30.249  1.00  0.00     0.029 A 
ATOM     46  N   UNL A   1      39.224  31.385  29.815  1.00  0.00    -0.354 N 
ATOM     47  C   UNL A   1      43.524  31.224  29.130  1.00  0.00     0.074 A 
ATOM     48  C   UNL A   1      43.455  30.756  27.772  1.00  0.00     0.031 C 
ATOM     49  C   UNL A   1      37.220  30.428  30.132  1.00  0.00     0.029 A 
ATOM     50  C   UNL A   1      37.832  31.714  29.874  1.00  0.00     0.049 A 
ATOM     51  H   UNL A   1      39.935  32.066  29.816  1.00  0.00     0.167 HD
ATOM     52  C   UNL A   1      44.011  32.371  29.660  1.00  0.00     0.037 A 
ATOM     53  C   UNL A   1      37.203  32.930  29.997  1.00  0.00     0.037 A 
ATOM     54  C   UNL A   1      43.629  32.508  31.047  1.00  0.00     0.049 A 
ATOM     55  C   UNL A   1      38.133  33.749  30.796  1.00  0.00     0.074 A 
ATOM     56  C   UNL A   1      44.026  31.923  32.232  1.00  0.00     0.029 A 
ATOM     57  N   UNL A   1      42.378  33.035  31.257  1.00  0.00    -0.354 N 
ATOM     58  N   UNL A   1      38.389  33.494  32.048  1.00  0.00    -0.248 NA
ATOM     59  C   UNL A   1      39.035  34.684  30.139  1.00  0.00     0.031 C 
ATOM     60  C   UNL A   1      42.944  32.062  33.146  1.00  0.00     0.029 A 
ATOM     61  C   UNL A   1      41.923  32.774  32.528  1.00  0.00     0.049 A 
ATOM     62  H   UNL A   1      41.870  33.537  30.581  1.00  0.00     0.167 HD
ATOM     63  C   UNL A   1      39.723  33.806  32.156  1.00  0.00     0.074 A 
ATOM     64  C   UNL A   1      40.019  34.693  31.040  1.00  0.00     0.031 C 
ATOM     65  C   UNL A   1      40.547  33.014  32.889  1.00  0.00     0.037 A 
BRANCH  52  66
ATOM     66  C   UNL A   1      44.451  33.539  28.837  1.00  0.00     0.064 A 
ATOM     67  C   UNL A   1      43.477  34.363  28.250  1.00  0.00     0.173 A 
ATOM     68  C   UNL A   1      45.779  33.749  28.406  1.00  0.00     0.173 A 
ATOM     69  F   UNL A   1      42.180  34.206  28.554  1.00  0.00    -0.203 F 
ATOM     70  C   UNL A   1      43.811  35.321  27.293  1.00  0.00     0.198 A 
ATOM     71  C   UNL A   1      46.117  34.745  27.497  1.00  0.00     0.198 A 
ATOM     72  F   UNL A   1      46.783  32.937  28.760  1.00  0.00    -0.203 F 
ATOM     73  F   UNL A   1      42.842  36.024  26.692  1.00  0.00    -0.200 F 
ATOM     74  C   UNL A   1      45.130  35.519  26.926  1.00  0.00     0.200 A 
ATOM     75  F   UNL A   1      47.398  34.899  27.133  1.00  0.00    -0.200 F 
ATOM     76  F   UNL A   1      45.449  36.420  25.988  1.00  0.00    -0.200 F 
ENDBRANCH  52  66
BRANCH  53  77
ATOM     77  C   UNL A   1      35.878  33.513  29.570  1.00  0.00     0.064 A 
ATOM     78  C   UNL A   1      34.908  33.895  30.533  1.00  0.00     0.173 A 
ATOM     79  C   UNL A   1      35.633  34.000  28.278  1.00  0.00     0.173 A 
ATOM     80  F   UNL A   1      34.981  33.441  31.793  1.00  0.00    -0.203 F 
ATOM     81  C   UNL A   1      33.878  34.811  30.263  1.00  0.00     0.198 A 
ATOM     82  C   UNL A   1      34.600  34.921  28.008  1.00  0.00     0.198 A 
ATOM     83  F   UNL A   1      36.431  33.651  27.261  1.00  0.00    -0.203 F 
ATOM     84  F   UNL A   1      33.053  35.208  31.243  1.00  0.00    -0.200 F 
ATOM     85  C   UNL A   1      33.755  35.360  29.007  1.00  0.00     0.200 A 
ATOM     86  F   UNL A   1      34.466  35.446  26.782  1.00  0.00    -0.200 F 
ATOM     87  F   UNL A   1      32.854  36.325  28.764  1.00  0.00    -0.200 F 
ENDBRANCH  53  77
BRANCH  65  88
ATOM     88  C   UNL A   1      39.956  32.262  34.042  1.00  0.00     0.064 A 
ATOM     89  C   UNL A   1      39.708  32.795  35.316  1.00  0.00     0.173 A 
ATOM     90  C   UNL A   1      39.532  30.951  33.801  1.00  0.00     0.173 A 
ATOM     91  F   UNL A   1      40.061  34.046  35.615  1.00  0.00    -0.203 F 
ATOM     92  C   UNL A   1      39.051  32.051  36.297  1.00  0.00     0.198 A 
ATOM     93  C   UNL A   1      38.852  30.218  34.769  1.00  0.00     0.198 A 
ATOM     94  F   UNL A   1      39.738  30.392  32.597  1.00  0.00    -0.203 F 
ATOM     95  F   UNL A   1      38.816  32.585  37.505  1.00  0.00    -0.200 F 
ATOM     96  C   UNL A   1      38.611  30.769  36.017  1.00  0.00     0.200 A 
ATOM     97  F   UNL A   1      38.407  28.988  34.480  1.00  0.00    -0.200 F 
ATOM     98  F   UNL A   1      37.936  30.070  36.940  1.00  0.00    -0.200 F 
ENDBRANCH  65  88
ENDBRANCH  39  40
ENDBRANCH  32  34
ENDBRANCH  31  32
ENDBRANCH  30  31
ENDBRANCH  29  30
ENDBRANCH  28  29
ENDBRANCH  27  28
ENDBRANCH   1  27
TORSDOF 23
ENDMDL
