MODEL 1
REMARK VINA RESULT:     -12.2      0.000      0.000
REMARK SMILES O=C(Cc1c(C(=O)c2cc3c(cn2)CCCC3)[nH]c2cc(Cl)ccc12)OCCOCCOCCOC(=O)c1ccc(-c2c3nc(c(-c4c(F)c(F)c(F)c(F)c4F)c4ccc([nH]4)c(-c4c(F)c(F)c(F)c(F)c4F)c4nc(c(-c5c(F)c(F)c(F)c(F)c5F)c5ccc2[nH]5)C=C4)C=C3)cc1
REMARK SMILES IDX 30 1 29 2 28 3 27 4 26 5 2 6 1 7 3 8 4 9 5 10 25 11 18 12
REMARK SMILES IDX 19 13 24 14 20 16 23 17 21 18 22 19 6 20 7 21 8 22 9 23
REMARK SMILES IDX 13 24 10 25 12 26 11 27 17 28 14 29 16 30 15 31 31 32 32 33
REMARK SMILES IDX 33 34 34 35 35 36 36 37 37 38 38 39 39 40 100 41 40 42 99 43
REMARK SMILES IDX 41 44 42 45 43 46 93 47 44 48 98 49 92 50 94 51 45 52 97 53
REMARK SMILES IDX 91 54 90 55 46 57 78 58 58 59 77 60 59 61 62 62 76 63 95 64
REMARK SMILES IDX 60 65 61 66 75 68 96 69 63 70 47 71 48 72 56 73 49 74 50 75
REMARK SMILES IDX 54 76 57 77 51 78 52 79 55 80 53 81 79 82 80 83 88 84 81 85
REMARK SMILES IDX 82 86 86 87 89 88 83 89 84 90 87 91 85 92 64 93 65 94 73 95
REMARK SMILES IDX 66 96 67 97 71 98 74 99 68 100 69 101 72 102 70 103
REMARK H PARENT 18 15 94 56 62 67
REMARK Flexibility Score: inf
ROOT
ATOM      1  C   UNL A   1      39.669  21.327  26.077  1.00  0.00     0.188 C 
ENDROOT
BRANCH   1   2
ATOM      2  O   UNL A   1      38.310  21.182  25.683  1.00  0.00    -0.376 OA
BRANCH   2   3
ATOM      3  C   UNL A   1      37.703  22.279  25.006  1.00  0.00     0.202 C 
BRANCH   3   4
ATOM      4  C   UNL A   1      37.461  23.591  25.762  1.00  0.00     0.261 C 
BRANCH   4   5
ATOM      5  O   UNL A   1      36.148  23.835  26.296  1.00  0.00    -0.463 OA
BRANCH   5   6
ATOM      6  C   UNL A   1      35.040  24.169  25.601  1.00  0.00     0.310 C 
ATOM      7  O   UNL A   1      34.026  24.511  26.210  1.00  0.00    -0.252 OA
BRANCH   6   8
ATOM      8  C   UNL A   1      35.071  24.142  24.093  1.00  0.00     0.161 C 
BRANCH   8   9
ATOM      9  C   UNL A   1      33.984  23.295  23.510  1.00  0.00     0.000 A 
ATOM     10  C   UNL A   1      33.019  23.676  22.580  1.00  0.00     0.093 A 
ATOM     11  C   UNL A   1      33.776  21.915  23.823  1.00  0.00     0.004 A 
ATOM     12  N   UNL A   1      32.220  22.569  22.372  1.00  0.00    -0.351 N 
ATOM     13  C   UNL A   1      32.644  21.502  23.128  1.00  0.00     0.048 A 
ATOM     14  C   UNL A   1      34.450  20.987  24.646  1.00  0.00     0.012 A 
ATOM     15  H   UNL A   1      31.447  22.547  21.762  1.00  0.00     0.167 HD
ATOM     16  C   UNL A   1      32.132  20.201  23.237  1.00  0.00     0.047 A 
ATOM     17  C   UNL A   1      33.959  19.684  24.763  1.00  0.00     0.021 A 
ATOM     18  C   UNL A   1      32.813  19.307  24.072  1.00  0.00     0.043 A 
ATOM     19  Cl  UNL A   1      32.221  17.698  24.242  1.00  0.00    -0.084 Cl
BRANCH  10  20
ATOM     20  C   UNL A   1      32.896  24.962  21.894  1.00  0.00     0.227 C 
ATOM     21  O   UNL A   1      33.278  25.114  20.735  1.00  0.00    -0.285 OA
BRANCH  20  22
ATOM     22  C   UNL A   1      32.322  26.147  22.605  1.00  0.00     0.113 A 
ATOM     23  C   UNL A   1      31.138  26.750  22.186  1.00  0.00     0.036 A 
ATOM     24  N   UNL A   1      33.022  26.564  23.688  1.00  0.00    -0.252 NA
ATOM     25  C   UNL A   1      30.674  27.875  22.880  1.00  0.00    -0.041 A 
ATOM     26  C   UNL A   1      32.551  27.639  24.349  1.00  0.00     0.115 A 
ATOM     27  C   UNL A   1      31.418  28.350  23.971  1.00  0.00    -0.026 A 
ATOM     28  C   UNL A   1      29.433  28.590  22.402  1.00  0.00     0.036 C 
ATOM     29  C   UNL A   1      31.005  29.568  24.749  1.00  0.00     0.037 C 
ATOM     30  C   UNL A   1      28.932  29.674  23.359  1.00  0.00     0.005 C 
ATOM     31  C   UNL A   1      30.092  30.480  23.933  1.00  0.00     0.005 C 
ENDBRANCH  20  22
ENDBRANCH  10  20
ENDBRANCH   8   9
ENDBRANCH   6   8
ENDBRANCH   5   6
ENDBRANCH   4   5
ENDBRANCH   3   4
ENDBRANCH   2   3
ENDBRANCH   1   2
BRANCH   1  32
ATOM     32  C   UNL A   1      40.469  20.029  26.130  1.00  0.00     0.188 C 
BRANCH  32  33
ATOM     33  O   UNL A   1      41.231  19.823  27.311  1.00  0.00    -0.376 OA
BRANCH  33  34
ATOM     34  C   UNL A   1      42.450  20.550  27.441  1.00  0.00     0.202 C 
BRANCH  34  35
ATOM     35  C   UNL A   1      43.103  21.076  26.157  1.00  0.00     0.261 C 
BRANCH  35  36
ATOM     36  O   UNL A   1      43.641  22.408  26.290  1.00  0.00    -0.460 OA
BRANCH  36  37
ATOM     37  C   UNL A   1      43.109  23.343  25.475  1.00  0.00     0.338 C 
ATOM     38  O   UNL A   1      43.035  23.302  24.246  1.00  0.00    -0.246 OA
BRANCH  37  39
ATOM     39  C   UNL A   1      42.525  24.452  26.244  1.00  0.00     0.060 A 
ATOM     40  C   UNL A   1      41.463  24.203  27.114  1.00  0.00     0.016 A 
ATOM     41  C   UNL A   1      43.160  25.700  26.238  1.00  0.00     0.016 A 
ATOM     42  C   UNL A   1      41.058  25.201  28.007  1.00  0.00     0.010 A 
ATOM     43  C   UNL A   1      42.754  26.696  27.134  1.00  0.00     0.010 A 
ATOM     44  C   UNL A   1      41.716  26.444  28.044  1.00  0.00    -0.014 A 
BRANCH  44  45
ATOM     45  C   UNL A   1      41.393  27.408  29.129  1.00  0.00     0.031 A 
ATOM     46  C   UNL A   1      40.223  28.339  29.033  1.00  0.00     0.074 A 
ATOM     47  C   UNL A   1      42.163  27.423  30.236  1.00  0.00     0.049 A 
ATOM     48  N   UNL A   1      39.720  29.124  29.955  1.00  0.00    -0.248 NA
ATOM     49  C   UNL A   1      39.535  28.409  27.738  1.00  0.00     0.031 C 
ATOM     50  C   UNL A   1      43.360  26.605  30.433  1.00  0.00     0.029 A 
ATOM     51  N   UNL A   1      42.047  28.135  31.404  1.00  0.00    -0.354 N 
ATOM     52  C   UNL A   1      38.638  29.758  29.363  1.00  0.00     0.074 A 
ATOM     53  C   UNL A   1      38.594  29.312  27.984  1.00  0.00     0.031 C 
ATOM     54  C   UNL A   1      43.848  26.834  31.662  1.00  0.00     0.029 A 
ATOM     55  C   UNL A   1      43.007  27.822  32.336  1.00  0.00     0.049 A 
ATOM     56  H   UNL A   1      41.343  28.806  31.561  1.00  0.00     0.167 HD
ATOM     57  C   UNL A   1      37.751  30.612  29.928  1.00  0.00     0.037 A 
ATOM     58  C   UNL A   1      43.184  28.263  33.597  1.00  0.00     0.037 A 
ATOM     59  C   UNL A   1      37.801  31.061  31.298  1.00  0.00     0.049 A 
ATOM     60  C   UNL A   1      42.202  29.235  34.192  1.00  0.00     0.074 A 
ATOM     61  C   UNL A   1      36.903  31.871  31.972  1.00  0.00     0.029 A 
ATOM     62  N   UNL A   1      38.812  30.755  32.198  1.00  0.00    -0.354 N 
ATOM     63  N   UNL A   1      41.116  29.740  33.662  1.00  0.00    -0.248 NA
ATOM     64  C   UNL A   1      42.465  29.691  35.566  1.00  0.00     0.031 C 
ATOM     65  C   UNL A   1      37.397  32.103  33.259  1.00  0.00     0.029 A 
ATOM     66  C   UNL A   1      38.578  31.394  33.408  1.00  0.00     0.049 A 
ATOM     67  H   UNL A   1      39.581  30.171  32.008  1.00  0.00     0.167 HD
ATOM     68  C   UNL A   1      40.558  30.556  34.636  1.00  0.00     0.074 A 
ATOM     69  C   UNL A   1      41.414  30.466  35.799  1.00  0.00     0.031 C 
ATOM     70  C   UNL A   1      39.435  31.311  34.564  1.00  0.00     0.037 A 
BRANCH  57  71
ATOM     71  C   UNL A   1      36.620  31.114  29.079  1.00  0.00     0.064 A 
ATOM     72  C   UNL A   1      35.549  30.278  28.727  1.00  0.00     0.173 A 
ATOM     73  C   UNL A   1      36.553  32.462  28.700  1.00  0.00     0.173 A 
ATOM     74  F   UNL A   1      35.563  28.981  29.070  1.00  0.00    -0.203 F 
ATOM     75  C   UNL A   1      34.459  30.771  28.015  1.00  0.00     0.198 A 
ATOM     76  C   UNL A   1      35.448  32.959  28.010  1.00  0.00     0.198 A 
ATOM     77  F   UNL A   1      37.541  33.308  29.026  1.00  0.00    -0.203 F 
ATOM     78  F   UNL A   1      33.458  29.949  27.672  1.00  0.00    -0.200 F 
ATOM     79  C   UNL A   1      34.404  32.112  27.666  1.00  0.00     0.200 A 
ATOM     80  F   UNL A   1      35.386  34.259  27.694  1.00  0.00    -0.200 F 
ATOM     81  F   UNL A   1      33.343  32.591  27.003  1.00  0.00    -0.200 F 
ENDBRANCH  57  71
BRANCH  58  82
ATOM     82  C   UNL A   1      44.320  27.740  34.399  1.00  0.00     0.064 A 
ATOM     83  C   UNL A   1      45.562  28.389  34.396  1.00  0.00     0.173 A 
ATOM     84  C   UNL A   1      44.178  26.603  35.208  1.00  0.00     0.173 A 
ATOM     85  F   UNL A   1      45.753  29.467  33.621  1.00  0.00    -0.203 F 
ATOM     86  C   UNL A   1      46.621  27.919  35.169  1.00  0.00     0.198 A 
ATOM     87  C   UNL A   1      45.230  26.148  36.000  1.00  0.00     0.198 A 
ATOM     88  F   UNL A   1      43.009  25.947  35.245  1.00  0.00    -0.203 F 
ATOM     89  F   UNL A   1      47.808  28.539  35.125  1.00  0.00    -0.200 F 
ATOM     90  C   UNL A   1      46.451  26.804  35.978  1.00  0.00     0.200 A 
ATOM     91  F   UNL A   1      45.058  25.079  36.788  1.00  0.00    -0.200 F 
ATOM     92  F   UNL A   1      47.466  26.360  36.731  1.00  0.00    -0.200 F 
ENDBRANCH  58  82
BRANCH  70  93
ATOM     93  C   UNL A   1      39.052  32.115  35.774  1.00  0.00     0.064 A 
ATOM     94  C   UNL A   1      39.434  33.458  35.909  1.00  0.00     0.173 A 
ATOM     95  C   UNL A   1      38.226  31.566  36.767  1.00  0.00     0.173 A 
ATOM     96  F   UNL A   1      40.234  34.027  34.996  1.00  0.00    -0.203 F 
ATOM     97  C   UNL A   1      39.009  34.219  36.996  1.00  0.00     0.198 A 
ATOM     98  C   UNL A   1      37.780  32.336  37.838  1.00  0.00     0.198 A 
ATOM     99  F   UNL A   1      37.826  30.288  36.684  1.00  0.00    -0.203 F 
ATOM    100  F   UNL A   1      39.409  35.492  37.119  1.00  0.00    -0.200 F 
ATOM    101  C   UNL A   1      38.173  33.662  37.953  1.00  0.00     0.200 A 
ATOM    102  F   UNL A   1      36.961  31.801  38.753  1.00  0.00    -0.200 F 
ATOM    103  F   UNL A   1      37.748  34.401  38.987  1.00  0.00    -0.200 F 
ENDBRANCH  70  93
ENDBRANCH  44  45
ENDBRANCH  37  39
ENDBRANCH  36  37
ENDBRANCH  35  36
ENDBRANCH  34  35
ENDBRANCH  33  34
ENDBRANCH  32  33
ENDBRANCH   1  32
TORSDOF 20
ENDMDL
MODEL 2
REMARK VINA RESULT:     -12.1      3.528      8.441
REMARK SMILES O=C(Cc1c(C(=O)c2cc3c(cn2)CCCC3)[nH]c2cc(Cl)ccc12)OCCOCCOCCOC(=O)c1ccc(-c2c3nc(c(-c4c(F)c(F)c(F)c(F)c4F)c4ccc([nH]4)c(-c4c(F)c(F)c(F)c(F)c4F)c4nc(c(-c5c(F)c(F)c(F)c(F)c5F)c5ccc2[nH]5)C=C4)C=C3)cc1
REMARK SMILES IDX 30 1 29 2 28 3 27 4 26 5 2 6 1 7 3 8 4 9 5 10 25 11 18 12
REMARK SMILES IDX 19 13 24 14 20 16 23 17 21 18 22 19 6 20 7 21 8 22 9 23
REMARK SMILES IDX 13 24 10 25 12 26 11 27 17 28 14 29 16 30 15 31 31 32 32 33
REMARK SMILES IDX 33 34 34 35 35 36 36 37 37 38 38 39 39 40 100 41 40 42 99 43
REMARK SMILES IDX 41 44 42 45 43 46 93 47 44 48 98 49 92 50 94 51 45 52 97 53
REMARK SMILES IDX 91 54 90 55 46 57 78 58 58 59 77 60 59 61 62 62 76 63 95 64
REMARK SMILES IDX 60 65 61 66 75 68 96 69 63 70 47 71 48 72 56 73 49 74 50 75
REMARK SMILES IDX 54 76 57 77 51 78 52 79 55 80 53 81 79 82 80 83 88 84 81 85
REMARK SMILES IDX 82 86 86 87 89 88 83 89 84 90 87 91 85 92 64 93 65 94 73 95
REMARK SMILES IDX 66 96 67 97 71 98 74 99 68 100 69 101 72 102 70 103
REMARK H PARENT 18 15 94 56 62 67
REMARK Flexibility Score: inf
ROOT
ATOM      1  C   UNL A   1      33.678  31.729  28.011  1.00  0.00     0.188 C 
ENDROOT
BRANCH   1   2
ATOM      2  O   UNL A   1      33.607  30.736  26.995  1.00  0.00    -0.376 OA
BRANCH   2   3
ATOM      3  C   UNL A   1      32.314  30.259  26.634  1.00  0.00     0.202 C 
BRANCH   3   4
ATOM      4  C   UNL A   1      32.188  28.949  25.845  1.00  0.00     0.261 C 
BRANCH   4   5
ATOM      5  O   UNL A   1      33.146  27.907  26.103  1.00  0.00    -0.463 OA
BRANCH   5   6
ATOM      6  C   UNL A   1      32.932  26.576  26.036  1.00  0.00     0.310 C 
ATOM      7  O   UNL A   1      31.921  26.102  26.557  1.00  0.00    -0.252 OA
BRANCH   6   8
ATOM      8  C   UNL A   1      33.917  25.699  25.305  1.00  0.00     0.161 C 
BRANCH   8   9
ATOM      9  C   UNL A   1      33.258  24.804  24.303  1.00  0.00     0.000 A 
ATOM     10  C   UNL A   1      32.573  25.182  23.149  1.00  0.00     0.093 A 
ATOM     11  C   UNL A   1      33.242  23.376  24.378  1.00  0.00     0.004 A 
ATOM     12  N   UNL A   1      32.117  24.016  22.567  1.00  0.00    -0.351 N 
ATOM     13  C   UNL A   1      32.490  22.915  23.303  1.00  0.00     0.048 A 
ATOM     14  C   UNL A   1      33.798  22.438  25.275  1.00  0.00     0.012 A 
ATOM     15  H   UNL A   1      31.593  23.977  21.734  1.00  0.00     0.167 HD
ATOM     16  C   UNL A   1      32.240  21.552  23.094  1.00  0.00     0.047 A 
ATOM     17  C   UNL A   1      33.566  21.074  25.081  1.00  0.00     0.021 A 
ATOM     18  C   UNL A   1      32.792  20.646  24.008  1.00  0.00     0.043 A 
ATOM     19  Cl  UNL A   1      32.510  18.960  23.795  1.00  0.00    -0.084 Cl
BRANCH  10  20
ATOM     20  C   UNL A   1      32.416  26.530  22.603  1.00  0.00     0.227 C 
ATOM     21  O   UNL A   1      33.346  27.116  22.053  1.00  0.00    -0.285 OA
BRANCH  20  22
ATOM     22  C   UNL A   1      31.109  27.249  22.731  1.00  0.00     0.113 A 
ATOM     23  C   UNL A   1      30.927  28.531  22.217  1.00  0.00     0.036 A 
ATOM     24  N   UNL A   1      30.126  26.554  23.353  1.00  0.00    -0.252 NA
ATOM     25  C   UNL A   1      29.688  29.158  22.398  1.00  0.00    -0.041 A 
ATOM     26  C   UNL A   1      28.938  27.170  23.504  1.00  0.00     0.115 A 
ATOM     27  C   UNL A   1      28.677  28.470  23.088  1.00  0.00    -0.026 A 
ATOM     28  C   UNL A   1      29.487  30.574  21.914  1.00  0.00     0.036 C 
ATOM     29  C   UNL A   1      27.330  29.084  23.350  1.00  0.00     0.037 C 
ATOM     30  C   UNL A   1      28.038  31.062  21.999  1.00  0.00     0.005 C 
ATOM     31  C   UNL A   1      27.381  30.609  23.297  1.00  0.00     0.005 C 
ENDBRANCH  20  22
ENDBRANCH  10  20
ENDBRANCH   8   9
ENDBRANCH   6   8
ENDBRANCH   5   6
ENDBRANCH   4   5
ENDBRANCH   3   4
ENDBRANCH   2   3
ENDBRANCH   1   2
BRANCH   1  32
ATOM     32  C   UNL A   1      34.851  32.696  27.888  1.00  0.00     0.188 C 
BRANCH  32  33
ATOM     33  O   UNL A   1      34.509  34.043  27.590  1.00  0.00    -0.376 OA
BRANCH  33  34
ATOM     34  C   UNL A   1      34.510  34.974  28.670  1.00  0.00     0.202 C 
BRANCH  34  35
ATOM     35  C   UNL A   1      33.158  35.542  29.120  1.00  0.00     0.261 C 
BRANCH  35  36
ATOM     36  O   UNL A   1      32.615  34.881  30.282  1.00  0.00    -0.460 OA
BRANCH  36  37
ATOM     37  C   UNL A   1      32.773  35.529  31.455  1.00  0.00     0.338 C 
ATOM     38  O   UNL A   1      32.080  36.445  31.896  1.00  0.00    -0.246 OA
BRANCH  37  39
ATOM     39  C   UNL A   1      33.876  34.953  32.239  1.00  0.00     0.060 A 
ATOM     40  C   UNL A   1      33.729  33.690  32.811  1.00  0.00     0.016 A 
ATOM     41  C   UNL A   1      35.122  35.592  32.242  1.00  0.00     0.016 A 
ATOM     42  C   UNL A   1      34.845  33.049  33.359  1.00  0.00     0.010 A 
ATOM     43  C   UNL A   1      36.238  34.948  32.789  1.00  0.00     0.010 A 
ATOM     44  C   UNL A   1      36.113  33.659  33.329  1.00  0.00    -0.014 A 
BRANCH  44  45
ATOM     45  C   UNL A   1      37.308  32.877  33.740  1.00  0.00     0.031 A 
ATOM     46  C   UNL A   1      37.920  31.842  32.845  1.00  0.00     0.074 A 
ATOM     47  C   UNL A   1      37.865  33.126  34.942  1.00  0.00     0.049 A 
ATOM     48  N   UNL A   1      39.048  31.191  32.993  1.00  0.00    -0.248 NA
ATOM     49  C   UNL A   1      37.169  31.484  31.635  1.00  0.00     0.031 C 
ATOM     50  C   UNL A   1      37.338  34.069  35.928  1.00  0.00     0.029 A 
ATOM     51  N   UNL A   1      39.000  32.623  35.531  1.00  0.00    -0.354 N 
ATOM     52  C   UNL A   1      39.159  30.368  31.882  1.00  0.00     0.074 A 
ATOM     53  C   UNL A   1      37.954  30.558  31.098  1.00  0.00     0.031 C 
ATOM     54  C   UNL A   1      38.166  34.105  36.984  1.00  0.00     0.029 A 
ATOM     55  C   UNL A   1      39.276  33.179  36.756  1.00  0.00     0.049 A 
ATOM     56  H   UNL A   1      39.563  31.931  35.115  1.00  0.00     0.167 HD
ATOM     57  C   UNL A   1      40.184  29.552  31.539  1.00  0.00     0.037 A 
ATOM     58  C   UNL A   1      40.311  32.986  37.596  1.00  0.00     0.037 A 
ATOM     59  C   UNL A   1      41.378  29.358  32.325  1.00  0.00     0.049 A 
ATOM     60  C   UNL A   1      41.424  32.051  37.205  1.00  0.00     0.074 A 
ATOM     61  C   UNL A   1      42.498  28.603  32.018  1.00  0.00     0.029 A 
ATOM     62  N   UNL A   1      41.602  29.907  33.579  1.00  0.00    -0.354 N 
ATOM     63  N   UNL A   1      41.575  31.365  36.100  1.00  0.00    -0.248 NA
ATOM     64  C   UNL A   1      42.514  31.869  38.177  1.00  0.00     0.031 C 
ATOM     65  C   UNL A   1      43.372  28.646  33.108  1.00  0.00     0.029 A 
ATOM     66  C   UNL A   1      42.824  29.473  34.074  1.00  0.00     0.049 A 
ATOM     67  H   UNL A   1      40.986  30.514  34.049  1.00  0.00     0.167 HD
ATOM     68  C   UNL A   1      42.779  30.687  36.232  1.00  0.00     0.074 A 
ATOM     69  C   UNL A   1      43.330  31.057  37.518  1.00  0.00     0.031 C 
ATOM     70  C   UNL A   1      43.369  29.834  35.359  1.00  0.00     0.037 A 
BRANCH  57  71
ATOM     71  C   UNL A   1      40.085  28.809  30.239  1.00  0.00     0.064 A 
ATOM     72  C   UNL A   1      40.682  29.307  29.070  1.00  0.00     0.173 A 
ATOM     73  C   UNL A   1      39.481  27.545  30.180  1.00  0.00     0.173 A 
ATOM     74  F   UNL A   1      41.278  30.509  29.076  1.00  0.00    -0.203 F 
ATOM     75  C   UNL A   1      40.666  28.573  27.887  1.00  0.00     0.198 A 
ATOM     76  C   UNL A   1      39.489  26.801  29.002  1.00  0.00     0.198 A 
ATOM     77  F   UNL A   1      38.912  27.014  31.273  1.00  0.00    -0.203 F 
ATOM     78  F   UNL A   1      41.224  29.078  26.779  1.00  0.00    -0.200 F 
ATOM     79  C   UNL A   1      40.079  27.316  27.857  1.00  0.00     0.200 A 
ATOM     80  F   UNL A   1      38.942  25.578  28.979  1.00  0.00    -0.200 F 
ATOM     81  F   UNL A   1      40.085  26.600  26.725  1.00  0.00    -0.200 F 
ENDBRANCH  57  71
BRANCH  58  82
ATOM     82  C   UNL A   1      40.365  33.741  38.874  1.00  0.00     0.064 A 
ATOM     83  C   UNL A   1      39.681  33.284  40.009  1.00  0.00     0.173 A 
ATOM     84  C   UNL A   1      41.125  34.914  38.996  1.00  0.00     0.173 A 
ATOM     85  F   UNL A   1      38.923  32.181  39.935  1.00  0.00    -0.203 F 
ATOM     86  C   UNL A   1      39.752  33.974  41.217  1.00  0.00     0.198 A 
ATOM     87  C   UNL A   1      41.215  35.589  40.211  1.00  0.00     0.198 A 
ATOM     88  F   UNL A   1      41.797  35.391  37.938  1.00  0.00    -0.203 F 
ATOM     89  F   UNL A   1      39.063  33.534  42.279  1.00  0.00    -0.200 F 
ATOM     90  C   UNL A   1      40.526  35.121  41.320  1.00  0.00     0.200 A 
ATOM     91  F   UNL A   1      41.974  36.689  40.309  1.00  0.00    -0.200 F 
ATOM     92  F   UNL A   1      40.605  35.776  42.485  1.00  0.00    -0.200 F 
ENDBRANCH  58  82
BRANCH  70  93
ATOM     93  C   UNL A   1      44.684  29.225  35.754  1.00  0.00     0.064 A 
ATOM     94  C   UNL A   1      45.899  29.869  35.477  1.00  0.00     0.173 A 
ATOM     95  C   UNL A   1      44.728  28.030  36.488  1.00  0.00     0.173 A 
ATOM     96  F   UNL A   1      45.914  31.007  34.767  1.00  0.00    -0.203 F 
ATOM     97  C   UNL A   1      47.110  29.337  35.916  1.00  0.00     0.198 A 
ATOM     98  C   UNL A   1      45.937  27.515  36.949  1.00  0.00     0.198 A 
ATOM     99  F   UNL A   1      43.595  27.376  36.785  1.00  0.00    -0.203 F 
ATOM    100  F   UNL A   1      48.261  29.955  35.617  1.00  0.00    -0.200 F 
ATOM    101  C   UNL A   1      47.127  28.167  36.662  1.00  0.00     0.200 A 
ATOM    102  F   UNL A   1      45.951  26.392  37.682  1.00  0.00    -0.200 F 
ATOM    103  F   UNL A   1      48.290  27.666  37.100  1.00  0.00    -0.200 F 
ENDBRANCH  70  93
ENDBRANCH  44  45
ENDBRANCH  37  39
ENDBRANCH  36  37
ENDBRANCH  35  36
ENDBRANCH  34  35
ENDBRANCH  33  34
ENDBRANCH  32  33
ENDBRANCH   1  32
TORSDOF 20
ENDMDL
MODEL 3
REMARK VINA RESULT:     -12.1      2.877      8.517
REMARK SMILES O=C(Cc1c(C(=O)c2cc3c(cn2)CCCC3)[nH]c2cc(Cl)ccc12)OCCOCCOCCOC(=O)c1ccc(-c2c3nc(c(-c4c(F)c(F)c(F)c(F)c4F)c4ccc([nH]4)c(-c4c(F)c(F)c(F)c(F)c4F)c4nc(c(-c5c(F)c(F)c(F)c(F)c5F)c5ccc2[nH]5)C=C4)C=C3)cc1
REMARK SMILES IDX 30 1 29 2 28 3 27 4 26 5 2 6 1 7 3 8 4 9 5 10 25 11 18 12
REMARK SMILES IDX 19 13 24 14 20 16 23 17 21 18 22 19 6 20 7 21 8 22 9 23
REMARK SMILES IDX 13 24 10 25 12 26 11 27 17 28 14 29 16 30 15 31 31 32 32 33
REMARK SMILES IDX 33 34 34 35 35 36 36 37 37 38 38 39 39 40 100 41 40 42 99 43
REMARK SMILES IDX 41 44 42 45 43 46 93 47 44 48 98 49 92 50 94 51 45 52 97 53
REMARK SMILES IDX 91 54 90 55 46 57 78 58 58 59 77 60 59 61 62 62 76 63 95 64
REMARK SMILES IDX 60 65 61 66 75 68 96 69 63 70 47 71 48 72 56 73 49 74 50 75
REMARK SMILES IDX 54 76 57 77 51 78 52 79 55 80 53 81 79 82 80 83 88 84 81 85
REMARK SMILES IDX 82 86 86 87 89 88 83 89 84 90 87 91 85 92 64 93 65 94 73 95
REMARK SMILES IDX 66 96 67 97 71 98 74 99 68 100 69 101 72 102 70 103
REMARK H PARENT 18 15 94 56 62 67
REMARK Flexibility Score: inf
ROOT
ATOM      1  C   UNL A   1      33.845  29.013  26.521  1.00  0.00     0.188 C 
ENDROOT
BRANCH   1   2
ATOM      2  O   UNL A   1      34.050  27.696  26.024  1.00  0.00    -0.376 OA
BRANCH   2   3
ATOM      3  C   UNL A   1      34.145  27.535  24.612  1.00  0.00     0.202 C 
BRANCH   3   4
ATOM      4  C   UNL A   1      34.186  26.122  24.016  1.00  0.00     0.261 C 
BRANCH   4   5
ATOM      5  O   UNL A   1      33.875  25.012  24.878  1.00  0.00    -0.463 OA
BRANCH   5   6
ATOM      6  C   UNL A   1      34.753  24.166  25.458  1.00  0.00     0.310 C 
ATOM      7  O   UNL A   1      35.933  24.192  25.108  1.00  0.00    -0.252 OA
BRANCH   6   8
ATOM      8  C   UNL A   1      34.279  23.225  26.537  1.00  0.00     0.161 C 
BRANCH   8   9
ATOM      9  C   UNL A   1      33.348  22.176  26.017  1.00  0.00     0.000 A 
ATOM     10  C   UNL A   1      31.955  22.222  25.976  1.00  0.00     0.093 A 
ATOM     11  C   UNL A   1      33.765  20.930  25.452  1.00  0.00     0.004 A 
ATOM     12  N   UNL A   1      31.541  21.017  25.444  1.00  0.00    -0.351 N 
ATOM     13  C   UNL A   1      32.615  20.213  25.141  1.00  0.00     0.048 A 
ATOM     14  C   UNL A   1      35.025  20.349  25.188  1.00  0.00     0.012 A 
ATOM     15  H   UNL A   1      30.599  20.766  25.300  1.00  0.00     0.167 HD
ATOM     16  C   UNL A   1      32.661  18.921  24.599  1.00  0.00     0.047 A 
ATOM     17  C   UNL A   1      35.092  19.065  24.643  1.00  0.00     0.021 A 
ATOM     18  C   UNL A   1      33.925  18.365  24.362  1.00  0.00     0.043 A 
ATOM     19  Cl  UNL A   1      34.034  16.778  23.700  1.00  0.00    -0.084 Cl
BRANCH  10  20
ATOM     20  C   UNL A   1      31.086  23.337  26.349  1.00  0.00     0.227 C 
ATOM     21  O   UNL A   1      30.474  23.350  27.416  1.00  0.00    -0.285 OA
BRANCH  20  22
ATOM     22  C   UNL A   1      30.894  24.491  25.416  1.00  0.00     0.113 A 
ATOM     23  C   UNL A   1      30.935  25.810  25.865  1.00  0.00     0.036 A 
ATOM     24  N   UNL A   1      30.705  24.158  24.117  1.00  0.00    -0.252 NA
ATOM     25  C   UNL A   1      30.716  26.841  24.943  1.00  0.00    -0.041 A 
ATOM     26  C   UNL A   1      30.511  25.165  23.244  1.00  0.00     0.115 A 
ATOM     27  C   UNL A   1      30.466  26.507  23.603  1.00  0.00    -0.026 A 
ATOM     28  C   UNL A   1      30.684  28.275  25.416  1.00  0.00     0.036 C 
ATOM     29  C   UNL A   1      30.192  27.552  22.557  1.00  0.00     0.037 C 
ATOM     30  C   UNL A   1      30.633  29.303  24.283  1.00  0.00     0.005 C 
ATOM     31  C   UNL A   1      29.688  28.854  23.175  1.00  0.00     0.005 C 
ENDBRANCH  20  22
ENDBRANCH  10  20
ENDBRANCH   8   9
ENDBRANCH   6   8
ENDBRANCH   5   6
ENDBRANCH   4   5
ENDBRANCH   3   4
ENDBRANCH   2   3
ENDBRANCH   1   2
BRANCH   1  32
ATOM     32  C   UNL A   1      35.028  29.611  27.275  1.00  0.00     0.188 C 
BRANCH  32  33
ATOM     33  O   UNL A   1      34.788  30.861  27.906  1.00  0.00    -0.376 OA
BRANCH  33  34
ATOM     34  C   UNL A   1      33.506  31.455  27.718  1.00  0.00     0.202 C 
BRANCH  34  35
ATOM     35  C   UNL A   1      33.457  32.955  27.402  1.00  0.00     0.261 C 
BRANCH  35  36
ATOM     36  O   UNL A   1      32.532  33.688  28.231  1.00  0.00    -0.460 OA
BRANCH  36  37
ATOM     37  C   UNL A   1      33.024  34.797  28.824  1.00  0.00     0.338 C 
ATOM     38  O   UNL A   1      32.522  35.921  28.827  1.00  0.00    -0.246 OA
BRANCH  37  39
ATOM     39  C   UNL A   1      34.254  34.501  29.572  1.00  0.00     0.060 A 
ATOM     40  C   UNL A   1      34.173  33.851  30.804  1.00  0.00     0.016 A 
ATOM     41  C   UNL A   1      35.497  34.703  28.958  1.00  0.00     0.016 A 
ATOM     42  C   UNL A   1      35.340  33.370  31.406  1.00  0.00     0.010 A 
ATOM     43  C   UNL A   1      36.664  34.219  29.561  1.00  0.00     0.010 A 
ATOM     44  C   UNL A   1      36.591  33.525  30.778  1.00  0.00    -0.014 A 
BRANCH  44  45
ATOM     45  C   UNL A   1      37.781  32.836  31.344  1.00  0.00     0.031 A 
ATOM     46  C   UNL A   1      38.336  33.199  32.688  1.00  0.00     0.074 A 
ATOM     47  C   UNL A   1      38.357  31.846  30.635  1.00  0.00     0.049 A 
ATOM     48  N   UNL A   1      39.266  32.592  33.384  1.00  0.00    -0.248 NA
ATOM     49  C   UNL A   1      37.787  34.401  33.330  1.00  0.00     0.031 C 
ATOM     50  C   UNL A   1      37.947  31.430  29.294  1.00  0.00     0.029 A 
ATOM     51  N   UNL A   1      39.394  31.000  30.946  1.00  0.00    -0.354 N 
ATOM     52  C   UNL A   1      39.393  33.317  34.560  1.00  0.00     0.074 A 
ATOM     53  C   UNL A   1      38.488  34.445  34.457  1.00  0.00     0.031 C 
ATOM     54  C   UNL A   1      38.699  30.387  28.911  1.00  0.00     0.029 A 
ATOM     55  C   UNL A   1      39.652  30.066  29.973  1.00  0.00     0.049 A 
ATOM     56  H   UNL A   1      39.904  31.057  31.786  1.00  0.00     0.167 HD
ATOM     57  C   UNL A   1      40.175  33.048  35.633  1.00  0.00     0.037 A 
ATOM     58  C   UNL A   1      40.540  29.053  29.941  1.00  0.00     0.037 A 
ATOM     59  C   UNL A   1      41.081  31.930  35.730  1.00  0.00     0.049 A 
ATOM     60  C   UNL A   1      41.418  28.793  31.135  1.00  0.00     0.074 A 
ATOM     61  C   UNL A   1      41.859  31.543  36.809  1.00  0.00     0.029 A 
ATOM     62  N   UNL A   1      41.345  31.030  34.708  1.00  0.00    -0.354 N 
ATOM     63  N   UNL A   1      41.450  29.415  32.287  1.00  0.00    -0.248 NA
ATOM     64  C   UNL A   1      42.379  27.684  31.026  1.00  0.00     0.031 C 
ATOM     65  C   UNL A   1      42.636  30.447  36.422  1.00  0.00     0.029 A 
ATOM     66  C   UNL A   1      42.304  30.114  35.120  1.00  0.00     0.049 A 
ATOM     67  H   UNL A   1      40.916  31.038  33.822  1.00  0.00     0.167 HD
ATOM     68  C   UNL A   1      42.415  28.767  33.045  1.00  0.00     0.074 A 
ATOM     69  C   UNL A   1      42.935  27.690  32.231  1.00  0.00     0.031 C 
ATOM     70  C   UNL A   1      42.828  29.047  34.305  1.00  0.00     0.037 A 
BRANCH  57  71
ATOM     71  C   UNL A   1      40.080  33.965  36.818  1.00  0.00     0.064 A 
ATOM     72  C   UNL A   1      40.821  35.155  36.877  1.00  0.00     0.173 A 
ATOM     73  C   UNL A   1      39.168  33.707  37.852  1.00  0.00     0.173 A 
ATOM     74  F   UNL A   1      41.702  35.451  35.909  1.00  0.00    -0.203 F 
ATOM     75  C   UNL A   1      40.662  36.047  37.934  1.00  0.00     0.198 A 
ATOM     76  C   UNL A   1      38.993  34.614  38.895  1.00  0.00     0.198 A 
ATOM     77  F   UNL A   1      38.422  32.592  37.835  1.00  0.00    -0.203 F 
ATOM     78  F   UNL A   1      41.396  37.167  37.979  1.00  0.00    -0.200 F 
ATOM     79  C   UNL A   1      39.742  35.781  38.936  1.00  0.00     0.200 A 
ATOM     80  F   UNL A   1      38.087  34.367  39.851  1.00  0.00    -0.200 F 
ATOM     81  F   UNL A   1      39.572  36.651  39.940  1.00  0.00    -0.200 F 
ENDBRANCH  57  71
BRANCH  58  82
ATOM     82  C   UNL A   1      40.600  28.174  28.745  1.00  0.00     0.064 A 
ATOM     83  C   UNL A   1      39.871  26.978  28.694  1.00  0.00     0.173 A 
ATOM     84  C   UNL A   1      41.359  28.527  27.620  1.00  0.00     0.173 A 
ATOM     85  F   UNL A   1      39.149  26.587  29.754  1.00  0.00    -0.203 F 
ATOM     86  C   UNL A   1      39.902  26.165  27.563  1.00  0.00     0.198 A 
ATOM     87  C   UNL A   1      41.369  27.726  26.479  1.00  0.00     0.198 A 
ATOM     88  F   UNL A   1      42.073  29.662  27.620  1.00  0.00    -0.203 F 
ATOM     89  F   UNL A   1      39.222  25.011  27.550  1.00  0.00    -0.200 F 
ATOM     90  C   UNL A   1      40.644  26.545  26.453  1.00  0.00     0.200 A 
ATOM     91  F   UNL A   1      42.076  28.102  25.405  1.00  0.00    -0.200 F 
ATOM     92  F   UNL A   1      40.662  25.770  25.361  1.00  0.00    -0.200 F 
ENDBRANCH  58  82
BRANCH  70  93
ATOM     93  C   UNL A   1      43.904  28.183  34.899  1.00  0.00     0.064 A 
ATOM     94  C   UNL A   1      43.597  26.987  35.564  1.00  0.00     0.173 A 
ATOM     95  C   UNL A   1      45.259  28.508  34.729  1.00  0.00     0.173 A 
ATOM     96  F   UNL A   1      42.318  26.636  35.766  1.00  0.00    -0.203 F 
ATOM     97  C   UNL A   1      44.605  26.152  36.042  1.00  0.00     0.198 A 
ATOM     98  C   UNL A   1      46.264  27.659  35.183  1.00  0.00     0.198 A 
ATOM     99  F   UNL A   1      45.609  29.638  34.095  1.00  0.00    -0.203 F 
ATOM    100  F   UNL A   1      44.287  25.028  36.699  1.00  0.00    -0.200 F 
ATOM    101  C   UNL A   1      45.937  26.483  35.841  1.00  0.00     0.200 A 
ATOM    102  F   UNL A   1      47.551  27.972  34.975  1.00  0.00    -0.200 F 
ATOM    103  F   UNL A   1      46.906  25.668  36.284  1.00  0.00    -0.200 F 
ENDBRANCH  70  93
ENDBRANCH  44  45
ENDBRANCH  37  39
ENDBRANCH  36  37
ENDBRANCH  35  36
ENDBRANCH  34  35
ENDBRANCH  33  34
ENDBRANCH  32  33
ENDBRANCH   1  32
TORSDOF 20
ENDMDL
