MODEL 1
REMARK VINA RESULT:     -10.4      0.000      0.000
REMARK SMILES CN(C(=O)[C@H]1CCCC[C@H]1C(=O)OCCOCCOCCOC(=O)c1ccc(-c2c3nc(c(-c4c(F)c(F)c(F)c(F)c4F)c4ccc([nH]4)c(-c4c(F)c(F)c(F)c(F)c4F)c4nc(c(-c5c(F)c(F)c(F)c(F)c5F)c5ccc2[nH]5)C=C4)C=C3)cc1)C1CC1
REMARK SMILES IDX 17 1 16 2 15 3 14 4 13 5 11 6 12 7 10 8 5 9 6 10 7 11 9 12
REMARK SMILES IDX 8 13 3 14 4 15 2 16 1 17 88 18 89 19 90 20 18 21 19 22 20 23
REMARK SMILES IDX 21 24 22 25 23 26 24 27 25 28 26 29 87 30 27 31 86 32 28 33
REMARK SMILES IDX 29 34 30 35 80 36 31 37 85 38 79 39 81 40 32 41 84 42 78 43
REMARK SMILES IDX 77 44 33 46 65 47 45 48 64 49 46 50 49 51 63 52 82 53 47 54
REMARK SMILES IDX 48 55 62 57 83 58 50 59 34 60 35 61 43 62 36 63 37 64 41 65
REMARK SMILES IDX 44 66 38 67 39 68 42 69 40 70 66 71 67 72 75 73 68 74 69 75
REMARK SMILES IDX 73 76 76 77 70 78 71 79 74 80 72 81 51 82 52 83 60 84 53 85
REMARK SMILES IDX 54 86 58 87 61 88 55 89 56 90 59 91 57 92
REMARK H PARENT 81 45 49 56
REMARK Flexibility Score: inf
ROOT
ATOM      1  C   UNL A   1      32.726  29.648  25.332  1.00  0.00     0.188 C 
ENDROOT
BRANCH   1   2
ATOM      2  O   UNL A   1      32.736  28.926  24.108  1.00  0.00    -0.376 OA
BRANCH   2   3
ATOM      3  C   UNL A   1      33.708  27.889  23.979  1.00  0.00     0.202 C 
BRANCH   3   4
ATOM      4  C   UNL A   1      33.381  26.738  23.015  1.00  0.00     0.261 C 
BRANCH   4   5
ATOM      5  O   UNL A   1      33.562  25.422  23.579  1.00  0.00    -0.463 OA
BRANCH   5   6
ATOM      6  C   UNL A   1      32.869  25.164  24.716  1.00  0.00     0.309 C 
ATOM      7  O   UNL A   1      31.679  25.425  24.868  1.00  0.00    -0.252 OA
BRANCH   6   8
ATOM      8  C   UNL A   1      33.673  24.400  25.774  1.00  0.00     0.111 C 
ATOM      9  C   UNL A   1      33.135  23.033  26.245  1.00  0.00     0.093 C 
ATOM     10  C   UNL A   1      34.187  22.139  26.921  1.00  0.00     0.014 C 
ATOM     11  C   UNL A   1      35.484  22.042  26.143  1.00  0.00     0.001 C 
ATOM     12  C   UNL A   1      35.168  24.453  25.373  1.00  0.00     0.016 C 
ATOM     13  C   UNL A   1      36.104  23.418  25.981  1.00  0.00     0.001 C 
BRANCH   9  14
ATOM     14  C   UNL A   1      32.141  22.178  25.433  1.00  0.00     0.226 C 
ATOM     15  O   UNL A   1      30.996  22.078  25.900  1.00  0.00    -0.275 OA
BRANCH  14  16
ATOM     16  N   UNL A   1      32.511  21.456  24.311  1.00  0.00    -0.343 N 
ATOM     17  C   UNL A   1      32.760  21.995  22.984  1.00  0.00     0.147 C 
BRANCH  16  18
ATOM     18  C   UNL A   1      32.462  20.005  24.340  1.00  0.00     0.084 C 
ATOM     19  C   UNL A   1      33.761  19.238  24.433  1.00  0.00     0.027 C 
ATOM     20  C   UNL A   1      32.761  19.145  25.538  1.00  0.00     0.027 C 
ENDBRANCH  16  18
ENDBRANCH  14  16
ENDBRANCH   9  14
ENDBRANCH   6   8
ENDBRANCH   5   6
ENDBRANCH   4   5
ENDBRANCH   3   4
ENDBRANCH   2   3
ENDBRANCH   1   2
BRANCH   1  21
ATOM     21  C   UNL A   1      31.470  30.456  25.669  1.00  0.00     0.188 C 
BRANCH  21  22
ATOM     22  O   UNL A   1      31.615  31.479  26.643  1.00  0.00    -0.376 OA
BRANCH  22  23
ATOM     23  C   UNL A   1      32.865  31.474  27.345  1.00  0.00     0.202 C 
BRANCH  23  24
ATOM     24  C   UNL A   1      33.482  32.875  27.553  1.00  0.00     0.261 C 
BRANCH  24  25
ATOM     25  O   UNL A   1      32.531  33.906  27.900  1.00  0.00    -0.460 OA
BRANCH  25  26
ATOM     26  C   UNL A   1      32.990  34.925  28.663  1.00  0.00     0.338 C 
ATOM     27  O   UNL A   1      32.446  36.002  28.841  1.00  0.00    -0.246 OA
BRANCH  26  28
ATOM     28  C   UNL A   1      34.150  34.448  29.464  1.00  0.00     0.060 A 
ATOM     29  C   UNL A   1      35.438  34.682  28.960  1.00  0.00     0.016 A 
ATOM     30  C   UNL A   1      33.996  33.824  30.706  1.00  0.00     0.016 A 
ATOM     31  C   UNL A   1      36.564  34.223  29.649  1.00  0.00     0.010 A 
ATOM     32  C   UNL A   1      35.125  33.357  31.395  1.00  0.00     0.010 A 
ATOM     33  C   UNL A   1      36.411  33.505  30.843  1.00  0.00    -0.014 A 
BRANCH  33  34
ATOM     34  C   UNL A   1      37.545  32.691  31.359  1.00  0.00     0.031 A 
ATOM     35  C   UNL A   1      38.075  33.018  32.733  1.00  0.00     0.074 A 
ATOM     36  C   UNL A   1      38.078  31.664  30.673  1.00  0.00     0.049 A 
ATOM     37  N   UNL A   1      39.052  32.467  33.409  1.00  0.00    -0.248 NA
ATOM     38  C   UNL A   1      37.408  34.124  33.438  1.00  0.00     0.031 C 
ATOM     39  C   UNL A   1      37.642  31.203  29.358  1.00  0.00     0.029 A 
ATOM     40  N   UNL A   1      39.112  30.819  31.001  1.00  0.00    -0.354 N 
ATOM     41  C   UNL A   1      39.119  33.162  34.610  1.00  0.00     0.074 A 
ATOM     42  C   UNL A   1      38.112  34.199  34.556  1.00  0.00     0.031 C 
ATOM     43  C   UNL A   1      38.404  30.156  28.990  1.00  0.00     0.029 A 
ATOM     44  C   UNL A   1      39.398  29.890  30.031  1.00  0.00     0.049 A 
ATOM     45  H   UNL A   1      39.602  30.875  31.854  1.00  0.00     0.167 HD
ATOM     46  C   UNL A   1      39.932  32.952  35.673  1.00  0.00     0.037 A 
ATOM     47  C   UNL A   1      40.359  28.944  29.987  1.00  0.00     0.037 A 
ATOM     48  C   UNL A   1      40.936  31.925  35.739  1.00  0.00     0.049 A 
ATOM     49  C   UNL A   1      41.311  28.784  31.147  1.00  0.00     0.074 A 
ATOM     50  C   UNL A   1      41.795  31.624  36.782  1.00  0.00     0.029 A 
ATOM     51  N   UNL A   1      41.225  31.036  34.715  1.00  0.00    -0.354 N 
ATOM     52  N   UNL A   1      41.343  29.421  32.293  1.00  0.00    -0.248 NA
ATOM     53  C   UNL A   1      42.363  27.764  31.007  1.00  0.00     0.031 C 
ATOM     54  C   UNL A   1      42.642  30.591  36.368  1.00  0.00     0.029 A 
ATOM     55  C   UNL A   1      42.269  30.206  35.090  1.00  0.00     0.049 A 
ATOM     56  H   UNL A   1      40.758  31.001  33.849  1.00  0.00     0.167 HD
ATOM     57  C   UNL A   1      42.385  28.853  33.021  1.00  0.00     0.074 A 
ATOM     58  C   UNL A   1      42.956  27.815  32.191  1.00  0.00     0.031 C 
ATOM     59  C   UNL A   1      42.823  29.162  34.267  1.00  0.00     0.037 A 
BRANCH  46  60
ATOM     60  C   UNL A   1      39.785  33.884  36.841  1.00  0.00     0.064 A 
ATOM     61  C   UNL A   1      40.480  35.102  36.907  1.00  0.00     0.173 A 
ATOM     62  C   UNL A   1      38.936  33.554  37.908  1.00  0.00     0.173 A 
ATOM     63  F   UNL A   1      41.318  35.456  35.922  1.00  0.00    -0.203 F 
ATOM     64  C   UNL A   1      40.357  35.937  38.015  1.00  0.00     0.198 A 
ATOM     65  C   UNL A   1      38.789  34.407  38.998  1.00  0.00     0.198 A 
ATOM     66  F   UNL A   1      38.247  32.403  37.893  1.00  0.00    -0.203 F 
ATOM     67  F   UNL A   1      41.076  37.065  38.085  1.00  0.00    -0.200 F 
ATOM     68  C   UNL A   1      39.508  35.593  39.055  1.00  0.00     0.200 A 
ATOM     69  F   UNL A   1      37.958  34.079  39.996  1.00  0.00    -0.200 F 
ATOM     70  F   UNL A   1      39.389  36.397  40.120  1.00  0.00    -0.200 F 
ENDBRANCH  46  60
BRANCH  47  71
ATOM     71  C   UNL A   1      40.478  28.053  28.801  1.00  0.00     0.064 A 
ATOM     72  C   UNL A   1      41.253  28.427  27.693  1.00  0.00     0.173 A 
ATOM     73  C   UNL A   1      39.785  26.836  28.728  1.00  0.00     0.173 A 
ATOM     74  F   UNL A   1      41.908  29.597  27.697  1.00  0.00    -0.203 F 
ATOM     75  C   UNL A   1      41.315  27.627  26.552  1.00  0.00     0.198 A 
ATOM     76  C   UNL A   1      39.870  26.023  27.599  1.00  0.00     0.198 A 
ATOM     77  F   UNL A   1      39.020  26.437  29.755  1.00  0.00    -0.203 F 
ATOM     78  F   UNL A   1      42.019  28.035  25.487  1.00  0.00    -0.200 F 
ATOM     79  C   UNL A   1      40.628  26.423  26.509  1.00  0.00     0.200 A 
ATOM     80  F   UNL A   1      39.208  24.859  27.563  1.00  0.00    -0.200 F 
ATOM     81  F   UNL A   1      40.684  25.656  25.412  1.00  0.00    -0.200 F 
ENDBRANCH  47  71
BRANCH  59  82
ATOM     82  C   UNL A   1      43.939  28.333  34.839  1.00  0.00     0.064 A 
ATOM     83  C   UNL A   1      45.285  28.711  34.720  1.00  0.00     0.173 A 
ATOM     84  C   UNL A   1      43.653  27.158  35.554  1.00  0.00     0.173 A 
ATOM     85  F   UNL A   1      45.617  29.819  34.039  1.00  0.00    -0.203 F 
ATOM     86  C   UNL A   1      46.301  27.931  35.266  1.00  0.00     0.198 A 
ATOM     87  C   UNL A   1      44.669  26.397  36.127  1.00  0.00     0.198 A 
ATOM     88  F   UNL A   1      42.383  26.754  35.709  1.00  0.00    -0.203 F 
ATOM     89  F   UNL A   1      47.583  28.285  35.094  1.00  0.00    -0.200 F 
ATOM     90  C   UNL A   1      45.992  26.779  35.974  1.00  0.00     0.200 A 
ATOM     91  F   UNL A   1      44.366  25.295  36.826  1.00  0.00    -0.200 F 
ATOM     92  F   UNL A   1      46.971  26.033  36.504  1.00  0.00    -0.200 F 
ENDBRANCH  59  82
ENDBRANCH  33  34
ENDBRANCH  26  28
ENDBRANCH  25  26
ENDBRANCH  24  25
ENDBRANCH  23  24
ENDBRANCH  22  23
ENDBRANCH  21  22
ENDBRANCH   1  21
TORSDOF 20
ENDMDL
MODEL 2
REMARK VINA RESULT:     -10.3      4.606     10.228
REMARK SMILES CN(C(=O)[C@H]1CCCC[C@H]1C(=O)OCCOCCOCCOC(=O)c1ccc(-c2c3nc(c(-c4c(F)c(F)c(F)c(F)c4F)c4ccc([nH]4)c(-c4c(F)c(F)c(F)c(F)c4F)c4nc(c(-c5c(F)c(F)c(F)c(F)c5F)c5ccc2[nH]5)C=C4)C=C3)cc1)C1CC1
REMARK SMILES IDX 17 1 16 2 15 3 14 4 13 5 11 6 12 7 10 8 5 9 6 10 7 11 9 12
REMARK SMILES IDX 8 13 3 14 4 15 2 16 1 17 88 18 89 19 90 20 18 21 19 22 20 23
REMARK SMILES IDX 21 24 22 25 23 26 24 27 25 28 26 29 87 30 27 31 86 32 28 33
REMARK SMILES IDX 29 34 30 35 80 36 31 37 85 38 79 39 81 40 32 41 84 42 78 43
REMARK SMILES IDX 77 44 33 46 65 47 45 48 64 49 46 50 49 51 63 52 82 53 47 54
REMARK SMILES IDX 48 55 62 57 83 58 50 59 34 60 35 61 43 62 36 63 37 64 41 65
REMARK SMILES IDX 44 66 38 67 39 68 42 69 40 70 66 71 67 72 75 73 68 74 69 75
REMARK SMILES IDX 73 76 76 77 70 78 71 79 74 80 72 81 51 82 52 83 60 84 53 85
REMARK SMILES IDX 54 86 58 87 61 88 55 89 56 90 59 91 57 92
REMARK H PARENT 81 45 49 56
REMARK Flexibility Score: inf
ROOT
ATOM      1  C   UNL A   1      32.646  20.859  24.263  1.00  0.00     0.188 C 
ENDROOT
BRANCH   1   2
ATOM      2  O   UNL A   1      31.636  21.086  25.236  1.00  0.00    -0.376 OA
BRANCH   2   3
ATOM      3  C   UNL A   1      31.939  22.017  26.274  1.00  0.00     0.202 C 
BRANCH   3   4
ATOM      4  C   UNL A   1      31.192  23.361  26.251  1.00  0.00     0.261 C 
BRANCH   4   5
ATOM      5  O   UNL A   1      32.048  24.518  26.356  1.00  0.00    -0.463 OA
BRANCH   5   6
ATOM      6  C   UNL A   1      31.417  25.711  26.496  1.00  0.00     0.309 C 
ATOM      7  O   UNL A   1      30.197  25.845  26.494  1.00  0.00    -0.252 OA
BRANCH   6   8
ATOM      8  C   UNL A   1      32.362  26.884  26.781  1.00  0.00     0.111 C 
ATOM      9  C   UNL A   1      33.471  27.186  25.754  1.00  0.00     0.093 C 
ATOM     10  C   UNL A   1      34.055  28.606  25.854  1.00  0.00     0.014 C 
ATOM     11  C   UNL A   1      32.997  29.687  25.936  1.00  0.00     0.001 C 
ATOM     12  C   UNL A   1      31.506  28.088  27.249  1.00  0.00     0.016 C 
ATOM     13  C   UNL A   1      32.123  29.477  27.159  1.00  0.00     0.001 C 
BRANCH   9  14
ATOM     14  C   UNL A   1      33.427  26.723  24.284  1.00  0.00     0.226 C 
ATOM     15  O   UNL A   1      34.080  25.704  24.010  1.00  0.00    -0.275 OA
BRANCH  14  16
ATOM     16  N   UNL A   1      32.802  27.450  23.285  1.00  0.00    -0.343 N 
ATOM     17  C   UNL A   1      33.395  28.520  22.499  1.00  0.00     0.147 C 
BRANCH  16  18
ATOM     18  C   UNL A   1      31.368  27.328  23.094  1.00  0.00     0.084 C 
ATOM     19  C   UNL A   1      30.452  28.239  23.881  1.00  0.00     0.027 C 
ATOM     20  C   UNL A   1      30.493  28.330  22.391  1.00  0.00     0.027 C 
ENDBRANCH  16  18
ENDBRANCH  14  16
ENDBRANCH   9  14
ENDBRANCH   6   8
ENDBRANCH   5   6
ENDBRANCH   4   5
ENDBRANCH   3   4
ENDBRANCH   2   3
ENDBRANCH   1   2
BRANCH   1  21
ATOM     21  C   UNL A   1      33.737  19.839  24.597  1.00  0.00     0.188 C 
BRANCH  21  22
ATOM     22  O   UNL A   1      34.766  20.271  25.474  1.00  0.00    -0.376 OA
BRANCH  22  23
ATOM     23  C   UNL A   1      35.859  20.947  24.838  1.00  0.00     0.202 C 
BRANCH  23  24
ATOM     24  C   UNL A   1      36.940  21.464  25.814  1.00  0.00     0.261 C 
BRANCH  24  25
ATOM     25  O   UNL A   1      38.253  21.621  25.230  1.00  0.00    -0.460 OA
BRANCH  25  26
ATOM     26  C   UNL A   1      39.310  21.388  26.042  1.00  0.00     0.338 C 
ATOM     27  O   UNL A   1      39.986  20.374  26.080  1.00  0.00    -0.246 OA
BRANCH  26  28
ATOM     28  C   UNL A   1      39.693  22.657  26.718  1.00  0.00     0.060 A 
ATOM     29  C   UNL A   1      38.990  23.822  26.375  1.00  0.00     0.016 A 
ATOM     30  C   UNL A   1      40.684  22.712  27.703  1.00  0.00     0.016 A 
ATOM     31  C   UNL A   1      39.330  25.050  26.949  1.00  0.00     0.010 A 
ATOM     32  C   UNL A   1      41.030  23.945  28.274  1.00  0.00     0.010 A 
ATOM     33  C   UNL A   1      40.393  25.129  27.859  1.00  0.00    -0.014 A 
BRANCH  33  34
ATOM     34  C   UNL A   1      41.002  26.453  28.162  1.00  0.00     0.031 A 
ATOM     35  C   UNL A   1      42.424  26.689  27.716  1.00  0.00     0.074 A 
ATOM     36  C   UNL A   1      40.327  27.445  28.769  1.00  0.00     0.049 A 
ATOM     37  N   UNL A   1      43.183  27.747  27.858  1.00  0.00    -0.248 NA
ATOM     38  C   UNL A   1      43.077  25.572  27.015  1.00  0.00     0.031 C 
ATOM     39  C   UNL A   1      38.938  27.381  29.214  1.00  0.00     0.029 A 
ATOM     40  N   UNL A   1      40.734  28.713  29.116  1.00  0.00    -0.354 N 
ATOM     41  C   UNL A   1      44.400  27.419  27.273  1.00  0.00     0.074 A 
ATOM     42  C   UNL A   1      44.292  26.053  26.809  1.00  0.00     0.031 C 
ATOM     43  C   UNL A   1      38.606  28.558  29.776  1.00  0.00     0.029 A 
ATOM     44  C   UNL A   1      39.767  29.450  29.754  1.00  0.00     0.049 A 
ATOM     45  H   UNL A   1      41.635  29.059  28.924  1.00  0.00     0.167 HD
ATOM     46  C   UNL A   1      45.506  28.185  27.118  1.00  0.00     0.037 A 
ATOM     47  C   UNL A   1      39.819  30.696  30.269  1.00  0.00     0.037 A 
ATOM     48  C   UNL A   1      45.625  29.543  27.574  1.00  0.00     0.049 A 
ATOM     49  C   UNL A   1      41.091  31.501  30.162  1.00  0.00     0.074 A 
ATOM     50  C   UNL A   1      46.701  30.406  27.445  1.00  0.00     0.029 A 
ATOM     51  N   UNL A   1      44.638  30.236  28.258  1.00  0.00    -0.354 N 
ATOM     52  N   UNL A   1      42.223  31.197  29.574  1.00  0.00    -0.248 NA
ATOM     53  C   UNL A   1      41.088  32.833  30.789  1.00  0.00     0.031 C 
ATOM     54  C   UNL A   1      46.386  31.599  28.101  1.00  0.00     0.029 A 
ATOM     55  C   UNL A   1      45.091  31.505  28.584  1.00  0.00     0.049 A 
ATOM     56  H   UNL A   1      43.748  29.879  28.480  1.00  0.00     0.167 HD
ATOM     57  C   UNL A   1      43.047  32.309  29.726  1.00  0.00     0.074 A 
ATOM     58  C   UNL A   1      42.282  33.298  30.453  1.00  0.00     0.031 C 
ATOM     59  C   UNL A   1      44.320  32.493  29.294  1.00  0.00     0.037 A 
BRANCH  46  60
ATOM     60  C   UNL A   1      46.692  27.548  26.452  1.00  0.00     0.064 A 
ATOM     61  C   UNL A   1      46.893  27.630  25.065  1.00  0.00     0.173 A 
ATOM     62  C   UNL A   1      47.641  26.850  27.213  1.00  0.00     0.173 A 
ATOM     63  F   UNL A   1      46.006  28.271  24.290  1.00  0.00    -0.203 F 
ATOM     64  C   UNL A   1      47.982  27.005  24.462  1.00  0.00     0.198 A 
ATOM     65  C   UNL A   1      48.746  26.256  26.611  1.00  0.00     0.198 A 
ATOM     66  F   UNL A   1      47.497  26.746  28.543  1.00  0.00    -0.203 F 
ATOM     67  F   UNL A   1      48.121  27.043  23.130  1.00  0.00    -0.200 F 
ATOM     68  C   UNL A   1      48.910  26.324  25.235  1.00  0.00     0.200 A 
ATOM     69  F   UNL A   1      49.648  25.609  27.362  1.00  0.00    -0.200 F 
ATOM     70  F   UNL A   1      49.957  25.723  24.655  1.00  0.00    -0.200 F 
ENDBRANCH  46  60
BRANCH  47  71
ATOM     71  C   UNL A   1      38.624  31.281  30.936  1.00  0.00     0.064 A 
ATOM     72  C   UNL A   1      37.693  32.040  30.210  1.00  0.00     0.173 A 
ATOM     73  C   UNL A   1      38.413  31.138  32.315  1.00  0.00     0.173 A 
ATOM     74  F   UNL A   1      37.867  32.237  28.895  1.00  0.00    -0.203 F 
ATOM     75  C   UNL A   1      36.608  32.646  30.842  1.00  0.00     0.198 A 
ATOM     76  C   UNL A   1      37.312  31.720  32.940  1.00  0.00     0.198 A 
ATOM     77  F   UNL A   1      39.279  30.433  33.057  1.00  0.00    -0.203 F 
ATOM     78  F   UNL A   1      35.764  33.410  30.135  1.00  0.00    -0.200 F 
ATOM     79  C   UNL A   1      36.415  32.481  32.205  1.00  0.00     0.200 A 
ATOM     80  F   UNL A   1      37.128  31.555  34.257  1.00  0.00    -0.200 F 
ATOM     81  F   UNL A   1      35.375  33.067  32.813  1.00  0.00    -0.200 F 
ENDBRANCH  47  71
BRANCH  59  82
ATOM     82  C   UNL A   1      44.954  33.833  29.543  1.00  0.00     0.064 A 
ATOM     83  C   UNL A   1      45.710  34.097  30.694  1.00  0.00     0.173 A 
ATOM     84  C   UNL A   1      44.834  34.860  28.592  1.00  0.00     0.173 A 
ATOM     85  F   UNL A   1      45.850  33.156  31.641  1.00  0.00    -0.203 F 
ATOM     86  C   UNL A   1      46.295  35.344  30.899  1.00  0.00     0.198 A 
ATOM     87  C   UNL A   1      45.447  36.095  28.784  1.00  0.00     0.198 A 
ATOM     88  F   UNL A   1      44.131  34.661  27.467  1.00  0.00    -0.203 F 
ATOM     89  F   UNL A   1      46.969  35.589  32.032  1.00  0.00    -0.200 F 
ATOM     90  C   UNL A   1      46.169  36.340  29.942  1.00  0.00     0.200 A 
ATOM     91  F   UNL A   1      45.338  37.049  27.849  1.00  0.00    -0.200 F 
ATOM     92  F   UNL A   1      46.737  37.537  30.138  1.00  0.00    -0.200 F 
ENDBRANCH  59  82
ENDBRANCH  33  34
ENDBRANCH  26  28
ENDBRANCH  25  26
ENDBRANCH  24  25
ENDBRANCH  23  24
ENDBRANCH  22  23
ENDBRANCH  21  22
ENDBRANCH   1  21
TORSDOF 20
ENDMDL
MODEL 3
REMARK VINA RESULT:     -10.3      5.366     10.983
REMARK SMILES CN(C(=O)[C@H]1CCCC[C@H]1C(=O)OCCOCCOCCOC(=O)c1ccc(-c2c3nc(c(-c4c(F)c(F)c(F)c(F)c4F)c4ccc([nH]4)c(-c4c(F)c(F)c(F)c(F)c4F)c4nc(c(-c5c(F)c(F)c(F)c(F)c5F)c5ccc2[nH]5)C=C4)C=C3)cc1)C1CC1
REMARK SMILES IDX 17 1 16 2 15 3 14 4 13 5 11 6 12 7 10 8 5 9 6 10 7 11 9 12
REMARK SMILES IDX 8 13 3 14 4 15 2 16 1 17 88 18 89 19 90 20 18 21 19 22 20 23
REMARK SMILES IDX 21 24 22 25 23 26 24 27 25 28 26 29 87 30 27 31 86 32 28 33
REMARK SMILES IDX 29 34 30 35 80 36 31 37 85 38 79 39 81 40 32 41 84 42 78 43
REMARK SMILES IDX 77 44 33 46 65 47 45 48 64 49 46 50 49 51 63 52 82 53 47 54
REMARK SMILES IDX 48 55 62 57 83 58 50 59 34 60 35 61 43 62 36 63 37 64 41 65
REMARK SMILES IDX 44 66 38 67 39 68 42 69 40 70 66 71 67 72 75 73 68 74 69 75
REMARK SMILES IDX 73 76 76 77 70 78 71 79 74 80 72 81 51 82 52 83 60 84 53 85
REMARK SMILES IDX 54 86 58 87 61 88 55 89 56 90 59 91 57 92
REMARK H PARENT 81 45 49 56
REMARK Flexibility Score: inf
ROOT
ATOM      1  C   UNL A   1      34.248  20.122  25.080  1.00  0.00     0.188 C 
ENDROOT
BRANCH   1   2
ATOM      2  O   UNL A   1      33.377  20.572  26.109  1.00  0.00    -0.376 OA
BRANCH   2   3
ATOM      3  C   UNL A   1      33.940  21.435  27.097  1.00  0.00     0.202 C 
BRANCH   3   4
ATOM      4  C   UNL A   1      32.970  22.350  27.862  1.00  0.00     0.261 C 
BRANCH   4   5
ATOM      5  O   UNL A   1      32.452  23.450  27.084  1.00  0.00    -0.463 OA
BRANCH   5   6
ATOM      6  C   UNL A   1      31.128  23.399  26.794  1.00  0.00     0.309 C 
ATOM      7  O   UNL A   1      30.259  23.106  27.610  1.00  0.00    -0.252 OA
BRANCH   6   8
ATOM      8  C   UNL A   1      30.784  23.859  25.373  1.00  0.00     0.111 C 
ATOM      9  C   UNL A   1      30.708  25.375  25.101  1.00  0.00     0.093 C 
ATOM     10  C   UNL A   1      30.828  25.757  23.617  1.00  0.00     0.014 C 
ATOM     11  C   UNL A   1      31.981  25.074  22.911  1.00  0.00     0.001 C 
ATOM     12  C   UNL A   1      31.625  23.020  24.380  1.00  0.00     0.016 C 
ATOM     13  C   UNL A   1      31.816  23.566  22.972  1.00  0.00     0.001 C 
BRANCH   9  14
ATOM     14  C   UNL A   1      31.384  26.439  25.989  1.00  0.00     0.226 C 
ATOM     15  O   UNL A   1      30.719  26.854  26.951  1.00  0.00    -0.275 OA
BRANCH  14  16
ATOM     16  N   UNL A   1      32.611  27.005  25.684  1.00  0.00    -0.343 N 
ATOM     17  C   UNL A   1      33.900  26.333  25.713  1.00  0.00     0.147 C 
BRANCH  16  18
ATOM     18  C   UNL A   1      32.719  28.443  25.515  1.00  0.00     0.084 C 
ATOM     19  C   UNL A   1      32.852  29.000  24.115  1.00  0.00     0.027 C 
ATOM     20  C   UNL A   1      31.653  29.336  24.940  1.00  0.00     0.027 C 
ENDBRANCH  16  18
ENDBRANCH  14  16
ENDBRANCH   9  14
ENDBRANCH   6   8
ENDBRANCH   5   6
ENDBRANCH   4   5
ENDBRANCH   3   4
ENDBRANCH   2   3
ENDBRANCH   1   2
BRANCH   1  21
ATOM     21  C   UNL A   1      35.621  20.789  24.970  1.00  0.00     0.188 C 
BRANCH  21  22
ATOM     22  O   UNL A   1      36.749  19.927  24.960  1.00  0.00    -0.376 OA
BRANCH  22  23
ATOM     23  C   UNL A   1      37.997  20.559  25.279  1.00  0.00     0.202 C 
BRANCH  23  24
ATOM     24  C   UNL A   1      39.197  19.589  25.356  1.00  0.00     0.261 C 
BRANCH  24  25
ATOM     25  O   UNL A   1      40.089  19.822  26.468  1.00  0.00    -0.460 OA
BRANCH  25  26
ATOM     26  C   UNL A   1      41.414  19.695  26.222  1.00  0.00     0.338 C 
ATOM     27  O   UNL A   1      41.968  18.739  25.706  1.00  0.00    -0.246 OA
BRANCH  26  28
ATOM     28  C   UNL A   1      42.077  21.008  26.446  1.00  0.00     0.060 A 
ATOM     29  C   UNL A   1      42.448  21.341  27.757  1.00  0.00     0.016 A 
ATOM     30  C   UNL A   1      42.379  21.883  25.398  1.00  0.00     0.016 A 
ATOM     31  C   UNL A   1      43.040  22.577  28.035  1.00  0.00     0.010 A 
ATOM     32  C   UNL A   1      42.966  23.126  25.677  1.00  0.00     0.010 A 
ATOM     33  C   UNL A   1      43.249  23.502  27.003  1.00  0.00    -0.014 A 
BRANCH  33  34
ATOM     34  C   UNL A   1      43.501  24.930  27.339  1.00  0.00     0.031 A 
ATOM     35  C   UNL A   1      44.879  25.482  27.067  1.00  0.00     0.074 A 
ATOM     36  C   UNL A   1      42.548  25.744  27.828  1.00  0.00     0.049 A 
ATOM     37  N   UNL A   1      45.356  26.685  27.270  1.00  0.00    -0.248 NA
ATOM     38  C   UNL A   1      45.850  24.541  26.486  1.00  0.00     0.031 C 
ATOM     39  C   UNL A   1      41.165  25.366  28.099  1.00  0.00     0.029 A 
ATOM     40  N   UNL A   1      42.612  27.071  28.184  1.00  0.00    -0.354 N 
ATOM     41  C   UNL A   1      46.680  26.640  26.850  1.00  0.00     0.074 A 
ATOM     42  C   UNL A   1      46.942  25.285  26.418  1.00  0.00     0.031 C 
ATOM     43  C   UNL A   1      40.508  26.438  28.579  1.00  0.00     0.029 A 
ATOM     44  C   UNL A   1      41.431  27.570  28.675  1.00  0.00     0.049 A 
ATOM     45  H   UNL A   1      43.429  27.613  28.095  1.00  0.00     0.167 HD
ATOM     46  C   UNL A   1      47.595  27.637  26.810  1.00  0.00     0.037 A 
ATOM     47  C   UNL A   1      41.135  28.796  29.154  1.00  0.00     0.037 A 
ATOM     48  C   UNL A   1      47.347  28.988  27.237  1.00  0.00     0.049 A 
ATOM     49  C   UNL A   1      42.196  29.869  29.182  1.00  0.00     0.074 A 
ATOM     50  C   UNL A   1      48.209  30.072  27.217  1.00  0.00     0.029 A 
ATOM     51  N   UNL A   1      46.151  29.440  27.772  1.00  0.00    -0.354 N 
ATOM     52  N   UNL A   1      43.433  29.829  28.748  1.00  0.00    -0.248 NA
ATOM     53  C   UNL A   1      41.813  31.166  29.764  1.00  0.00     0.031 C 
ATOM     54  C   UNL A   1      47.552  31.164  27.792  1.00  0.00     0.029 A 
ATOM     55  C   UNL A   1      46.261  30.778  28.114  1.00  0.00     0.049 A 
ATOM     56  H   UNL A   1      45.342  28.890  27.892  1.00  0.00     0.167 HD
ATOM     57  C   UNL A   1      43.959  31.098  28.968  1.00  0.00     0.074 A 
ATOM     58  C   UNL A   1      42.906  31.890  29.565  1.00  0.00     0.031 C 
ATOM     59  C   UNL A   1      45.203  31.566  28.692  1.00  0.00     0.037 A 
BRANCH  46  60
ATOM     60  C   UNL A   1      48.969  27.286  26.316  1.00  0.00     0.064 A 
ATOM     61  C   UNL A   1      49.296  27.320  24.951  1.00  0.00     0.173 A 
ATOM     62  C   UNL A   1      49.973  26.913  27.222  1.00  0.00     0.173 A 
ATOM     63  F   UNL A   1      48.367  27.653  24.043  1.00  0.00    -0.203 F 
ATOM     64  C   UNL A   1      50.566  26.959  24.510  1.00  0.00     0.198 A 
ATOM     65  C   UNL A   1      51.252  26.585  26.781  1.00  0.00     0.198 A 
ATOM     66  F   UNL A   1      49.715  26.867  28.538  1.00  0.00    -0.203 F 
ATOM     67  F   UNL A   1      50.838  26.939  23.198  1.00  0.00    -0.200 F 
ATOM     68  C   UNL A   1      51.544  26.598  25.424  1.00  0.00     0.200 A 
ATOM     69  F   UNL A   1      52.199  26.249  27.667  1.00  0.00    -0.200 F 
ATOM     70  F   UNL A   1      52.766  26.251  24.999  1.00  0.00    -0.200 F 
ENDBRANCH  46  60
BRANCH  47  71
ATOM     71  C   UNL A   1      39.764  29.095  29.650  1.00  0.00     0.064 A 
ATOM     72  C   UNL A   1      39.439  28.948  31.007  1.00  0.00     0.173 A 
ATOM     73  C   UNL A   1      38.740  29.487  28.775  1.00  0.00     0.173 A 
ATOM     74  F   UNL A   1      40.373  28.542  31.879  1.00  0.00    -0.203 F 
ATOM     75  C   UNL A   1      38.140  29.163  31.465  1.00  0.00     0.198 A 
ATOM     76  C   UNL A   1      37.448  29.729  29.239  1.00  0.00     0.198 A 
ATOM     77  F   UNL A   1      38.994  29.630  27.466  1.00  0.00    -0.203 F 
ATOM     78  F   UNL A   1      37.845  28.962  32.757  1.00  0.00    -0.200 F 
ATOM     79  C   UNL A   1      37.147  29.559  30.582  1.00  0.00     0.200 A 
ATOM     80  F   UNL A   1      36.493  30.115  28.383  1.00  0.00    -0.200 F 
ATOM     81  F   UNL A   1      35.898  29.762  31.022  1.00  0.00    -0.200 F 
ENDBRANCH  47  71
BRANCH  59  82
ATOM     82  C   UNL A   1      45.482  33.016  28.977  1.00  0.00     0.064 A 
ATOM     83  C   UNL A   1      46.065  33.439  30.181  1.00  0.00     0.173 A 
ATOM     84  C   UNL A   1      45.196  33.995  28.011  1.00  0.00     0.173 A 
ATOM     85  F   UNL A   1      46.350  32.548  31.143  1.00  0.00    -0.203 F 
ATOM     86  C   UNL A   1      46.322  34.787  30.419  1.00  0.00     0.198 A 
ATOM     87  C   UNL A   1      45.484  35.338  28.239  1.00  0.00     0.198 A 
ATOM     88  F   UNL A   1      44.648  33.646  26.838  1.00  0.00    -0.203 F 
ATOM     89  F   UNL A   1      46.831  35.173  31.598  1.00  0.00    -0.200 F 
ATOM     90  C   UNL A   1      46.037  35.734  29.447  1.00  0.00     0.200 A 
ATOM     91  F   UNL A   1      45.224  36.248  27.291  1.00  0.00    -0.200 F 
ATOM     92  F   UNL A   1      46.290  37.030  29.676  1.00  0.00    -0.200 F 
ENDBRANCH  59  82
ENDBRANCH  33  34
ENDBRANCH  26  28
ENDBRANCH  25  26
ENDBRANCH  24  25
ENDBRANCH  23  24
ENDBRANCH  22  23
ENDBRANCH  21  22
ENDBRANCH   1  21
TORSDOF 20
ENDMDL
