MODEL 1
REMARK VINA RESULT:      -9.9      0.000      0.000
REMARK SMILES O=C(OCCOCCOCCOC(=O)c1ccc(-c2c3nc(c(-c4c(F)c(F)c(F)c(F)c4F)c4ccc([nH]4)c(-c4c(F)c(F)c(F)c(F)c4F)c4nc(c(-c5c(F)c(F)c(F)c(F)c5F)c5ccc2[nH]5)C=C4)C=C3)cc1)C1=Cc2cc(S(F)(F)(F)(F)F)ccc2O[C@H]1C(F)(F)F
REMARK SMILES IDX 8 1 7 2 6 3 5 4 4 5 3 6 2 7 1 8 78 9 79 10 93 11 80 12 92 13
REMARK SMILES IDX 81 14 91 15 82 16 90 17 89 18 94 19 95 20 96 21 97 22 83 23
REMARK SMILES IDX 84 24 85 25 86 26 87 27 88 28 9 29 10 30 11 31 12 32 13 33
REMARK SMILES IDX 14 34 15 35 16 36 77 37 17 38 76 39 18 40 19 41 20 42 70 43
REMARK SMILES IDX 21 44 75 45 69 46 71 47 22 48 74 49 68 50 67 51 23 53 55 54
REMARK SMILES IDX 35 55 54 56 36 57 39 58 53 59 72 60 37 61 38 62 52 64 73 65
REMARK SMILES IDX 40 66 24 67 25 68 33 69 26 70 27 71 31 72 34 73 28 74 29 75
REMARK SMILES IDX 32 76 30 77 56 78 57 79 65 80 58 81 59 82 63 83 66 84 60 85
REMARK SMILES IDX 61 86 64 87 62 88 41 89 42 90 50 91 43 92 44 93 48 94 51 95
REMARK SMILES IDX 45 96 46 97 49 98 47 99
REMARK H PARENT 71 52 39 63
REMARK Flexibility Score: inf
ROOT
ATOM      1  C   UNL A   1      33.155  35.242  29.217  1.00  0.00     0.188 C 
ENDROOT
BRANCH   1   2
ATOM      2  C   UNL A   1      32.948  35.732  30.640  1.00  0.00     0.188 C 
BRANCH   2   3
ATOM      3  O   UNL A   1      33.576  34.836  31.546  1.00  0.00    -0.376 OA
BRANCH   3   4
ATOM      4  C   UNL A   1      34.204  35.576  32.583  1.00  0.00     0.202 C 
BRANCH   4   5
ATOM      5  C   UNL A   1      34.836  34.616  33.579  1.00  0.00     0.261 C 
BRANCH   5   6
ATOM      6  O   UNL A   1      36.233  34.861  33.649  1.00  0.00    -0.460 OA
BRANCH   6   7
ATOM      7  C   UNL A   1      37.150  33.873  33.202  1.00  0.00     0.338 C 
ATOM      8  O   UNL A   1      36.781  32.660  33.106  1.00  0.00    -0.246 OA
BRANCH   7   9
ATOM      9  C   UNL A   1      38.572  34.266  32.839  1.00  0.00     0.087 C 
ATOM     10  C   UNL A   1      39.479  34.523  33.820  1.00  0.00     0.027 C 
ATOM     11  C   UNL A   1      38.982  34.372  31.379  1.00  0.00     0.316 C 
ATOM     12  C   UNL A   1      39.069  34.417  35.279  1.00  0.00     0.019 A 
ATOM     13  O   UNL A   1      37.842  32.439  34.806  1.00  0.00    -0.475 OA
ATOM     14  C   UNL A   1      39.455  35.445  36.124  1.00  0.00     0.036 A 
ATOM     15  C   UNL A   1      38.356  33.390  35.726  1.00  0.00     0.128 A 
ATOM     16  C   UNL A   1      39.283  35.154  37.498  1.00  0.00     0.107 A 
ATOM     17  C   UNL A   1      38.111  33.240  37.070  1.00  0.00     0.048 A 
ATOM     18  C   UNL A   1      38.515  34.188  37.968  1.00  0.00     0.028 A 
BRANCH  11  19
ATOM     19  C   UNL A   1      37.792  34.036  30.493  1.00  0.00     0.430 C 
ATOM     20  F   UNL A   1      36.721  34.725  30.879  1.00  0.00    -0.167 F 
ATOM     21  F   UNL A   1      38.063  34.312  29.221  1.00  0.00    -0.167 F 
ATOM     22  F   UNL A   1      37.553  32.734  30.624  1.00  0.00    -0.167 F 
ENDBRANCH  11  19
BRANCH  16  23
ATOM     23  S   UNL A   1      40.180  36.175  38.694  1.00  0.00     0.310 S 
ATOM     24  F   UNL A   1      40.900  36.992  37.542  1.00  0.00    -0.094 F 
ATOM     25  F   UNL A   1      41.378  35.155  38.626  1.00  0.00    -0.094 F 
ATOM     26  F   UNL A   1      40.950  37.056  39.718  1.00  0.00    -0.094 F 
ATOM     27  F   UNL A   1      39.029  37.256  38.642  1.00  0.00    -0.094 F 
ATOM     28  F   UNL A   1      39.434  35.350  37.571  1.00  0.00    -0.094 F 
ENDBRANCH  16  23
ENDBRANCH   7   9
ENDBRANCH   6   7
ENDBRANCH   5   6
ENDBRANCH   4   5
ENDBRANCH   3   4
ENDBRANCH   2   3
ENDBRANCH   1   2
BRANCH   1  29
ATOM     29  O   UNL A   1      34.545  35.131  28.951  1.00  0.00    -0.376 OA
BRANCH  29  30
ATOM     30  C   UNL A   1      34.765  34.108  27.992  1.00  0.00     0.202 C 
BRANCH  30  31
ATOM     31  C   UNL A   1      33.630  33.099  28.060  1.00  0.00     0.261 C 
BRANCH  31  32
ATOM     32  O   UNL A   1      34.052  31.962  28.798  1.00  0.00    -0.460 OA
BRANCH  32  33
ATOM     33  C   UNL A   1      34.733  30.902  28.142  1.00  0.00     0.338 C 
ATOM     34  O   UNL A   1      34.207  30.338  27.132  1.00  0.00    -0.246 OA
BRANCH  33  35
ATOM     35  C   UNL A   1      36.091  30.443  28.648  1.00  0.00     0.060 A 
ATOM     36  C   UNL A   1      37.204  30.780  27.896  1.00  0.00     0.016 A 
ATOM     37  C   UNL A   1      36.196  29.687  29.735  1.00  0.00     0.016 A 
ATOM     38  C   UNL A   1      38.359  30.026  28.212  1.00  0.00     0.010 A 
ATOM     39  C   UNL A   1      37.391  29.089  30.058  1.00  0.00     0.010 A 
ATOM     40  C   UNL A   1      38.519  29.331  29.324  1.00  0.00    -0.014 A 
BRANCH  40  41
ATOM     41  C   UNL A   1      39.883  28.828  29.764  1.00  0.00     0.031 A 
ATOM     42  C   UNL A   1      40.426  27.665  29.215  1.00  0.00     0.074 A 
ATOM     43  C   UNL A   1      40.537  29.624  30.690  1.00  0.00     0.049 A 
ATOM     44  N   UNL A   1      41.634  27.145  29.442  1.00  0.00    -0.248 NA
ATOM     45  C   UNL A   1      39.722  26.799  28.258  1.00  0.00     0.031 C 
ATOM     46  C   UNL A   1      39.999  30.804  31.242  1.00  0.00     0.029 A 
ATOM     47  N   UNL A   1      41.786  29.435  31.236  1.00  0.00    -0.354 N 
ATOM     48  C   UNL A   1      41.800  26.035  28.718  1.00  0.00     0.074 A 
ATOM     49  C   UNL A   1      40.571  25.794  27.952  1.00  0.00     0.031 C 
ATOM     50  C   UNL A   1      40.907  31.311  32.117  1.00  0.00     0.029 A 
ATOM     51  C   UNL A   1      42.028  30.458  32.126  1.00  0.00     0.049 A 
ATOM     52  H   UNL A   1      42.402  28.696  31.026  1.00  0.00     0.167 HD
ATOM     53  C   UNL A   1      42.930  25.216  28.668  1.00  0.00     0.037 A 
ATOM     54  C   UNL A   1      43.153  30.653  32.910  1.00  0.00     0.037 A 
ATOM     55  C   UNL A   1      44.073  25.436  29.420  1.00  0.00     0.049 A 
ATOM     56  C   UNL A   1      44.260  29.802  32.902  1.00  0.00     0.074 A 
ATOM     57  C   UNL A   1      45.223  24.625  29.375  1.00  0.00     0.029 A 
ATOM     58  N   UNL A   1      44.303  26.445  30.328  1.00  0.00    -0.354 N 
ATOM     59  N   UNL A   1      44.442  28.715  32.151  1.00  0.00    -0.248 NA
ATOM     60  C   UNL A   1      45.444  29.981  33.754  1.00  0.00     0.031 C 
ATOM     61  C   UNL A   1      46.131  25.133  30.250  1.00  0.00     0.029 A 
ATOM     62  C   UNL A   1      45.562  26.269  30.857  1.00  0.00     0.049 A 
ATOM     63  H   UNL A   1      43.676  27.168  30.559  1.00  0.00     0.167 HD
ATOM     64  C   UNL A   1      45.633  28.172  32.409  1.00  0.00     0.074 A 
ATOM     65  C   UNL A   1      46.293  28.974  33.449  1.00  0.00     0.031 C 
ATOM     66  C   UNL A   1      46.199  27.042  31.816  1.00  0.00     0.037 A 
BRANCH  53  67
ATOM     67  C   UNL A   1      42.905  24.017  27.734  1.00  0.00     0.064 A 
ATOM     68  C   UNL A   1      43.404  24.186  26.454  1.00  0.00     0.173 A 
ATOM     69  C   UNL A   1      42.505  22.827  28.167  1.00  0.00     0.173 A 
ATOM     70  F   UNL A   1      44.044  25.284  26.063  1.00  0.00    -0.203 F 
ATOM     71  C   UNL A   1      43.172  23.083  25.598  1.00  0.00     0.198 A 
ATOM     72  C   UNL A   1      42.432  21.759  27.306  1.00  0.00     0.198 A 
ATOM     73  F   UNL A   1      42.174  22.668  29.445  1.00  0.00    -0.203 F 
ATOM     74  F   UNL A   1      43.283  23.281  24.288  1.00  0.00    -0.200 F 
ATOM     75  C   UNL A   1      42.853  21.869  26.010  1.00  0.00     0.200 A 
ATOM     76  F   UNL A   1      41.944  20.600  27.740  1.00  0.00    -0.200 F 
ATOM     77  F   UNL A   1      42.937  20.812  25.207  1.00  0.00    -0.200 F 
ENDBRANCH  53  67
BRANCH  54  78
ATOM     78  C   UNL A   1      43.184  31.862  33.831  1.00  0.00     0.064 A 
ATOM     79  C   UNL A   1      42.717  31.742  35.130  1.00  0.00     0.173 A 
ATOM     80  C   UNL A   1      43.566  33.036  33.343  1.00  0.00     0.173 A 
ATOM     81  F   UNL A   1      42.566  30.570  35.741  1.00  0.00    -0.203 F 
ATOM     82  C   UNL A   1      42.416  32.979  35.748  1.00  0.00     0.198 A 
ATOM     83  C   UNL A   1      43.364  34.191  34.058  1.00  0.00     0.198 A 
ATOM     84  F   UNL A   1      44.149  33.094  32.148  1.00  0.00    -0.203 F 
ATOM     85  F   UNL A   1      41.640  32.958  36.828  1.00  0.00    -0.200 F 
ATOM     86  C   UNL A   1      42.851  34.152  35.326  1.00  0.00     0.200 A 
ATOM     87  F   UNL A   1      43.672  35.364  33.512  1.00  0.00    -0.200 F 
ATOM     88  F   UNL A   1      42.794  35.238  36.091  1.00  0.00    -0.200 F 
ENDBRANCH  54  78
BRANCH  66  89
ATOM     89  C   UNL A   1      47.598  26.634  32.249  1.00  0.00     0.064 A 
ATOM     90  C   UNL A   1      47.702  25.754  33.313  1.00  0.00     0.173 A 
ATOM     91  C   UNL A   1      48.678  27.148  31.672  1.00  0.00     0.173 A 
ATOM     92  F   UNL A   1      46.681  25.025  33.755  1.00  0.00    -0.203 F 
ATOM     93  C   UNL A   1      48.993  25.702  33.889  1.00  0.00     0.198 A 
ATOM     94  C   UNL A   1      49.924  26.943  32.213  1.00  0.00     0.198 A 
ATOM     95  F   UNL A   1      48.552  27.868  30.560  1.00  0.00    -0.203 F 
ATOM     96  F   UNL A   1      49.107  25.182  35.108  1.00  0.00    -0.200 F 
ATOM     97  C   UNL A   1      50.093  26.134  33.301  1.00  0.00     0.200 A 
ATOM     98  F   UNL A   1      50.981  27.542  31.670  1.00  0.00    -0.200 F 
ATOM     99  F   UNL A   1      51.303  25.799  33.744  1.00  0.00    -0.200 F 
ENDBRANCH  66  89
ENDBRANCH  40  41
ENDBRANCH  33  35
ENDBRANCH  32  33
ENDBRANCH  31  32
ENDBRANCH  30  31
ENDBRANCH  29  30
ENDBRANCH   1  29
TORSDOF 19
ENDMDL
MODEL 2
REMARK VINA RESULT:      -9.6      7.108     14.988
REMARK SMILES O=C(OCCOCCOCCOC(=O)c1ccc(-c2c3nc(c(-c4c(F)c(F)c(F)c(F)c4F)c4ccc([nH]4)c(-c4c(F)c(F)c(F)c(F)c4F)c4nc(c(-c5c(F)c(F)c(F)c(F)c5F)c5ccc2[nH]5)C=C4)C=C3)cc1)C1=Cc2cc(S(F)(F)(F)(F)F)ccc2O[C@H]1C(F)(F)F
REMARK SMILES IDX 8 1 7 2 6 3 5 4 4 5 3 6 2 7 1 8 78 9 79 10 93 11 80 12 92 13
REMARK SMILES IDX 81 14 91 15 82 16 90 17 89 18 94 19 95 20 96 21 97 22 83 23
REMARK SMILES IDX 84 24 85 25 86 26 87 27 88 28 9 29 10 30 11 31 12 32 13 33
REMARK SMILES IDX 14 34 15 35 16 36 77 37 17 38 76 39 18 40 19 41 20 42 70 43
REMARK SMILES IDX 21 44 75 45 69 46 71 47 22 48 74 49 68 50 67 51 23 53 55 54
REMARK SMILES IDX 35 55 54 56 36 57 39 58 53 59 72 60 37 61 38 62 52 64 73 65
REMARK SMILES IDX 40 66 24 67 25 68 33 69 26 70 27 71 31 72 34 73 28 74 29 75
REMARK SMILES IDX 32 76 30 77 56 78 57 79 65 80 58 81 59 82 63 83 66 84 60 85
REMARK SMILES IDX 61 86 64 87 62 88 41 89 42 90 50 91 43 92 44 93 48 94 51 95
REMARK SMILES IDX 45 96 46 97 49 98 47 99
REMARK H PARENT 71 52 39 63
REMARK Flexibility Score: inf
ROOT
ATOM      1  C   UNL A   1      46.004  22.471  39.661  1.00  0.00     0.188 C 
ENDROOT
BRANCH   1   2
ATOM      2  C   UNL A   1      45.259  21.857  40.836  1.00  0.00     0.188 C 
BRANCH   2   3
ATOM      3  O   UNL A   1      45.200  20.448  40.675  1.00  0.00    -0.376 OA
BRANCH   3   4
ATOM      4  C   UNL A   1      45.375  19.820  41.937  1.00  0.00     0.202 C 
BRANCH   4   5
ATOM      5  C   UNL A   1      44.137  19.005  42.274  1.00  0.00     0.261 C 
BRANCH   5   6
ATOM      6  O   UNL A   1      43.738  18.259  41.134  1.00  0.00    -0.460 OA
BRANCH   6   7
ATOM      7  C   UNL A   1      44.142  16.904  40.995  1.00  0.00     0.338 C 
ATOM      8  O   UNL A   1      44.887  16.370  41.874  1.00  0.00    -0.246 OA
BRANCH   7   9
ATOM      9  C   UNL A   1      43.682  16.094  39.794  1.00  0.00     0.087 C 
ATOM     10  C   UNL A   1      44.181  16.367  38.558  1.00  0.00     0.027 C 
ATOM     11  C   UNL A   1      42.665  14.979  39.974  1.00  0.00     0.316 C 
ATOM     12  C   UNL A   1      45.197  17.482  38.378  1.00  0.00     0.019 A 
ATOM     13  O   UNL A   1      46.311  16.807  40.365  1.00  0.00    -0.475 OA
ATOM     14  C   UNL A   1      44.999  18.360  37.324  1.00  0.00     0.036 A 
ATOM     15  C   UNL A   1      46.226  17.623  39.206  1.00  0.00     0.128 A 
ATOM     16  C   UNL A   1      46.111  19.191  37.053  1.00  0.00     0.107 A 
ATOM     17  C   UNL A   1      47.208  18.548  38.952  1.00  0.00     0.048 A 
ATOM     18  C   UNL A   1      47.106  19.409  37.893  1.00  0.00     0.028 A 
BRANCH  11  19
ATOM     19  C   UNL A   1      42.274  14.882  41.440  1.00  0.00     0.430 C 
ATOM     20  F   UNL A   1      43.318  14.508  42.173  1.00  0.00    -0.167 F 
ATOM     21  F   UNL A   1      41.817  16.050  41.881  1.00  0.00    -0.167 F 
ATOM     22  F   UNL A   1      41.314  13.966  41.536  1.00  0.00    -0.167 F 
ENDBRANCH  11  19
BRANCH  16  23
ATOM     23  S   UNL A   1      46.175  20.012  35.441  1.00  0.00     0.310 S 
ATOM     24  F   UNL A   1      44.673  19.620  35.118  1.00  0.00    -0.094 F 
ATOM     25  F   UNL A   1      46.600  18.642  34.790  1.00  0.00    -0.094 F 
ATOM     26  F   UNL A   1      46.225  20.717  34.056  1.00  0.00    -0.094 F 
ATOM     27  F   UNL A   1      45.614  21.339  36.087  1.00  0.00    -0.094 F 
ATOM     28  F   UNL A   1      46.011  19.282  36.833  1.00  0.00    -0.094 F 
ENDBRANCH  16  23
ENDBRANCH   7   9
ENDBRANCH   6   7
ENDBRANCH   5   6
ENDBRANCH   4   5
ENDBRANCH   3   4
ENDBRANCH   2   3
ENDBRANCH   1   2
BRANCH   1  29
ATOM     29  O   UNL A   1      47.399  22.450  39.922  1.00  0.00    -0.376 OA
BRANCH  29  30
ATOM     30  C   UNL A   1      48.062  23.329  39.026  1.00  0.00     0.202 C 
BRANCH  30  31
ATOM     31  C   UNL A   1      47.131  23.676  37.876  1.00  0.00     0.261 C 
BRANCH  31  32
ATOM     32  O   UNL A   1      47.140  25.080  37.667  1.00  0.00    -0.460 OA
BRANCH  32  33
ATOM     33  C   UNL A   1      47.268  25.602  36.353  1.00  0.00     0.338 C 
ATOM     34  O   UNL A   1      48.360  25.461  35.717  1.00  0.00    -0.246 OA
BRANCH  33  35
ATOM     35  C   UNL A   1      46.101  26.328  35.705  1.00  0.00     0.060 A 
ATOM     36  C   UNL A   1      44.863  25.709  35.735  1.00  0.00     0.016 A 
ATOM     37  C   UNL A   1      46.279  27.483  35.074  1.00  0.00     0.016 A 
ATOM     38  C   UNL A   1      43.930  26.247  34.817  1.00  0.00     0.010 A 
ATOM     39  C   UNL A   1      45.277  28.019  34.301  1.00  0.00     0.010 A 
ATOM     40  C   UNL A   1      44.045  27.428  34.237  1.00  0.00    -0.014 A 
BRANCH  40  41
ATOM     41  C   UNL A   1      42.873  28.095  33.539  1.00  0.00     0.031 A 
ATOM     42  C   UNL A   1      42.045  28.984  34.226  1.00  0.00     0.074 A 
ATOM     43  C   UNL A   1      42.734  27.789  32.195  1.00  0.00     0.049 A 
ATOM     44  N   UNL A   1      41.032  29.700  33.732  1.00  0.00    -0.248 NA
ATOM     45  C   UNL A   1      42.168  29.285  35.659  1.00  0.00     0.031 C 
ATOM     46  C   UNL A   1      43.571  26.900  31.493  1.00  0.00     0.029 A 
ATOM     47  N   UNL A   1      41.793  28.269  31.312  1.00  0.00    -0.354 N 
ATOM     48  C   UNL A   1      40.489  30.452  34.692  1.00  0.00     0.074 A 
ATOM     49  C   UNL A   1      41.208  30.191  35.946  1.00  0.00     0.031 C 
ATOM     50  C   UNL A   1      43.133  26.835  30.208  1.00  0.00     0.029 A 
ATOM     51  C   UNL A   1      42.016  27.684  30.085  1.00  0.00     0.049 A 
ATOM     52  H   UNL A   1      41.083  28.918  31.520  1.00  0.00     0.167 HD
ATOM     53  C   UNL A   1      39.424  31.346  34.570  1.00  0.00     0.037 A 
ATOM     54  C   UNL A   1      41.297  27.865  28.915  1.00  0.00     0.037 A 
ATOM     55  C   UNL A   1      38.733  31.560  33.387  1.00  0.00     0.049 A 
ATOM     56  C   UNL A   1      40.195  28.716  28.806  1.00  0.00     0.074 A 
ATOM     57  C   UNL A   1      37.661  32.464  33.245  1.00  0.00     0.029 A 
ATOM     58  N   UNL A   1      38.940  30.957  32.167  1.00  0.00    -0.354 N 
ATOM     59  N   UNL A   1      39.678  29.497  29.755  1.00  0.00    -0.248 NA
ATOM     60  C   UNL A   1      39.406  28.892  27.579  1.00  0.00     0.031 C 
ATOM     61  C   UNL A   1      37.224  32.399  31.960  1.00  0.00     0.029 A 
ATOM     62  C   UNL A   1      38.014  31.453  31.278  1.00  0.00     0.049 A 
ATOM     63  H   UNL A   1      39.632  30.286  31.966  1.00  0.00     0.167 HD
ATOM     64  C   UNL A   1      38.638  30.181  29.271  1.00  0.00     0.074 A 
ATOM     65  C   UNL A   1      38.444  29.797  27.866  1.00  0.00     0.031 C 
ATOM     66  C   UNL A   1      37.848  31.115  29.944  1.00  0.00     0.037 A 
BRANCH  53  67
ATOM     67  C   UNL A   1      38.999  32.129  35.801  1.00  0.00     0.064 A 
ATOM     68  C   UNL A   1      38.194  31.488  36.727  1.00  0.00     0.173 A 
ATOM     69  C   UNL A   1      39.466  33.352  36.023  1.00  0.00     0.173 A 
ATOM     70  F   UNL A   1      37.915  30.189  36.671  1.00  0.00    -0.203 F 
ATOM     71  C   UNL A   1      37.695  32.341  37.740  1.00  0.00     0.198 A 
ATOM     72  C   UNL A   1      39.037  34.078  37.108  1.00  0.00     0.198 A 
ATOM     73  F   UNL A   1      40.355  33.880  35.188  1.00  0.00    -0.203 F 
ATOM     74  F   UNL A   1      36.650  31.918  38.447  1.00  0.00    -0.200 F 
ATOM     75  C   UNL A   1      38.193  33.528  38.033  1.00  0.00     0.200 A 
ATOM     76  F   UNL A   1      39.447  35.334  37.261  1.00  0.00    -0.200 F 
ATOM     77  F   UNL A   1      37.891  34.155  39.167  1.00  0.00    -0.200 F 
ENDBRANCH  53  67
BRANCH  54  78
ATOM     78  C   UNL A   1      41.733  27.094  27.678  1.00  0.00     0.064 A 
ATOM     79  C   UNL A   1      41.279  25.800  27.488  1.00  0.00     0.173 A 
ATOM     80  C   UNL A   1      42.619  27.642  26.855  1.00  0.00     0.173 A 
ATOM     81  F   UNL A   1      40.220  25.301  28.120  1.00  0.00    -0.203 F 
ATOM     82  C   UNL A   1      42.044  25.056  26.558  1.00  0.00     0.198 A 
ATOM     83  C   UNL A   1      43.228  26.889  25.882  1.00  0.00     0.198 A 
ATOM     84  F   UNL A   1      42.920  28.932  26.976  1.00  0.00    -0.203 F 
ATOM     85  F   UNL A   1      41.920  23.731  26.575  1.00  0.00    -0.200 F 
ATOM     86  C   UNL A   1      42.872  25.584  25.676  1.00  0.00     0.200 A 
ATOM     87  F   UNL A   1      44.179  27.435  25.128  1.00  0.00    -0.200 F 
ATOM     88  F   UNL A   1      43.335  24.887  24.643  1.00  0.00    -0.200 F 
ENDBRANCH  54  78
BRANCH  66  89
ATOM     89  C   UNL A   1      36.736  31.801  29.166  1.00  0.00     0.064 A 
ATOM     90  C   UNL A   1      36.901  33.144  28.873  1.00  0.00     0.173 A 
ATOM     91  C   UNL A   1      35.624  31.155  28.837  1.00  0.00     0.173 A 
ATOM     92  F   UNL A   1      38.074  33.765  28.951  1.00  0.00    -0.203 F 
ATOM     93  C   UNL A   1      35.707  33.797  28.484  1.00  0.00     0.198 A 
ATOM     94  C   UNL A   1      34.542  31.838  28.334  1.00  0.00     0.198 A 
ATOM     95  F   UNL A   1      35.556  29.836  28.995  1.00  0.00    -0.203 F 
ATOM     96  F   UNL A   1      35.683  35.125  28.534  1.00  0.00    -0.200 F 
ATOM     97  C   UNL A   1      34.615  33.178  28.076  1.00  0.00     0.200 A 
ATOM     98  F   UNL A   1      33.408  31.184  28.096  1.00  0.00    -0.200 F 
ATOM     99  F   UNL A   1      33.636  33.824  27.447  1.00  0.00    -0.200 F 
ENDBRANCH  66  89
ENDBRANCH  40  41
ENDBRANCH  33  35
ENDBRANCH  32  33
ENDBRANCH  31  32
ENDBRANCH  30  31
ENDBRANCH  29  30
ENDBRANCH   1  29
TORSDOF 19
ENDMDL
MODEL 3
REMARK VINA RESULT:      -9.6      1.605      3.417
REMARK SMILES O=C(OCCOCCOCCOC(=O)c1ccc(-c2c3nc(c(-c4c(F)c(F)c(F)c(F)c4F)c4ccc([nH]4)c(-c4c(F)c(F)c(F)c(F)c4F)c4nc(c(-c5c(F)c(F)c(F)c(F)c5F)c5ccc2[nH]5)C=C4)C=C3)cc1)C1=Cc2cc(S(F)(F)(F)(F)F)ccc2O[C@H]1C(F)(F)F
REMARK SMILES IDX 8 1 7 2 6 3 5 4 4 5 3 6 2 7 1 8 78 9 79 10 93 11 80 12 92 13
REMARK SMILES IDX 81 14 91 15 82 16 90 17 89 18 94 19 95 20 96 21 97 22 83 23
REMARK SMILES IDX 84 24 85 25 86 26 87 27 88 28 9 29 10 30 11 31 12 32 13 33
REMARK SMILES IDX 14 34 15 35 16 36 77 37 17 38 76 39 18 40 19 41 20 42 70 43
REMARK SMILES IDX 21 44 75 45 69 46 71 47 22 48 74 49 68 50 67 51 23 53 55 54
REMARK SMILES IDX 35 55 54 56 36 57 39 58 53 59 72 60 37 61 38 62 52 64 73 65
REMARK SMILES IDX 40 66 24 67 25 68 33 69 26 70 27 71 31 72 34 73 28 74 29 75
REMARK SMILES IDX 32 76 30 77 56 78 57 79 65 80 58 81 59 82 63 83 66 84 60 85
REMARK SMILES IDX 61 86 64 87 62 88 41 89 42 90 50 91 43 92 44 93 48 94 51 95
REMARK SMILES IDX 45 96 46 97 49 98 47 99
REMARK H PARENT 71 52 39 63
REMARK Flexibility Score: inf
ROOT
ATOM      1  C   UNL A   1      33.538  34.796  30.059  1.00  0.00     0.188 C 
ENDROOT
BRANCH   1   2
ATOM      2  C   UNL A   1      33.137  35.177  31.475  1.00  0.00     0.188 C 
BRANCH   2   3
ATOM      3  O   UNL A   1      34.203  34.881  32.365  1.00  0.00    -0.376 OA
BRANCH   3   4
ATOM      4  C   UNL A   1      33.900  33.699  33.090  1.00  0.00     0.202 C 
BRANCH   4   5
ATOM      5  C   UNL A   1      35.171  32.892  33.299  1.00  0.00     0.261 C 
BRANCH   5   6
ATOM      6  O   UNL A   1      36.224  33.761  33.688  1.00  0.00    -0.460 OA
BRANCH   6   7
ATOM      7  C   UNL A   1      37.547  33.261  33.819  1.00  0.00     0.338 C 
ATOM      8  O   UNL A   1      37.835  32.105  33.376  1.00  0.00    -0.246 OA
BRANCH   7   9
ATOM      9  C   UNL A   1      38.617  34.106  34.490  1.00  0.00     0.087 C 
ATOM     10  C   UNL A   1      39.578  34.708  33.739  1.00  0.00     0.027 C 
ATOM     11  C   UNL A   1      38.613  34.280  36.000  1.00  0.00     0.316 C 
ATOM     12  C   UNL A   1      39.583  34.533  32.229  1.00  0.00     0.019 A 
ATOM     13  O   UNL A   1      37.220  34.782  32.179  1.00  0.00    -0.475 OA
ATOM     14  C   UNL A   1      40.795  34.241  31.626  1.00  0.00     0.036 A 
ATOM     15  C   UNL A   1      38.468  34.640  31.516  1.00  0.00     0.128 A 
ATOM     16  C   UNL A   1      40.779  34.363  30.217  1.00  0.00     0.107 A 
ATOM     17  C   UNL A   1      38.509  34.617  30.143  1.00  0.00     0.048 A 
ATOM     18  C   UNL A   1      39.684  34.391  29.480  1.00  0.00     0.028 A 
BRANCH  11  19
ATOM     19  C   UNL A   1      37.443  33.512  36.595  1.00  0.00     0.430 C 
ATOM     20  F   UNL A   1      36.291  34.036  36.187  1.00  0.00    -0.167 F 
ATOM     21  F   UNL A   1      37.496  32.230  36.243  1.00  0.00    -0.167 F 
ATOM     22  F   UNL A   1      37.532  33.613  37.918  1.00  0.00    -0.167 F 
ENDBRANCH  11  19
BRANCH  16  23
ATOM     23  S   UNL A   1      42.371  34.493  29.365  1.00  0.00     0.310 S 
ATOM     24  F   UNL A   1      43.141  34.770  30.724  1.00  0.00    -0.094 F 
ATOM     25  F   UNL A   1      42.153  36.049  29.250  1.00  0.00    -0.094 F 
ATOM     26  F   UNL A   1      43.741  34.603  28.637  1.00  0.00    -0.094 F 
ATOM     27  F   UNL A   1      42.636  32.956  29.613  1.00  0.00    -0.094 F 
ATOM     28  F   UNL A   1      41.036  34.383  30.204  1.00  0.00    -0.094 F 
ENDBRANCH  16  23
ENDBRANCH   7   9
ENDBRANCH   6   7
ENDBRANCH   5   6
ENDBRANCH   4   5
ENDBRANCH   3   4
ENDBRANCH   2   3
ENDBRANCH   1   2
BRANCH   1  29
ATOM     29  O   UNL A   1      34.916  34.458  30.032  1.00  0.00    -0.376 OA
BRANCH  29  30
ATOM     30  C   UNL A   1      35.250  33.930  28.757  1.00  0.00     0.202 C 
BRANCH  30  31
ATOM     31  C   UNL A   1      34.113  33.055  28.258  1.00  0.00     0.261 C 
BRANCH  31  32
ATOM     32  O   UNL A   1      34.622  32.084  27.356  1.00  0.00    -0.460 OA
BRANCH  32  33
ATOM     33  C   UNL A   1      34.784  30.738  27.778  1.00  0.00     0.338 C 
ATOM     34  O   UNL A   1      33.807  29.928  27.704  1.00  0.00    -0.246 OA
BRANCH  33  35
ATOM     35  C   UNL A   1      36.123  30.265  28.318  1.00  0.00     0.060 A 
ATOM     36  C   UNL A   1      37.246  30.495  27.541  1.00  0.00     0.016 A 
ATOM     37  C   UNL A   1      36.202  29.595  29.462  1.00  0.00     0.016 A 
ATOM     38  C   UNL A   1      38.371  29.722  27.916  1.00  0.00     0.010 A 
ATOM     39  C   UNL A   1      37.372  28.977  29.831  1.00  0.00     0.010 A 
ATOM     40  C   UNL A   1      38.507  29.112  29.080  1.00  0.00    -0.014 A 
BRANCH  40  41
ATOM     41  C   UNL A   1      39.851  28.590  29.558  1.00  0.00     0.031 A 
ATOM     42  C   UNL A   1      40.396  27.424  29.019  1.00  0.00     0.074 A 
ATOM     43  C   UNL A   1      40.486  29.374  30.507  1.00  0.00     0.049 A 
ATOM     44  N   UNL A   1      41.590  26.888  29.279  1.00  0.00    -0.248 NA
ATOM     45  C   UNL A   1      39.711  26.572  28.036  1.00  0.00     0.031 C 
ATOM     46  C   UNL A   1      39.946  30.557  31.050  1.00  0.00     0.029 A 
ATOM     47  N   UNL A   1      41.716  29.166  31.089  1.00  0.00    -0.354 N 
ATOM     48  C   UNL A   1      41.765  25.780  28.554  1.00  0.00     0.074 A 
ATOM     49  C   UNL A   1      40.556  25.558  27.750  1.00  0.00     0.031 C 
ATOM     50  C   UNL A   1      40.833  31.048  31.955  1.00  0.00     0.029 A 
ATOM     51  C   UNL A   1      41.942  30.182  31.992  1.00  0.00     0.049 A 
ATOM     52  H   UNL A   1      42.329  28.421  30.895  1.00  0.00     0.167 HD
ATOM     53  C   UNL A   1      42.886  24.948  28.533  1.00  0.00     0.037 A 
ATOM     54  C   UNL A   1      43.046  30.359  32.811  1.00  0.00     0.037 A 
ATOM     55  C   UNL A   1      44.008  25.150  29.321  1.00  0.00     0.049 A 
ATOM     56  C   UNL A   1      44.142  29.495  32.832  1.00  0.00     0.074 A 
ATOM     57  C   UNL A   1      45.149  24.325  29.306  1.00  0.00     0.029 A 
ATOM     58  N   UNL A   1      44.223  26.152  30.241  1.00  0.00    -0.354 N 
ATOM     59  N   UNL A   1      44.334  28.410  32.080  1.00  0.00    -0.248 NA
ATOM     60  C   UNL A   1      45.302  29.654  33.719  1.00  0.00     0.031 C 
ATOM     61  C   UNL A   1      46.037  24.817  30.211  1.00  0.00     0.029 A 
ATOM     62  C   UNL A   1      45.464  25.957  30.807  1.00  0.00     0.049 A 
ATOM     63  H   UNL A   1      43.598  26.881  30.457  1.00  0.00     0.167 HD
ATOM     64  C   UNL A   1      45.510  27.850  32.371  1.00  0.00     0.074 A 
ATOM     65  C   UNL A   1      46.148  28.639  33.435  1.00  0.00     0.031 C 
ATOM     66  C   UNL A   1      46.080  26.717  31.788  1.00  0.00     0.037 A 
BRANCH  53  67
ATOM     67  C   UNL A   1      42.875  23.754  27.592  1.00  0.00     0.064 A 
ATOM     68  C   UNL A   1      43.409  23.925  26.326  1.00  0.00     0.173 A 
ATOM     69  C   UNL A   1      42.454  22.566  28.008  1.00  0.00     0.173 A 
ATOM     70  F   UNL A   1      44.068  25.021  25.958  1.00  0.00    -0.203 F 
ATOM     71  C   UNL A   1      43.189  22.829  25.459  1.00  0.00     0.198 A 
ATOM     72  C   UNL A   1      42.393  21.503  27.140  1.00  0.00     0.198 A 
ATOM     73  F   UNL A   1      42.088  22.402  29.275  1.00  0.00    -0.203 F 
ATOM     74  F   UNL A   1      43.336  23.034  24.153  1.00  0.00    -0.200 F 
ATOM     75  C   UNL A   1      42.849  21.616  25.855  1.00  0.00     0.200 A 
ATOM     76  F   UNL A   1      41.885  20.346  27.553  1.00  0.00    -0.200 F 
ATOM     77  F   UNL A   1      42.945  20.562  25.049  1.00  0.00    -0.200 F 
ENDBRANCH  53  67
BRANCH  54  78
ATOM     78  C   UNL A   1      43.063  31.562  33.740  1.00  0.00     0.064 A 
ATOM     79  C   UNL A   1      42.442  31.479  34.975  1.00  0.00     0.173 A 
ATOM     80  C   UNL A   1      43.588  32.703  33.308  1.00  0.00     0.173 A 
ATOM     81  F   UNL A   1      42.132  30.323  35.556  1.00  0.00    -0.203 F 
ATOM     82  C   UNL A   1      42.168  32.736  35.565  1.00  0.00     0.198 A 
ATOM     83  C   UNL A   1      43.395  33.870  34.005  1.00  0.00     0.198 A 
ATOM     84  F   UNL A   1      44.307  32.715  32.189  1.00  0.00    -0.203 F 
ATOM     85  F   UNL A   1      41.274  32.776  36.548  1.00  0.00    -0.200 F 
ATOM     86  C   UNL A   1      42.738  33.872  35.205  1.00  0.00     0.200 A 
ATOM     87  F   UNL A   1      43.852  35.016  33.507  1.00  0.00    -0.200 F 
ATOM     88  F   UNL A   1      42.676  34.960  35.968  1.00  0.00    -0.200 F 
ENDBRANCH  54  78
BRANCH  66  89
ATOM     89  C   UNL A   1      47.461  26.290  32.261  1.00  0.00     0.064 A 
ATOM     90  C   UNL A   1      48.552  26.796  31.575  1.00  0.00     0.173 A 
ATOM     91  C   UNL A   1      47.613  25.417  33.250  1.00  0.00     0.173 A 
ATOM     92  F   UNL A   1      48.475  27.845  30.762  1.00  0.00    -0.203 F 
ATOM     93  C   UNL A   1      49.757  26.094  31.817  1.00  0.00     0.198 A 
ATOM     94  C   UNL A   1      48.846  24.873  33.519  1.00  0.00     0.198 A 
ATOM     95  F   UNL A   1      46.562  25.066  33.986  1.00  0.00    -0.203 F 
ATOM     96  F   UNL A   1      50.755  26.263  30.955  1.00  0.00    -0.200 F 
ATOM     97  C   UNL A   1      49.958  25.283  32.839  1.00  0.00     0.200 A 
ATOM     98  F   UNL A   1      48.958  23.934  34.454  1.00  0.00    -0.200 F 
ATOM     99  F   UNL A   1      51.179  24.886  33.188  1.00  0.00    -0.200 F 
ENDBRANCH  66  89
ENDBRANCH  40  41
ENDBRANCH  33  35
ENDBRANCH  32  33
ENDBRANCH  31  32
ENDBRANCH  30  31
ENDBRANCH  29  30
ENDBRANCH   1  29
TORSDOF 19
ENDMDL
