MODEL 1
REMARK VINA RESULT:     -10.3      0.000      0.000
REMARK SMILES CCc1nn(C)c(N[C@@](C)(CC)C(=O)OCCOCCOCCOC(=O)c2ccc(-c3c4nc(c(-c5c(F)c(F)c(F)c(F)c5F)c5ccc([nH]5)c(-c5c(F)c(F)c(F)c(F)c5F)c5nc(c(-c6c(F)c(F)c(F)c(F)c6F)c6ccc3[nH]6)C=C5)C=C4)cc2)c1[N+](=O)[O-]
REMARK SMILES IDX 19 1 18 2 17 3 16 4 15 5 13 6 14 7 9 8 10 9 8 10 7 12 3 13
REMARK SMILES IDX 4 14 90 15 5 16 6 17 2 18 1 19 91 20 92 21 93 22 11 23 12 24
REMARK SMILES IDX 20 25 21 26 22 27 23 28 24 29 25 30 26 31 27 32 28 33 89 34
REMARK SMILES IDX 29 35 88 36 30 37 31 38 32 39 82 40 33 41 87 42 81 43 83 44
REMARK SMILES IDX 34 45 86 46 80 47 79 48 35 50 67 51 47 52 66 53 48 54 51 55
REMARK SMILES IDX 65 56 84 57 49 58 50 59 64 61 85 62 52 63 36 64 37 65 45 66
REMARK SMILES IDX 38 67 39 68 43 69 46 70 40 71 41 72 44 73 42 74 68 75 69 76
REMARK SMILES IDX 77 77 70 78 71 79 75 80 78 81 72 82 73 83 76 84 74 85 53 86
REMARK SMILES IDX 54 87 62 88 55 89 56 90 60 91 63 92 57 93 58 94 61 95 59 96
REMARK H PARENT 8 11 83 49 51 60
REMARK Flexibility Score: inf
ROOT
ATOM      1  C   UNL A   1      40.211  20.876  26.691  1.00  0.00     0.188 C 
ENDROOT
BRANCH   1   2
ATOM      2  O   UNL A   1      39.526  21.937  26.047  1.00  0.00    -0.376 OA
BRANCH   2   3
ATOM      3  C   UNL A   1      38.321  21.613  25.369  1.00  0.00     0.202 C 
BRANCH   3   4
ATOM      4  C   UNL A   1      37.416  22.781  24.955  1.00  0.00     0.261 C 
BRANCH   4   5
ATOM      5  O   UNL A   1      36.027  22.391  24.908  1.00  0.00    -0.462 OA
BRANCH   5   6
ATOM      6  C   UNL A   1      35.247  22.973  23.963  1.00  0.00     0.331 C 
ATOM      7  O   UNL A   1      35.592  23.078  22.790  1.00  0.00    -0.249 OA
BRANCH   6   8
ATOM      8  C   UNL A   1      33.941  23.591  24.546  1.00  0.00     0.134 C 
ATOM      9  C   UNL A   1      34.331  24.225  25.904  1.00  0.00     0.047 C 
BRANCH   8  10
ATOM     10  N   UNL A   1      33.248  24.679  23.816  1.00  0.00    -0.349 N 
ATOM     11  H   UNL A   1      33.184  24.510  22.848  1.00  0.00     0.163 HD
BRANCH  10  12
ATOM     12  C   UNL A   1      32.679  25.865  24.188  1.00  0.00     0.205 A 
ATOM     13  C   UNL A   1      32.025  27.781  25.164  1.00  0.00     0.142 A 
ATOM     14  N   UNL A   1      32.762  28.148  24.118  1.00  0.00    -0.169 NA
ATOM     15  C   UNL A   1      31.778  26.382  25.119  1.00  0.00     0.334 A 
ATOM     16  N   UNL A   1      33.015  27.006  23.468  1.00  0.00    -0.246 N 
ATOM     17  C   UNL A   1      33.532  27.117  22.120  1.00  0.00     0.176 C 
BRANCH  13  18
ATOM     18  C   UNL A   1      31.591  28.841  26.130  1.00  0.00     0.062 C 
ATOM     19  C   UNL A   1      31.490  30.214  25.471  1.00  0.00     0.011 C 
ENDBRANCH  13  18
BRANCH  15  20
ATOM     20  N   UNL A   1      30.806  25.706  25.906  1.00  0.00     0.068 N 
ATOM     21  O   UNL A   1      29.633  25.755  25.518  1.00  0.00    -0.258 OA
ATOM     22  O   UNL A   1      31.224  25.054  26.868  1.00  0.00    -0.258 OA
ENDBRANCH  15  20
ENDBRANCH  10  12
ENDBRANCH   8  10
BRANCH   8  23
ATOM     23  C   UNL A   1      32.921  22.423  24.879  1.00  0.00     0.037 C 
ATOM     24  C   UNL A   1      32.267  21.597  23.758  1.00  0.00     0.007 C 
ENDBRANCH   8  23
ENDBRANCH   6   8
ENDBRANCH   5   6
ENDBRANCH   4   5
ENDBRANCH   3   4
ENDBRANCH   2   3
ENDBRANCH   1   2
BRANCH   1  25
ATOM     25  C   UNL A   1      41.260  21.359  27.698  1.00  0.00     0.188 C 
BRANCH  25  26
ATOM     26  O   UNL A   1      42.602  21.591  27.295  1.00  0.00    -0.376 OA
BRANCH  26  27
ATOM     27  C   UNL A   1      43.003  21.166  26.006  1.00  0.00     0.202 C 
BRANCH  27  28
ATOM     28  C   UNL A   1      43.754  22.166  25.112  1.00  0.00     0.261 C 
BRANCH  28  29
ATOM     29  O   UNL A   1      43.051  23.381  24.793  1.00  0.00    -0.460 OA
BRANCH  29  30
ATOM     30  C   UNL A   1      43.731  24.523  25.054  1.00  0.00     0.338 C 
ATOM     31  O   UNL A   1      44.781  24.889  24.539  1.00  0.00    -0.246 OA
BRANCH  30  32
ATOM     32  C   UNL A   1      42.960  25.395  25.967  1.00  0.00     0.060 A 
ATOM     33  C   UNL A   1      43.438  26.692  26.199  1.00  0.00     0.016 A 
ATOM     34  C   UNL A   1      41.847  24.926  26.668  1.00  0.00     0.016 A 
ATOM     35  C   UNL A   1      42.837  27.505  27.160  1.00  0.00     0.010 A 
ATOM     36  C   UNL A   1      41.259  25.735  27.653  1.00  0.00     0.010 A 
ATOM     37  C   UNL A   1      41.774  27.014  27.930  1.00  0.00    -0.014 A 
BRANCH  37  38
ATOM     38  C   UNL A   1      41.342  27.781  29.131  1.00  0.00     0.031 A 
ATOM     39  C   UNL A   1      42.162  27.692  30.382  1.00  0.00     0.074 A 
ATOM     40  C   UNL A   1      40.280  28.604  29.098  1.00  0.00     0.049 A 
ATOM     41  N   UNL A   1      41.975  28.279  31.537  1.00  0.00    -0.248 NA
ATOM     42  C   UNL A   1      43.340  26.813  30.331  1.00  0.00     0.031 C 
ATOM     43  C   UNL A   1      39.413  28.764  27.945  1.00  0.00     0.029 A 
ATOM     44  N   UNL A   1      39.754  29.463  30.031  1.00  0.00    -0.354 N 
ATOM     45  C   UNL A   1      42.990  27.817  32.359  1.00  0.00     0.074 A 
ATOM     46  C   UNL A   1      43.789  26.899  31.574  1.00  0.00     0.031 C 
ATOM     47  C   UNL A   1      38.498  29.713  28.201  1.00  0.00     0.029 A 
ATOM     48  C   UNL A   1      38.665  30.170  29.577  1.00  0.00     0.049 A 
ATOM     49  H   UNL A   1      40.123  29.562  30.939  1.00  0.00     0.167 HD
ATOM     50  C   UNL A   1      43.224  28.124  33.656  1.00  0.00     0.037 A 
ATOM     51  C   UNL A   1      37.875  31.061  30.209  1.00  0.00     0.037 A 
ATOM     52  C   UNL A   1      42.423  29.035  34.433  1.00  0.00     0.049 A 
ATOM     53  C   UNL A   1      38.149  31.369  31.659  1.00  0.00     0.074 A 
ATOM     54  C   UNL A   1      42.580  29.406  35.756  1.00  0.00     0.029 A 
ATOM     55  N   UNL A   1      41.309  29.713  33.958  1.00  0.00    -0.354 N 
ATOM     56  N   UNL A   1      39.113  30.926  32.431  1.00  0.00    -0.248 NA
ATOM     57  C   UNL A   1      37.212  32.278  32.334  1.00  0.00     0.031 C 
ATOM     58  C   UNL A   1      41.533  30.269  36.097  1.00  0.00     0.029 A 
ATOM     59  C   UNL A   1      40.758  30.485  34.969  1.00  0.00     0.049 A 
ATOM     60  H   UNL A   1      40.961  29.653  33.039  1.00  0.00     0.167 HD
ATOM     61  C   UNL A   1      38.903  31.507  33.675  1.00  0.00     0.074 A 
ATOM     62  C   UNL A   1      37.743  32.362  33.545  1.00  0.00     0.031 C 
ATOM     63  C   UNL A   1      39.602  31.335  34.824  1.00  0.00     0.037 A 
BRANCH  50  64
ATOM     64  C   UNL A   1      44.366  27.424  34.329  1.00  0.00     0.064 A 
ATOM     65  C   UNL A   1      45.652  27.982  34.381  1.00  0.00     0.173 A 
ATOM     66  C   UNL A   1      44.166  26.177  34.941  1.00  0.00     0.173 A 
ATOM     67  F   UNL A   1      45.900  29.162  33.792  1.00  0.00    -0.203 F 
ATOM     68  C   UNL A   1      46.701  27.305  34.999  1.00  0.00     0.198 A 
ATOM     69  C   UNL A   1      45.208  25.519  35.585  1.00  0.00     0.198 A 
ATOM     70  F   UNL A   1      42.955  25.599  34.917  1.00  0.00    -0.203 F 
ATOM     71  F   UNL A   1      47.932  27.833  34.991  1.00  0.00    -0.200 F 
ATOM     72  C   UNL A   1      46.477  26.079  35.606  1.00  0.00     0.200 A 
ATOM     73  F   UNL A   1      44.988  24.337  36.178  1.00  0.00    -0.200 F 
ATOM     74  F   UNL A   1      47.485  25.432  36.204  1.00  0.00    -0.200 F 
ENDBRANCH  50  64
BRANCH  51  75
ATOM     75  C   UNL A   1      36.732  31.703  29.501  1.00  0.00     0.064 A 
ATOM     76  C   UNL A   1      35.618  30.953  29.095  1.00  0.00     0.173 A 
ATOM     77  C   UNL A   1      36.744  33.068  29.177  1.00  0.00     0.173 A 
ATOM     78  F   UNL A   1      35.567  29.637  29.352  1.00  0.00    -0.203 F 
ATOM     79  C   UNL A   1      34.575  31.537  28.376  1.00  0.00     0.198 A 
ATOM     80  C   UNL A   1      35.684  33.660  28.493  1.00  0.00     0.198 A 
ATOM     81  F   UNL A   1      37.788  33.834  29.530  1.00  0.00    -0.203 F 
ATOM     82  F   UNL A   1      33.553  30.782  27.949  1.00  0.00    -0.200 F 
ATOM     83  C   UNL A   1      34.606  32.892  28.082  1.00  0.00     0.200 A 
ATOM     84  F   UNL A   1      35.713  34.971  28.221  1.00  0.00    -0.200 F 
ATOM     85  F   UNL A   1      33.604  33.453  27.393  1.00  0.00    -0.200 F 
ENDBRANCH  51  75
BRANCH  63  86
ATOM     86  C   UNL A   1      39.146  32.114  36.025  1.00  0.00     0.064 A 
ATOM     87  C   UNL A   1      38.263  31.566  36.968  1.00  0.00     0.173 A 
ATOM     88  C   UNL A   1      39.617  33.416  36.247  1.00  0.00     0.173 A 
ATOM     89  F   UNL A   1      37.770  30.331  36.795  1.00  0.00    -0.203 F 
ATOM     90  C   UNL A   1      37.842  32.307  38.070  1.00  0.00     0.198 A 
ATOM     91  C   UNL A   1      39.222  34.141  37.367  1.00  0.00     0.198 A 
ATOM     92  F   UNL A   1      40.469  33.984  35.381  1.00  0.00    -0.203 F 
ATOM     93  F   UNL A   1      36.952  31.786  38.926  1.00  0.00    -0.200 F 
ATOM     94  C   UNL A   1      38.328  33.591  38.272  1.00  0.00     0.200 A 
ATOM     95  F   UNL A   1      39.703  35.376  37.569  1.00  0.00    -0.200 F 
ATOM     96  F   UNL A   1      37.924  34.302  39.334  1.00  0.00    -0.200 F 
ENDBRANCH  63  86
ENDBRANCH  37  38
ENDBRANCH  30  32
ENDBRANCH  29  30
ENDBRANCH  28  29
ENDBRANCH  27  28
ENDBRANCH  26  27
ENDBRANCH  25  26
ENDBRANCH   1  25
TORSDOF 22
ENDMDL
MODEL 2
REMARK VINA RESULT:      -9.9      1.168      2.134
REMARK SMILES CCc1nn(C)c(N[C@@](C)(CC)C(=O)OCCOCCOCCOC(=O)c2ccc(-c3c4nc(c(-c5c(F)c(F)c(F)c(F)c5F)c5ccc([nH]5)c(-c5c(F)c(F)c(F)c(F)c5F)c5nc(c(-c6c(F)c(F)c(F)c(F)c6F)c6ccc3[nH]6)C=C5)C=C4)cc2)c1[N+](=O)[O-]
REMARK SMILES IDX 19 1 18 2 17 3 16 4 15 5 13 6 14 7 9 8 10 9 8 10 7 12 3 13
REMARK SMILES IDX 4 14 90 15 5 16 6 17 2 18 1 19 91 20 92 21 93 22 11 23 12 24
REMARK SMILES IDX 20 25 21 26 22 27 23 28 24 29 25 30 26 31 27 32 28 33 89 34
REMARK SMILES IDX 29 35 88 36 30 37 31 38 32 39 82 40 33 41 87 42 81 43 83 44
REMARK SMILES IDX 34 45 86 46 80 47 79 48 35 50 67 51 47 52 66 53 48 54 51 55
REMARK SMILES IDX 65 56 84 57 49 58 50 59 64 61 85 62 52 63 36 64 37 65 45 66
REMARK SMILES IDX 38 67 39 68 43 69 46 70 40 71 41 72 44 73 42 74 68 75 69 76
REMARK SMILES IDX 77 77 70 78 71 79 75 80 78 81 72 82 73 83 76 84 74 85 53 86
REMARK SMILES IDX 54 87 62 88 55 89 56 90 60 91 63 92 57 93 58 94 61 95 59 96
REMARK H PARENT 8 11 83 49 51 60
REMARK Flexibility Score: inf
ROOT
ATOM      1  C   UNL A   1      40.240  21.349  26.945  1.00  0.00     0.188 C 
ENDROOT
BRANCH   1   2
ATOM      2  O   UNL A   1      39.477  22.368  26.320  1.00  0.00    -0.376 OA
BRANCH   2   3
ATOM      3  C   UNL A   1      38.304  21.965  25.627  1.00  0.00     0.202 C 
BRANCH   3   4
ATOM      4  C   UNL A   1      37.324  23.070  25.211  1.00  0.00     0.261 C 
BRANCH   4   5
ATOM      5  O   UNL A   1      35.958  22.602  25.214  1.00  0.00    -0.462 OA
BRANCH   5   6
ATOM      6  C   UNL A   1      35.081  23.232  24.393  1.00  0.00     0.331 C 
ATOM      7  O   UNL A   1      35.369  23.569  23.249  1.00  0.00    -0.249 OA
BRANCH   6   8
ATOM      8  C   UNL A   1      33.733  23.580  25.091  1.00  0.00     0.134 C 
ATOM      9  C   UNL A   1      34.037  24.749  26.061  1.00  0.00     0.047 C 
BRANCH   8  10
ATOM     10  N   UNL A   1      32.585  24.057  24.285  1.00  0.00    -0.349 N 
ATOM     11  H   UNL A   1      32.093  23.325  23.847  1.00  0.00     0.163 HD
BRANCH  10  12
ATOM     12  C   UNL A   1      32.057  25.289  24.014  1.00  0.00     0.205 A 
ATOM     13  C   UNL A   1      31.067  27.120  23.166  1.00  0.00     0.142 A 
ATOM     14  N   UNL A   1      30.233  26.664  24.098  1.00  0.00    -0.169 NA
ATOM     15  C   UNL A   1      32.301  26.416  23.230  1.00  0.00     0.334 A 
ATOM     16  N   UNL A   1      30.903  25.669  24.691  1.00  0.00    -0.246 N 
ATOM     17  C   UNL A   1      30.380  25.183  25.950  1.00  0.00     0.176 C 
BRANCH  13  18
ATOM     18  C   UNL A   1      30.600  28.239  22.286  1.00  0.00     0.062 C 
ATOM     19  C   UNL A   1      29.399  28.973  22.875  1.00  0.00     0.011 C 
ENDBRANCH  13  18
BRANCH  15  20
ATOM     20  N   UNL A   1      33.500  26.824  22.585  1.00  0.00     0.068 N 
ATOM     21  O   UNL A   1      33.848  26.185  21.586  1.00  0.00    -0.258 OA
ATOM     22  O   UNL A   1      34.052  27.837  23.026  1.00  0.00    -0.258 OA
ENDBRANCH  15  20
ENDBRANCH  10  12
ENDBRANCH   8  10
BRANCH   8  23
ATOM     23  C   UNL A   1      33.290  22.356  25.998  1.00  0.00     0.037 C 
ATOM     24  C   UNL A   1      33.675  22.290  27.486  1.00  0.00     0.007 C 
ENDBRANCH   8  23
ENDBRANCH   6   8
ENDBRANCH   5   6
ENDBRANCH   4   5
ENDBRANCH   3   4
ENDBRANCH   2   3
ENDBRANCH   1   2
BRANCH   1  25
ATOM     25  C   UNL A   1      41.295  21.895  27.913  1.00  0.00     0.188 C 
BRANCH  25  26
ATOM     26  O   UNL A   1      42.585  22.264  27.450  1.00  0.00    -0.376 OA
BRANCH  26  27
ATOM     27  C   UNL A   1      43.065  21.682  26.252  1.00  0.00     0.202 C 
BRANCH  27  28
ATOM     28  C   UNL A   1      44.093  22.469  25.423  1.00  0.00     0.261 C 
BRANCH  28  29
ATOM     29  O   UNL A   1      43.596  23.635  24.741  1.00  0.00    -0.460 OA
BRANCH  29  30
ATOM     30  C   UNL A   1      44.264  24.783  25.006  1.00  0.00     0.338 C 
ATOM     31  O   UNL A   1      45.326  25.147  24.516  1.00  0.00    -0.246 OA
BRANCH  30  32
ATOM     32  C   UNL A   1      43.464  25.663  25.887  1.00  0.00     0.060 A 
ATOM     33  C   UNL A   1      44.036  26.874  26.303  1.00  0.00     0.016 A 
ATOM     34  C   UNL A   1      42.220  25.271  26.385  1.00  0.00     0.016 A 
ATOM     35  C   UNL A   1      43.389  27.671  27.247  1.00  0.00     0.010 A 
ATOM     36  C   UNL A   1      41.583  26.061  27.355  1.00  0.00     0.010 A 
ATOM     37  C   UNL A   1      42.182  27.246  27.818  1.00  0.00    -0.014 A 
BRANCH  37  38
ATOM     38  C   UNL A   1      41.664  27.960  29.018  1.00  0.00     0.031 A 
ATOM     39  C   UNL A   1      42.450  27.901  30.293  1.00  0.00     0.074 A 
ATOM     40  C   UNL A   1      40.551  28.711  28.965  1.00  0.00     0.049 A 
ATOM     41  N   UNL A   1      42.190  28.452  31.451  1.00  0.00    -0.248 NA
ATOM     42  C   UNL A   1      43.685  27.103  30.264  1.00  0.00     0.031 C 
ATOM     43  C   UNL A   1      39.711  28.837  27.789  1.00  0.00     0.029 A 
ATOM     44  N   UNL A   1      39.942  29.516  29.896  1.00  0.00    -0.354 N 
ATOM     45  C   UNL A   1      43.208  28.042  32.296  1.00  0.00     0.074 A 
ATOM     46  C   UNL A   1      44.090  27.195  31.522  1.00  0.00     0.031 C 
ATOM     47  C   UNL A   1      38.728  29.718  28.032  1.00  0.00     0.029 A 
ATOM     48  C   UNL A   1      38.822  30.159  29.421  1.00  0.00     0.049 A 
ATOM     49  H   UNL A   1      40.275  29.622  30.817  1.00  0.00     0.167 HD
ATOM     50  C   UNL A   1      43.381  28.339  33.605  1.00  0.00     0.037 A 
ATOM     51  C   UNL A   1      37.957  30.984  30.043  1.00  0.00     0.037 A 
ATOM     52  C   UNL A   1      42.499  29.180  34.372  1.00  0.00     0.049 A 
ATOM     53  C   UNL A   1      38.165  31.280  31.506  1.00  0.00     0.074 A 
ATOM     54  C   UNL A   1      42.591  29.535  35.706  1.00  0.00     0.029 A 
ATOM     55  N   UNL A   1      41.357  29.792  33.874  1.00  0.00    -0.354 N 
ATOM     56  N   UNL A   1      39.132  30.888  32.300  1.00  0.00    -0.248 NA
ATOM     57  C   UNL A   1      37.150  32.113  32.167  1.00  0.00     0.031 C 
ATOM     58  C   UNL A   1      41.479  30.321  36.028  1.00  0.00     0.029 A 
ATOM     59  C   UNL A   1      40.726  30.507  34.880  1.00  0.00     0.049 A 
ATOM     60  H   UNL A   1      41.042  29.728  32.943  1.00  0.00     0.167 HD
ATOM     61  C   UNL A   1      38.848  31.429  33.546  1.00  0.00     0.074 A 
ATOM     62  C   UNL A   1      37.637  32.208  33.395  1.00  0.00     0.031 C 
ATOM     63  C   UNL A   1      39.521  31.281  34.714  1.00  0.00     0.037 A 
BRANCH  50  64
ATOM     64  C   UNL A   1      44.547  27.703  34.302  1.00  0.00     0.064 A 
ATOM     65  C   UNL A   1      45.803  28.325  34.366  1.00  0.00     0.173 A 
ATOM     66  C   UNL A   1      44.399  26.454  34.923  1.00  0.00     0.173 A 
ATOM     67  F   UNL A   1      46.001  29.510  33.769  1.00  0.00    -0.203 F 
ATOM     68  C   UNL A   1      46.874  27.707  35.006  1.00  0.00     0.198 A 
ATOM     69  C   UNL A   1      45.464  25.854  35.588  1.00  0.00     0.198 A 
ATOM     70  F   UNL A   1      43.220  25.816  34.887  1.00  0.00    -0.203 F 
ATOM     71  F   UNL A   1      48.078  28.295  35.011  1.00  0.00    -0.200 F 
ATOM     72  C   UNL A   1      46.702  26.477  35.622  1.00  0.00     0.200 A 
ATOM     73  F   UNL A   1      45.293  24.669  36.191  1.00  0.00    -0.200 F 
ATOM     74  F   UNL A   1      47.733  25.886  36.242  1.00  0.00    -0.200 F 
ENDBRANCH  50  64
BRANCH  51  75
ATOM     75  C   UNL A   1      36.795  31.562  29.311  1.00  0.00     0.064 A 
ATOM     76  C   UNL A   1      36.744  32.928  28.996  1.00  0.00     0.173 A 
ATOM     77  C   UNL A   1      35.693  30.773  28.946  1.00  0.00     0.173 A 
ATOM     78  F   UNL A   1      37.757  33.735  29.347  1.00  0.00    -0.203 F 
ATOM     79  C   UNL A   1      35.630  33.484  28.367  1.00  0.00     0.198 A 
ATOM     80  C   UNL A   1      34.597  31.322  28.283  1.00  0.00     0.198 A 
ATOM     81  F   UNL A   1      35.681  29.462  29.231  1.00  0.00    -0.203 F 
ATOM     82  F   UNL A   1      35.584  34.803  28.133  1.00  0.00    -0.200 F 
ATOM     83  C   UNL A   1      34.560  32.679  28.005  1.00  0.00     0.200 A 
ATOM     84  F   UNL A   1      33.572  30.538  27.925  1.00  0.00    -0.200 F 
ATOM     85  F   UNL A   1      33.492  33.214  27.400  1.00  0.00    -0.200 F 
ENDBRANCH  51  75
BRANCH  63  86
ATOM     86  C   UNL A   1      38.978  32.005  35.914  1.00  0.00     0.064 A 
ATOM     87  C   UNL A   1      39.244  33.364  36.139  1.00  0.00     0.173 A 
ATOM     88  C   UNL A   1      38.160  31.335  36.836  1.00  0.00     0.173 A 
ATOM     89  F   UNL A   1      40.034  34.047  35.296  1.00  0.00    -0.203 F 
ATOM     90  C   UNL A   1      38.740  34.016  37.262  1.00  0.00     0.198 A 
ATOM     91  C   UNL A   1      37.630  31.998  37.939  1.00  0.00     0.198 A 
ATOM     92  F   UNL A   1      37.868  30.038  36.663  1.00  0.00    -0.203 F 
ATOM     93  F   UNL A   1      39.057  35.298  37.489  1.00  0.00    -0.200 F 
ATOM     94  C   UNL A   1      37.928  33.334  38.157  1.00  0.00     0.200 A 
ATOM     95  F   UNL A   1      36.833  31.342  38.794  1.00  0.00    -0.200 F 
ATOM     96  F   UNL A   1      37.442  33.964  39.235  1.00  0.00    -0.200 F 
ENDBRANCH  63  86
ENDBRANCH  37  38
ENDBRANCH  30  32
ENDBRANCH  29  30
ENDBRANCH  28  29
ENDBRANCH  27  28
ENDBRANCH  26  27
ENDBRANCH  25  26
ENDBRANCH   1  25
TORSDOF 22
ENDMDL
MODEL 3
REMARK VINA RESULT:      -9.7      5.130      7.589
REMARK SMILES CCc1nn(C)c(N[C@@](C)(CC)C(=O)OCCOCCOCCOC(=O)c2ccc(-c3c4nc(c(-c5c(F)c(F)c(F)c(F)c5F)c5ccc([nH]5)c(-c5c(F)c(F)c(F)c(F)c5F)c5nc(c(-c6c(F)c(F)c(F)c(F)c6F)c6ccc3[nH]6)C=C5)C=C4)cc2)c1[N+](=O)[O-]
REMARK SMILES IDX 19 1 18 2 17 3 16 4 15 5 13 6 14 7 9 8 10 9 8 10 7 12 3 13
REMARK SMILES IDX 4 14 90 15 5 16 6 17 2 18 1 19 91 20 92 21 93 22 11 23 12 24
REMARK SMILES IDX 20 25 21 26 22 27 23 28 24 29 25 30 26 31 27 32 28 33 89 34
REMARK SMILES IDX 29 35 88 36 30 37 31 38 32 39 82 40 33 41 87 42 81 43 83 44
REMARK SMILES IDX 34 45 86 46 80 47 79 48 35 50 67 51 47 52 66 53 48 54 51 55
REMARK SMILES IDX 65 56 84 57 49 58 50 59 64 61 85 62 52 63 36 64 37 65 45 66
REMARK SMILES IDX 38 67 39 68 43 69 46 70 40 71 41 72 44 73 42 74 68 75 69 76
REMARK SMILES IDX 77 77 70 78 71 79 75 80 78 81 72 82 73 83 76 84 74 85 53 86
REMARK SMILES IDX 54 87 62 88 55 89 56 90 60 91 63 92 57 93 58 94 61 95 59 96
REMARK H PARENT 8 11 83 49 51 60
REMARK Flexibility Score: inf
ROOT
ATOM      1  C   UNL A   1      38.855  22.601  26.126  1.00  0.00     0.188 C 
ENDROOT
BRANCH   1   2
ATOM      2  O   UNL A   1      38.122  21.671  25.346  1.00  0.00    -0.376 OA
BRANCH   2   3
ATOM      3  C   UNL A   1      36.711  21.662  25.507  1.00  0.00     0.202 C 
BRANCH   3   4
ATOM      4  C   UNL A   1      36.063  22.933  26.070  1.00  0.00     0.261 C 
BRANCH   4   5
ATOM      5  O   UNL A   1      34.882  23.306  25.328  1.00  0.00    -0.462 OA
BRANCH   5   6
ATOM      6  C   UNL A   1      33.680  23.056  25.902  1.00  0.00     0.331 C 
ATOM      7  O   UNL A   1      33.535  22.939  27.115  1.00  0.00    -0.249 OA
BRANCH   6   8
ATOM      8  C   UNL A   1      32.545  22.817  24.862  1.00  0.00     0.134 C 
ATOM      9  C   UNL A   1      31.329  22.288  25.661  1.00  0.00     0.047 C 
BRANCH   8  10
ATOM     10  N   UNL A   1      32.007  23.956  24.081  1.00  0.00    -0.349 N 
ATOM     11  H   UNL A   1      31.463  23.670  23.311  1.00  0.00     0.163 HD
BRANCH  10  12
ATOM     12  C   UNL A   1      32.098  25.316  24.191  1.00  0.00     0.205 A 
ATOM     13  C   UNL A   1      32.568  27.456  24.694  1.00  0.00     0.142 A 
ATOM     14  N   UNL A   1      33.119  27.241  23.501  1.00  0.00    -0.169 NA
ATOM     15  C   UNL A   1      31.749  26.352  25.059  1.00  0.00     0.334 A 
ATOM     16  N   UNL A   1      32.704  26.017  23.154  1.00  0.00    -0.246 N 
ATOM     17  C   UNL A   1      32.883  25.630  21.771  1.00  0.00     0.176 C 
BRANCH  13  18
ATOM     18  C   UNL A   1      32.865  28.750  25.388  1.00  0.00     0.062 C 
ATOM     19  C   UNL A   1      34.081  28.646  26.304  1.00  0.00     0.011 C 
ENDBRANCH  13  18
BRANCH  15  20
ATOM     20  N   UNL A   1      30.800  26.361  26.116  1.00  0.00     0.068 N 
ATOM     21  O   UNL A   1      29.760  25.715  25.947  1.00  0.00    -0.258 OA
ATOM     22  O   UNL A   1      31.129  26.947  27.153  1.00  0.00    -0.258 OA
ENDBRANCH  15  20
ENDBRANCH  10  12
ENDBRANCH   8  10
BRANCH   8  23
ATOM     23  C   UNL A   1      32.977  21.644  23.885  1.00  0.00     0.037 C 
ATOM     24  C   UNL A   1      33.258  20.229  24.419  1.00  0.00     0.007 C 
ENDBRANCH   8  23
ENDBRANCH   6   8
ENDBRANCH   5   6
ENDBRANCH   4   5
ENDBRANCH   3   4
ENDBRANCH   2   3
ENDBRANCH   1   2
BRANCH   1  25
ATOM     25  C   UNL A   1      40.055  21.972  26.844  1.00  0.00     0.188 C 
BRANCH  25  26
ATOM     26  O   UNL A   1      40.895  21.042  26.178  1.00  0.00    -0.376 OA
BRANCH  26  27
ATOM     27  C   UNL A   1      41.634  20.119  26.958  1.00  0.00     0.202 C 
BRANCH  27  28
ATOM     28  C   UNL A   1      42.532  19.107  26.229  1.00  0.00     0.261 C 
BRANCH  28  29
ATOM     29  O   UNL A   1      42.856  19.418  24.862  1.00  0.00    -0.460 OA
BRANCH  29  30
ATOM     30  C   UNL A   1      44.180  19.529  24.597  1.00  0.00     0.338 C 
ATOM     31  O   UNL A   1      44.912  18.666  24.129  1.00  0.00    -0.246 OA
BRANCH  30  32
ATOM     32  C   UNL A   1      44.641  20.920  24.806  1.00  0.00     0.060 A 
ATOM     33  C   UNL A   1      45.460  21.182  25.913  1.00  0.00     0.016 A 
ATOM     34  C   UNL A   1      44.200  21.971  23.999  1.00  0.00     0.016 A 
ATOM     35  C   UNL A   1      45.803  22.493  26.242  1.00  0.00     0.010 A 
ATOM     36  C   UNL A   1      44.524  23.292  24.347  1.00  0.00     0.010 A 
ATOM     37  C   UNL A   1      45.296  23.562  25.491  1.00  0.00    -0.014 A 
BRANCH  37  38
ATOM     38  C   UNL A   1      45.435  24.945  26.025  1.00  0.00     0.031 A 
ATOM     39  C   UNL A   1      46.751  25.647  25.887  1.00  0.00     0.074 A 
ATOM     40  C   UNL A   1      44.391  25.602  26.560  1.00  0.00     0.049 A 
ATOM     41  N   UNL A   1      47.090  26.851  26.272  1.00  0.00    -0.248 NA
ATOM     42  C   UNL A   1      47.834  24.888  25.244  1.00  0.00     0.031 C 
ATOM     43  C   UNL A   1      43.075  25.021  26.747  1.00  0.00     0.029 A 
ATOM     44  N   UNL A   1      44.257  26.886  27.026  1.00  0.00    -0.354 N 
ATOM     45  C   UNL A   1      48.431  26.982  25.948  1.00  0.00     0.074 A 
ATOM     46  C   UNL A   1      48.846  25.736  25.339  1.00  0.00     0.031 C 
ATOM     47  C   UNL A   1      42.237  25.953  27.227  1.00  0.00     0.029 A 
ATOM     48  C   UNL A   1      42.986  27.185  27.461  1.00  0.00     0.049 A 
ATOM     49  H   UNL A   1      45.000  27.532  27.048  1.00  0.00     0.167 HD
ATOM     50  C   UNL A   1      49.244  28.045  26.155  1.00  0.00     0.037 A 
ATOM     51  C   UNL A   1      42.491  28.311  28.012  1.00  0.00     0.037 A 
ATOM     52  C   UNL A   1      48.826  29.281  26.765  1.00  0.00     0.049 A 
ATOM     53  C   UNL A   1      43.425  29.471  28.247  1.00  0.00     0.074 A 
ATOM     54  C   UNL A   1      49.580  30.413  27.021  1.00  0.00     0.029 A 
ATOM     55  N   UNL A   1      47.543  29.544  27.224  1.00  0.00    -0.354 N 
ATOM     56  N   UNL A   1      44.694  29.587  27.938  1.00  0.00    -0.248 NA
ATOM     57  C   UNL A   1      42.865  30.647  28.929  1.00  0.00     0.031 C 
ATOM     58  C   UNL A   1      48.766  31.342  27.677  1.00  0.00     0.029 A 
ATOM     59  C   UNL A   1      47.489  30.814  27.777  1.00  0.00     0.049 A 
ATOM     60  H   UNL A   1      46.783  28.920  27.165  1.00  0.00     0.167 HD
ATOM     61  C   UNL A   1      45.082  30.844  28.380  1.00  0.00     0.074 A 
ATOM     62  C   UNL A   1      43.905  31.469  28.945  1.00  0.00     0.031 C 
ATOM     63  C   UNL A   1      46.308  31.424  28.334  1.00  0.00     0.037 A 
BRANCH  50  64
ATOM     64  C   UNL A   1      50.682  27.892  25.762  1.00  0.00     0.064 A 
ATOM     65  C   UNL A   1      51.675  27.552  26.695  1.00  0.00     0.173 A 
ATOM     66  C   UNL A   1      51.071  28.079  24.428  1.00  0.00     0.173 A 
ATOM     67  F   UNL A   1      51.356  27.384  27.987  1.00  0.00    -0.203 F 
ATOM     68  C   UNL A   1      53.007  27.430  26.308  1.00  0.00     0.198 A 
ATOM     69  C   UNL A   1      52.399  27.925  24.039  1.00  0.00     0.198 A 
ATOM     70  F   UNL A   1      50.162  28.408  23.498  1.00  0.00    -0.203 F 
ATOM     71  F   UNL A   1      53.945  27.156  27.224  1.00  0.00    -0.200 F 
ATOM     72  C   UNL A   1      53.366  27.609  24.981  1.00  0.00     0.200 A 
ATOM     73  F   UNL A   1      52.743  28.090  22.754  1.00  0.00    -0.200 F 
ATOM     74  F   UNL A   1      54.648  27.486  24.610  1.00  0.00    -0.200 F 
ENDBRANCH  50  64
BRANCH  51  75
ATOM     75  C   UNL A   1      41.060  28.397  28.415  1.00  0.00     0.064 A 
ATOM     76  C   UNL A   1      40.096  28.946  27.556  1.00  0.00     0.173 A 
ATOM     77  C   UNL A   1      40.628  27.973  29.682  1.00  0.00     0.173 A 
ATOM     78  F   UNL A   1      40.458  29.396  26.344  1.00  0.00    -0.203 F 
ATOM     79  C   UNL A   1      38.767  29.086  27.954  1.00  0.00     0.198 A 
ATOM     80  C   UNL A   1      39.293  28.077  30.064  1.00  0.00     0.198 A 
ATOM     81  F   UNL A   1      41.507  27.450  30.550  1.00  0.00    -0.203 F 
ATOM     82  F   UNL A   1      37.881  29.670  27.134  1.00  0.00    -0.200 F 
ATOM     83  C   UNL A   1      38.365  28.645  29.206  1.00  0.00     0.200 A 
ATOM     84  F   UNL A   1      38.908  27.639  31.270  1.00  0.00    -0.200 F 
ATOM     85  F   UNL A   1      37.088  28.778  29.588  1.00  0.00    -0.200 F 
ENDBRANCH  51  75
BRANCH  63  86
ATOM     86  C   UNL A   1      46.426  32.817  28.884  1.00  0.00     0.064 A 
ATOM     87  C   UNL A   1      46.682  33.056  30.242  1.00  0.00     0.173 A 
ATOM     88  C   UNL A   1      46.306  33.927  28.034  1.00  0.00     0.173 A 
ATOM     89  F   UNL A   1      46.789  32.030  31.100  1.00  0.00    -0.203 F 
ATOM     90  C   UNL A   1      46.778  34.355  30.736  1.00  0.00     0.198 A 
ATOM     91  C   UNL A   1      46.437  35.223  28.524  1.00  0.00     0.198 A 
ATOM     92  F   UNL A   1      46.069  33.755  26.725  1.00  0.00    -0.203 F 
ATOM     93  F   UNL A   1      46.963  34.560  32.047  1.00  0.00    -0.200 F 
ATOM     94  C   UNL A   1      46.662  35.437  29.875  1.00  0.00     0.200 A 
ATOM     95  F   UNL A   1      46.340  36.267  27.689  1.00  0.00    -0.200 F 
ATOM     96  F   UNL A   1      46.758  36.686  30.351  1.00  0.00    -0.200 F 
ENDBRANCH  63  86
ENDBRANCH  37  38
ENDBRANCH  30  32
ENDBRANCH  29  30
ENDBRANCH  28  29
ENDBRANCH  27  28
ENDBRANCH  26  27
ENDBRANCH  25  26
ENDBRANCH   1  25
TORSDOF 22
ENDMDL
