MODEL 1
REMARK VINA RESULT:     -11.5      0.000      0.000
REMARK SMILES Cc1cc(Cl)c2c(c1)C=C(C(=O)OCCOCCOCCOC(=O)c1ccc(-c3c4nc(c(-c5c(F)c(F)c(F)c(F)c5F)c5ccc([nH]5)c(-c5c(F)c(F)c(F)c(F)c5F)c5nc(c(-c6c(F)c(F)c(F)c(F)c6F)c6ccc3[nH]6)C=C5)C=C4)cc1)[C@@H](C(F)(F)F)O2
REMARK SMILES IDX 18 1 17 2 16 3 15 4 14 5 13 6 11 7 12 8 10 9 1 10 2 11 3 12
REMARK SMILES IDX 8 13 4 14 7 15 5 16 6 17 9 18 93 19 88 20 89 21 90 22 91 23
REMARK SMILES IDX 92 24 19 25 20 26 21 27 22 28 23 29 24 30 25 31 26 32 87 33
REMARK SMILES IDX 27 34 86 35 28 36 29 37 30 38 80 39 31 40 85 41 79 42 81 43
REMARK SMILES IDX 32 44 84 45 78 46 77 47 33 49 65 50 45 51 64 52 46 53 49 54
REMARK SMILES IDX 63 55 82 56 47 57 48 58 62 60 83 61 50 62 34 63 35 64 43 65
REMARK SMILES IDX 36 66 37 67 41 68 44 69 38 70 39 71 42 72 40 73 66 74 67 75
REMARK SMILES IDX 75 76 68 77 69 78 73 79 76 80 70 81 71 82 74 83 72 84 51 85
REMARK SMILES IDX 52 86 60 87 53 88 54 89 58 90 61 91 55 92 56 93 59 94 57 95
REMARK H PARENT 81 48 49 59
REMARK Flexibility Score: inf
ROOT
ATOM      1  C   UNL A   1      34.220  18.208  24.279  1.00  0.00     0.188 C 
ENDROOT
BRANCH   1   2
ATOM      2  C   UNL A   1      33.068  18.711  25.174  1.00  0.00     0.188 C 
BRANCH   2   3
ATOM      3  O   UNL A   1      32.154  19.665  24.684  1.00  0.00    -0.376 OA
BRANCH   3   4
ATOM      4  C   UNL A   1      32.522  20.578  23.664  1.00  0.00     0.202 C 
BRANCH   4   5
ATOM      5  C   UNL A   1      32.784  22.074  23.898  1.00  0.00     0.261 C 
BRANCH   5   6
ATOM      6  O   UNL A   1      31.633  22.926  23.910  1.00  0.00    -0.460 OA
BRANCH   6   7
ATOM      7  C   UNL A   1      31.254  23.364  25.134  1.00  0.00     0.338 C 
ATOM      8  O   UNL A   1      31.112  22.689  26.141  1.00  0.00    -0.246 OA
BRANCH   7   9
ATOM      9  C   UNL A   1      31.185  24.839  25.133  1.00  0.00     0.087 C 
ATOM     10  C   UNL A   1      28.555  29.501  22.080  1.00  0.00     0.044 C 
ATOM     11  C   UNL A   1      29.411  28.849  23.127  1.00  0.00    -0.049 A 
ATOM     12  C   UNL A   1      30.325  29.610  23.862  1.00  0.00     0.028 A 
ATOM     13  C   UNL A   1      29.372  27.462  23.319  1.00  0.00     0.015 A 
ATOM     14  C   UNL A   1      31.161  28.997  24.802  1.00  0.00     0.084 A 
ATOM     15  C   UNL A   1      30.237  26.843  24.232  1.00  0.00     0.019 A 
ATOM     16  Cl  UNL A   1      32.271  29.992  25.677  1.00  0.00    -0.080 Cl
ATOM     17  C   UNL A   1      31.121  27.611  24.995  1.00  0.00     0.146 A 
ATOM     18  C   UNL A   1      30.265  25.393  24.333  1.00  0.00     0.027 C 
ATOM     19  O   UNL A   1      31.956  27.068  25.933  1.00  0.00    -0.474 OA
ATOM     20  C   UNL A   1      32.125  25.628  26.001  1.00  0.00     0.316 C 
BRANCH  20  21
ATOM     21  C   UNL A   1      33.595  25.289  25.715  1.00  0.00     0.430 C 
ATOM     22  F   UNL A   1      33.818  25.121  24.391  1.00  0.00    -0.167 F 
ATOM     23  F   UNL A   1      34.422  26.280  26.126  1.00  0.00    -0.167 F 
ATOM     24  F   UNL A   1      33.981  24.156  26.344  1.00  0.00    -0.167 F 
ENDBRANCH  20  21
ENDBRANCH   7   9
ENDBRANCH   6   7
ENDBRANCH   5   6
ENDBRANCH   4   5
ENDBRANCH   3   4
ENDBRANCH   2   3
ENDBRANCH   1   2
BRANCH   1  25
ATOM     25  O   UNL A   1      35.557  18.474  24.631  1.00  0.00    -0.376 OA
BRANCH  25  26
ATOM     26  C   UNL A   1      35.942  19.797  24.973  1.00  0.00     0.202 C 
BRANCH  26  27
ATOM     27  C   UNL A   1      37.356  20.368  24.751  1.00  0.00     0.261 C 
BRANCH  27  28
ATOM     28  O   UNL A   1      37.827  21.320  25.714  1.00  0.00    -0.460 OA
BRANCH  28  29
ATOM     29  C   UNL A   1      39.086  21.105  26.183  1.00  0.00     0.338 C 
ATOM     30  O   UNL A   1      39.742  20.088  26.109  1.00  0.00    -0.246 OA
BRANCH  29  31
ATOM     31  C   UNL A   1      39.648  22.398  26.630  1.00  0.00     0.060 A 
ATOM     32  C   UNL A   1      39.106  23.581  26.107  1.00  0.00     0.016 A 
ATOM     33  C   UNL A   1      40.698  22.442  27.546  1.00  0.00     0.016 A 
ATOM     34  C   UNL A   1      39.611  24.817  26.506  1.00  0.00     0.010 A 
ATOM     35  C   UNL A   1      41.228  23.682  27.919  1.00  0.00     0.010 A 
ATOM     36  C   UNL A   1      40.702  24.873  27.385  1.00  0.00    -0.014 A 
BRANCH  36  37
ATOM     37  C   UNL A   1      41.411  26.163  27.566  1.00  0.00     0.031 A 
ATOM     38  C   UNL A   1      40.696  27.265  28.298  1.00  0.00     0.074 A 
ATOM     39  C   UNL A   1      42.678  26.338  27.152  1.00  0.00     0.049 A 
ATOM     40  N   UNL A   1      41.119  28.462  28.617  1.00  0.00    -0.248 NA
ATOM     41  C   UNL A   1      39.319  26.977  28.735  1.00  0.00     0.031 C 
ATOM     42  C   UNL A   1      43.491  25.335  26.468  1.00  0.00     0.029 A 
ATOM     43  N   UNL A   1      43.507  27.430  27.256  1.00  0.00    -0.354 N 
ATOM     44  C   UNL A   1      40.069  29.057  29.303  1.00  0.00     0.074 A 
ATOM     45  C   UNL A   1      38.973  28.117  29.311  1.00  0.00     0.031 C 
ATOM     46  C   UNL A   1      44.705  25.856  26.216  1.00  0.00     0.029 A 
ATOM     47  C   UNL A   1      44.749  27.237  26.700  1.00  0.00     0.049 A 
ATOM     48  H   UNL A   1      43.236  28.272  27.687  1.00  0.00     0.167 HD
ATOM     49  C   UNL A   1      40.033  30.272  29.897  1.00  0.00     0.037 A 
ATOM     50  C   UNL A   1      45.794  28.083  26.591  1.00  0.00     0.037 A 
ATOM     51  C   UNL A   1      41.121  31.210  29.888  1.00  0.00     0.049 A 
ATOM     52  C   UNL A   1      45.686  29.477  27.164  1.00  0.00     0.074 A 
ATOM     53  C   UNL A   1      41.181  32.461  30.476  1.00  0.00     0.029 A 
ATOM     54  N   UNL A   1      42.335  31.004  29.252  1.00  0.00    -0.354 N 
ATOM     55  N   UNL A   1      44.711  30.014  27.856  1.00  0.00    -0.248 NA
ATOM     56  C   UNL A   1      46.823  30.384  26.937  1.00  0.00     0.031 C 
ATOM     57  C   UNL A   1      42.410  33.036  30.149  1.00  0.00     0.029 A 
ATOM     58  C   UNL A   1      43.138  32.122  29.402  1.00  0.00     0.049 A 
ATOM     59  H   UNL A   1      42.589  30.186  28.768  1.00  0.00     0.167 HD
ATOM     60  C   UNL A   1      45.122  31.305  28.165  1.00  0.00     0.074 A 
ATOM     61  C   UNL A   1      46.445  31.469  27.601  1.00  0.00     0.031 C 
ATOM     62  C   UNL A   1      44.459  32.269  28.849  1.00  0.00     0.037 A 
BRANCH  49  63
ATOM     63  C   UNL A   1      38.776  30.660  30.617  1.00  0.00     0.064 A 
ATOM     64  C   UNL A   1      38.658  30.511  32.007  1.00  0.00     0.173 A 
ATOM     65  C   UNL A   1      37.711  31.252  29.924  1.00  0.00     0.173 A 
ATOM     66  F   UNL A   1      39.645  29.937  32.711  1.00  0.00    -0.203 F 
ATOM     67  C   UNL A   1      37.512  30.930  32.675  1.00  0.00     0.198 A 
ATOM     68  C   UNL A   1      36.579  31.698  30.600  1.00  0.00     0.198 A 
ATOM     69  F   UNL A   1      37.779  31.422  28.594  1.00  0.00    -0.203 F 
ATOM     70  F   UNL A   1      37.406  30.749  33.998  1.00  0.00    -0.200 F 
ATOM     71  C   UNL A   1      36.478  31.533  31.973  1.00  0.00     0.200 A 
ATOM     72  F   UNL A   1      35.588  32.294  29.922  1.00  0.00    -0.200 F 
ATOM     73  F   UNL A   1      35.384  31.956  32.621  1.00  0.00    -0.200 F 
ENDBRANCH  49  63
BRANCH  50  74
ATOM     74  C   UNL A   1      47.046  27.640  25.919  1.00  0.00     0.064 A 
ATOM     75  C   UNL A   1      47.187  27.726  24.527  1.00  0.00     0.173 A 
ATOM     76  C   UNL A   1      48.118  27.103  26.648  1.00  0.00     0.173 A 
ATOM     77  F   UNL A   1      46.180  28.205  23.781  1.00  0.00    -0.203 F 
ATOM     78  C   UNL A   1      48.345  27.284  23.889  1.00  0.00     0.198 A 
ATOM     79  C   UNL A   1      49.287  26.687  26.013  1.00  0.00     0.198 A 
ATOM     80  F   UNL A   1      48.033  26.987  27.981  1.00  0.00    -0.203 F 
ATOM     81  F   UNL A   1      48.433  27.338  22.553  1.00  0.00    -0.200 F 
ATOM     82  C   UNL A   1      49.397  26.771  24.633  1.00  0.00     0.200 A 
ATOM     83  F   UNL A   1      50.304  26.200  26.737  1.00  0.00    -0.200 F 
ATOM     84  F   UNL A   1      50.512  26.351  24.020  1.00  0.00    -0.200 F 
ENDBRANCH  50  74
BRANCH  62  85
ATOM     85  C   UNL A   1      45.131  33.598  29.042  1.00  0.00     0.064 A 
ATOM     86  C   UNL A   1      44.923  34.654  28.143  1.00  0.00     0.173 A 
ATOM     87  C   UNL A   1      45.868  33.862  30.208  1.00  0.00     0.173 A 
ATOM     88  F   UNL A   1      44.236  34.448  27.009  1.00  0.00    -0.203 F 
ATOM     89  C   UNL A   1      45.422  35.927  28.407  1.00  0.00     0.198 A 
ATOM     90  C   UNL A   1      46.339  35.143  30.483  1.00  0.00     0.198 A 
ATOM     91  F   UNL A   1      46.084  32.889  31.106  1.00  0.00    -0.203 F 
ATOM     92  F   UNL A   1      45.220  36.918  27.529  1.00  0.00    -0.200 F 
ATOM     93  C   UNL A   1      46.114  36.174  29.584  1.00  0.00     0.200 A 
ATOM     94  F   UNL A   1      46.988  35.385  31.630  1.00  0.00    -0.200 F 
ATOM     95  F   UNL A   1      46.559  37.409  29.854  1.00  0.00    -0.200 F 
ENDBRANCH  62  85
ENDBRANCH  36  37
ENDBRANCH  29  31
ENDBRANCH  28  29
ENDBRANCH  27  28
ENDBRANCH  26  27
ENDBRANCH  25  26
ENDBRANCH   1  25
TORSDOF 18
ENDMDL
MODEL 2
REMARK VINA RESULT:     -11.4      0.488      2.008
REMARK SMILES Cc1cc(Cl)c2c(c1)C=C(C(=O)OCCOCCOCCOC(=O)c1ccc(-c3c4nc(c(-c5c(F)c(F)c(F)c(F)c5F)c5ccc([nH]5)c(-c5c(F)c(F)c(F)c(F)c5F)c5nc(c(-c6c(F)c(F)c(F)c(F)c6F)c6ccc3[nH]6)C=C5)C=C4)cc1)[C@@H](C(F)(F)F)O2
REMARK SMILES IDX 18 1 17 2 16 3 15 4 14 5 13 6 11 7 12 8 10 9 1 10 2 11 3 12
REMARK SMILES IDX 8 13 4 14 7 15 5 16 6 17 9 18 93 19 88 20 89 21 90 22 91 23
REMARK SMILES IDX 92 24 19 25 20 26 21 27 22 28 23 29 24 30 25 31 26 32 87 33
REMARK SMILES IDX 27 34 86 35 28 36 29 37 30 38 80 39 31 40 85 41 79 42 81 43
REMARK SMILES IDX 32 44 84 45 78 46 77 47 33 49 65 50 45 51 64 52 46 53 49 54
REMARK SMILES IDX 63 55 82 56 47 57 48 58 62 60 83 61 50 62 34 63 35 64 43 65
REMARK SMILES IDX 36 66 37 67 41 68 44 69 38 70 39 71 42 72 40 73 66 74 67 75
REMARK SMILES IDX 75 76 68 77 69 78 73 79 76 80 70 81 71 82 74 83 72 84 51 85
REMARK SMILES IDX 52 86 60 87 53 88 54 89 58 90 61 91 55 92 56 93 59 94 57 95
REMARK H PARENT 81 48 49 59
REMARK Flexibility Score: inf
ROOT
ATOM      1  C   UNL A   1      34.273  18.521  24.509  1.00  0.00     0.188 C 
ENDROOT
BRANCH   1   2
ATOM      2  C   UNL A   1      33.133  19.213  25.285  1.00  0.00     0.188 C 
BRANCH   2   3
ATOM      3  O   UNL A   1      32.043  19.777  24.591  1.00  0.00    -0.376 OA
BRANCH   3   4
ATOM      4  C   UNL A   1      32.245  20.649  23.492  1.00  0.00     0.202 C 
BRANCH   4   5
ATOM      5  C   UNL A   1      32.590  22.140  23.627  1.00  0.00     0.261 C 
BRANCH   5   6
ATOM      6  O   UNL A   1      31.484  23.049  23.648  1.00  0.00    -0.460 OA
BRANCH   6   7
ATOM      7  C   UNL A   1      31.092  23.449  24.881  1.00  0.00     0.338 C 
ATOM      8  O   UNL A   1      30.917  22.740  25.859  1.00  0.00    -0.246 OA
BRANCH   7   9
ATOM      9  C   UNL A   1      31.055  24.925  24.935  1.00  0.00     0.087 C 
ATOM     10  C   UNL A   1      28.604  29.756  21.998  1.00  0.00     0.044 C 
ATOM     11  C   UNL A   1      29.419  29.046  23.039  1.00  0.00    -0.049 A 
ATOM     12  C   UNL A   1      30.330  29.758  23.826  1.00  0.00     0.028 A 
ATOM     13  C   UNL A   1      29.346  27.654  23.178  1.00  0.00     0.015 A 
ATOM     14  C   UNL A   1      31.128  29.092  24.762  1.00  0.00     0.084 A 
ATOM     15  C   UNL A   1      30.174  26.981  24.088  1.00  0.00     0.019 A 
ATOM     16  Cl  UNL A   1      32.236  30.028  25.702  1.00  0.00    -0.080 Cl
ATOM     17  C   UNL A   1      31.054  27.701  24.901  1.00  0.00     0.146 A 
ATOM     18  C   UNL A   1      30.168  25.529  24.133  1.00  0.00     0.027 C 
ATOM     19  O   UNL A   1      31.852  27.105  25.838  1.00  0.00    -0.474 OA
ATOM     20  C   UNL A   1      31.989  25.659  25.855  1.00  0.00     0.316 C 
BRANCH  20  21
ATOM     21  C   UNL A   1      33.458  25.298  25.594  1.00  0.00     0.430 C 
ATOM     22  F   UNL A   1      34.295  26.251  26.067  1.00  0.00    -0.167 F 
ATOM     23  F   UNL A   1      33.801  24.140  26.207  1.00  0.00    -0.167 F 
ATOM     24  F   UNL A   1      33.711  25.147  24.275  1.00  0.00    -0.167 F 
ENDBRANCH  20  21
ENDBRANCH   7   9
ENDBRANCH   6   7
ENDBRANCH   5   6
ENDBRANCH   4   5
ENDBRANCH   3   4
ENDBRANCH   2   3
ENDBRANCH   1   2
BRANCH   1  25
ATOM     25  O   UNL A   1      35.602  18.961  24.662  1.00  0.00    -0.376 OA
BRANCH  25  26
ATOM     26  C   UNL A   1      35.859  20.328  24.945  1.00  0.00     0.202 C 
BRANCH  26  27
ATOM     27  C   UNL A   1      37.235  21.001  24.771  1.00  0.00     0.261 C 
BRANCH  27  28
ATOM     28  O   UNL A   1      37.732  21.755  25.885  1.00  0.00    -0.460 OA
BRANCH  28  29
ATOM     29  C   UNL A   1      39.025  21.507  26.229  1.00  0.00     0.338 C 
ATOM     30  O   UNL A   1      39.656  20.486  26.060  1.00  0.00    -0.246 OA
BRANCH  29  31
ATOM     31  C   UNL A   1      39.645  22.776  26.668  1.00  0.00     0.060 A 
ATOM     32  C   UNL A   1      39.157  23.979  26.138  1.00  0.00     0.016 A 
ATOM     33  C   UNL A   1      40.697  22.778  27.582  1.00  0.00     0.016 A 
ATOM     34  C   UNL A   1      39.718  25.194  26.530  1.00  0.00     0.010 A 
ATOM     35  C   UNL A   1      41.283  23.995  27.947  1.00  0.00     0.010 A 
ATOM     36  C   UNL A   1      40.811  25.206  27.407  1.00  0.00    -0.014 A 
BRANCH  36  37
ATOM     37  C   UNL A   1      41.577  26.463  27.580  1.00  0.00     0.031 A 
ATOM     38  C   UNL A   1      40.921  27.594  28.324  1.00  0.00     0.074 A 
ATOM     39  C   UNL A   1      42.845  26.583  27.148  1.00  0.00     0.049 A 
ATOM     40  N   UNL A   1      41.400  28.770  28.638  1.00  0.00    -0.248 NA
ATOM     41  C   UNL A   1      39.540  27.364  28.779  1.00  0.00     0.031 C 
ATOM     42  C   UNL A   1      43.603  25.548  26.451  1.00  0.00     0.029 A 
ATOM     43  N   UNL A   1      43.722  27.638  27.241  1.00  0.00    -0.354 N 
ATOM     44  C   UNL A   1      40.387  29.409  29.340  1.00  0.00     0.074 A 
ATOM     45  C   UNL A   1      39.251  28.517  29.362  1.00  0.00     0.031 C 
ATOM     46  C   UNL A   1      44.836  26.017  26.183  1.00  0.00     0.029 A 
ATOM     47  C   UNL A   1      44.946  27.393  26.668  1.00  0.00     0.049 A 
ATOM     48  H   UNL A   1      43.493  28.490  27.678  1.00  0.00     0.167 HD
ATOM     49  C   UNL A   1      40.412  30.623  29.936  1.00  0.00     0.037 A 
ATOM     50  C   UNL A   1      46.025  28.193  26.545  1.00  0.00     0.037 A 
ATOM     51  C   UNL A   1      41.539  31.514  29.912  1.00  0.00     0.049 A 
ATOM     52  C   UNL A   1      45.986  29.589  27.122  1.00  0.00     0.074 A 
ATOM     53  C   UNL A   1      41.662  32.759  30.501  1.00  0.00     0.029 A 
ATOM     54  N   UNL A   1      42.734  31.256  29.259  1.00  0.00    -0.354 N 
ATOM     55  N   UNL A   1      45.045  30.166  27.828  1.00  0.00    -0.248 NA
ATOM     56  C   UNL A   1      47.158  30.446  26.879  1.00  0.00     0.031 C 
ATOM     57  C   UNL A   1      42.910  33.281  30.157  1.00  0.00     0.029 A 
ATOM     58  C   UNL A   1      43.587  32.338  29.399  1.00  0.00     0.049 A 
ATOM     59  H   UNL A   1      42.946  30.428  28.770  1.00  0.00     0.167 HD
ATOM     60  C   UNL A   1      45.516  31.438  28.133  1.00  0.00     0.074 A 
ATOM     61  C   UNL A   1      46.836  31.546  27.550  1.00  0.00     0.031 C 
ATOM     62  C   UNL A   1      44.906  32.429  28.827  1.00  0.00     0.037 A 
BRANCH  49  63
ATOM     63  C   UNL A   1      39.184  31.064  30.674  1.00  0.00     0.064 A 
ATOM     64  C   UNL A   1      38.103  31.654  30.003  1.00  0.00     0.173 A 
ATOM     65  C   UNL A   1      39.057  30.830  32.051  1.00  0.00     0.173 A 
ATOM     66  F   UNL A   1      38.183  31.911  28.688  1.00  0.00    -0.203 F 
ATOM     67  C   UNL A   1      36.943  32.004  30.686  1.00  0.00     0.198 A 
ATOM     68  C   UNL A   1      37.883  31.153  32.725  1.00  0.00     0.198 A 
ATOM     69  F   UNL A   1      40.061  30.262  32.737  1.00  0.00    -0.203 F 
ATOM     70  F   UNL A   1      35.934  32.596  30.032  1.00  0.00    -0.200 F 
ATOM     71  C   UNL A   1      36.829  31.743  32.045  1.00  0.00     0.200 A 
ATOM     72  F   UNL A   1      37.770  30.886  34.034  1.00  0.00    -0.200 F 
ATOM     73  F   UNL A   1      35.703  32.062  32.697  1.00  0.00    -0.200 F 
ENDBRANCH  49  63
BRANCH  50  74
ATOM     74  C   UNL A   1      47.247  27.698  25.855  1.00  0.00     0.064 A 
ATOM     75  C   UNL A   1      48.319  27.159  26.582  1.00  0.00     0.173 A 
ATOM     76  C   UNL A   1      47.381  27.770  24.460  1.00  0.00     0.173 A 
ATOM     77  F   UNL A   1      48.253  27.094  27.921  1.00  0.00    -0.203 F 
ATOM     78  C   UNL A   1      49.478  26.723  25.944  1.00  0.00     0.198 A 
ATOM     79  C   UNL A   1      48.529  27.307  23.820  1.00  0.00     0.198 A 
ATOM     80  F   UNL A   1      46.392  28.285  23.716  1.00  0.00    -0.203 F 
ATOM     81  F   UNL A   1      50.503  26.253  26.670  1.00  0.00    -0.200 F 
ATOM     82  C   UNL A   1      49.580  26.790  24.563  1.00  0.00     0.200 A 
ATOM     83  F   UNL A   1      48.620  27.366  22.484  1.00  0.00    -0.200 F 
ATOM     84  F   UNL A   1      50.693  26.365  23.949  1.00  0.00    -0.200 F 
ENDBRANCH  50  74
BRANCH  62  85
ATOM     85  C   UNL A   1      45.637  33.727  29.013  1.00  0.00     0.064 A 
ATOM     86  C   UNL A   1      46.550  33.902  30.062  1.00  0.00     0.173 A 
ATOM     87  C   UNL A   1      45.534  34.747  28.054  1.00  0.00     0.173 A 
ATOM     88  F   UNL A   1      46.676  32.960  31.010  1.00  0.00    -0.203 F 
ATOM     89  C   UNL A   1      47.338  35.046  30.141  1.00  0.00     0.198 A 
ATOM     90  C   UNL A   1      46.345  35.877  28.120  1.00  0.00     0.198 A 
ATOM     91  F   UNL A   1      44.684  34.622  27.023  1.00  0.00    -0.203 F 
ATOM     92  F   UNL A   1      48.196  35.197  31.160  1.00  0.00    -0.200 F 
ATOM     93  C   UNL A   1      47.247  36.025  29.162  1.00  0.00     0.200 A 
ATOM     94  F   UNL A   1      46.272  36.810  27.160  1.00  0.00    -0.200 F 
ATOM     95  F   UNL A   1      48.035  37.107  29.219  1.00  0.00    -0.200 F 
ENDBRANCH  62  85
ENDBRANCH  36  37
ENDBRANCH  29  31
ENDBRANCH  28  29
ENDBRANCH  27  28
ENDBRANCH  26  27
ENDBRANCH  25  26
ENDBRANCH   1  25
TORSDOF 18
ENDMDL
MODEL 3
REMARK VINA RESULT:     -11.3      4.584      8.772
REMARK SMILES Cc1cc(Cl)c2c(c1)C=C(C(=O)OCCOCCOCCOC(=O)c1ccc(-c3c4nc(c(-c5c(F)c(F)c(F)c(F)c5F)c5ccc([nH]5)c(-c5c(F)c(F)c(F)c(F)c5F)c5nc(c(-c6c(F)c(F)c(F)c(F)c6F)c6ccc3[nH]6)C=C5)C=C4)cc1)[C@@H](C(F)(F)F)O2
REMARK SMILES IDX 18 1 17 2 16 3 15 4 14 5 13 6 11 7 12 8 10 9 1 10 2 11 3 12
REMARK SMILES IDX 8 13 4 14 7 15 5 16 6 17 9 18 93 19 88 20 89 21 90 22 91 23
REMARK SMILES IDX 92 24 19 25 20 26 21 27 22 28 23 29 24 30 25 31 26 32 87 33
REMARK SMILES IDX 27 34 86 35 28 36 29 37 30 38 80 39 31 40 85 41 79 42 81 43
REMARK SMILES IDX 32 44 84 45 78 46 77 47 33 49 65 50 45 51 64 52 46 53 49 54
REMARK SMILES IDX 63 55 82 56 47 57 48 58 62 60 83 61 50 62 34 63 35 64 43 65
REMARK SMILES IDX 36 66 37 67 41 68 44 69 38 70 39 71 42 72 40 73 66 74 67 75
REMARK SMILES IDX 75 76 68 77 69 78 73 79 76 80 70 81 71 82 74 83 72 84 51 85
REMARK SMILES IDX 52 86 60 87 53 88 54 89 58 90 61 91 55 92 56 93 59 94 57 95
REMARK H PARENT 81 48 49 59
REMARK Flexibility Score: inf
ROOT
ATOM      1  C   UNL A   1      42.125  19.488  26.145  1.00  0.00     0.188 C 
ENDROOT
BRANCH   1   2
ATOM      2  C   UNL A   1      40.924  20.225  26.774  1.00  0.00     0.188 C 
BRANCH   2   3
ATOM      3  O   UNL A   1      40.574  21.517  26.332  1.00  0.00    -0.376 OA
BRANCH   3   4
ATOM      4  C   UNL A   1      39.258  22.017  26.498  1.00  0.00     0.202 C 
BRANCH   4   5
ATOM      5  C   UNL A   1      38.816  23.432  26.095  1.00  0.00     0.261 C 
BRANCH   5   6
ATOM      6  O   UNL A   1      37.410  23.697  26.144  1.00  0.00    -0.460 OA
BRANCH   6   7
ATOM      7  C   UNL A   1      36.740  23.469  24.989  1.00  0.00     0.338 C 
ATOM      8  O   UNL A   1      37.198  23.003  23.959  1.00  0.00    -0.246 OA
BRANCH   7   9
ATOM      9  C   UNL A   1      35.299  23.719  25.195  1.00  0.00     0.087 C 
ATOM     10  C   UNL A   1      31.418  28.175  26.942  1.00  0.00     0.044 C 
ATOM     11  C   UNL A   1      31.825  26.808  26.474  1.00  0.00    -0.049 A 
ATOM     12  C   UNL A   1      30.914  25.748  26.522  1.00  0.00     0.028 A 
ATOM     13  C   UNL A   1      33.141  26.554  26.068  1.00  0.00     0.015 A 
ATOM     14  C   UNL A   1      31.304  24.462  26.135  1.00  0.00     0.084 A 
ATOM     15  C   UNL A   1      33.543  25.257  25.717  1.00  0.00     0.019 A 
ATOM     16  Cl  UNL A   1      30.133  23.194  26.221  1.00  0.00    -0.080 Cl
ATOM     17  C   UNL A   1      32.619  24.208  25.728  1.00  0.00     0.146 A 
ATOM     18  C   UNL A   1      34.939  24.990  25.413  1.00  0.00     0.027 C 
ATOM     19  O   UNL A   1      32.941  22.932  25.353  1.00  0.00    -0.474 OA
ATOM     20  C   UNL A   1      34.333  22.568  25.156  1.00  0.00     0.316 C 
BRANCH  20  21
ATOM     21  C   UNL A   1      34.703  21.470  26.162  1.00  0.00     0.430 C 
ATOM     22  F   UNL A   1      35.766  20.747  25.739  1.00  0.00    -0.167 F 
ATOM     23  F   UNL A   1      35.043  21.992  27.365  1.00  0.00    -0.167 F 
ATOM     24  F   UNL A   1      33.680  20.612  26.371  1.00  0.00    -0.167 F 
ENDBRANCH  20  21
ENDBRANCH   7   9
ENDBRANCH   6   7
ENDBRANCH   5   6
ENDBRANCH   4   5
ENDBRANCH   3   4
ENDBRANCH   2   3
ENDBRANCH   1   2
BRANCH   1  25
ATOM     25  O   UNL A   1      42.871  20.099  25.118  1.00  0.00    -0.376 OA
BRANCH  25  26
ATOM     26  C   UNL A   1      44.204  20.516  25.372  1.00  0.00     0.202 C 
BRANCH  26  27
ATOM     27  C   UNL A   1      44.666  21.986  25.352  1.00  0.00     0.261 C 
BRANCH  27  28
ATOM     28  O   UNL A   1      43.713  22.969  25.776  1.00  0.00    -0.460 OA
BRANCH  28  29
ATOM     29  C   UNL A   1      44.049  24.262  25.515  1.00  0.00     0.338 C 
ATOM     30  O   UNL A   1      44.702  24.686  24.586  1.00  0.00    -0.246 OA
BRANCH  29  31
ATOM     31  C   UNL A   1      43.306  25.138  26.445  1.00  0.00     0.060 A 
ATOM     32  C   UNL A   1      43.705  26.476  26.570  1.00  0.00     0.016 A 
ATOM     33  C   UNL A   1      42.236  24.644  27.190  1.00  0.00     0.016 A 
ATOM     34  C   UNL A   1      43.026  27.331  27.438  1.00  0.00     0.010 A 
ATOM     35  C   UNL A   1      41.579  25.493  28.088  1.00  0.00     0.010 A 
ATOM     36  C   UNL A   1      41.984  26.833  28.231  1.00  0.00    -0.014 A 
BRANCH  36  37
ATOM     37  C   UNL A   1      41.475  27.663  29.350  1.00  0.00     0.031 A 
ATOM     38  C   UNL A   1      42.228  27.633  30.651  1.00  0.00     0.074 A 
ATOM     39  C   UNL A   1      40.413  28.475  29.202  1.00  0.00     0.049 A 
ATOM     40  N   UNL A   1      42.007  28.299  31.755  1.00  0.00    -0.248 NA
ATOM     41  C   UNL A   1      43.392  26.731  30.714  1.00  0.00     0.031 C 
ATOM     42  C   UNL A   1      39.626  28.625  27.981  1.00  0.00     0.029 A 
ATOM     43  N   UNL A   1      39.819  29.336  30.094  1.00  0.00    -0.354 N 
ATOM     44  C   UNL A   1      43.011  27.911  32.632  1.00  0.00     0.074 A 
ATOM     45  C   UNL A   1      43.810  26.915  31.957  1.00  0.00     0.031 C 
ATOM     46  C   UNL A   1      38.653  29.528  28.198  1.00  0.00     0.029 A 
ATOM     47  C   UNL A   1      38.733  30.003  29.580  1.00  0.00     0.049 A 
ATOM     48  H   UNL A   1      40.141  29.462  31.015  1.00  0.00     0.167 HD
ATOM     49  C   UNL A   1      43.259  28.364  33.882  1.00  0.00     0.037 A 
ATOM     50  C   UNL A   1      37.900  30.888  30.164  1.00  0.00     0.037 A 
ATOM     51  C   UNL A   1      42.464  29.353  34.557  1.00  0.00     0.049 A 
ATOM     52  C   UNL A   1      38.133  31.293  31.601  1.00  0.00     0.074 A 
ATOM     53  C   UNL A   1      42.648  29.885  35.820  1.00  0.00     0.029 A 
ATOM     54  N   UNL A   1      41.331  29.950  34.028  1.00  0.00    -0.354 N 
ATOM     55  N   UNL A   1      39.112  30.962  32.406  1.00  0.00    -0.248 NA
ATOM     56  C   UNL A   1      37.140  32.193  32.212  1.00  0.00     0.031 C 
ATOM     57  C   UNL A   1      41.594  30.763  36.079  1.00  0.00     0.029 A 
ATOM     58  C   UNL A   1      40.782  30.819  34.956  1.00  0.00     0.049 A 
ATOM     59  H   UNL A   1      40.970  29.782  33.127  1.00  0.00     0.167 HD
ATOM     60  C   UNL A   1      38.870  31.624  33.603  1.00  0.00     0.074 A 
ATOM     61  C   UNL A   1      37.658  32.394  33.418  1.00  0.00     0.031 C 
ATOM     62  C   UNL A   1      39.584  31.592  34.754  1.00  0.00     0.037 A 
BRANCH  49  63
ATOM     63  C   UNL A   1      44.446  27.803  34.606  1.00  0.00     0.064 A 
ATOM     64  C   UNL A   1      44.379  26.567  35.265  1.00  0.00     0.173 A 
ATOM     65  C   UNL A   1      45.679  28.471  34.580  1.00  0.00     0.173 A 
ATOM     66  F   UNL A   1      43.218  25.897  35.329  1.00  0.00    -0.203 F 
ATOM     67  C   UNL A   1      45.502  26.025  35.882  1.00  0.00     0.198 A 
ATOM     68  C   UNL A   1      46.807  27.911  35.172  1.00  0.00     0.198 A 
ATOM     69  F   UNL A   1      45.795  29.654  33.957  1.00  0.00    -0.203 F 
ATOM     70  F   UNL A   1      45.408  24.857  36.534  1.00  0.00    -0.200 F 
ATOM     71  C   UNL A   1      46.717  26.691  35.825  1.00  0.00     0.200 A 
ATOM     72  F   UNL A   1      47.983  28.549  35.103  1.00  0.00    -0.200 F 
ATOM     73  F   UNL A   1      47.803  26.158  36.402  1.00  0.00    -0.200 F 
ENDBRANCH  49  63
BRANCH  50  74
ATOM     74  C   UNL A   1      36.766  31.467  29.393  1.00  0.00     0.064 A 
ATOM     75  C   UNL A   1      35.661  30.682  29.035  1.00  0.00     0.173 A 
ATOM     76  C   UNL A   1      36.771  32.808  28.980  1.00  0.00     0.173 A 
ATOM     77  F   UNL A   1      35.622  29.386  29.380  1.00  0.00    -0.203 F 
ATOM     78  C   UNL A   1      34.612  31.211  28.286  1.00  0.00     0.198 A 
ATOM     79  C   UNL A   1      35.707  33.344  28.255  1.00  0.00     0.198 A 
ATOM     80  F   UNL A   1      37.807  33.603  29.286  1.00  0.00    -0.203 F 
ATOM     81  F   UNL A   1      33.590  30.424  27.920  1.00  0.00    -0.200 F 
ATOM     82  C   UNL A   1      34.632  32.543  27.903  1.00  0.00     0.200 A 
ATOM     83  F   UNL A   1      35.727  34.635  27.895  1.00  0.00    -0.200 F 
ATOM     84  F   UNL A   1      33.619  33.052  27.187  1.00  0.00    -0.200 F 
ENDBRANCH  50  74
BRANCH  62  85
ATOM     85  C   UNL A   1      39.098  32.404  35.920  1.00  0.00     0.064 A 
ATOM     86  C   UNL A   1      38.286  31.836  36.912  1.00  0.00     0.173 A 
ATOM     87  C   UNL A   1      39.566  33.713  36.122  1.00  0.00     0.173 A 
ATOM     88  F   UNL A   1      37.805  30.593  36.760  1.00  0.00    -0.203 F 
ATOM     89  C   UNL A   1      37.966  32.546  38.067  1.00  0.00     0.198 A 
ATOM     90  C   UNL A   1      39.268  34.408  37.291  1.00  0.00     0.198 A 
ATOM     91  F   UNL A   1      40.357  34.296  35.208  1.00  0.00    -0.203 F 
ATOM     92  F   UNL A   1      37.179  31.987  38.996  1.00  0.00    -0.200 F 
ATOM     93  C   UNL A   1      38.470  33.823  38.262  1.00  0.00     0.200 A 
ATOM     94  F   UNL A   1      39.774  35.633  37.488  1.00  0.00    -0.200 F 
ATOM     95  F   UNL A   1      38.192  34.488  39.392  1.00  0.00    -0.200 F 
ENDBRANCH  62  85
ENDBRANCH  36  37
ENDBRANCH  29  31
ENDBRANCH  28  29
ENDBRANCH  27  28
ENDBRANCH  26  27
ENDBRANCH  25  26
ENDBRANCH   1  25
TORSDOF 18
ENDMDL
