MODEL 1
REMARK VINA RESULT:     -10.1      0.000      0.000
REMARK SMILES O=C(OCCOCCOCCOC(=O)[C@@H]1C[C@@H](O)CN1C(=O)CSc1ccc(F)cc1F)c1ccc(-c2c3nc(c(-c4c(F)c(F)c(F)c(F)c4F)c4ccc([nH]4)c(-c4c(F)c(F)c(F)c(F)c4F)c4nc(c(-c5c(F)c(F)c(F)c(F)c5F)c5ccc2[nH]5)C=C4)C=C3)cc1
REMARK SMILES IDX 8 1 7 2 6 3 5 4 4 5 3 6 2 7 1 8 33 9 34 10 95 11 35 12 94 13
REMARK SMILES IDX 36 14 37 15 38 16 88 17 39 18 93 19 87 20 89 21 40 22 92 23
REMARK SMILES IDX 86 24 85 25 41 27 73 28 53 29 72 30 54 31 57 32 71 33 90 34
REMARK SMILES IDX 55 35 56 36 70 38 91 39 58 40 42 41 43 42 51 43 44 44 45 45
REMARK SMILES IDX 49 46 52 47 46 48 47 49 50 50 48 51 74 52 75 53 83 54 76 55
REMARK SMILES IDX 77 56 81 57 84 58 78 59 79 60 82 61 80 62 59 63 60 64 68 65
REMARK SMILES IDX 61 66 62 67 66 68 69 69 63 70 64 71 67 72 65 73 9 74 10 75
REMARK SMILES IDX 11 76 12 77 13 78 14 79 15 80 16 81 20 82 17 83 19 84 21 85
REMARK SMILES IDX 22 86 23 87 24 88 25 89 26 90 31 91 27 92 30 93 32 94 28 95
REMARK SMILES IDX 29 96 18 97
REMARK H PARENT 89 26 57 37 18 98
REMARK Flexibility Score: inf
ROOT
ATOM      1  C   UNL A   1      39.980  22.030  26.853  1.00  0.00     0.188 C 
ENDROOT
BRANCH   1   2
ATOM      2  C   UNL A   1      41.418  21.551  26.653  1.00  0.00     0.188 C 
BRANCH   2   3
ATOM      3  O   UNL A   1      41.497  20.439  25.767  1.00  0.00    -0.376 OA
BRANCH   3   4
ATOM      4  C   UNL A   1      41.797  19.172  26.326  1.00  0.00     0.202 C 
BRANCH   4   5
ATOM      5  C   UNL A   1      43.030  18.394  25.848  1.00  0.00     0.261 C 
BRANCH   5   6
ATOM      6  O   UNL A   1      43.689  18.815  24.640  1.00  0.00    -0.460 OA
BRANCH   6   7
ATOM      7  C   UNL A   1      44.745  19.615  24.391  1.00  0.00     0.338 C 
ATOM      8  O   UNL A   1      45.746  19.108  23.884  1.00  0.00    -0.246 OA
BRANCH   7   9
ATOM      9  C   UNL A   1      44.811  21.061  24.755  1.00  0.00     0.060 A 
ATOM     10  C   UNL A   1      44.517  22.114  23.897  1.00  0.00     0.016 A 
ATOM     11  C   UNL A   1      45.255  21.372  26.058  1.00  0.00     0.016 A 
ATOM     12  C   UNL A   1      44.611  23.434  24.336  1.00  0.00     0.010 A 
ATOM     13  C   UNL A   1      45.404  22.696  26.488  1.00  0.00     0.010 A 
ATOM     14  C   UNL A   1      45.080  23.738  25.622  1.00  0.00    -0.014 A 
BRANCH  14  15
ATOM     15  C   UNL A   1      45.384  25.155  25.927  1.00  0.00     0.031 A 
ATOM     16  C   UNL A   1      44.332  25.945  26.654  1.00  0.00     0.074 A 
ATOM     17  C   UNL A   1      46.598  25.682  25.682  1.00  0.00     0.049 A 
ATOM     18  N   UNL A   1      44.404  27.142  27.168  1.00  0.00    -0.248 NA
ATOM     19  C   UNL A   1      43.025  25.287  26.838  1.00  0.00     0.031 C 
ATOM     20  C   UNL A   1      47.691  24.995  25.000  1.00  0.00     0.029 A 
ATOM     21  N   UNL A   1      47.146  26.889  26.051  1.00  0.00    -0.354 N 
ATOM     22  C   UNL A   1      43.152  27.386  27.713  1.00  0.00     0.074 A 
ATOM     23  C   UNL A   1      42.359  26.191  27.536  1.00  0.00     0.031 C 
ATOM     24  C   UNL A   1      48.806  25.741  25.103  1.00  0.00     0.029 A 
ATOM     25  C   UNL A   1      48.501  26.978  25.812  1.00  0.00     0.049 A 
ATOM     26  H   UNL A   1      46.621  27.619  26.450  1.00  0.00     0.167 HD
ATOM     27  C   UNL A   1      42.683  28.535  28.245  1.00  0.00     0.037 A 
ATOM     28  C   UNL A   1      49.381  27.944  26.148  1.00  0.00     0.037 A 
ATOM     29  C   UNL A   1      43.448  29.747  28.312  1.00  0.00     0.049 A 
ATOM     30  C   UNL A   1      48.826  29.214  26.753  1.00  0.00     0.074 A 
ATOM     31  C   UNL A   1      43.027  31.019  28.650  1.00  0.00     0.029 A 
ATOM     32  N   UNL A   1      44.800  29.833  28.011  1.00  0.00    -0.354 N 
ATOM     33  N   UNL A   1      47.615  29.466  27.188  1.00  0.00    -0.248 NA
ATOM     34  C   UNL A   1      49.746  30.356  26.847  1.00  0.00     0.031 C 
ATOM     35  C   UNL A   1      44.117  31.884  28.516  1.00  0.00     0.029 A 
ATOM     36  C   UNL A   1      45.230  31.140  28.154  1.00  0.00     0.049 A 
ATOM     37  H   UNL A   1      45.368  29.078  27.738  1.00  0.00     0.167 HD
ATOM     38  C   UNL A   1      47.618  30.802  27.568  1.00  0.00     0.074 A 
ATOM     39  C   UNL A   1      48.974  31.281  27.398  1.00  0.00     0.031 C 
ATOM     40  C   UNL A   1      46.585  31.583  27.966  1.00  0.00     0.037 A 
BRANCH  27  41
ATOM     41  C   UNL A   1      41.247  28.558  28.660  1.00  0.00     0.064 A 
ATOM     42  C   UNL A   1      40.262  28.970  27.750  1.00  0.00     0.173 A 
ATOM     43  C   UNL A   1      40.840  28.168  29.943  1.00  0.00     0.173 A 
ATOM     44  F   UNL A   1      40.602  29.327  26.503  1.00  0.00    -0.203 F 
ATOM     45  C   UNL A   1      38.921  29.015  28.117  1.00  0.00     0.198 A 
ATOM     46  C   UNL A   1      39.494  28.193  30.300  1.00  0.00     0.198 A 
ATOM     47  F   UNL A   1      41.741  27.722  30.831  1.00  0.00    -0.203 F 
ATOM     48  F   UNL A   1      38.000  29.427  27.236  1.00  0.00    -0.200 F 
ATOM     49  C   UNL A   1      38.538  28.626  29.392  1.00  0.00     0.200 A 
ATOM     50  F   UNL A   1      39.119  27.783  31.520  1.00  0.00    -0.200 F 
ATOM     51  F   UNL A   1      37.245  28.655  29.741  1.00  0.00    -0.200 F 
ENDBRANCH  27  41
BRANCH  28  52
ATOM     52  C   UNL A   1      50.855  27.809  25.917  1.00  0.00     0.064 A 
ATOM     53  C   UNL A   1      51.732  27.321  26.897  1.00  0.00     0.173 A 
ATOM     54  C   UNL A   1      51.410  28.102  24.657  1.00  0.00     0.173 A 
ATOM     55  F   UNL A   1      51.268  26.987  28.109  1.00  0.00    -0.203 F 
ATOM     56  C   UNL A   1      53.093  27.151  26.638  1.00  0.00     0.198 A 
ATOM     57  C   UNL A   1      52.762  27.883  24.383  1.00  0.00     0.198 A 
ATOM     58  F   UNL A   1      50.623  28.541  23.664  1.00  0.00    -0.203 F 
ATOM     59  F   UNL A   1      53.907  26.710  27.607  1.00  0.00    -0.200 F 
ATOM     60  C   UNL A   1      53.604  27.417  25.377  1.00  0.00     0.200 A 
ATOM     61  F   UNL A   1      53.237  28.095  23.148  1.00  0.00    -0.200 F 
ATOM     62  F   UNL A   1      54.902  27.207  25.117  1.00  0.00    -0.200 F 
ENDBRANCH  28  52
BRANCH  40  63
ATOM     63  C   UNL A   1      46.877  33.034  28.210  1.00  0.00     0.064 A 
ATOM     64  C   UNL A   1      47.248  33.485  29.484  1.00  0.00     0.173 A 
ATOM     65  C   UNL A   1      46.733  33.985  27.188  1.00  0.00     0.173 A 
ATOM     66  F   UNL A   1      47.384  32.617  30.496  1.00  0.00    -0.203 F 
ATOM     67  C   UNL A   1      47.462  34.838  29.727  1.00  0.00     0.198 A 
ATOM     68  C   UNL A   1      46.981  35.334  27.426  1.00  0.00     0.198 A 
ATOM     69  F   UNL A   1      46.385  33.602  25.950  1.00  0.00    -0.203 F 
ATOM     70  F   UNL A   1      47.789  35.252  30.959  1.00  0.00    -0.200 F 
ATOM     71  C   UNL A   1      47.338  35.759  28.698  1.00  0.00     0.200 A 
ATOM     72  F   UNL A   1      46.887  36.218  26.424  1.00  0.00    -0.200 F 
ATOM     73  F   UNL A   1      47.568  37.059  28.928  1.00  0.00    -0.200 F 
ENDBRANCH  40  63
ENDBRANCH  14  15
ENDBRANCH   7   9
ENDBRANCH   6   7
ENDBRANCH   5   6
ENDBRANCH   4   5
ENDBRANCH   3   4
ENDBRANCH   2   3
ENDBRANCH   1   2
BRANCH   1  74
ATOM     74  O   UNL A   1      39.814  23.416  27.154  1.00  0.00    -0.376 OA
BRANCH  74  75
ATOM     75  C   UNL A   1      38.723  24.088  26.540  1.00  0.00     0.202 C 
BRANCH  75  76
ATOM     76  C   UNL A   1      37.688  23.217  25.817  1.00  0.00     0.261 C 
BRANCH  76  77
ATOM     77  O   UNL A   1      36.358  23.272  26.363  1.00  0.00    -0.462 OA
BRANCH  77  78
ATOM     78  C   UNL A   1      35.369  22.861  25.516  1.00  0.00     0.329 C 
ATOM     79  O   UNL A   1      35.495  21.954  24.708  1.00  0.00    -0.250 OA
BRANCH  78  80
ATOM     80  C   UNL A   1      34.008  23.525  25.805  1.00  0.00     0.197 C 
ATOM     81  C   UNL A   1      33.466  23.003  27.145  1.00  0.00     0.070 C 
ATOM     82  N   UNL A   1      32.898  23.327  24.852  1.00  0.00    -0.325 N 
ATOM     83  C   UNL A   1      31.959  23.097  26.984  1.00  0.00     0.136 C 
ATOM     84  C   UNL A   1      31.759  22.708  25.520  1.00  0.00     0.152 C 
BRANCH  82  85
ATOM     85  C   UNL A   1      32.800  24.064  23.693  1.00  0.00     0.233 C 
ATOM     86  O   UNL A   1      32.702  23.479  22.613  1.00  0.00    -0.274 OA
BRANCH  85  87
ATOM     87  C   UNL A   1      32.939  25.583  23.716  1.00  0.00     0.175 C 
BRANCH  87  88
ATOM     88  S   UNL A   1      31.473  26.501  24.260  1.00  0.00    -0.113 SA
BRANCH  88  89
ATOM     89  C   UNL A   1      32.265  27.732  25.265  1.00  0.00     0.044 A 
ATOM     90  C   UNL A   1      33.336  27.367  26.085  1.00  0.00     0.021 A 
ATOM     91  C   UNL A   1      31.855  29.071  25.235  1.00  0.00     0.139 A 
ATOM     92  C   UNL A   1      33.979  28.326  26.864  1.00  0.00     0.040 A 
ATOM     93  C   UNL A   1      32.497  30.034  26.004  1.00  0.00     0.079 A 
ATOM     94  F   UNL A   1      30.821  29.449  24.469  1.00  0.00    -0.206 F 
ATOM     95  C   UNL A   1      33.558  29.650  26.812  1.00  0.00     0.126 A 
ATOM     96  F   UNL A   1      34.188  30.566  27.556  1.00  0.00    -0.207 F 
ENDBRANCH  88  89
ENDBRANCH  87  88
ENDBRANCH  85  87
ENDBRANCH  82  85
BRANCH  83  97
ATOM     97  O   UNL A   1      31.522  24.434  27.224  1.00  0.00    -0.391 OA
ATOM     98  H   UNL A   1      32.236  25.053  27.004  1.00  0.00     0.211 HD
ENDBRANCH  83  97
ENDBRANCH  78  80
ENDBRANCH  77  78
ENDBRANCH  76  77
ENDBRANCH  75  76
ENDBRANCH  74  75
ENDBRANCH   1  74
TORSDOF 22
ENDMDL
MODEL 2
REMARK VINA RESULT:      -9.8      3.386      8.400
REMARK SMILES O=C(OCCOCCOCCOC(=O)[C@@H]1C[C@@H](O)CN1C(=O)CSc1ccc(F)cc1F)c1ccc(-c2c3nc(c(-c4c(F)c(F)c(F)c(F)c4F)c4ccc([nH]4)c(-c4c(F)c(F)c(F)c(F)c4F)c4nc(c(-c5c(F)c(F)c(F)c(F)c5F)c5ccc2[nH]5)C=C4)C=C3)cc1
REMARK SMILES IDX 8 1 7 2 6 3 5 4 4 5 3 6 2 7 1 8 33 9 34 10 95 11 35 12 94 13
REMARK SMILES IDX 36 14 37 15 38 16 88 17 39 18 93 19 87 20 89 21 40 22 92 23
REMARK SMILES IDX 86 24 85 25 41 27 73 28 53 29 72 30 54 31 57 32 71 33 90 34
REMARK SMILES IDX 55 35 56 36 70 38 91 39 58 40 42 41 43 42 51 43 44 44 45 45
REMARK SMILES IDX 49 46 52 47 46 48 47 49 50 50 48 51 74 52 75 53 83 54 76 55
REMARK SMILES IDX 77 56 81 57 84 58 78 59 79 60 82 61 80 62 59 63 60 64 68 65
REMARK SMILES IDX 61 66 62 67 66 68 69 69 63 70 64 71 67 72 65 73 9 74 10 75
REMARK SMILES IDX 11 76 12 77 13 78 14 79 15 80 16 81 20 82 17 83 19 84 21 85
REMARK SMILES IDX 22 86 23 87 24 88 25 89 26 90 31 91 27 92 30 93 32 94 28 95
REMARK SMILES IDX 29 96 18 97
REMARK H PARENT 89 26 57 37 18 98
REMARK Flexibility Score: inf
ROOT
ATOM      1  C   UNL A   1      34.251  30.607  27.251  1.00  0.00     0.188 C 
ENDROOT
BRANCH   1   2
ATOM      2  C   UNL A   1      33.563  31.872  27.765  1.00  0.00     0.188 C 
BRANCH   2   3
ATOM      3  O   UNL A   1      34.496  32.845  28.222  1.00  0.00    -0.376 OA
BRANCH   3   4
ATOM      4  C   UNL A   1      34.031  33.826  29.133  1.00  0.00     0.202 C 
BRANCH   4   5
ATOM      5  C   UNL A   1      34.403  33.730  30.619  1.00  0.00     0.261 C 
BRANCH   5   6
ATOM      6  O   UNL A   1      34.668  32.435  31.185  1.00  0.00    -0.460 OA
BRANCH   6   7
ATOM      7  C   UNL A   1      35.669  31.941  31.942  1.00  0.00     0.338 C 
ATOM      8  O   UNL A   1      35.599  32.095  33.162  1.00  0.00    -0.246 OA
BRANCH   7   9
ATOM      9  C   UNL A   1      36.892  31.283  31.396  1.00  0.00     0.060 A 
ATOM     10  C   UNL A   1      37.917  30.742  32.164  1.00  0.00     0.016 A 
ATOM     11  C   UNL A   1      37.031  31.257  29.992  1.00  0.00     0.016 A 
ATOM     12  C   UNL A   1      39.021  30.148  31.554  1.00  0.00     0.010 A 
ATOM     13  C   UNL A   1      38.163  30.710  29.375  1.00  0.00     0.010 A 
ATOM     14  C   UNL A   1      39.168  30.151  30.160  1.00  0.00    -0.014 A 
BRANCH  14  15
ATOM     15  C   UNL A   1      40.474  29.725  29.603  1.00  0.00     0.031 A 
ATOM     16  C   UNL A   1      40.540  28.368  28.963  1.00  0.00     0.074 A 
ATOM     17  C   UNL A   1      41.525  30.564  29.556  1.00  0.00     0.049 A 
ATOM     18  N   UNL A   1      41.506  27.823  28.275  1.00  0.00    -0.248 NA
ATOM     19  C   UNL A   1      39.346  27.513  29.106  1.00  0.00     0.031 C 
ATOM     20  C   UNL A   1      41.557  31.906  30.131  1.00  0.00     0.029 A 
ATOM     21  N   UNL A   1      42.742  30.446  28.926  1.00  0.00    -0.354 N 
ATOM     22  C   UNL A   1      41.046  26.562  27.926  1.00  0.00     0.074 A 
ATOM     23  C   UNL A   1      39.690  26.442  28.409  1.00  0.00     0.031 C 
ATOM     24  C   UNL A   1      42.681  32.525  29.730  1.00  0.00     0.029 A 
ATOM     25  C   UNL A   1      43.473  31.615  28.911  1.00  0.00     0.049 A 
ATOM     26  H   UNL A   1      43.060  29.607  28.522  1.00  0.00     0.167 HD
ATOM     27  C   UNL A   1      41.726  25.564  27.321  1.00  0.00     0.037 A 
ATOM     28  C   UNL A   1      44.637  31.904  28.291  1.00  0.00     0.037 A 
ATOM     29  C   UNL A   1      43.108  25.660  26.948  1.00  0.00     0.049 A 
ATOM     30  C   UNL A   1      45.367  30.767  27.614  1.00  0.00     0.074 A 
ATOM     31  C   UNL A   1      43.956  24.663  26.506  1.00  0.00     0.029 A 
ATOM     32  N   UNL A   1      43.848  26.832  26.994  1.00  0.00    -0.354 N 
ATOM     33  N   UNL A   1      44.956  29.548  27.362  1.00  0.00    -0.248 NA
ATOM     34  C   UNL A   1      46.753  31.030  27.197  1.00  0.00     0.031 C 
ATOM     35  C   UNL A   1      45.224  25.225  26.322  1.00  0.00     0.029 A 
ATOM     36  C   UNL A   1      45.147  26.583  26.591  1.00  0.00     0.049 A 
ATOM     37  H   UNL A   1      43.501  27.710  27.272  1.00  0.00     0.167 HD
ATOM     38  C   UNL A   1      46.041  28.890  26.798  1.00  0.00     0.074 A 
ATOM     39  C   UNL A   1      47.098  29.870  26.659  1.00  0.00     0.031 C 
ATOM     40  C   UNL A   1      46.177  27.581  26.475  1.00  0.00     0.037 A 
BRANCH  27  41
ATOM     41  C   UNL A   1      41.019  24.257  27.162  1.00  0.00     0.064 A 
ATOM     42  C   UNL A   1      39.944  24.146  26.266  1.00  0.00     0.173 A 
ATOM     43  C   UNL A   1      41.401  23.115  27.879  1.00  0.00     0.173 A 
ATOM     44  F   UNL A   1      39.560  25.206  25.539  1.00  0.00    -0.203 F 
ATOM     45  C   UNL A   1      39.260  22.945  26.113  1.00  0.00     0.198 A 
ATOM     46  C   UNL A   1      40.728  21.909  27.707  1.00  0.00     0.198 A 
ATOM     47  F   UNL A   1      42.452  23.161  28.711  1.00  0.00    -0.203 F 
ATOM     48  F   UNL A   1      38.227  22.868  25.264  1.00  0.00    -0.200 F 
ATOM     49  C   UNL A   1      39.653  21.827  26.832  1.00  0.00     0.200 A 
ATOM     50  F   UNL A   1      41.130  20.818  28.374  1.00  0.00    -0.200 F 
ATOM     51  F   UNL A   1      39.003  20.666  26.674  1.00  0.00    -0.200 F 
ENDBRANCH  27  41
BRANCH  28  52
ATOM     52  C   UNL A   1      45.225  33.282  28.282  1.00  0.00     0.064 A 
ATOM     53  C   UNL A   1      46.169  33.707  29.228  1.00  0.00     0.173 A 
ATOM     54  C   UNL A   1      44.900  34.189  27.256  1.00  0.00     0.173 A 
ATOM     55  F   UNL A   1      46.554  32.883  30.212  1.00  0.00    -0.203 F 
ATOM     56  C   UNL A   1      46.745  34.977  29.164  1.00  0.00     0.198 A 
ATOM     57  C   UNL A   1      45.515  35.440  27.163  1.00  0.00     0.198 A 
ATOM     58  F   UNL A   1      44.029  33.836  26.299  1.00  0.00    -0.203 F 
ATOM     59  F   UNL A   1      47.621  35.361  30.102  1.00  0.00    -0.200 F 
ATOM     60  C   UNL A   1      46.429  35.837  28.123  1.00  0.00     0.200 A 
ATOM     61  F   UNL A   1      45.242  36.244  26.126  1.00  0.00    -0.200 F 
ATOM     62  F   UNL A   1      47.020  37.037  28.036  1.00  0.00    -0.200 F 
ENDBRANCH  28  52
BRANCH  40  63
ATOM     63  C   UNL A   1      47.519  27.134  25.976  1.00  0.00     0.064 A 
ATOM     64  C   UNL A   1      48.492  26.660  26.867  1.00  0.00     0.173 A 
ATOM     65  C   UNL A   1      47.857  27.229  24.617  1.00  0.00     0.173 A 
ATOM     66  F   UNL A   1      48.221  26.565  28.177  1.00  0.00    -0.203 F 
ATOM     67  C   UNL A   1      49.758  26.300  26.415  1.00  0.00     0.198 A 
ATOM     68  C   UNL A   1      49.113  26.835  24.164  1.00  0.00     0.198 A 
ATOM     69  F   UNL A   1      46.958  27.671  23.725  1.00  0.00    -0.203 F 
ATOM     70  F   UNL A   1      50.683  25.877  27.288  1.00  0.00    -0.200 F 
ATOM     71  C   UNL A   1      50.064  26.378  25.065  1.00  0.00     0.200 A 
ATOM     72  F   UNL A   1      49.398  26.887  22.856  1.00  0.00    -0.200 F 
ATOM     73  F   UNL A   1      51.276  26.008  24.629  1.00  0.00    -0.200 F 
ENDBRANCH  40  63
ENDBRANCH  14  15
ENDBRANCH   7   9
ENDBRANCH   6   7
ENDBRANCH   5   6
ENDBRANCH   4   5
ENDBRANCH   3   4
ENDBRANCH   2   3
ENDBRANCH   1   2
BRANCH   1  74
ATOM     74  O   UNL A   1      33.645  29.367  27.617  1.00  0.00    -0.376 OA
BRANCH  74  75
ATOM     75  C   UNL A   1      32.285  29.177  27.251  1.00  0.00     0.202 C 
BRANCH  75  76
ATOM     76  C   UNL A   1      31.695  27.777  27.470  1.00  0.00     0.261 C 
BRANCH  76  77
ATOM     77  O   UNL A   1      31.442  27.029  26.267  1.00  0.00    -0.462 OA
BRANCH  77  78
ATOM     78  C   UNL A   1      32.385  26.092  25.961  1.00  0.00     0.329 C 
ATOM     79  O   UNL A   1      33.590  26.285  26.032  1.00  0.00    -0.250 OA
BRANCH  78  80
ATOM     80  C   UNL A   1      31.790  24.696  25.694  1.00  0.00     0.197 C 
ATOM     81  C   UNL A   1      31.830  23.874  26.992  1.00  0.00     0.070 C 
ATOM     82  N   UNL A   1      32.425  23.826  24.683  1.00  0.00    -0.325 N 
ATOM     83  C   UNL A   1      31.941  22.439  26.505  1.00  0.00     0.136 C 
ATOM     84  C   UNL A   1      32.857  22.573  25.290  1.00  0.00     0.152 C 
BRANCH  82  85
ATOM     85  C   UNL A   1      32.177  23.983  23.338  1.00  0.00     0.233 C 
ATOM     86  O   UNL A   1      31.159  23.488  22.851  1.00  0.00    -0.274 OA
BRANCH  85  87
ATOM     87  C   UNL A   1      33.203  24.645  22.424  1.00  0.00     0.175 C 
BRANCH  87  88
ATOM     88  S   UNL A   1      32.528  25.723  21.131  1.00  0.00    -0.113 SA
BRANCH  88  89
ATOM     89  C   UNL A   1      31.964  27.066  22.146  1.00  0.00     0.044 A 
ATOM     90  C   UNL A   1      30.596  27.225  22.379  1.00  0.00     0.021 A 
ATOM     91  C   UNL A   1      32.865  27.958  22.740  1.00  0.00     0.139 A 
ATOM     92  C   UNL A   1      30.140  28.262  23.189  1.00  0.00     0.040 A 
ATOM     93  C   UNL A   1      32.418  28.991  23.555  1.00  0.00     0.079 A 
ATOM     94  F   UNL A   1      34.183  27.840  22.523  1.00  0.00    -0.206 F 
ATOM     95  C   UNL A   1      31.055  29.131  23.774  1.00  0.00     0.126 A 
ATOM     96  F   UNL A   1      30.609  30.119  24.558  1.00  0.00    -0.207 F 
ENDBRANCH  88  89
ENDBRANCH  87  88
ENDBRANCH  85  87
ENDBRANCH  82  85
BRANCH  83  97
ATOM     97  O   UNL A   1      30.655  21.948  26.128  1.00  0.00    -0.391 OA
ATOM     98  H   UNL A   1      30.604  21.883  25.161  1.00  0.00     0.211 HD
ENDBRANCH  83  97
ENDBRANCH  78  80
ENDBRANCH  77  78
ENDBRANCH  76  77
ENDBRANCH  75  76
ENDBRANCH  74  75
ENDBRANCH   1  74
TORSDOF 22
ENDMDL
MODEL 3
REMARK VINA RESULT:      -9.8      0.595      2.040
REMARK SMILES O=C(OCCOCCOCCOC(=O)[C@@H]1C[C@@H](O)CN1C(=O)CSc1ccc(F)cc1F)c1ccc(-c2c3nc(c(-c4c(F)c(F)c(F)c(F)c4F)c4ccc([nH]4)c(-c4c(F)c(F)c(F)c(F)c4F)c4nc(c(-c5c(F)c(F)c(F)c(F)c5F)c5ccc2[nH]5)C=C4)C=C3)cc1
REMARK SMILES IDX 8 1 7 2 6 3 5 4 4 5 3 6 2 7 1 8 33 9 34 10 95 11 35 12 94 13
REMARK SMILES IDX 36 14 37 15 38 16 88 17 39 18 93 19 87 20 89 21 40 22 92 23
REMARK SMILES IDX 86 24 85 25 41 27 73 28 53 29 72 30 54 31 57 32 71 33 90 34
REMARK SMILES IDX 55 35 56 36 70 38 91 39 58 40 42 41 43 42 51 43 44 44 45 45
REMARK SMILES IDX 49 46 52 47 46 48 47 49 50 50 48 51 74 52 75 53 83 54 76 55
REMARK SMILES IDX 77 56 81 57 84 58 78 59 79 60 82 61 80 62 59 63 60 64 68 65
REMARK SMILES IDX 61 66 62 67 66 68 69 69 63 70 64 71 67 72 65 73 9 74 10 75
REMARK SMILES IDX 11 76 12 77 13 78 14 79 15 80 16 81 20 82 17 83 19 84 21 85
REMARK SMILES IDX 22 86 23 87 24 88 25 89 26 90 31 91 27 92 30 93 32 94 28 95
REMARK SMILES IDX 29 96 18 97
REMARK H PARENT 89 26 57 37 18 98
REMARK Flexibility Score: inf
ROOT
ATOM      1  C   UNL A   1      40.017  22.071  26.767  1.00  0.00     0.188 C 
ENDROOT
BRANCH   1   2
ATOM      2  C   UNL A   1      41.475  21.616  26.828  1.00  0.00     0.188 C 
BRANCH   2   3
ATOM      3  O   UNL A   1      41.793  20.686  25.798  1.00  0.00    -0.376 OA
BRANCH   3   4
ATOM      4  C   UNL A   1      41.792  19.308  26.132  1.00  0.00     0.202 C 
BRANCH   4   5
ATOM      5  C   UNL A   1      43.000  18.431  25.775  1.00  0.00     0.261 C 
BRANCH   5   6
ATOM      6  O   UNL A   1      43.756  18.743  24.592  1.00  0.00    -0.460 OA
BRANCH   6   7
ATOM      7  C   UNL A   1      44.822  19.533  24.355  1.00  0.00     0.338 C 
ATOM      8  O   UNL A   1      45.829  19.014  23.871  1.00  0.00    -0.246 OA
BRANCH   7   9
ATOM      9  C   UNL A   1      44.891  20.982  24.705  1.00  0.00     0.060 A 
ATOM     10  C   UNL A   1      44.658  22.029  23.822  1.00  0.00     0.016 A 
ATOM     11  C   UNL A   1      45.273  21.302  26.027  1.00  0.00     0.016 A 
ATOM     12  C   UNL A   1      44.749  23.352  24.251  1.00  0.00     0.010 A 
ATOM     13  C   UNL A   1      45.420  22.628  26.449  1.00  0.00     0.010 A 
ATOM     14  C   UNL A   1      45.157  23.665  25.556  1.00  0.00    -0.014 A 
BRANCH  14  15
ATOM     15  C   UNL A   1      45.466  25.081  25.861  1.00  0.00     0.031 A 
ATOM     16  C   UNL A   1      44.413  25.878  26.576  1.00  0.00     0.074 A 
ATOM     17  C   UNL A   1      46.686  25.600  25.626  1.00  0.00     0.049 A 
ATOM     18  N   UNL A   1      44.487  27.076  27.088  1.00  0.00    -0.248 NA
ATOM     19  C   UNL A   1      43.100  25.229  26.749  1.00  0.00     0.031 C 
ATOM     20  C   UNL A   1      47.781  24.905  24.955  1.00  0.00     0.029 A 
ATOM     21  N   UNL A   1      47.238  26.804  25.997  1.00  0.00    -0.354 N 
ATOM     22  C   UNL A   1      43.231  27.329  27.620  1.00  0.00     0.074 A 
ATOM     23  C   UNL A   1      42.432  26.139  27.439  1.00  0.00     0.031 C 
ATOM     24  C   UNL A   1      48.899  25.644  25.067  1.00  0.00     0.029 A 
ATOM     25  C   UNL A   1      48.595  26.885  25.770  1.00  0.00     0.049 A 
ATOM     26  H   UNL A   1      46.713  27.539  26.389  1.00  0.00     0.167 HD
ATOM     27  C   UNL A   1      42.765  28.482  28.146  1.00  0.00     0.037 A 
ATOM     28  C   UNL A   1      49.478  27.847  26.112  1.00  0.00     0.037 A 
ATOM     29  C   UNL A   1      43.536  29.690  28.217  1.00  0.00     0.049 A 
ATOM     30  C   UNL A   1      48.924  29.121  26.709  1.00  0.00     0.074 A 
ATOM     31  C   UNL A   1      43.119  30.965  28.548  1.00  0.00     0.029 A 
ATOM     32  N   UNL A   1      44.891  29.767  27.929  1.00  0.00    -0.354 N 
ATOM     33  N   UNL A   1      47.711  29.381  27.132  1.00  0.00    -0.248 NA
ATOM     34  C   UNL A   1      49.851  30.258  26.808  1.00  0.00     0.031 C 
ATOM     35  C   UNL A   1      44.216  31.823  28.422  1.00  0.00     0.029 A 
ATOM     36  C   UNL A   1      45.327  31.071  28.072  1.00  0.00     0.049 A 
ATOM     37  H   UNL A   1      45.457  29.007  27.662  1.00  0.00     0.167 HD
ATOM     38  C   UNL A   1      47.719  30.718  27.509  1.00  0.00     0.074 A 
ATOM     39  C   UNL A   1      49.080  31.188  27.351  1.00  0.00     0.031 C 
ATOM     40  C   UNL A   1      46.687  31.507  27.896  1.00  0.00     0.037 A 
BRANCH  27  41
ATOM     41  C   UNL A   1      41.325  28.514  28.547  1.00  0.00     0.064 A 
ATOM     42  C   UNL A   1      40.952  28.142  29.848  1.00  0.00     0.173 A 
ATOM     43  C   UNL A   1      40.317  28.918  27.661  1.00  0.00     0.173 A 
ATOM     44  F   UNL A   1      41.885  27.773  30.738  1.00  0.00    -0.203 F 
ATOM     45  C   UNL A   1      39.618  28.148  30.240  1.00  0.00     0.198 A 
ATOM     46  C   UNL A   1      38.985  28.944  28.064  1.00  0.00     0.198 A 
ATOM     47  F   UNL A   1      40.631  29.328  26.423  1.00  0.00    -0.203 F 
ATOM     48  F   UNL A   1      39.284  27.773  31.482  1.00  0.00    -0.200 F 
ATOM     49  C   UNL A   1      38.635  28.550  29.348  1.00  0.00     0.200 A 
ATOM     50  F   UNL A   1      38.038  29.367  27.215  1.00  0.00    -0.200 F 
ATOM     51  F   UNL A   1      37.351  28.570  29.730  1.00  0.00    -0.200 F 
ENDBRANCH  27  41
BRANCH  28  52
ATOM     52  C   UNL A   1      50.953  27.702  25.895  1.00  0.00     0.064 A 
ATOM     53  C   UNL A   1      51.579  28.074  24.696  1.00  0.00     0.173 A 
ATOM     54  C   UNL A   1      51.787  27.252  26.935  1.00  0.00     0.173 A 
ATOM     55  F   UNL A   1      50.852  28.546  23.675  1.00  0.00    -0.203 F 
ATOM     56  C   UNL A   1      52.964  27.982  24.538  1.00  0.00     0.198 A 
ATOM     57  C   UNL A   1      53.176  27.210  26.794  1.00  0.00     0.198 A 
ATOM     58  F   UNL A   1      51.258  26.912  28.120  1.00  0.00    -0.203 F 
ATOM     59  F   UNL A   1      53.526  28.318  23.369  1.00  0.00    -0.200 F 
ATOM     60  C   UNL A   1      53.762  27.566  25.592  1.00  0.00     0.200 A 
ATOM     61  F   UNL A   1      53.944  26.855  27.833  1.00  0.00    -0.200 F 
ATOM     62  F   UNL A   1      55.095  27.526  25.454  1.00  0.00    -0.200 F 
ENDBRANCH  28  52
BRANCH  40  63
ATOM     63  C   UNL A   1      46.985  32.956  28.139  1.00  0.00     0.064 A 
ATOM     64  C   UNL A   1      46.850  33.897  27.109  1.00  0.00     0.173 A 
ATOM     65  C   UNL A   1      47.460  33.401  29.382  1.00  0.00     0.173 A 
ATOM     66  F   UNL A   1      46.414  33.517  25.898  1.00  0.00    -0.203 F 
ATOM     67  C   UNL A   1      47.182  35.232  27.314  1.00  0.00     0.198 A 
ATOM     68  C   UNL A   1      47.758  34.744  29.594  1.00  0.00     0.198 A 
ATOM     69  F   UNL A   1      47.601  32.540  30.401  1.00  0.00    -0.203 F 
ATOM     70  F   UNL A   1      47.072  36.110  26.307  1.00  0.00    -0.200 F 
ATOM     71  C   UNL A   1      47.626  35.656  28.557  1.00  0.00     0.200 A 
ATOM     72  F   UNL A   1      48.162  35.156  30.803  1.00  0.00    -0.200 F 
ATOM     73  F   UNL A   1      47.922  36.947  28.760  1.00  0.00    -0.200 F 
ENDBRANCH  40  63
ENDBRANCH  14  15
ENDBRANCH   7   9
ENDBRANCH   6   7
ENDBRANCH   5   6
ENDBRANCH   4   5
ENDBRANCH   3   4
ENDBRANCH   2   3
ENDBRANCH   1   2
BRANCH   1  74
ATOM     74  O   UNL A   1      39.794  23.480  26.818  1.00  0.00    -0.376 OA
BRANCH  74  75
ATOM     75  C   UNL A   1      38.518  23.951  26.407  1.00  0.00     0.202 C 
BRANCH  75  76
ATOM     76  C   UNL A   1      37.602  22.947  25.697  1.00  0.00     0.261 C 
BRANCH  76  77
ATOM     77  O   UNL A   1      36.242  22.925  26.168  1.00  0.00    -0.462 OA
BRANCH  77  78
ATOM     78  C   UNL A   1      35.293  22.867  25.189  1.00  0.00     0.329 C 
ATOM     79  O   UNL A   1      35.342  22.108  24.233  1.00  0.00    -0.250 OA
BRANCH  78  80
ATOM     80  C   UNL A   1      34.049  23.723  25.498  1.00  0.00     0.197 C 
ATOM     81  C   UNL A   1      33.270  23.079  26.657  1.00  0.00     0.070 C 
ATOM     82  N   UNL A   1      33.039  23.929  24.441  1.00  0.00    -0.325 N 
ATOM     83  C   UNL A   1      31.833  23.498  26.400  1.00  0.00     0.136 C 
ATOM     84  C   UNL A   1      31.738  23.435  24.877  1.00  0.00     0.152 C 
BRANCH  82  85
ATOM     85  C   UNL A   1      33.210  24.872  23.453  1.00  0.00     0.233 C 
ATOM     86  O   UNL A   1      33.365  24.503  22.288  1.00  0.00    -0.274 OA
BRANCH  85  87
ATOM     87  C   UNL A   1      33.337  26.353  23.797  1.00  0.00     0.175 C 
BRANCH  87  88
ATOM     88  S   UNL A   1      31.783  27.219  24.144  1.00  0.00    -0.113 SA
BRANCH  88  89
ATOM     89  C   UNL A   1      32.377  28.412  25.317  1.00  0.00     0.044 A 
ATOM     90  C   UNL A   1      31.799  29.683  25.359  1.00  0.00     0.021 A 
ATOM     91  C   UNL A   1      33.397  28.097  26.222  1.00  0.00     0.139 A 
ATOM     92  C   UNL A   1      32.241  30.623  26.288  1.00  0.00     0.040 A 
ATOM     93  C   UNL A   1      33.838  29.027  27.156  1.00  0.00     0.079 A 
ATOM     94  F   UNL A   1      33.981  26.890  26.197  1.00  0.00    -0.206 F 
ATOM     95  C   UNL A   1      33.252  30.284  27.180  1.00  0.00     0.126 A 
ATOM     96  F   UNL A   1      33.664  31.190  28.075  1.00  0.00    -0.207 F 
ENDBRANCH  88  89
ENDBRANCH  87  88
ENDBRANCH  85  87
ENDBRANCH  82  85
BRANCH  83  97
ATOM     97  O   UNL A   1      31.617  24.827  26.873  1.00  0.00    -0.391 OA
ATOM     98  H   UNL A   1      31.078  24.799  27.680  1.00  0.00     0.211 HD
ENDBRANCH  83  97
ENDBRANCH  78  80
ENDBRANCH  77  78
ENDBRANCH  76  77
ENDBRANCH  75  76
ENDBRANCH  74  75
ENDBRANCH   1  74
TORSDOF 22
ENDMDL
