MODEL 1
REMARK VINA RESULT:     -11.3      0.000      0.000
REMARK SMILES O=C(C[N@@H+]1C[C@@]2([N+](=O)[O-])CC=C(Cl)[C@@]([N+](=O)[O-])(C1)C2)OCCOCCOCCOC(=O)c1ccc(-c2c3nc(c(-c4c(F)c(F)c(F)c(F)c4F)c4ccc([nH]4)c(-c4c(F)c(F)c(F)c(F)c4F)c4nc(c(-c5c(F)c(F)c(F)c(F)c5F)c5ccc2[nH]5)C=C4)C=C3)cc1
REMARK SMILES IDX 24 1 23 2 22 3 21 4 20 5 2 6 1 7 3 8 4 9 5 10 18 11 6 13
REMARK SMILES IDX 14 14 10 15 19 16 12 17 11 18 13 19 7 20 8 21 9 22 15 23
REMARK SMILES IDX 16 24 17 25 25 26 26 27 27 28 28 29 29 30 30 31 31 32 32 33
REMARK SMILES IDX 33 34 94 35 34 36 93 37 35 38 36 39 37 40 87 41 38 42 92 43
REMARK SMILES IDX 86 44 88 45 39 46 91 47 85 48 84 49 40 51 72 52 52 53 71 54
REMARK SMILES IDX 53 55 56 56 70 57 89 58 54 59 55 60 69 62 90 63 57 64 41 65
REMARK SMILES IDX 42 66 50 67 43 68 44 69 48 70 51 71 45 72 46 73 49 74 47 75
REMARK SMILES IDX 73 76 74 77 82 78 75 79 76 80 80 81 83 82 77 83 78 84 81 85
REMARK SMILES IDX 79 86 58 87 59 88 67 89 60 90 61 91 65 92 68 93 62 94 63 95
REMARK SMILES IDX 66 96 64 97
REMARK H PARENT 4 12 88 50 56 61
REMARK Flexibility Score: inf
ROOT
ATOM      1  C   UNL A   1      40.321  20.965  26.194  1.00  0.00     0.188 C 
ENDROOT
BRANCH   1   2
ATOM      2  O   UNL A   1      39.113  20.919  25.426  1.00  0.00    -0.376 OA
BRANCH   2   3
ATOM      3  C   UNL A   1      38.095  21.864  25.747  1.00  0.00     0.202 C 
BRANCH   3   4
ATOM      4  C   UNL A   1      36.670  21.392  25.467  1.00  0.00     0.261 C 
BRANCH   4   5
ATOM      5  O   UNL A   1      35.783  22.464  25.125  1.00  0.00    -0.459 OA
BRANCH   5   6
ATOM      6  C   UNL A   1      34.638  22.150  24.463  1.00  0.00     0.361 C 
ATOM      7  O   UNL A   1      33.997  21.144  24.760  1.00  0.00    -0.245 OA
BRANCH   6   8
ATOM      8  C   UNL A   1      34.273  23.016  23.246  1.00  0.00     0.386 C 
BRANCH   8   9
ATOM      9  N   UNL A   1      33.490  24.191  23.642  1.00  0.00    -0.313 N 
ATOM     10  C   UNL A   1      32.646  23.941  24.823  1.00  0.00     0.350 C 
ATOM     11  C   UNL A   1      32.693  24.782  22.536  1.00  0.00     0.356 C 
ATOM     12  H   UNL A   1      34.188  24.888  23.901  1.00  0.00     0.349 HD
ATOM     13  C   UNL A   1      31.961  25.242  25.302  1.00  0.00     0.280 C 
ATOM     14  C   UNL A   1      32.093  26.141  22.985  1.00  0.00     0.311 C 
ATOM     15  C   UNL A   1      32.979  26.298  25.811  1.00  0.00     0.121 C 
ATOM     16  C   UNL A   1      31.129  25.857  24.158  1.00  0.00     0.191 C 
ATOM     17  C   UNL A   1      33.194  27.096  23.436  1.00  0.00     0.097 C 
ATOM     18  C   UNL A   1      33.590  27.155  24.721  1.00  0.00     0.004 C 
ATOM     19  Cl  UNL A   1      34.036  28.037  22.254  1.00  0.00    -0.081 Cl
BRANCH  13  20
ATOM     20  N   UNL A   1      31.052  24.826  26.444  1.00  0.00     0.032 N 
ATOM     21  O   UNL A   1      31.519  24.069  27.303  1.00  0.00    -0.264 OA
ATOM     22  O   UNL A   1      29.876  25.211  26.404  1.00  0.00    -0.264 OA
ENDBRANCH  13  20
BRANCH  14  23
ATOM     23  N   UNL A   1      31.290  26.762  21.851  1.00  0.00     0.038 N 
ATOM     24  O   UNL A   1      30.674  27.813  22.081  1.00  0.00    -0.263 OA
ATOM     25  O   UNL A   1      31.315  26.186  20.755  1.00  0.00    -0.263 OA
ENDBRANCH  14  23
ENDBRANCH   8   9
ENDBRANCH   6   8
ENDBRANCH   5   6
ENDBRANCH   4   5
ENDBRANCH   3   4
ENDBRANCH   2   3
ENDBRANCH   1   2
BRANCH   1  26
ATOM     26  C   UNL A   1      41.197  19.710  26.259  1.00  0.00     0.188 C 
BRANCH  26  27
ATOM     27  O   UNL A   1      42.257  19.593  25.319  1.00  0.00    -0.376 OA
BRANCH  27  28
ATOM     28  C   UNL A   1      43.557  20.001  25.716  1.00  0.00     0.202 C 
BRANCH  28  29
ATOM     29  C   UNL A   1      43.924  21.329  25.044  1.00  0.00     0.261 C 
BRANCH  29  30
ATOM     30  O   UNL A   1      43.717  22.463  25.912  1.00  0.00    -0.460 OA
BRANCH  30  31
ATOM     31  C   UNL A   1      43.874  23.677  25.324  1.00  0.00     0.338 C 
ATOM     32  O   UNL A   1      44.475  23.938  24.297  1.00  0.00    -0.246 OA
BRANCH  31  33
ATOM     33  C   UNL A   1      43.128  24.709  26.078  1.00  0.00     0.060 A 
ATOM     34  C   UNL A   1      43.661  26.004  26.147  1.00  0.00     0.016 A 
ATOM     35  C   UNL A   1      41.980  24.382  26.803  1.00  0.00     0.016 A 
ATOM     36  C   UNL A   1      43.086  26.954  26.994  1.00  0.00     0.010 A 
ATOM     37  C   UNL A   1      41.413  25.330  27.659  1.00  0.00     0.010 A 
ATOM     38  C   UNL A   1      41.989  26.606  27.795  1.00  0.00    -0.014 A 
BRANCH  38  39
ATOM     39  C   UNL A   1      41.576  27.488  28.917  1.00  0.00     0.031 A 
ATOM     40  C   UNL A   1      42.354  27.428  30.205  1.00  0.00     0.074 A 
ATOM     41  C   UNL A   1      40.540  28.337  28.802  1.00  0.00     0.049 A 
ATOM     42  N   UNL A   1      42.148  28.059  31.334  1.00  0.00    -0.248 NA
ATOM     43  C   UNL A   1      43.522  26.533  30.220  1.00  0.00     0.031 C 
ATOM     44  C   UNL A   1      39.729  28.526  27.602  1.00  0.00     0.029 A 
ATOM     45  N   UNL A   1      39.987  29.195  29.722  1.00  0.00    -0.354 N 
ATOM     46  C   UNL A   1      43.157  27.637  32.191  1.00  0.00     0.074 A 
ATOM     47  C   UNL A   1      43.956  26.675  31.463  1.00  0.00     0.031 C 
ATOM     48  C   UNL A   1      38.773  29.436  27.863  1.00  0.00     0.029 A 
ATOM     49  C   UNL A   1      38.888  29.871  29.256  1.00  0.00     0.049 A 
ATOM     50  H   UNL A   1      40.347  29.314  30.631  1.00  0.00     0.167 HD
ATOM     51  C   UNL A   1      43.402  28.022  33.465  1.00  0.00     0.037 A 
ATOM     52  C   UNL A   1      38.059  30.725  29.887  1.00  0.00     0.037 A 
ATOM     53  C   UNL A   1      42.611  28.975  34.197  1.00  0.00     0.049 A 
ATOM     54  C   UNL A   1      38.305  31.076  31.334  1.00  0.00     0.074 A 
ATOM     55  C   UNL A   1      42.791  29.434  35.490  1.00  0.00     0.029 A 
ATOM     56  N   UNL A   1      41.485  29.611  33.700  1.00  0.00    -0.354 N 
ATOM     57  N   UNL A   1      39.271  30.688  32.129  1.00  0.00    -0.248 NA
ATOM     58  C   UNL A   1      37.339  31.987  31.969  1.00  0.00     0.031 C 
ATOM     59  C   UNL A   1      41.747  30.315  35.791  1.00  0.00     0.029 A 
ATOM     60  C   UNL A   1      40.945  30.441  34.669  1.00  0.00     0.049 A 
ATOM     61  H   UNL A   1      41.122  29.491  32.792  1.00  0.00     0.167 HD
ATOM     62  C   UNL A   1      39.050  31.328  33.343  1.00  0.00     0.074 A 
ATOM     63  C   UNL A   1      37.862  32.137  33.179  1.00  0.00     0.031 C 
ATOM     64  C   UNL A   1      39.769  31.252  34.490  1.00  0.00     0.037 A 
BRANCH  51  65
ATOM     65  C   UNL A   1      44.570  27.391  34.162  1.00  0.00     0.064 A 
ATOM     66  C   UNL A   1      45.846  27.973  34.132  1.00  0.00     0.173 A 
ATOM     67  C   UNL A   1      44.404  26.209  34.899  1.00  0.00     0.173 A 
ATOM     68  F   UNL A   1      46.057  29.098  33.431  1.00  0.00    -0.203 F 
ATOM     69  C   UNL A   1      46.918  27.383  34.796  1.00  0.00     0.198 A 
ATOM     70  C   UNL A   1      45.472  25.635  35.582  1.00  0.00     0.198 A 
ATOM     71  F   UNL A   1      43.203  25.614  34.961  1.00  0.00    -0.203 F 
ATOM     72  F   UNL A   1      48.136  27.934  34.720  1.00  0.00    -0.200 F 
ATOM     73  C   UNL A   1      46.728  26.218  35.526  1.00  0.00     0.200 A 
ATOM     74  F   UNL A   1      45.285  24.514  36.295  1.00  0.00    -0.200 F 
ATOM     75  F   UNL A   1      47.760  25.654  36.170  1.00  0.00    -0.200 F 
ENDBRANCH  51  65
BRANCH  52  76
ATOM     76  C   UNL A   1      36.899  31.309  29.164  1.00  0.00     0.064 A 
ATOM     77  C   UNL A   1      36.874  32.666  28.817  1.00  0.00     0.173 A 
ATOM     78  C   UNL A   1      35.779  30.530  28.838  1.00  0.00     0.173 A 
ATOM     79  F   UNL A   1      37.909  33.457  29.135  1.00  0.00    -0.203 F 
ATOM     80  C   UNL A   1      35.764  33.227  28.186  1.00  0.00     0.198 A 
ATOM     81  C   UNL A   1      34.681  31.086  28.186  1.00  0.00     0.198 A 
ATOM     82  F   UNL A   1      35.752  29.227  29.155  1.00  0.00    -0.203 F 
ATOM     83  F   UNL A   1      35.747  34.539  27.910  1.00  0.00    -0.200 F 
ATOM     84  C   UNL A   1      34.672  32.436  27.868  1.00  0.00     0.200 A 
ATOM     85  F   UNL A   1      33.629  30.317  27.876  1.00  0.00    -0.200 F 
ATOM     86  F   UNL A   1      33.603  32.977  27.266  1.00  0.00    -0.200 F 
ENDBRANCH  52  76
BRANCH  64  87
ATOM     87  C   UNL A   1      39.320  32.094  35.649  1.00  0.00     0.064 A 
ATOM     88  C   UNL A   1      39.740  33.425  35.801  1.00  0.00     0.173 A 
ATOM     89  C   UNL A   1      38.418  31.579  36.594  1.00  0.00     0.173 A 
ATOM     90  F   UNL A   1      40.611  33.960  34.933  1.00  0.00    -0.203 F 
ATOM     91  C   UNL A   1      39.290  34.200  36.867  1.00  0.00     0.198 A 
ATOM     92  C   UNL A   1      37.949  32.365  37.642  1.00  0.00     0.198 A 
ATOM     93  F   UNL A   1      37.980  30.315  36.490  1.00  0.00    -0.203 F 
ATOM     94  F   UNL A   1      39.735  35.455  37.015  1.00  0.00    -0.200 F 
ATOM     95  C   UNL A   1      38.389  33.673  37.782  1.00  0.00     0.200 A 
ATOM     96  F   UNL A   1      37.069  31.859  38.518  1.00  0.00    -0.200 F 
ATOM     97  F   UNL A   1      37.951  34.423  38.802  1.00  0.00    -0.200 F 
ENDBRANCH  64  87
ENDBRANCH  38  39
ENDBRANCH  31  33
ENDBRANCH  30  31
ENDBRANCH  29  30
ENDBRANCH  28  29
ENDBRANCH  27  28
ENDBRANCH  26  27
ENDBRANCH   1  26
TORSDOF 20
ENDMDL
MODEL 2
REMARK VINA RESULT:     -11.1      5.119     10.472
REMARK SMILES O=C(C[N@@H+]1C[C@@]2([N+](=O)[O-])CC=C(Cl)[C@@]([N+](=O)[O-])(C1)C2)OCCOCCOCCOC(=O)c1ccc(-c2c3nc(c(-c4c(F)c(F)c(F)c(F)c4F)c4ccc([nH]4)c(-c4c(F)c(F)c(F)c(F)c4F)c4nc(c(-c5c(F)c(F)c(F)c(F)c5F)c5ccc2[nH]5)C=C4)C=C3)cc1
REMARK SMILES IDX 24 1 23 2 22 3 21 4 20 5 2 6 1 7 3 8 4 9 5 10 18 11 6 13
REMARK SMILES IDX 14 14 10 15 19 16 12 17 11 18 13 19 7 20 8 21 9 22 15 23
REMARK SMILES IDX 16 24 17 25 25 26 26 27 27 28 28 29 29 30 30 31 31 32 32 33
REMARK SMILES IDX 33 34 94 35 34 36 93 37 35 38 36 39 37 40 87 41 38 42 92 43
REMARK SMILES IDX 86 44 88 45 39 46 91 47 85 48 84 49 40 51 72 52 52 53 71 54
REMARK SMILES IDX 53 55 56 56 70 57 89 58 54 59 55 60 69 62 90 63 57 64 41 65
REMARK SMILES IDX 42 66 50 67 43 68 44 69 48 70 51 71 45 72 46 73 49 74 47 75
REMARK SMILES IDX 73 76 74 77 82 78 75 79 76 80 80 81 83 82 77 83 78 84 81 85
REMARK SMILES IDX 79 86 58 87 59 88 67 89 60 90 61 91 65 92 68 93 62 94 63 95
REMARK SMILES IDX 66 96 64 97
REMARK H PARENT 4 12 88 50 56 61
REMARK Flexibility Score: inf
ROOT
ATOM      1  C   UNL A   1      34.416  35.007  28.420  1.00  0.00     0.188 C 
ENDROOT
BRANCH   1   2
ATOM      2  O   UNL A   1      34.752  33.615  28.367  1.00  0.00    -0.376 OA
BRANCH   2   3
ATOM      3  C   UNL A   1      33.734  32.710  27.948  1.00  0.00     0.202 C 
BRANCH   3   4
ATOM      4  C   UNL A   1      34.125  31.234  28.005  1.00  0.00     0.261 C 
BRANCH   4   5
ATOM      5  O   UNL A   1      33.852  30.536  26.785  1.00  0.00    -0.459 OA
BRANCH   5   6
ATOM      6  C   UNL A   1      33.161  29.368  26.866  1.00  0.00     0.361 C 
ATOM      7  O   UNL A   1      32.067  29.324  27.424  1.00  0.00    -0.245 OA
BRANCH   6   8
ATOM      8  C   UNL A   1      33.872  28.098  26.369  1.00  0.00     0.386 C 
BRANCH   8   9
ATOM      9  N   UNL A   1      32.971  27.259  25.572  1.00  0.00    -0.313 N 
ATOM     10  C   UNL A   1      32.689  25.961  26.208  1.00  0.00     0.350 C 
ATOM     11  C   UNL A   1      33.411  27.076  24.165  1.00  0.00     0.356 C 
ATOM     12  H   UNL A   1      32.098  27.784  25.536  1.00  0.00     0.349 HD
ATOM     13  C   UNL A   1      31.616  25.176  25.417  1.00  0.00     0.280 C 
ATOM     14  C   UNL A   1      32.290  26.382  23.347  1.00  0.00     0.311 C 
ATOM     15  C   UNL A   1      30.234  25.883  25.426  1.00  0.00     0.121 C 
ATOM     16  C   UNL A   1      32.071  24.980  23.956  1.00  0.00     0.191 C 
ATOM     17  C   UNL A   1      30.995  27.186  23.414  1.00  0.00     0.097 C 
ATOM     18  C   UNL A   1      30.071  26.953  24.365  1.00  0.00     0.004 C 
ATOM     19  Cl  UNL A   1      30.759  28.506  22.320  1.00  0.00    -0.081 Cl
BRANCH  13  20
ATOM     20  N   UNL A   1      31.500  23.833  26.114  1.00  0.00     0.032 N 
ATOM     21  O   UNL A   1      31.931  22.838  25.519  1.00  0.00    -0.264 OA
ATOM     22  O   UNL A   1      30.913  23.807  27.204  1.00  0.00    -0.264 OA
ENDBRANCH  13  20
BRANCH  14  23
ATOM     23  N   UNL A   1      32.725  26.207  21.898  1.00  0.00     0.038 N 
ATOM     24  O   UNL A   1      31.933  25.668  21.113  1.00  0.00    -0.263 OA
ATOM     25  O   UNL A   1      33.846  26.632  21.588  1.00  0.00    -0.263 OA
ENDBRANCH  14  23
ENDBRANCH   8   9
ENDBRANCH   6   8
ENDBRANCH   5   6
ENDBRANCH   4   5
ENDBRANCH   3   4
ENDBRANCH   2   3
ENDBRANCH   1   2
BRANCH   1  26
ATOM     26  C   UNL A   1      33.268  35.450  29.333  1.00  0.00     0.188 C 
BRANCH  26  27
ATOM     27  O   UNL A   1      33.605  36.012  30.594  1.00  0.00    -0.376 OA
BRANCH  27  28
ATOM     28  C   UNL A   1      33.469  35.200  31.750  1.00  0.00     0.202 C 
BRANCH  28  29
ATOM     29  C   UNL A   1      34.849  34.757  32.252  1.00  0.00     0.261 C 
BRANCH  29  30
ATOM     30  O   UNL A   1      35.237  33.468  31.734  1.00  0.00    -0.460 OA
BRANCH  30  31
ATOM     31  C   UNL A   1      35.839  32.643  32.629  1.00  0.00     0.338 C 
ATOM     32  O   UNL A   1      35.631  32.560  33.827  1.00  0.00    -0.246 OA
BRANCH  31  33
ATOM     33  C   UNL A   1      36.790  31.745  31.937  1.00  0.00     0.060 A 
ATOM     34  C   UNL A   1      37.747  31.064  32.703  1.00  0.00     0.016 A 
ATOM     35  C   UNL A   1      36.816  31.662  30.543  1.00  0.00     0.016 A 
ATOM     36  C   UNL A   1      38.772  30.354  32.073  1.00  0.00     0.010 A 
ATOM     37  C   UNL A   1      37.849  30.961  29.914  1.00  0.00     0.010 A 
ATOM     38  C   UNL A   1      38.858  30.342  30.674  1.00  0.00    -0.014 A 
BRANCH  38  39
ATOM     39  C   UNL A   1      40.101  29.872  30.008  1.00  0.00     0.031 A 
ATOM     40  C   UNL A   1      41.245  30.839  29.852  1.00  0.00     0.074 A 
ATOM     41  C   UNL A   1      40.227  28.611  29.558  1.00  0.00     0.049 A 
ATOM     42  N   UNL A   1      42.401  30.675  29.260  1.00  0.00    -0.248 NA
ATOM     43  C   UNL A   1      41.056  32.174  30.443  1.00  0.00     0.031 C 
ATOM     44  C   UNL A   1      39.218  27.564  29.681  1.00  0.00     0.029 A 
ATOM     45  N   UNL A   1      41.265  28.005  28.893  1.00  0.00    -0.354 N 
ATOM     46  C   UNL A   1      43.074  31.881  29.406  1.00  0.00     0.074 A 
ATOM     47  C   UNL A   1      42.188  32.778  30.116  1.00  0.00     0.031 C 
ATOM     48  C   UNL A   1      39.681  26.443  29.099  1.00  0.00     0.029 A 
ATOM     49  C   UNL A   1      41.008  26.704  28.538  1.00  0.00     0.049 A 
ATOM     50  H   UNL A   1      42.114  28.460  28.691  1.00  0.00     0.167 HD
ATOM     51  C   UNL A   1      44.322  32.211  28.995  1.00  0.00     0.037 A 
ATOM     52  C   UNL A   1      41.749  25.834  27.825  1.00  0.00     0.037 A 
ATOM     53  C   UNL A   1      45.208  31.328  28.286  1.00  0.00     0.049 A 
ATOM     54  C   UNL A   1      43.103  26.251  27.307  1.00  0.00     0.074 A 
ATOM     55  C   UNL A   1      46.495  31.572  27.839  1.00  0.00     0.029 A 
ATOM     56  N   UNL A   1      44.896  30.030  27.916  1.00  0.00    -0.354 N 
ATOM     57  N   UNL A   1      43.739  27.386  27.467  1.00  0.00    -0.248 NA
ATOM     58  C   UNL A   1      43.841  25.262  26.506  1.00  0.00     0.031 C 
ATOM     59  C   UNL A   1      46.945  30.436  27.158  1.00  0.00     0.029 A 
ATOM     60  C   UNL A   1      45.957  29.468  27.224  1.00  0.00     0.049 A 
ATOM     61  H   UNL A   1      44.045  29.573  28.114  1.00  0.00     0.167 HD
ATOM     62  C   UNL A   1      44.959  27.237  26.818  1.00  0.00     0.074 A 
ATOM     63  C   UNL A   1      44.979  25.900  26.268  1.00  0.00     0.031 C 
ATOM     64  C   UNL A   1      45.971  28.130  26.691  1.00  0.00     0.037 A 
BRANCH  51  65
ATOM     65  C   UNL A   1      44.797  33.603  29.286  1.00  0.00     0.064 A 
ATOM     66  C   UNL A   1      45.507  33.908  30.457  1.00  0.00     0.173 A 
ATOM     67  C   UNL A   1      44.570  34.638  28.367  1.00  0.00     0.173 A 
ATOM     68  F   UNL A   1      45.737  32.954  31.373  1.00  0.00    -0.203 F 
ATOM     69  C   UNL A   1      45.954  35.202  30.707  1.00  0.00     0.198 A 
ATOM     70  C   UNL A   1      45.040  35.926  28.608  1.00  0.00     0.198 A 
ATOM     71  F   UNL A   1      43.899  34.398  27.230  1.00  0.00    -0.203 F 
ATOM     72  F   UNL A   1      46.594  35.479  31.851  1.00  0.00    -0.200 F 
ATOM     73  C   UNL A   1      45.726  36.208  29.779  1.00  0.00     0.200 A 
ATOM     74  F   UNL A   1      44.828  36.895  27.705  1.00  0.00    -0.200 F 
ATOM     75  F   UNL A   1      46.163  37.453  30.018  1.00  0.00    -0.200 F 
ENDBRANCH  51  65
BRANCH  52  76
ATOM     76  C   UNL A   1      41.228  24.471  27.541  1.00  0.00     0.064 A 
ATOM     77  C   UNL A   1      40.152  24.278  26.663  1.00  0.00     0.173 A 
ATOM     78  C   UNL A   1      41.770  23.340  28.168  1.00  0.00     0.173 A 
ATOM     79  F   UNL A   1      39.581  25.334  26.063  1.00  0.00    -0.203 F 
ATOM     80  C   UNL A   1      39.628  23.007  26.436  1.00  0.00     0.198 A 
ATOM     81  C   UNL A   1      41.261  22.067  27.921  1.00  0.00     0.198 A 
ATOM     82  F   UNL A   1      42.797  23.473  29.021  1.00  0.00    -0.203 F 
ATOM     83  F   UNL A   1      38.567  22.858  25.630  1.00  0.00    -0.200 F 
ATOM     84  C   UNL A   1      40.185  21.903  27.062  1.00  0.00     0.200 A 
ATOM     85  F   UNL A   1      41.806  21.002  28.525  1.00  0.00    -0.200 F 
ATOM     86  F   UNL A   1      39.677  20.682  26.847  1.00  0.00    -0.200 F 
ENDBRANCH  52  76
BRANCH  64  87
ATOM     87  C   UNL A   1      47.206  27.682  25.965  1.00  0.00     0.064 A 
ATOM     88  C   UNL A   1      48.322  27.175  26.649  1.00  0.00     0.173 A 
ATOM     89  C   UNL A   1      47.256  27.715  24.562  1.00  0.00     0.173 A 
ATOM     90  F   UNL A   1      48.329  27.135  27.989  1.00  0.00    -0.203 F 
ATOM     91  C   UNL A   1      49.447  26.737  25.956  1.00  0.00     0.198 A 
ATOM     92  C   UNL A   1      48.372  27.251  23.872  1.00  0.00     0.198 A 
ATOM     93  F   UNL A   1      46.214  28.184  23.860  1.00  0.00    -0.203 F 
ATOM     94  F   UNL A   1      50.517  26.293  26.631  1.00  0.00    -0.200 F 
ATOM     95  C   UNL A   1      49.469  26.768  24.569  1.00  0.00     0.200 A 
ATOM     96  F   UNL A   1      48.387  27.269  22.532  1.00  0.00    -0.200 F 
ATOM     97  F   UNL A   1      50.551  26.338  23.904  1.00  0.00    -0.200 F 
ENDBRANCH  64  87
ENDBRANCH  38  39
ENDBRANCH  31  33
ENDBRANCH  30  31
ENDBRANCH  29  30
ENDBRANCH  28  29
ENDBRANCH  27  28
ENDBRANCH  26  27
ENDBRANCH   1  26
TORSDOF 20
ENDMDL
MODEL 3
REMARK VINA RESULT:     -11.0      4.550      8.533
REMARK SMILES O=C(C[N@@H+]1C[C@@]2([N+](=O)[O-])CC=C(Cl)[C@@]([N+](=O)[O-])(C1)C2)OCCOCCOCCOC(=O)c1ccc(-c2c3nc(c(-c4c(F)c(F)c(F)c(F)c4F)c4ccc([nH]4)c(-c4c(F)c(F)c(F)c(F)c4F)c4nc(c(-c5c(F)c(F)c(F)c(F)c5F)c5ccc2[nH]5)C=C4)C=C3)cc1
REMARK SMILES IDX 24 1 23 2 22 3 21 4 20 5 2 6 1 7 3 8 4 9 5 10 18 11 6 13
REMARK SMILES IDX 14 14 10 15 19 16 12 17 11 18 13 19 7 20 8 21 9 22 15 23
REMARK SMILES IDX 16 24 17 25 25 26 26 27 27 28 28 29 29 30 30 31 31 32 32 33
REMARK SMILES IDX 33 34 94 35 34 36 93 37 35 38 36 39 37 40 87 41 38 42 92 43
REMARK SMILES IDX 86 44 88 45 39 46 91 47 85 48 84 49 40 51 72 52 52 53 71 54
REMARK SMILES IDX 53 55 56 56 70 57 89 58 54 59 55 60 69 62 90 63 57 64 41 65
REMARK SMILES IDX 42 66 50 67 43 68 44 69 48 70 51 71 45 72 46 73 49 74 47 75
REMARK SMILES IDX 73 76 74 77 82 78 75 79 76 80 80 81 83 82 77 83 78 84 81 85
REMARK SMILES IDX 79 86 58 87 59 88 67 89 60 90 61 91 65 92 68 93 62 94 63 95
REMARK SMILES IDX 66 96 64 97
REMARK H PARENT 4 12 88 50 56 61
REMARK Flexibility Score: inf
ROOT
ATOM      1  C   UNL A   1      34.127  21.542  26.515  1.00  0.00     0.188 C 
ENDROOT
BRANCH   1   2
ATOM      2  O   UNL A   1      32.938  21.287  25.756  1.00  0.00    -0.376 OA
BRANCH   2   3
ATOM      3  C   UNL A   1      33.014  21.453  24.343  1.00  0.00     0.202 C 
BRANCH   3   4
ATOM      4  C   UNL A   1      32.393  22.744  23.814  1.00  0.00     0.261 C 
BRANCH   4   5
ATOM      5  O   UNL A   1      33.369  23.704  23.394  1.00  0.00    -0.459 OA
BRANCH   5   6
ATOM      6  C   UNL A   1      33.260  24.208  22.136  1.00  0.00     0.361 C 
ATOM      7  O   UNL A   1      33.349  23.472  21.156  1.00  0.00    -0.245 OA
BRANCH   6   8
ATOM      8  C   UNL A   1      33.176  25.738  22.000  1.00  0.00     0.386 C 
BRANCH   8   9
ATOM      9  N   UNL A   1      32.228  26.308  22.962  1.00  0.00    -0.313 N 
ATOM     10  C   UNL A   1      31.264  27.229  22.335  1.00  0.00     0.350 C 
ATOM     11  C   UNL A   1      32.876  26.940  24.140  1.00  0.00     0.356 C 
ATOM     12  H   UNL A   1      31.707  25.505  23.314  1.00  0.00     0.349 HD
ATOM     13  C   UNL A   1      30.188  27.682  23.350  1.00  0.00     0.280 C 
ATOM     14  C   UNL A   1      31.804  27.299  25.203  1.00  0.00     0.311 C 
ATOM     15  C   UNL A   1      29.294  26.509  23.834  1.00  0.00     0.121 C 
ATOM     16  C   UNL A   1      30.856  28.343  24.573  1.00  0.00     0.191 C 
ATOM     17  C   UNL A   1      31.013  26.061  25.614  1.00  0.00     0.097 C 
ATOM     18  C   UNL A   1      29.878  25.710  24.982  1.00  0.00     0.004 C 
ATOM     19  Cl  UNL A   1      31.650  25.015  26.837  1.00  0.00    -0.081 Cl
BRANCH  13  20
ATOM     20  N   UNL A   1      29.334  28.695  22.609  1.00  0.00     0.032 N 
ATOM     21  O   UNL A   1      28.139  28.771  22.916  1.00  0.00    -0.264 OA
ATOM     22  O   UNL A   1      29.872  29.330  21.692  1.00  0.00    -0.264 OA
ENDBRANCH  13  20
BRANCH  14  23
ATOM     23  N   UNL A   1      32.462  27.931  26.422  1.00  0.00     0.038 N 
ATOM     24  O   UNL A   1      33.696  27.870  26.515  1.00  0.00    -0.263 OA
ATOM     25  O   UNL A   1      31.720  28.486  27.244  1.00  0.00    -0.263 OA
ENDBRANCH  14  23
ENDBRANCH   8   9
ENDBRANCH   6   8
ENDBRANCH   5   6
ENDBRANCH   4   5
ENDBRANCH   3   4
ENDBRANCH   2   3
ENDBRANCH   1   2
BRANCH   1  26
ATOM     26  C   UNL A   1      35.426  21.846  25.761  1.00  0.00     0.188 C 
BRANCH  26  27
ATOM     27  O   UNL A   1      36.243  20.746  25.383  1.00  0.00    -0.376 OA
BRANCH  27  28
ATOM     28  C   UNL A   1      37.533  21.016  24.858  1.00  0.00     0.202 C 
BRANCH  28  29
ATOM     29  C   UNL A   1      38.574  20.097  25.508  1.00  0.00     0.261 C 
BRANCH  29  30
ATOM     30  O   UNL A   1      39.869  20.722  25.620  1.00  0.00    -0.460 OA
BRANCH  30  31
ATOM     31  C   UNL A   1      40.419  20.695  26.861  1.00  0.00     0.338 C 
ATOM     32  O   UNL A   1      40.727  19.719  27.521  1.00  0.00    -0.246 OA
BRANCH  31  33
ATOM     33  C   UNL A   1      40.689  22.073  27.331  1.00  0.00     0.060 A 
ATOM     34  C   UNL A   1      40.144  23.145  26.611  1.00  0.00     0.016 A 
ATOM     35  C   UNL A   1      41.560  22.311  28.396  1.00  0.00     0.016 A 
ATOM     36  C   UNL A   1      40.522  24.456  26.912  1.00  0.00     0.010 A 
ATOM     37  C   UNL A   1      41.947  23.623  28.689  1.00  0.00     0.010 A 
ATOM     38  C   UNL A   1      41.466  24.698  27.919  1.00  0.00    -0.014 A 
BRANCH  38  39
ATOM     39  C   UNL A   1      42.109  26.033  28.032  1.00  0.00     0.031 A 
ATOM     40  C   UNL A   1      41.367  27.132  28.744  1.00  0.00     0.074 A 
ATOM     41  C   UNL A   1      43.332  26.272  27.526  1.00  0.00     0.049 A 
ATOM     42  N   UNL A   1      41.700  28.386  28.919  1.00  0.00    -0.248 NA
ATOM     43  C   UNL A   1      40.071  26.766  29.339  1.00  0.00     0.031 C 
ATOM     44  C   UNL A   1      44.176  25.290  26.851  1.00  0.00     0.029 A 
ATOM     45  N   UNL A   1      44.070  27.431  27.496  1.00  0.00    -0.354 N 
ATOM     46  C   UNL A   1      40.658  28.956  29.640  1.00  0.00     0.074 A 
ATOM     47  C   UNL A   1      39.668  27.921  29.845  1.00  0.00     0.031 C 
ATOM     48  C   UNL A   1      45.315  25.891  26.462  1.00  0.00     0.029 A 
ATOM     49  C   UNL A   1      45.266  27.305  26.835  1.00  0.00     0.049 A 
ATOM     50  H   UNL A   1      43.769  28.272  27.910  1.00  0.00     0.167 HD
ATOM     51  C   UNL A   1      40.539  30.225  30.098  1.00  0.00     0.037 A 
ATOM     52  C   UNL A   1      46.203  28.231  26.548  1.00  0.00     0.037 A 
ATOM     53  C   UNL A   1      41.516  31.261  29.896  1.00  0.00     0.049 A 
ATOM     54  C   UNL A   1      46.009  29.657  26.998  1.00  0.00     0.074 A 
ATOM     55  C   UNL A   1      41.485  32.574  30.333  1.00  0.00     0.029 A 
ATOM     56  N   UNL A   1      42.698  31.102  29.191  1.00  0.00    -0.354 N 
ATOM     57  N   UNL A   1      45.032  30.182  27.696  1.00  0.00    -0.248 NA
ATOM     58  C   UNL A   1      47.054  30.621  26.618  1.00  0.00     0.031 C 
ATOM     59  C   UNL A   1      42.628  33.222  29.855  1.00  0.00     0.029 A 
ATOM     60  C   UNL A   1      43.394  32.300  29.161  1.00  0.00     0.049 A 
ATOM     61  H   UNL A   1      42.999  30.262  28.773  1.00  0.00     0.167 HD
ATOM     62  C   UNL A   1      45.357  31.523  27.864  1.00  0.00     0.074 A 
ATOM     63  C   UNL A   1      46.627  31.731  27.204  1.00  0.00     0.031 C 
ATOM     64  C   UNL A   1      44.665  32.493  28.511  1.00  0.00     0.037 A 
BRANCH  51  65
ATOM     65  C   UNL A   1      39.289  30.571  30.851  1.00  0.00     0.064 A 
ATOM     66  C   UNL A   1      39.197  30.400  32.240  1.00  0.00     0.173 A 
ATOM     67  C   UNL A   1      38.182  31.112  30.180  1.00  0.00     0.173 A 
ATOM     68  F   UNL A   1      40.225  29.874  32.924  1.00  0.00    -0.203 F 
ATOM     69  C   UNL A   1      38.035  30.739  32.927  1.00  0.00     0.198 A 
ATOM     70  C   UNL A   1      37.031  31.472  30.874  1.00  0.00     0.198 A 
ATOM     71  F   UNL A   1      38.221  31.297  28.852  1.00  0.00    -0.203 F 
ATOM     72  F   UNL A   1      37.955  30.529  34.248  1.00  0.00    -0.200 F 
ATOM     73  C   UNL A   1      36.955  31.281  32.244  1.00  0.00     0.200 A 
ATOM     74  F   UNL A   1      35.992  32.006  30.214  1.00  0.00    -0.200 F 
ATOM     75  F   UNL A   1      35.839  31.612  32.909  1.00  0.00    -0.200 F 
ENDBRANCH  51  65
BRANCH  52  76
ATOM     76  C   UNL A   1      47.416  27.848  25.778  1.00  0.00     0.064 A 
ATOM     77  C   UNL A   1      47.400  27.814  24.377  1.00  0.00     0.173 A 
ATOM     78  C   UNL A   1      48.600  27.474  26.428  1.00  0.00     0.173 A 
ATOM     79  F   UNL A   1      46.280  28.133  23.712  1.00  0.00    -0.203 F 
ATOM     80  C   UNL A   1      48.520  27.403  23.656  1.00  0.00     0.198 A 
ATOM     81  C   UNL A   1      49.727  27.088  25.705  1.00  0.00     0.198 A 
ATOM     82  F   UNL A   1      48.663  27.485  27.768  1.00  0.00    -0.203 F 
ATOM     83  F   UNL A   1      48.462  27.333  22.318  1.00  0.00    -0.200 F 
ATOM     84  C   UNL A   1      49.682  27.045  24.319  1.00  0.00     0.200 A 
ATOM     85  F   UNL A   1      50.850  26.747  26.351  1.00  0.00    -0.200 F 
ATOM     86  F   UNL A   1      50.757  26.646  23.625  1.00  0.00    -0.200 F 
ENDBRANCH  52  76
BRANCH  64  87
ATOM     87  C   UNL A   1      45.280  33.861  28.575  1.00  0.00     0.064 A 
ATOM     88  C   UNL A   1      45.016  34.835  27.600  1.00  0.00     0.173 A 
ATOM     89  C   UNL A   1      46.107  34.218  29.652  1.00  0.00     0.173 A 
ATOM     90  F   UNL A   1      44.243  34.540  26.544  1.00  0.00    -0.203 F 
ATOM     91  C   UNL A   1      45.573  36.108  27.691  1.00  0.00     0.198 A 
ATOM     92  C   UNL A   1      46.640  35.500  29.754  1.00  0.00     0.198 A 
ATOM     93  F   UNL A   1      46.385  33.326  30.614  1.00  0.00    -0.203 F 
ATOM     94  F   UNL A   1      45.339  37.010  26.728  1.00  0.00    -0.200 F 
ATOM     95  C   UNL A   1      46.378  36.442  28.771  1.00  0.00     0.200 A 
ATOM     96  F   UNL A   1      47.407  35.825  30.804  1.00  0.00    -0.200 F 
ATOM     97  F   UNL A   1      46.907  37.670  28.860  1.00  0.00    -0.200 F 
ENDBRANCH  64  87
ENDBRANCH  38  39
ENDBRANCH  31  33
ENDBRANCH  30  31
ENDBRANCH  29  30
ENDBRANCH  28  29
ENDBRANCH  27  28
ENDBRANCH  26  27
ENDBRANCH   1  26
TORSDOF 20
ENDMDL
