MODEL 1
REMARK VINA RESULT:     -12.3      0.000      0.000
REMARK SMILES COc1ccc(/C=C2/C(=O)N(c3ccccc3)C(=O)N=C2OCCOCCOCCOC(=O)c2ccc(-c3c4nc(c(-c5c(F)c(F)c(F)c(F)c5F)c5ccc([nH]5)c(-c5c(F)c(F)c(F)c(F)c5F)c5nc(c(-c6c(F)c(F)c(F)c(F)c6F)c6ccc3[nH]6)C=C5)C=C4)cc2)cc1C(=O)[O-]
REMARK SMILES IDX 27 1 26 2 25 3 24 4 23 5 22 6 21 7 7 8 8 9 9 10 10 11 11 12
REMARK SMILES IDX 20 13 18 14 19 15 6 16 3 17 4 18 98 19 5 20 97 21 2 22 1 23
REMARK SMILES IDX 99 24 100 25 101 26 12 27 13 28 17 29 14 30 16 31 15 32
REMARK SMILES IDX 28 33 29 34 30 35 31 36 32 37 33 38 34 39 35 40 96 41 36 42
REMARK SMILES IDX 95 43 37 44 38 45 39 46 89 47 40 48 94 49 88 50 90 51 41 52
REMARK SMILES IDX 93 53 87 54 86 55 42 57 74 58 54 59 73 60 55 61 58 62 72 63
REMARK SMILES IDX 91 64 56 65 57 66 71 68 92 69 59 70 43 71 44 72 52 73 45 74
REMARK SMILES IDX 46 75 50 76 53 77 47 78 48 79 51 80 49 81 75 82 76 83 84 84
REMARK SMILES IDX 77 85 78 86 82 87 85 88 79 89 80 90 83 91 81 92 60 93 61 94
REMARK SMILES IDX 69 95 62 96 63 97 67 98 70 99 64 100 65 101 68 102 66 103
REMARK H PARENT 90 56 58 67
REMARK Flexibility Score: inf
ROOT
ATOM      1  C   UNL A   1      32.363  29.294  26.107  1.00  0.00     0.188 C 
ENDROOT
BRANCH   1   2
ATOM      2  C   UNL A   1      32.123  28.121  27.078  1.00  0.00     0.188 C 
BRANCH   2   3
ATOM      3  O   UNL A   1      30.964  27.318  27.000  1.00  0.00    -0.376 OA
BRANCH   3   4
ATOM      4  C   UNL A   1      31.062  25.933  26.709  1.00  0.00     0.201 C 
BRANCH   4   5
ATOM      5  C   UNL A   1      29.894  25.212  26.045  1.00  0.00     0.260 C 
BRANCH   5   6
ATOM      6  O   UNL A   1      30.063  25.112  24.616  1.00  0.00    -0.475 OA
BRANCH   6   7
ATOM      7  C   UNL A   1      29.739  26.159  23.840  1.00  0.00     0.231 C 
ATOM      8  C   UNL A   1      32.176  26.418  23.061  1.00  0.00     0.027 C 
ATOM      9  C   UNL A   1      30.888  26.828  23.205  1.00  0.00     0.103 C 
ATOM     10  C   UNL A   1      30.561  28.223  22.722  1.00  0.00     0.272 C 
ATOM     11  O   UNL A   1      31.433  28.940  22.229  1.00  0.00    -0.268 OA
ATOM     12  N   UNL A   1      29.246  28.633  22.940  1.00  0.00    -0.226 N 
ATOM     13  N   UNL A   1      28.525  26.561  23.823  1.00  0.00    -0.156 NA
ATOM     14  C   UNL A   1      28.209  27.786  23.332  1.00  0.00     0.358 C 
ATOM     15  O   UNL A   1      27.028  28.124  23.297  1.00  0.00    -0.245 OA
BRANCH   8  16
ATOM     16  C   UNL A   1      32.968  25.213  23.457  1.00  0.00    -0.024 A 
ATOM     17  C   UNL A   1      34.454  22.835  24.002  1.00  0.00     0.127 A 
ATOM     18  C   UNL A   1      34.893  24.075  24.450  1.00  0.00     0.048 A 
ATOM     19  C   UNL A   1      33.193  22.752  23.414  1.00  0.00     0.040 A 
ATOM     20  C   UNL A   1      34.123  25.228  24.240  1.00  0.00     0.012 A 
ATOM     21  C   UNL A   1      32.493  23.937  23.084  1.00  0.00     0.022 A 
BRANCH  17  22
ATOM     22  O   UNL A   1      35.281  21.781  24.281  1.00  0.00    -0.496 OA
ATOM     23  C   UNL A   1      35.658  21.723  25.658  1.00  0.00     0.278 C 
ENDBRANCH  17  22
BRANCH  19  24
ATOM     24  C   UNL A   1      32.474  21.467  23.208  1.00  0.00     0.075 C 
ATOM     25  O   UNL A   1      32.354  20.585  24.015  1.00  0.00    -0.545 OA
ATOM     26  O   UNL A   1      32.067  21.321  21.928  1.00  0.00    -0.545 OA
ENDBRANCH  19  24
ENDBRANCH   8  16
BRANCH  12  27
ATOM     27  C   UNL A   1      28.887  29.990  22.695  1.00  0.00     0.054 A 
ATOM     28  C   UNL A   1      28.473  30.371  21.409  1.00  0.00     0.027 A 
ATOM     29  C   UNL A   1      29.044  30.959  23.686  1.00  0.00     0.027 A 
ATOM     30  C   UNL A   1      28.211  31.712  21.125  1.00  0.00     0.002 A 
ATOM     31  C   UNL A   1      28.824  32.306  23.381  1.00  0.00     0.002 A 
ATOM     32  C   UNL A   1      28.406  32.681  22.104  1.00  0.00     0.000 A 
ENDBRANCH  12  27
ENDBRANCH   6   7
ENDBRANCH   5   6
ENDBRANCH   4   5
ENDBRANCH   3   4
ENDBRANCH   2   3
ENDBRANCH   1   2
BRANCH   1  33
ATOM     33  O   UNL A   1      32.574  30.601  26.589  1.00  0.00    -0.376 OA
BRANCH  33  34
ATOM     34  C   UNL A   1      31.538  31.567  26.526  1.00  0.00     0.202 C 
BRANCH  34  35
ATOM     35  C   UNL A   1      31.733  33.029  26.953  1.00  0.00     0.261 C 
BRANCH  35  36
ATOM     36  O   UNL A   1      33.086  33.504  26.976  1.00  0.00    -0.460 OA
BRANCH  36  37
ATOM     37  C   UNL A   1      33.538  33.913  28.188  1.00  0.00     0.338 C 
ATOM     38  O   UNL A   1      32.984  34.671  28.965  1.00  0.00    -0.246 OA
BRANCH  37  39
ATOM     39  C   UNL A   1      34.749  33.146  28.553  1.00  0.00     0.060 A 
ATOM     40  C   UNL A   1      34.592  31.810  28.948  1.00  0.00     0.016 A 
ATOM     41  C   UNL A   1      36.018  33.728  28.519  1.00  0.00     0.016 A 
ATOM     42  C   UNL A   1      35.704  31.061  29.340  1.00  0.00     0.010 A 
ATOM     43  C   UNL A   1      37.128  32.984  28.935  1.00  0.00     0.010 A 
ATOM     44  C   UNL A   1      36.974  31.657  29.372  1.00  0.00    -0.014 A 
BRANCH  44  45
ATOM     45  C   UNL A   1      38.097  30.959  30.046  1.00  0.00     0.031 A 
ATOM     46  C   UNL A   1      38.338  31.238  31.504  1.00  0.00     0.074 A 
ATOM     47  C   UNL A   1      38.883  30.086  29.392  1.00  0.00     0.049 A 
ATOM     48  N   UNL A   1      39.266  30.772  32.300  1.00  0.00    -0.248 NA
ATOM     49  C   UNL A   1      37.413  32.187  32.143  1.00  0.00     0.031 C 
ATOM     50  C   UNL A   1      38.746  29.717  27.987  1.00  0.00     0.029 A 
ATOM     51  N   UNL A   1      39.943  29.333  29.837  1.00  0.00    -0.354 N 
ATOM     52  C   UNL A   1      39.051  31.387  33.527  1.00  0.00     0.074 A 
ATOM     53  C   UNL A   1      37.907  32.260  33.370  1.00  0.00     0.031 C 
ATOM     54  C   UNL A   1      39.658  28.773  27.694  1.00  0.00     0.029 A 
ATOM     55  C   UNL A   1      40.482  28.515  28.875  1.00  0.00     0.049 A 
ATOM     56  H   UNL A   1      40.285  29.378  30.760  1.00  0.00     0.167 HD
ATOM     57  C   UNL A   1      39.754  31.253  34.676  1.00  0.00     0.037 A 
ATOM     58  C   UNL A   1      41.528  27.666  28.942  1.00  0.00     0.037 A 
ATOM     59  C   UNL A   1      40.908  30.407  34.828  1.00  0.00     0.049 A 
ATOM     60  C   UNL A   1      42.314  27.555  30.228  1.00  0.00     0.074 A 
ATOM     61  C   UNL A   1      41.699  30.220  35.948  1.00  0.00     0.029 A 
ATOM     62  N   UNL A   1      41.442  29.612  33.825  1.00  0.00    -0.354 N 
ATOM     63  N   UNL A   1      42.101  28.134  31.386  1.00  0.00    -0.248 NA
ATOM     64  C   UNL A   1      43.503  26.688  30.208  1.00  0.00     0.031 C 
ATOM     65  C   UNL A   1      42.745  29.356  35.606  1.00  0.00     0.029 A 
ATOM     66  C   UNL A   1      42.566  28.951  34.293  1.00  0.00     0.049 A 
ATOM     67  H   UNL A   1      41.076  29.530  32.914  1.00  0.00     0.167 HD
ATOM     68  C   UNL A   1      43.115  27.693  32.229  1.00  0.00     0.074 A 
ATOM     69  C   UNL A   1      43.927  26.773  31.462  1.00  0.00     0.031 C 
ATOM     70  C   UNL A   1      43.361  28.030  33.520  1.00  0.00     0.037 A 
BRANCH  57  71
ATOM     71  C   UNL A   1      39.326  32.092  35.844  1.00  0.00     0.064 A 
ATOM     72  C   UNL A   1      39.831  33.385  36.051  1.00  0.00     0.173 A 
ATOM     73  C   UNL A   1      38.391  31.597  36.765  1.00  0.00     0.173 A 
ATOM     74  F   UNL A   1      40.741  33.897  35.210  1.00  0.00    -0.203 F 
ATOM     75  C   UNL A   1      39.438  34.136  37.156  1.00  0.00     0.198 A 
ATOM     76  C   UNL A   1      37.977  32.363  37.851  1.00  0.00     0.198 A 
ATOM     77  F   UNL A   1      37.877  30.367  36.613  1.00  0.00    -0.203 F 
ATOM     78  F   UNL A   1      39.976  35.346  37.366  1.00  0.00    -0.200 F 
ATOM     79  C   UNL A   1      38.508  33.629  38.051  1.00  0.00     0.200 A 
ATOM     80  F   UNL A   1      37.069  31.874  38.707  1.00  0.00    -0.200 F 
ATOM     81  F   UNL A   1      38.130  34.355  39.112  1.00  0.00    -0.200 F 
ENDBRANCH  57  71
BRANCH  58  82
ATOM     82  C   UNL A   1      41.919  26.855  27.755  1.00  0.00     0.064 A 
ATOM     83  C   UNL A   1      41.363  25.585  27.536  1.00  0.00     0.173 A 
ATOM     84  C   UNL A   1      42.884  27.306  26.844  1.00  0.00     0.173 A 
ATOM     85  F   UNL A   1      40.461  25.090  28.397  1.00  0.00    -0.203 F 
ATOM     86  C   UNL A   1      41.775  24.791  26.465  1.00  0.00     0.198 A 
ATOM     87  C   UNL A   1      43.268  26.527  25.753  1.00  0.00     0.198 A 
ATOM     88  F   UNL A   1      43.461  28.505  27.014  1.00  0.00    -0.203 F 
ATOM     89  F   UNL A   1      41.276  23.556  26.320  1.00  0.00    -0.200 F 
ATOM     90  C   UNL A   1      42.722  25.266  25.572  1.00  0.00     0.200 A 
ATOM     91  F   UNL A   1      44.182  26.991  24.890  1.00  0.00    -0.200 F 
ATOM     92  F   UNL A   1      43.122  24.500  24.547  1.00  0.00    -0.200 F 
ENDBRANCH  58  82
BRANCH  70  93
ATOM     93  C   UNL A   1      44.537  27.383  34.201  1.00  0.00     0.064 A 
ATOM     94  C   UNL A   1      45.793  28.006  34.255  1.00  0.00     0.173 A 
ATOM     95  C   UNL A   1      44.387  26.153  34.860  1.00  0.00     0.173 A 
ATOM     96  F   UNL A   1      45.994  29.178  33.634  1.00  0.00    -0.203 F 
ATOM     97  C   UNL A   1      46.861  27.407  34.920  1.00  0.00     0.198 A 
ATOM     98  C   UNL A   1      45.448  25.573  35.551  1.00  0.00     0.198 A 
ATOM     99  F   UNL A   1      43.205  25.519  34.849  1.00  0.00    -0.203 F 
ATOM    100  F   UNL A   1      48.064  27.999  34.919  1.00  0.00    -0.200 F 
ATOM    101  C   UNL A   1      46.686  26.197  35.575  1.00  0.00     0.200 A 
ATOM    102  F   UNL A   1      45.271  24.413  36.197  1.00  0.00    -0.200 F 
ATOM    103  F   UNL A   1      47.712  25.630  36.224  1.00  0.00    -0.200 F 
ENDBRANCH  70  93
ENDBRANCH  44  45
ENDBRANCH  37  39
ENDBRANCH  36  37
ENDBRANCH  35  36
ENDBRANCH  34  35
ENDBRANCH  33  34
ENDBRANCH   1  33
TORSDOF 20
ENDMDL
MODEL 2
REMARK VINA RESULT:     -11.9      1.393      2.512
REMARK SMILES COc1ccc(/C=C2/C(=O)N(c3ccccc3)C(=O)N=C2OCCOCCOCCOC(=O)c2ccc(-c3c4nc(c(-c5c(F)c(F)c(F)c(F)c5F)c5ccc([nH]5)c(-c5c(F)c(F)c(F)c(F)c5F)c5nc(c(-c6c(F)c(F)c(F)c(F)c6F)c6ccc3[nH]6)C=C5)C=C4)cc2)cc1C(=O)[O-]
REMARK SMILES IDX 27 1 26 2 25 3 24 4 23 5 22 6 21 7 7 8 8 9 9 10 10 11 11 12
REMARK SMILES IDX 20 13 18 14 19 15 6 16 3 17 4 18 98 19 5 20 97 21 2 22 1 23
REMARK SMILES IDX 99 24 100 25 101 26 12 27 13 28 17 29 14 30 16 31 15 32
REMARK SMILES IDX 28 33 29 34 30 35 31 36 32 37 33 38 34 39 35 40 96 41 36 42
REMARK SMILES IDX 95 43 37 44 38 45 39 46 89 47 40 48 94 49 88 50 90 51 41 52
REMARK SMILES IDX 93 53 87 54 86 55 42 57 74 58 54 59 73 60 55 61 58 62 72 63
REMARK SMILES IDX 91 64 56 65 57 66 71 68 92 69 59 70 43 71 44 72 52 73 45 74
REMARK SMILES IDX 46 75 50 76 53 77 47 78 48 79 51 80 49 81 75 82 76 83 84 84
REMARK SMILES IDX 77 85 78 86 82 87 85 88 79 89 80 90 83 91 81 92 60 93 61 94
REMARK SMILES IDX 69 95 62 96 63 97 67 98 70 99 64 100 65 101 68 102 66 103
REMARK H PARENT 90 56 58 67
REMARK Flexibility Score: inf
ROOT
ATOM      1  C   UNL A   1      32.111  29.334  26.910  1.00  0.00     0.188 C 
ENDROOT
BRANCH   1   2
ATOM      2  C   UNL A   1      32.748  27.941  26.734  1.00  0.00     0.188 C 
BRANCH   2   3
ATOM      3  O   UNL A   1      31.983  26.758  26.823  1.00  0.00    -0.376 OA
BRANCH   3   4
ATOM      4  C   UNL A   1      30.656  26.715  26.323  1.00  0.00     0.201 C 
BRANCH   4   5
ATOM      5  C   UNL A   1      30.039  25.380  25.922  1.00  0.00     0.260 C 
BRANCH   5   6
ATOM      6  O   UNL A   1      29.982  25.219  24.490  1.00  0.00    -0.475 OA
BRANCH   6   7
ATOM      7  C   UNL A   1      29.590  26.253  23.726  1.00  0.00     0.231 C 
ATOM      8  C   UNL A   1      31.898  26.376  22.597  1.00  0.00     0.027 C 
ATOM      9  C   UNL A   1      30.660  26.847  22.907  1.00  0.00     0.103 C 
ATOM     10  C   UNL A   1      30.322  28.238  22.419  1.00  0.00     0.272 C 
ATOM     11  O   UNL A   1      31.141  28.898  21.779  1.00  0.00    -0.268 OA
ATOM     12  N   UNL A   1      29.070  28.713  22.807  1.00  0.00    -0.226 N 
ATOM     13  N   UNL A   1      28.403  26.707  23.867  1.00  0.00    -0.156 NA
ATOM     14  C   UNL A   1      28.068  27.927  23.377  1.00  0.00     0.358 C 
ATOM     15  O   UNL A   1      26.908  28.316  23.498  1.00  0.00    -0.245 OA
BRANCH   8  16
ATOM     16  C   UNL A   1      32.691  25.151  22.923  1.00  0.00    -0.024 A 
ATOM     17  C   UNL A   1      34.107  22.812  23.749  1.00  0.00     0.127 A 
ATOM     18  C   UNL A   1      33.529  22.894  22.488  1.00  0.00     0.048 A 
ATOM     19  C   UNL A   1      34.116  23.954  24.549  1.00  0.00     0.040 A 
ATOM     20  C   UNL A   1      32.897  24.071  22.064  1.00  0.00     0.012 A 
ATOM     21  C   UNL A   1      33.356  25.085  24.166  1.00  0.00     0.022 A 
BRANCH  17  22
ATOM     22  O   UNL A   1      34.711  21.620  24.045  1.00  0.00    -0.496 OA
ATOM     23  C   UNL A   1      33.816  20.679  24.640  1.00  0.00     0.278 C 
ENDBRANCH  17  22
BRANCH  19  24
ATOM     24  C   UNL A   1      34.982  24.100  25.748  1.00  0.00     0.075 C 
ATOM     25  O   UNL A   1      36.134  24.444  25.753  1.00  0.00    -0.545 OA
ATOM     26  O   UNL A   1      34.365  23.663  26.867  1.00  0.00    -0.545 OA
ENDBRANCH  19  24
ENDBRANCH   8  16
BRANCH  12  27
ATOM     27  C   UNL A   1      28.732  30.076  22.562  1.00  0.00     0.054 A 
ATOM     28  C   UNL A   1      28.269  30.452  21.291  1.00  0.00     0.027 A 
ATOM     29  C   UNL A   1      28.958  31.052  23.532  1.00  0.00     0.027 A 
ATOM     30  C   UNL A   1      28.026  31.795  21.002  1.00  0.00     0.002 A 
ATOM     31  C   UNL A   1      28.756  32.400  23.221  1.00  0.00     0.002 A 
ATOM     32  C   UNL A   1      28.289  32.771  21.959  1.00  0.00     0.000 A 
ENDBRANCH  12  27
ENDBRANCH   6   7
ENDBRANCH   5   6
ENDBRANCH   4   5
ENDBRANCH   3   4
ENDBRANCH   2   3
ENDBRANCH   1   2
BRANCH   1  33
ATOM     33  O   UNL A   1      32.900  30.456  27.232  1.00  0.00    -0.376 OA
BRANCH  33  34
ATOM     34  C   UNL A   1      32.372  31.766  27.107  1.00  0.00     0.202 C 
BRANCH  34  35
ATOM     35  C   UNL A   1      33.103  33.013  27.623  1.00  0.00     0.261 C 
BRANCH  35  36
ATOM     36  O   UNL A   1      32.273  34.120  28.001  1.00  0.00    -0.460 OA
BRANCH  36  37
ATOM     37  C   UNL A   1      32.904  35.121  28.665  1.00  0.00     0.338 C 
ATOM     38  O   UNL A   1      32.540  36.279  28.773  1.00  0.00    -0.246 OA
BRANCH  37  39
ATOM     39  C   UNL A   1      34.039  34.570  29.435  1.00  0.00     0.060 A 
ATOM     40  C   UNL A   1      35.327  34.689  28.895  1.00  0.00     0.016 A 
ATOM     41  C   UNL A   1      33.845  33.936  30.665  1.00  0.00     0.016 A 
ATOM     42  C   UNL A   1      36.423  34.147  29.569  1.00  0.00     0.010 A 
ATOM     43  C   UNL A   1      34.941  33.371  31.328  1.00  0.00     0.010 A 
ATOM     44  C   UNL A   1      36.230  33.451  30.772  1.00  0.00    -0.014 A 
BRANCH  44  45
ATOM     45  C   UNL A   1      37.338  32.642  31.340  1.00  0.00     0.031 A 
ATOM     46  C   UNL A   1      37.797  32.945  32.739  1.00  0.00     0.074 A 
ATOM     47  C   UNL A   1      37.922  31.652  30.642  1.00  0.00     0.049 A 
ATOM     48  N   UNL A   1      38.757  32.396  33.439  1.00  0.00    -0.248 NA
ATOM     49  C   UNL A   1      37.084  34.027  33.436  1.00  0.00     0.031 C 
ATOM     50  C   UNL A   1      37.560  31.250  29.287  1.00  0.00     0.029 A 
ATOM     51  N   UNL A   1      38.932  30.789  30.993  1.00  0.00    -0.354 N 
ATOM     52  C   UNL A   1      38.779  33.080  34.647  1.00  0.00     0.074 A 
ATOM     53  C   UNL A   1      37.738  34.084  34.586  1.00  0.00     0.031 C 
ATOM     54  C   UNL A   1      38.306  30.187  28.935  1.00  0.00     0.029 A 
ATOM     55  C   UNL A   1      39.239  29.872  30.018  1.00  0.00     0.049 A 
ATOM     56  H   UNL A   1      39.393  30.826  31.862  1.00  0.00     0.167 HD
ATOM     57  C   UNL A   1      39.603  32.902  35.707  1.00  0.00     0.037 A 
ATOM     58  C   UNL A   1      40.174  28.900  30.001  1.00  0.00     0.037 A 
ATOM     59  C   UNL A   1      40.656  31.923  35.761  1.00  0.00     0.049 A 
ATOM     60  C   UNL A   1      41.101  28.741  31.185  1.00  0.00     0.074 A 
ATOM     61  C   UNL A   1      41.557  31.681  36.783  1.00  0.00     0.029 A 
ATOM     62  N   UNL A   1      40.955  31.028  34.744  1.00  0.00    -0.354 N 
ATOM     63  N   UNL A   1      41.111  29.386  32.327  1.00  0.00    -0.248 NA
ATOM     64  C   UNL A   1      42.163  27.730  31.065  1.00  0.00     0.031 C 
ATOM     65  C   UNL A   1      42.437  30.679  36.362  1.00  0.00     0.029 A 
ATOM     66  C   UNL A   1      42.043  30.249  35.105  1.00  0.00     0.049 A 
ATOM     67  H   UNL A   1      40.468  30.959  33.891  1.00  0.00     0.167 HD
ATOM     68  C   UNL A   1      42.164  28.853  33.061  1.00  0.00     0.074 A 
ATOM     69  C   UNL A   1      42.753  27.809  32.250  1.00  0.00     0.031 C 
ATOM     70  C   UNL A   1      42.614  29.206  34.291  1.00  0.00     0.037 A 
BRANCH  57  71
ATOM     71  C   UNL A   1      39.434  33.833  36.871  1.00  0.00     0.064 A 
ATOM     72  C   UNL A   1      39.988  35.122  36.874  1.00  0.00     0.173 A 
ATOM     73  C   UNL A   1      38.700  33.431  37.997  1.00  0.00     0.173 A 
ATOM     74  F   UNL A   1      40.714  35.548  35.830  1.00  0.00    -0.203 F 
ATOM     75  C   UNL A   1      39.840  35.961  37.976  1.00  0.00     0.198 A 
ATOM     76  C   UNL A   1      38.527  34.283  39.084  1.00  0.00     0.198 A 
ATOM     77  F   UNL A   1      38.149  32.208  38.045  1.00  0.00    -0.203 F 
ATOM     78  F   UNL A   1      40.426  37.166  37.983  1.00  0.00    -0.200 F 
ATOM     79  C   UNL A   1      39.105  35.544  39.077  1.00  0.00     0.200 A 
ATOM     80  F   UNL A   1      37.807  33.882  40.140  1.00  0.00    -0.200 F 
ATOM     81  F   UNL A   1      38.962  36.353  40.135  1.00  0.00    -0.200 F 
ENDBRANCH  57  71
BRANCH  58  82
ATOM     82  C   UNL A   1      40.307  28.001  28.821  1.00  0.00     0.064 A 
ATOM     83  C   UNL A   1      41.062  28.388  27.702  1.00  0.00     0.173 A 
ATOM     84  C   UNL A   1      39.651  26.764  28.763  1.00  0.00     0.173 A 
ATOM     85  F   UNL A   1      41.681  29.578  27.691  1.00  0.00    -0.203 F 
ATOM     86  C   UNL A   1      41.135  27.582  26.567  1.00  0.00     0.198 A 
ATOM     87  C   UNL A   1      39.755  25.943  27.642  1.00  0.00     0.198 A 
ATOM     88  F   UNL A   1      38.902  26.351  29.797  1.00  0.00    -0.203 F 
ATOM     89  F   UNL A   1      41.807  28.008  25.488  1.00  0.00    -0.200 F 
ATOM     90  C   UNL A   1      40.486  26.357  26.540  1.00  0.00     0.200 A 
ATOM     91  F   UNL A   1      39.128  24.757  27.622  1.00  0.00    -0.200 F 
ATOM     92  F   UNL A   1      40.551  25.586  25.446  1.00  0.00    -0.200 F 
ENDBRANCH  58  82
BRANCH  70  93
ATOM     93  C   UNL A   1      43.781  28.442  34.856  1.00  0.00     0.064 A 
ATOM     94  C   UNL A   1      43.605  27.248  35.571  1.00  0.00     0.173 A 
ATOM     95  C   UNL A   1      45.094  28.880  34.627  1.00  0.00     0.173 A 
ATOM     96  F   UNL A   1      42.371  26.788  35.827  1.00  0.00    -0.203 F 
ATOM     97  C   UNL A   1      44.700  26.536  36.058  1.00  0.00     0.198 A 
ATOM     98  C   UNL A   1      46.187  28.150  35.087  1.00  0.00     0.198 A 
ATOM     99  F   UNL A   1      45.321  30.011  33.941  1.00  0.00    -0.203 F 
ATOM    100  F   UNL A   1      44.506  25.421  36.777  1.00  0.00    -0.200 F 
ATOM    101  C   UNL A   1      45.989  26.981  35.808  1.00  0.00     0.200 A 
ATOM    102  F   UNL A   1      47.431  28.574  34.829  1.00  0.00    -0.200 F 
ATOM    103  F   UNL A   1      47.040  26.289  36.266  1.00  0.00    -0.200 F 
ENDBRANCH  70  93
ENDBRANCH  44  45
ENDBRANCH  37  39
ENDBRANCH  36  37
ENDBRANCH  35  36
ENDBRANCH  34  35
ENDBRANCH  33  34
ENDBRANCH   1  33
TORSDOF 20
ENDMDL
MODEL 3
REMARK VINA RESULT:     -11.8      3.175      9.371
REMARK SMILES COc1ccc(/C=C2/C(=O)N(c3ccccc3)C(=O)N=C2OCCOCCOCCOC(=O)c2ccc(-c3c4nc(c(-c5c(F)c(F)c(F)c(F)c5F)c5ccc([nH]5)c(-c5c(F)c(F)c(F)c(F)c5F)c5nc(c(-c6c(F)c(F)c(F)c(F)c6F)c6ccc3[nH]6)C=C5)C=C4)cc2)cc1C(=O)[O-]
REMARK SMILES IDX 27 1 26 2 25 3 24 4 23 5 22 6 21 7 7 8 8 9 9 10 10 11 11 12
REMARK SMILES IDX 20 13 18 14 19 15 6 16 3 17 4 18 98 19 5 20 97 21 2 22 1 23
REMARK SMILES IDX 99 24 100 25 101 26 12 27 13 28 17 29 14 30 16 31 15 32
REMARK SMILES IDX 28 33 29 34 30 35 31 36 32 37 33 38 34 39 35 40 96 41 36 42
REMARK SMILES IDX 95 43 37 44 38 45 39 46 89 47 40 48 94 49 88 50 90 51 41 52
REMARK SMILES IDX 93 53 87 54 86 55 42 57 74 58 54 59 73 60 55 61 58 62 72 63
REMARK SMILES IDX 91 64 56 65 57 66 71 68 92 69 59 70 43 71 44 72 52 73 45 74
REMARK SMILES IDX 46 75 50 76 53 77 47 78 48 79 51 80 49 81 75 82 76 83 84 84
REMARK SMILES IDX 77 85 78 86 82 87 85 88 79 89 80 90 83 91 81 92 60 93 61 94
REMARK SMILES IDX 69 95 62 96 63 97 67 98 70 99 64 100 65 101 68 102 66 103
REMARK H PARENT 90 56 58 67
REMARK Flexibility Score: inf
ROOT
ATOM      1  C   UNL A   1      40.358  20.804  26.169  1.00  0.00     0.188 C 
ENDROOT
BRANCH   1   2
ATOM      2  C   UNL A   1      39.092  21.636  25.878  1.00  0.00     0.188 C 
BRANCH   2   3
ATOM      3  O   UNL A   1      38.908  22.924  26.425  1.00  0.00    -0.376 OA
BRANCH   3   4
ATOM      4  C   UNL A   1      37.877  23.773  25.946  1.00  0.00     0.201 C 
BRANCH   4   5
ATOM      5  C   UNL A   1      36.428  23.497  26.329  1.00  0.00     0.260 C 
BRANCH   5   6
ATOM      6  O   UNL A   1      35.577  23.373  25.172  1.00  0.00    -0.475 OA
BRANCH   6   7
ATOM      7  C   UNL A   1      35.235  22.150  24.735  1.00  0.00     0.231 C 
ATOM      8  C   UNL A   1      32.934  23.001  23.960  1.00  0.00     0.027 C 
ATOM      9  C   UNL A   1      33.843  22.036  24.266  1.00  0.00     0.103 C 
ATOM     10  C   UNL A   1      33.358  20.604  24.207  1.00  0.00     0.272 C 
ATOM     11  O   UNL A   1      32.195  20.345  23.901  1.00  0.00    -0.268 OA
ATOM     12  N   UNL A   1      34.298  19.645  24.585  1.00  0.00    -0.226 N 
ATOM     13  N   UNL A   1      36.066  21.188  24.881  1.00  0.00    -0.156 NA
ATOM     14  C   UNL A   1      35.658  19.899  24.766  1.00  0.00     0.358 C 
ATOM     15  O   UNL A   1      36.491  19.002  24.876  1.00  0.00    -0.245 OA
BRANCH   8  16
ATOM     16  C   UNL A   1      32.915  24.495  23.969  1.00  0.00    -0.024 A 
ATOM     17  C   UNL A   1      32.978  27.342  24.187  1.00  0.00     0.127 A 
ATOM     18  C   UNL A   1      33.326  26.706  23.002  1.00  0.00     0.048 A 
ATOM     19  C   UNL A   1      32.447  26.574  25.221  1.00  0.00     0.040 A 
ATOM     20  C   UNL A   1      33.225  25.312  22.880  1.00  0.00     0.012 A 
ATOM     21  C   UNL A   1      32.483  25.161  25.136  1.00  0.00     0.022 A 
BRANCH  17  22
ATOM     22  O   UNL A   1      33.100  28.706  24.181  1.00  0.00    -0.496 OA
ATOM     23  C   UNL A   1      33.907  29.184  23.103  1.00  0.00     0.278 C 
ENDBRANCH  17  22
BRANCH  19  24
ATOM     24  C   UNL A   1      31.731  27.159  26.385  1.00  0.00     0.075 C 
ATOM     25  O   UNL A   1      32.079  28.114  27.025  1.00  0.00    -0.545 OA
ATOM     26  O   UNL A   1      30.675  26.402  26.754  1.00  0.00    -0.545 OA
ENDBRANCH  19  24
ENDBRANCH   8  16
BRANCH  12  27
ATOM     27  C   UNL A   1      33.888  18.290  24.746  1.00  0.00     0.054 A 
ATOM     28  C   UNL A   1      34.237  17.345  23.769  1.00  0.00     0.027 A 
ATOM     29  C   UNL A   1      33.057  17.917  25.802  1.00  0.00     0.027 A 
ATOM     30  C   UNL A   1      33.763  16.036  23.858  1.00  0.00     0.002 A 
ATOM     31  C   UNL A   1      32.549  16.615  25.861  1.00  0.00     0.002 A 
ATOM     32  C   UNL A   1      32.904  15.676  24.891  1.00  0.00     0.000 A 
ENDBRANCH  12  27
ENDBRANCH   6   7
ENDBRANCH   5   6
ENDBRANCH   4   5
ENDBRANCH   3   4
ENDBRANCH   2   3
ENDBRANCH   1   2
BRANCH   1  33
ATOM     33  O   UNL A   1      41.328  21.258  27.085  1.00  0.00    -0.376 OA
BRANCH  33  34
ATOM     34  C   UNL A   1      42.707  21.184  26.767  1.00  0.00     0.202 C 
BRANCH  34  35
ATOM     35  C   UNL A   1      43.281  21.669  25.428  1.00  0.00     0.261 C 
BRANCH  35  36
ATOM     36  O   UNL A   1      42.742  22.897  24.919  1.00  0.00    -0.460 OA
BRANCH  36  37
ATOM     37  C   UNL A   1      43.540  23.986  25.063  1.00  0.00     0.338 C 
ATOM     38  O   UNL A   1      44.545  24.254  24.428  1.00  0.00    -0.246 OA
BRANCH  37  39
ATOM     39  C   UNL A   1      42.909  24.946  25.994  1.00  0.00     0.060 A 
ATOM     40  C   UNL A   1      43.554  26.170  26.222  1.00  0.00     0.016 A 
ATOM     41  C   UNL A   1      41.709  24.648  26.644  1.00  0.00     0.016 A 
ATOM     42  C   UNL A   1      43.014  27.088  27.124  1.00  0.00     0.010 A 
ATOM     43  C   UNL A   1      41.182  25.560  27.567  1.00  0.00     0.010 A 
ATOM     44  C   UNL A   1      41.844  26.771  27.831  1.00  0.00    -0.014 A 
BRANCH  44  45
ATOM     45  C   UNL A   1      41.429  27.613  28.981  1.00  0.00     0.031 A 
ATOM     46  C   UNL A   1      42.246  27.551  30.242  1.00  0.00     0.074 A 
ATOM     47  C   UNL A   1      40.360  28.425  28.914  1.00  0.00     0.049 A 
ATOM     48  N   UNL A   1      42.070  28.170  31.381  1.00  0.00    -0.248 NA
ATOM     49  C   UNL A   1      43.412  26.654  30.215  1.00  0.00     0.031 C 
ATOM     50  C   UNL A   1      39.496  28.588  27.750  1.00  0.00     0.029 A 
ATOM     51  N   UNL A   1      39.834  29.286  29.848  1.00  0.00    -0.354 N 
ATOM     52  C   UNL A   1      43.087  27.720  32.214  1.00  0.00     0.074 A 
ATOM     53  C   UNL A   1      43.875  26.777  31.450  1.00  0.00     0.031 C 
ATOM     54  C   UNL A   1      38.573  29.528  28.021  1.00  0.00     0.029 A 
ATOM     55  C   UNL A   1      38.744  29.990  29.398  1.00  0.00     0.049 A 
ATOM     56  H   UNL A   1      40.204  29.387  30.755  1.00  0.00     0.167 HD
ATOM     57  C   UNL A   1      43.333  28.049  33.504  1.00  0.00     0.037 A 
ATOM     58  C   UNL A   1      37.969  30.893  30.034  1.00  0.00     0.037 A 
ATOM     59  C   UNL A   1      42.535  28.966  34.274  1.00  0.00     0.049 A 
ATOM     60  C   UNL A   1      38.247  31.220  31.483  1.00  0.00     0.074 A 
ATOM     61  C   UNL A   1      42.693  29.346  35.595  1.00  0.00     0.029 A 
ATOM     62  N   UNL A   1      41.423  29.640  33.795  1.00  0.00    -0.354 N 
ATOM     63  N   UNL A   1      39.215  30.798  32.262  1.00  0.00    -0.248 NA
ATOM     64  C   UNL A   1      37.307  32.136  32.149  1.00  0.00     0.031 C 
ATOM     65  C   UNL A   1      41.643  30.207  35.931  1.00  0.00     0.029 A 
ATOM     66  C   UNL A   1      40.870  30.417  34.801  1.00  0.00     0.049 A 
ATOM     67  H   UNL A   1      41.076  29.576  32.875  1.00  0.00     0.167 HD
ATOM     68  C   UNL A   1      39.008  31.403  33.497  1.00  0.00     0.074 A 
ATOM     69  C   UNL A   1      37.841  32.248  33.358  1.00  0.00     0.031 C 
ATOM     70  C   UNL A   1      39.712  31.261  34.647  1.00  0.00     0.037 A 
BRANCH  57  71
ATOM     71  C   UNL A   1      44.480  27.359  34.180  1.00  0.00     0.064 A 
ATOM     72  C   UNL A   1      44.323  26.126  34.832  1.00  0.00     0.173 A 
ATOM     73  C   UNL A   1      45.758  27.938  34.170  1.00  0.00     0.173 A 
ATOM     74  F   UNL A   1      43.118  25.540  34.887  1.00  0.00    -0.203 F 
ATOM     75  C   UNL A   1      45.397  25.515  35.475  1.00  0.00     0.198 A 
ATOM     76  C   UNL A   1      46.836  27.309  34.787  1.00  0.00     0.198 A 
ATOM     77  F   UNL A   1      45.963  29.115  33.561  1.00  0.00    -0.203 F 
ATOM     78  F   UNL A   1      45.212  24.366  36.140  1.00  0.00    -0.200 F 
ATOM     79  C   UNL A   1      46.653  26.103  35.447  1.00  0.00     0.200 A 
ATOM     80  F   UNL A   1      48.051  27.874  34.747  1.00  0.00    -0.200 F 
ATOM     81  F   UNL A   1      47.685  25.513  36.064  1.00  0.00    -0.200 F 
ENDBRANCH  57  71
BRANCH  58  82
ATOM     82  C   UNL A   1      36.838  31.550  29.323  1.00  0.00     0.064 A 
ATOM     83  C   UNL A   1      36.866  32.924  29.038  1.00  0.00     0.173 A 
ATOM     84  C   UNL A   1      35.689  30.837  28.953  1.00  0.00     0.173 A 
ATOM     85  F   UNL A   1      37.927  33.661  29.402  1.00  0.00    -0.203 F 
ATOM     86  C   UNL A   1      35.782  33.560  28.434  1.00  0.00     0.198 A 
ATOM     87  C   UNL A   1      34.621  31.466  28.317  1.00  0.00     0.198 A 
ATOM     88  F   UNL A   1      35.599  29.524  29.216  1.00  0.00    -0.203 F 
ATOM     89  F   UNL A   1      35.811  34.885  28.237  1.00  0.00    -0.200 F 
ATOM     90  C   UNL A   1      34.663  32.829  28.069  1.00  0.00     0.200 A 
ATOM     91  F   UNL A   1      33.541  30.754  27.962  1.00  0.00    -0.200 F 
ATOM     92  F   UNL A   1      33.618  33.441  27.494  1.00  0.00    -0.200 F 
ENDBRANCH  58  82
BRANCH  70  93
ATOM     93  C   UNL A   1      39.265  32.055  35.844  1.00  0.00     0.064 A 
ATOM     94  C   UNL A   1      39.707  33.368  36.065  1.00  0.00     0.173 A 
ATOM     95  C   UNL A   1      38.338  31.515  36.749  1.00  0.00     0.173 A 
ATOM     96  F   UNL A   1      40.600  33.930  35.237  1.00  0.00    -0.203 F 
ATOM     97  C   UNL A   1      39.256  34.101  37.162  1.00  0.00     0.198 A 
ATOM     98  C   UNL A   1      37.865  32.262  37.825  1.00  0.00     0.198 A 
ATOM     99  F   UNL A   1      37.875  30.267  36.580  1.00  0.00    -0.203 F 
ATOM    100  F   UNL A   1      39.726  35.338  37.378  1.00  0.00    -0.200 F 
ATOM    101  C   UNL A   1      38.329  33.552  38.035  1.00  0.00     0.200 A 
ATOM    102  F   UNL A   1      36.957  31.734  38.657  1.00  0.00    -0.200 F 
ATOM    103  F   UNL A   1      37.888  34.262  39.082  1.00  0.00    -0.200 F 
ENDBRANCH  70  93
ENDBRANCH  44  45
ENDBRANCH  37  39
ENDBRANCH  36  37
ENDBRANCH  35  36
ENDBRANCH  34  35
ENDBRANCH  33  34
ENDBRANCH   1  33
TORSDOF 20
ENDMDL
