MODEL 1
REMARK VINA RESULT:     -12.2      0.000      0.000
REMARK SMILES CC[C@@](C)(NC(=O)c1cccc2ccccc12)C(=O)OCCOCCOCCOC(=O)c1ccc(-c2c3nc(c(-c4c(F)c(F)c(F)c(F)c4F)c4ccc([nH]4)c(-c4c(F)c(F)c(F)c(F)c4F)c4nc(c(-c5c(F)c(F)c(F)c(F)c5F)c5ccc2[nH]5)C=C4)C=C3)cc1
REMARK SMILES IDX 24 1 23 2 22 3 21 4 20 5 18 6 19 7 3 8 4 9 2 10 1 11 5 12
REMARK SMILES IDX 6 13 7 15 8 16 9 17 17 18 10 19 12 20 16 21 11 22 13 23
REMARK SMILES IDX 15 24 14 25 25 26 26 27 27 28 28 29 29 30 30 31 31 32 32 33
REMARK SMILES IDX 33 34 94 35 34 36 93 37 35 38 36 39 37 40 87 41 38 42 92 43
REMARK SMILES IDX 86 44 88 45 39 46 91 47 85 48 84 49 40 51 72 52 52 53 71 54
REMARK SMILES IDX 53 55 56 56 70 57 89 58 54 59 55 60 69 62 90 63 57 64 41 65
REMARK SMILES IDX 42 66 50 67 43 68 44 69 48 70 51 71 45 72 46 73 49 74 47 75
REMARK SMILES IDX 73 76 74 77 82 78 75 79 76 80 80 81 83 82 77 83 78 84 81 85
REMARK SMILES IDX 79 86 58 87 59 88 67 89 60 90 61 91 65 92 68 93 62 94 63 95
REMARK SMILES IDX 66 96 64 97
REMARK H PARENT 5 14 88 50 56 61
REMARK Flexibility Score: inf
ROOT
ATOM      1  C   UNL A   1      33.251  22.735  27.718  1.00  0.00     0.188 C 
ENDROOT
BRANCH   1   2
ATOM      2  O   UNL A   1      31.846  23.026  27.636  1.00  0.00    -0.376 OA
BRANCH   2   3
ATOM      3  C   UNL A   1      31.395  24.087  26.751  1.00  0.00     0.202 C 
BRANCH   3   4
ATOM      4  C   UNL A   1      32.426  25.001  26.024  1.00  0.00     0.261 C 
BRANCH   4   5
ATOM      5  O   UNL A   1      32.861  26.082  26.842  1.00  0.00    -0.462 OA
BRANCH   5   6
ATOM      6  C   UNL A   1      32.213  27.259  26.800  1.00  0.00     0.331 C 
ATOM      7  O   UNL A   1      31.204  27.509  27.441  1.00  0.00    -0.249 OA
BRANCH   6   8
ATOM      8  C   UNL A   1      33.074  28.280  26.004  1.00  0.00     0.135 C 
ATOM      9  C   UNL A   1      32.317  29.629  26.037  1.00  0.00     0.047 C 
BRANCH   8  10
ATOM     10  C   UNL A   1      34.446  28.601  26.742  1.00  0.00     0.037 C 
ATOM     11  C   UNL A   1      34.636  30.041  27.234  1.00  0.00     0.007 C 
ENDBRANCH   8  10
BRANCH   8  12
ATOM     12  N   UNL A   1      33.216  27.924  24.499  1.00  0.00    -0.336 N 
ATOM     13  C   UNL A   1      32.509  27.621  23.318  1.00  0.00     0.252 C 
ATOM     14  H   UNL A   1      34.177  27.902  24.286  1.00  0.00     0.165 HD
ATOM     15  O   UNL A   1      33.265  27.579  22.330  1.00  0.00    -0.269 OA
BRANCH  13  16
ATOM     16  C   UNL A   1      30.975  27.593  22.975  1.00  0.00     0.047 A 
ATOM     17  C   UNL A   1      30.471  26.474  23.707  1.00  0.00     0.014 A 
ATOM     18  C   UNL A   1      30.030  28.740  22.428  1.00  0.00    -0.006 A 
ATOM     19  C   UNL A   1      29.122  26.208  23.948  1.00  0.00     0.001 A 
ATOM     20  C   UNL A   1      28.417  28.359  23.097  1.00  0.00    -0.018 A 
ATOM     21  C   UNL A   1      30.137  30.454  21.594  1.00  0.00     0.009 A 
ATOM     22  C   UNL A   1      28.123  27.118  23.643  1.00  0.00     0.009 A 
ATOM     23  C   UNL A   1      27.161  29.614  23.182  1.00  0.00     0.009 A 
ATOM     24  C   UNL A   1      28.832  31.692  21.725  1.00  0.00     0.001 A 
ATOM     25  C   UNL A   1      27.350  31.233  22.534  1.00  0.00     0.001 A 
ENDBRANCH  13  16
ENDBRANCH   8  12
ENDBRANCH   6   8
ENDBRANCH   5   6
ENDBRANCH   4   5
ENDBRANCH   3   4
ENDBRANCH   2   3
ENDBRANCH   1   2
BRANCH   1  26
ATOM     26  C   UNL A   1      34.063  21.358  27.143  1.00  0.00     0.188 C 
BRANCH  26  27
ATOM     27  O   UNL A   1      34.317  20.963  25.736  1.00  0.00    -0.376 OA
BRANCH  27  28
ATOM     28  C   UNL A   1      35.465  20.439  24.917  1.00  0.00     0.202 C 
BRANCH  28  29
ATOM     29  C   UNL A   1      37.027  21.297  24.388  1.00  0.00     0.261 C 
BRANCH  29  30
ATOM     30  O   UNL A   1      38.057  22.527  25.639  1.00  0.00    -0.460 OA
BRANCH  30  31
ATOM     31  C   UNL A   1      39.178  22.975  26.477  1.00  0.00     0.338 C 
ATOM     32  O   UNL A   1      39.953  22.091  26.882  1.00  0.00    -0.246 OA
BRANCH  31  33
ATOM     33  C   UNL A   1      39.610  24.413  26.965  1.00  0.00     0.060 A 
ATOM     34  C   UNL A   1      40.317  25.428  26.304  1.00  0.00     0.016 A 
ATOM     35  C   UNL A   1      39.276  24.761  28.295  1.00  0.00     0.016 A 
ATOM     36  C   UNL A   1      40.618  26.701  26.859  1.00  0.00     0.010 A 
ATOM     37  C   UNL A   1      39.604  26.014  28.886  1.00  0.00     0.010 A 
ATOM     38  C   UNL A   1      40.281  27.006  28.171  1.00  0.00    -0.014 A 
BRANCH  38  39
ATOM     39  C   UNL A   1      40.682  28.297  28.812  1.00  0.00     0.031 A 
ATOM     40  C   UNL A   1      42.087  28.489  29.328  1.00  0.00     0.074 A 
ATOM     41  C   UNL A   1      39.807  29.310  28.966  1.00  0.00     0.049 A 
ATOM     42  N   UNL A   1      42.585  29.454  30.065  1.00  0.00    -0.248 NA
ATOM     43  C   UNL A   1      43.065  27.461  28.947  1.00  0.00     0.031 C 
ATOM     44  C   UNL A   1      38.448  29.339  28.432  1.00  0.00     0.029 A 
ATOM     45  N   UNL A   1      39.928  30.508  29.641  1.00  0.00    -0.354 N 
ATOM     46  C   UNL A   1      43.925  29.140  30.257  1.00  0.00     0.074 A 
ATOM     47  C   UNL A   1      44.165  27.899  29.545  1.00  0.00     0.031 C 
ATOM     48  C   UNL A   1      37.846  30.472  28.835  1.00  0.00     0.029 A 
ATOM     49  C   UNL A   1      38.758  31.229  29.695  1.00  0.00     0.049 A 
ATOM     50  H   UNL A   1      40.770  30.815  30.044  1.00  0.00     0.167 HD
ATOM     51  C   UNL A   1      44.867  29.809  30.970  1.00  0.00     0.037 A 
ATOM     52  C   UNL A   1      38.438  32.340  30.391  1.00  0.00     0.037 A 
ATOM     53  C   UNL A   1      44.638  31.032  31.702  1.00  0.00     0.049 A 
ATOM     54  C   UNL A   1      39.461  33.002  31.280  1.00  0.00     0.074 A 
ATOM     55  C   UNL A   1      45.534  31.766  32.461  1.00  0.00     0.029 A 
ATOM     56  N   UNL A   1      43.422  31.695  31.776  1.00  0.00    -0.354 N 
ATOM     57  N   UNL A   1      40.714  32.682  31.483  1.00  0.00    -0.248 NA
ATOM     58  C   UNL A   1      39.017  34.179  32.046  1.00  0.00     0.031 C 
ATOM     59  C   UNL A   1      44.850  32.843  33.037  1.00  0.00     0.029 A 
ATOM     60  C   UNL A   1      43.539  32.813  32.592  1.00  0.00     0.049 A 
ATOM     61  H   UNL A   1      42.597  31.415  31.319  1.00  0.00     0.167 HD
ATOM     62  C   UNL A   1      41.215  33.626  32.371  1.00  0.00     0.074 A 
ATOM     63  C   UNL A   1      40.132  34.539  32.668  1.00  0.00     0.031 C 
ATOM     64  C   UNL A   1      42.465  33.726  32.888  1.00  0.00     0.037 A 
BRANCH  51  65
ATOM     65  C   UNL A   1      46.238  29.198  31.048  1.00  0.00     0.064 A 
ATOM     66  C   UNL A   1      47.245  29.519  30.126  1.00  0.00     0.173 A 
ATOM     67  C   UNL A   1      46.558  28.309  32.086  1.00  0.00     0.173 A 
ATOM     68  F   UNL A   1      46.990  30.358  29.111  1.00  0.00    -0.203 F 
ATOM     69  C   UNL A   1      48.513  28.948  30.223  1.00  0.00     0.198 A 
ATOM     70  C   UNL A   1      47.833  27.762  32.195  1.00  0.00     0.198 A 
ATOM     71  F   UNL A   1      45.636  27.979  33.002  1.00  0.00    -0.203 F 
ATOM     72  F   UNL A   1      49.447  29.233  29.305  1.00  0.00    -0.200 F 
ATOM     73  C   UNL A   1      48.807  28.074  31.259  1.00  0.00     0.200 A 
ATOM     74  F   UNL A   1      48.120  26.929  33.206  1.00  0.00    -0.200 F 
ATOM     75  F   UNL A   1      50.027  27.528  31.352  1.00  0.00    -0.200 F 
ENDBRANCH  51  65
BRANCH  52  76
ATOM     76  C   UNL A   1      37.055  32.883  30.310  1.00  0.00     0.064 A 
ATOM     77  C   UNL A   1      36.099  32.582  31.290  1.00  0.00     0.173 A 
ATOM     78  C   UNL A   1      36.660  33.713  29.250  1.00  0.00     0.173 A 
ATOM     79  F   UNL A   1      36.414  31.759  32.302  1.00  0.00    -0.203 F 
ATOM     80  C   UNL A   1      34.804  33.093  31.215  1.00  0.00     0.198 A 
ATOM     81  C   UNL A   1      35.375  34.246  29.190  1.00  0.00     0.198 A 
ATOM     82  F   UNL A   1      37.532  34.017  28.276  1.00  0.00    -0.203 F 
ATOM     83  F   UNL A   1      33.900  32.763  32.148  1.00  0.00    -0.200 F 
ATOM     84  C   UNL A   1      34.447  33.934  30.172  1.00  0.00     0.200 A 
ATOM     85  F   UNL A   1      35.037  35.063  28.183  1.00  0.00    -0.200 F 
ATOM     86  F   UNL A   1      33.207  34.438  30.108  1.00  0.00    -0.200 F 
ENDBRANCH  52  76
BRANCH  64  87
ATOM     87  C   UNL A   1      42.752  34.888  33.797  1.00  0.00     0.064 A 
ATOM     88  C   UNL A   1      42.636  34.785  35.191  1.00  0.00     0.173 A 
ATOM     89  C   UNL A   1      43.174  36.118  33.265  1.00  0.00     0.173 A 
ATOM     90  F   UNL A   1      42.222  33.639  35.750  1.00  0.00    -0.203 F 
ATOM     91  C   UNL A   1      42.908  35.875  36.016  1.00  0.00     0.198 A 
ATOM     92  C   UNL A   1      43.469  37.197  34.095  1.00  0.00     0.198 A 
ATOM     93  F   UNL A   1      43.306  36.270  31.939  1.00  0.00    -0.203 F 
ATOM     94  F   UNL A   1      42.746  35.767  37.342  1.00  0.00    -0.200 F 
ATOM     95  C   UNL A   1      43.328  37.078  35.468  1.00  0.00     0.200 A 
ATOM     96  F   UNL A   1      43.884  38.356  33.563  1.00  0.00    -0.200 F 
ATOM     97  F   UNL A   1      43.589  38.124  36.264  1.00  0.00    -0.200 F 
ENDBRANCH  64  87
ENDBRANCH  38  39
ENDBRANCH  31  33
ENDBRANCH  30  31
ENDBRANCH  29  30
ENDBRANCH  28  29
ENDBRANCH  27  28
ENDBRANCH  26  27
ENDBRANCH   1  26
TORSDOF 20
ENDMDL
MODEL 2
REMARK VINA RESULT:     -11.2      9.931     16.050
REMARK SMILES CC[C@@](C)(NC(=O)c1cccc2ccccc12)C(=O)OCCOCCOCCOC(=O)c1ccc(-c2c3nc(c(-c4c(F)c(F)c(F)c(F)c4F)c4ccc([nH]4)c(-c4c(F)c(F)c(F)c(F)c4F)c4nc(c(-c5c(F)c(F)c(F)c(F)c5F)c5ccc2[nH]5)C=C4)C=C3)cc1
REMARK SMILES IDX 24 1 23 2 22 3 21 4 20 5 18 6 19 7 3 8 4 9 2 10 1 11 5 12
REMARK SMILES IDX 6 13 7 15 8 16 9 17 17 18 10 19 12 20 16 21 11 22 13 23
REMARK SMILES IDX 15 24 14 25 25 26 26 27 27 28 28 29 29 30 30 31 31 32 32 33
REMARK SMILES IDX 33 34 94 35 34 36 93 37 35 38 36 39 37 40 87 41 38 42 92 43
REMARK SMILES IDX 86 44 88 45 39 46 91 47 85 48 84 49 40 51 72 52 52 53 71 54
REMARK SMILES IDX 53 55 56 56 70 57 89 58 54 59 55 60 69 62 90 63 57 64 41 65
REMARK SMILES IDX 42 66 50 67 43 68 44 69 48 70 51 71 45 72 46 73 49 74 47 75
REMARK SMILES IDX 73 76 74 77 82 78 75 79 76 80 80 81 83 82 77 83 78 84 81 85
REMARK SMILES IDX 79 86 58 87 59 88 67 89 60 90 61 91 65 92 68 93 62 94 63 95
REMARK SMILES IDX 66 96 64 97
REMARK H PARENT 5 14 88 50 56 61
REMARK Flexibility Score: inf
ROOT
ATOM      1  C   UNL A   1      47.058  43.885  26.601  1.00  0.00     0.188 C 
ENDROOT
BRANCH   1   2
ATOM      2  O   UNL A   1      45.862  43.216  26.169  1.00  0.00    -0.376 OA
BRANCH   2   3
ATOM      3  C   UNL A   1      45.943  41.826  25.750  1.00  0.00     0.202 C 
BRANCH   3   4
ATOM      4  C   UNL A   1      46.281  41.465  24.272  1.00  0.00     0.261 C 
BRANCH   4   5
ATOM      5  O   UNL A   1      45.604  42.303  23.342  1.00  0.00    -0.462 OA
BRANCH   5   6
ATOM      6  C   UNL A   1      45.899  42.230  22.032  1.00  0.00     0.331 C 
ATOM      7  O   UNL A   1      46.371  41.242  21.490  1.00  0.00    -0.249 OA
BRANCH   6   8
ATOM      8  C   UNL A   1      45.339  43.492  21.318  1.00  0.00     0.135 C 
ATOM      9  C   UNL A   1      44.980  44.514  22.423  1.00  0.00     0.047 C 
BRANCH   8  10
ATOM     10  C   UNL A   1      46.458  44.237  20.466  1.00  0.00     0.037 C 
ATOM     11  C   UNL A   1      47.659  44.782  21.248  1.00  0.00     0.007 C 
ENDBRANCH   8  10
BRANCH   8  12
ATOM     12  N   UNL A   1      44.012  43.230  20.554  1.00  0.00    -0.336 N 
ATOM     13  C   UNL A   1      43.175  43.685  19.516  1.00  0.00     0.252 C 
ATOM     14  H   UNL A   1      43.591  42.433  20.951  1.00  0.00     0.165 HD
ATOM     15  O   UNL A   1      42.253  42.880  19.285  1.00  0.00    -0.269 OA
BRANCH  13  16
ATOM     16  C   UNL A   1      43.326  44.833  18.454  1.00  0.00     0.047 A 
ATOM     17  C   UNL A   1      42.421  44.468  17.410  1.00  0.00     0.014 A 
ATOM     18  C   UNL A   1      43.878  46.309  18.616  1.00  0.00    -0.006 A 
ATOM     19  C   UNL A   1      41.992  45.310  16.382  1.00  0.00     0.001 A 
ATOM     20  C   UNL A   1      42.983  47.267  17.402  1.00  0.00    -0.018 A 
ATOM     21  C   UNL A   1      44.902  47.364  19.834  1.00  0.00     0.009 A 
ATOM     22  C   UNL A   1      42.273  46.667  16.372  1.00  0.00     0.009 A 
ATOM     23  C   UNL A   1      42.885  49.035  17.547  1.00  0.00     0.009 A 
ATOM     24  C   UNL A   1      44.751  49.158  19.942  1.00  0.00     0.001 A 
ATOM     25  C   UNL A   1      43.724  49.963  18.776  1.00  0.00     0.001 A 
ENDBRANCH  13  16
ENDBRANCH   8  12
ENDBRANCH   6   8
ENDBRANCH   5   6
ENDBRANCH   4   5
ENDBRANCH   3   4
ENDBRANCH   2   3
ENDBRANCH   1   2
BRANCH   1  26
ATOM     26  C   UNL A   1      47.840  43.752  28.103  1.00  0.00     0.188 C 
BRANCH  26  27
ATOM     27  O   UNL A   1      47.578  42.779  29.191  1.00  0.00    -0.376 OA
BRANCH  27  28
ATOM     28  C   UNL A   1      47.158  41.339  29.320  1.00  0.00     0.202 C 
BRANCH  28  29
ATOM     29  C   UNL A   1      48.192  39.797  29.258  1.00  0.00     0.261 C 
BRANCH  29  30
ATOM     30  O   UNL A   1      47.813  38.197  30.456  1.00  0.00    -0.460 OA
BRANCH  30  31
ATOM     31  C   UNL A   1      47.042  37.077  31.017  1.00  0.00     0.338 C 
ATOM     32  O   UNL A   1      46.858  37.094  32.246  1.00  0.00    -0.246 OA
BRANCH  31  33
ATOM     33  C   UNL A   1      46.369  35.825  30.332  1.00  0.00     0.060 A 
ATOM     34  C   UNL A   1      45.613  35.723  29.155  1.00  0.00     0.016 A 
ATOM     35  C   UNL A   1      46.499  34.586  31.002  1.00  0.00     0.016 A 
ATOM     36  C   UNL A   1      45.082  34.513  28.633  1.00  0.00     0.010 A 
ATOM     37  C   UNL A   1      45.941  33.368  30.519  1.00  0.00     0.010 A 
ATOM     38  C   UNL A   1      45.223  33.316  29.321  1.00  0.00    -0.014 A 
BRANCH  38  39
ATOM     39  C   UNL A   1      44.582  32.049  28.848  1.00  0.00     0.031 A 
ATOM     40  C   UNL A   1      43.198  31.673  29.316  1.00  0.00     0.074 A 
ATOM     41  C   UNL A   1      45.220  31.205  28.013  1.00  0.00     0.049 A 
ATOM     42  N   UNL A   1      42.540  30.548  29.167  1.00  0.00    -0.248 NA
ATOM     43  C   UNL A   1      42.452  32.711  30.038  1.00  0.00     0.031 C 
ATOM     44  C   UNL A   1      46.509  31.461  27.377  1.00  0.00     0.029 A 
ATOM     45  N   UNL A   1      44.873  29.944  27.574  1.00  0.00    -0.354 N 
ATOM     46  C   UNL A   1      41.314  30.733  29.794  1.00  0.00     0.074 A 
ATOM     47  C   UNL A   1      41.315  32.086  30.314  1.00  0.00     0.031 C 
ATOM     48  C   UNL A   1      46.868  30.377  26.667  1.00  0.00     0.029 A 
ATOM     49  C   UNL A   1      45.857  29.330  26.834  1.00  0.00     0.049 A 
ATOM     50  H   UNL A   1      44.007  29.524  27.771  1.00  0.00     0.167 HD
ATOM     51  C   UNL A   1      40.286  29.857  29.939  1.00  0.00     0.037 A 
ATOM     52  C   UNL A   1      45.962  28.062  26.383  1.00  0.00     0.037 A 
ATOM     53  C   UNL A   1      40.278  28.500  29.446  1.00  0.00     0.049 A 
ATOM     54  C   UNL A   1      44.866  27.063  26.662  1.00  0.00     0.074 A 
ATOM     55  C   UNL A   1      39.284  27.543  29.563  1.00  0.00     0.029 A 
ATOM     56  N   UNL A   1      41.321  27.903  28.753  1.00  0.00    -0.354 N 
ATOM     57  N   UNL A   1      43.726  27.235  27.283  1.00  0.00    -0.248 NA
ATOM     58  C   UNL A   1      45.080  25.687  26.182  1.00  0.00     0.031 C 
ATOM     59  C   UNL A   1      39.743  26.352  28.987  1.00  0.00     0.029 A 
ATOM     60  C   UNL A   1      41.003  26.582  28.462  1.00  0.00     0.049 A 
ATOM     61  H   UNL A   1      42.162  28.348  28.504  1.00  0.00     0.167 HD
ATOM     62  C   UNL A   1      43.077  26.007  27.246  1.00  0.00     0.074 A 
ATOM     63  C   UNL A   1      43.947  25.094  26.534  1.00  0.00     0.031 C 
ATOM     64  C   UNL A   1      41.864  25.671  27.752  1.00  0.00     0.037 A 
BRANCH  51  65
ATOM     65  C   UNL A   1      39.089  30.319  30.721  1.00  0.00     0.064 A 
ATOM     66  C   UNL A   1      38.014  30.980  30.108  1.00  0.00     0.173 A 
ATOM     67  C   UNL A   1      39.001  30.062  32.098  1.00  0.00     0.173 A 
ATOM     68  F   UNL A   1      38.049  31.256  28.796  1.00  0.00    -0.203 F 
ATOM     69  C   UNL A   1      36.909  31.390  30.851  1.00  0.00     0.198 A 
ATOM     70  C   UNL A   1      37.884  30.450  32.832  1.00  0.00     0.198 A 
ATOM     71  F   UNL A   1      39.995  29.421  32.731  1.00  0.00    -0.203 F 
ATOM     72  F   UNL A   1      35.913  32.060  30.254  1.00  0.00    -0.200 F 
ATOM     73  C   UNL A   1      36.842  31.122  32.211  1.00  0.00     0.200 A 
ATOM     74  F   UNL A   1      37.816  30.176  34.142  1.00  0.00    -0.200 F 
ATOM     75  F   UNL A   1      35.778  31.517  32.923  1.00  0.00    -0.200 F 
ENDBRANCH  51  65
BRANCH  52  76
ATOM     76  C   UNL A   1      47.185  27.643  25.647  1.00  0.00     0.064 A 
ATOM     77  C   UNL A   1      48.299  27.130  26.325  1.00  0.00     0.173 A 
ATOM     78  C   UNL A   1      47.265  27.749  24.251  1.00  0.00     0.173 A 
ATOM     79  F   UNL A   1      48.288  27.048  27.665  1.00  0.00    -0.203 F 
ATOM     80  C   UNL A   1      49.444  26.736  25.635  1.00  0.00     0.198 A 
ATOM     81  C   UNL A   1      48.399  27.329  23.559  1.00  0.00     0.198 A 
ATOM     82  F   UNL A   1      46.233  28.251  23.555  1.00  0.00    -0.203 F 
ATOM     83  F   UNL A   1      50.508  26.279  26.310  1.00  0.00    -0.200 F 
ATOM     84  C   UNL A   1      49.488  26.824  24.251  1.00  0.00     0.200 A 
ATOM     85  F   UNL A   1      48.434  27.411  22.221  1.00  0.00    -0.200 F 
ATOM     86  F   UNL A   1      50.583  26.430  23.586  1.00  0.00    -0.200 F 
ENDBRANCH  52  76
BRANCH  64  87
ATOM     87  C   UNL A   1      41.377  24.268  27.521  1.00  0.00     0.064 A 
ATOM     88  C   UNL A   1      41.973  23.165  28.148  1.00  0.00     0.173 A 
ATOM     89  C   UNL A   1      40.279  24.028  26.679  1.00  0.00     0.173 A 
ATOM     90  F   UNL A   1      43.034  23.336  28.950  1.00  0.00    -0.203 F 
ATOM     91  C   UNL A   1      41.505  21.871  27.922  1.00  0.00     0.198 A 
ATOM     92  C   UNL A   1      39.799  22.736  26.475  1.00  0.00     0.198 A 
ATOM     93  F   UNL A   1      39.669  25.047  26.058  1.00  0.00    -0.203 F 
ATOM     94  F   UNL A   1      42.119  20.827  28.495  1.00  0.00    -0.200 F 
ATOM     95  C   UNL A   1      40.416  21.659  27.089  1.00  0.00     0.200 A 
ATOM     96  F   UNL A   1      38.740  22.535  25.678  1.00  0.00    -0.200 F 
ATOM     97  F   UNL A   1      39.967  20.415  26.873  1.00  0.00    -0.200 F 
ENDBRANCH  64  87
ENDBRANCH  38  39
ENDBRANCH  31  33
ENDBRANCH  30  31
ENDBRANCH  29  30
ENDBRANCH  28  29
ENDBRANCH  27  28
ENDBRANCH  26  27
ENDBRANCH   1  26
TORSDOF 20
ENDMDL
MODEL 3
REMARK VINA RESULT:     -10.8      5.405     11.467
REMARK SMILES CC[C@@](C)(NC(=O)c1cccc2ccccc12)C(=O)OCCOCCOCCOC(=O)c1ccc(-c2c3nc(c(-c4c(F)c(F)c(F)c(F)c4F)c4ccc([nH]4)c(-c4c(F)c(F)c(F)c(F)c4F)c4nc(c(-c5c(F)c(F)c(F)c(F)c5F)c5ccc2[nH]5)C=C4)C=C3)cc1
REMARK SMILES IDX 24 1 23 2 22 3 21 4 20 5 18 6 19 7 3 8 4 9 2 10 1 11 5 12
REMARK SMILES IDX 6 13 7 15 8 16 9 17 17 18 10 19 12 20 16 21 11 22 13 23
REMARK SMILES IDX 15 24 14 25 25 26 26 27 27 28 28 29 29 30 30 31 31 32 32 33
REMARK SMILES IDX 33 34 94 35 34 36 93 37 35 38 36 39 37 40 87 41 38 42 92 43
REMARK SMILES IDX 86 44 88 45 39 46 91 47 85 48 84 49 40 51 72 52 52 53 71 54
REMARK SMILES IDX 53 55 56 56 70 57 89 58 54 59 55 60 69 62 90 63 57 64 41 65
REMARK SMILES IDX 42 66 50 67 43 68 44 69 48 70 51 71 45 72 46 73 49 74 47 75
REMARK SMILES IDX 73 76 74 77 82 78 75 79 76 80 80 81 83 82 77 83 78 84 81 85
REMARK SMILES IDX 79 86 58 87 59 88 67 89 60 90 61 91 65 92 68 93 62 94 63 95
REMARK SMILES IDX 66 96 64 97
REMARK H PARENT 5 14 88 50 56 61
REMARK Flexibility Score: inf
ROOT
ATOM      1  C   UNL A   1      45.237  24.498  32.809  1.00  0.00     0.188 C 
ENDROOT
BRANCH   1   2
ATOM      2  O   UNL A   1      44.301  23.799  31.973  1.00  0.00    -0.376 OA
BRANCH   2   3
ATOM      3  C   UNL A   1      44.423  23.911  30.529  1.00  0.00     0.202 C 
BRANCH   3   4
ATOM      4  C   UNL A   1      43.289  23.388  29.596  1.00  0.00     0.261 C 
BRANCH   4   5
ATOM      5  O   UNL A   1      43.075  24.239  28.475  1.00  0.00    -0.462 OA
BRANCH   5   6
ATOM      6  C   UNL A   1      43.247  23.764  27.229  1.00  0.00     0.331 C 
ATOM      7  O   UNL A   1      42.503  22.955  26.695  1.00  0.00    -0.249 OA
BRANCH   6   8
ATOM      8  C   UNL A   1      44.381  24.569  26.535  1.00  0.00     0.135 C 
ATOM      9  C   UNL A   1      45.720  23.926  26.967  1.00  0.00     0.047 C 
BRANCH   8  10
ATOM     10  C   UNL A   1      44.363  24.376  24.955  1.00  0.00     0.037 C 
ATOM     11  C   UNL A   1      44.989  23.082  24.420  1.00  0.00     0.007 C 
ENDBRANCH   8  10
BRANCH   8  12
ATOM     12  N   UNL A   1      44.463  26.048  27.005  1.00  0.00    -0.336 N 
ATOM     13  C   UNL A   1      45.270  27.003  27.653  1.00  0.00     0.252 C 
ATOM     14  H   UNL A   1      43.622  26.490  26.750  1.00  0.00     0.165 HD
ATOM     15  O   UNL A   1      44.781  28.146  27.573  1.00  0.00    -0.269 OA
BRANCH  13  16
ATOM     16  C   UNL A   1      46.743  26.956  28.201  1.00  0.00     0.047 A 
ATOM     17  C   UNL A   1      46.605  26.462  29.536  1.00  0.00     0.014 A 
ATOM     18  C   UNL A   1      48.121  26.916  27.424  1.00  0.00    -0.006 A 
ATOM     19  C   UNL A   1      47.648  25.982  30.331  1.00  0.00     0.001 A 
ATOM     20  C   UNL A   1      49.224  26.007  28.496  1.00  0.00    -0.018 A 
ATOM     21  C   UNL A   1      48.831  27.244  25.682  1.00  0.00     0.009 A 
ATOM     22  C   UNL A   1      48.922  25.771  29.829  1.00  0.00     0.009 A 
ATOM     23  C   UNL A   1      50.708  25.274  27.846  1.00  0.00     0.009 A 
ATOM     24  C   UNL A   1      50.338  26.462  25.074  1.00  0.00     0.001 A 
ATOM     25  C   UNL A   1      51.253  25.475  26.191  1.00  0.00     0.001 A 
ENDBRANCH  13  16
ENDBRANCH   8  12
ENDBRANCH   6   8
ENDBRANCH   5   6
ENDBRANCH   4   5
ENDBRANCH   3   4
ENDBRANCH   2   3
ENDBRANCH   1   2
BRANCH   1  26
ATOM     26  C   UNL A   1      45.818  24.030  34.335  1.00  0.00     0.188 C 
BRANCH  26  27
ATOM     27  O   UNL A   1      47.224  23.977  34.806  1.00  0.00    -0.376 OA
BRANCH  27  28
ATOM     28  C   UNL A   1      48.521  23.353  34.368  1.00  0.00     0.202 C 
BRANCH  28  29
ATOM     29  C   UNL A   1      50.077  24.166  33.758  1.00  0.00     0.261 C 
BRANCH  29  30
ATOM     30  O   UNL A   1      50.233  26.185  33.565  1.00  0.00    -0.460 OA
BRANCH  30  31
ATOM     31  C   UNL A   1      49.768  27.569  33.388  1.00  0.00     0.338 C 
ATOM     32  O   UNL A   1      50.635  28.456  33.465  1.00  0.00    -0.246 OA
BRANCH  31  33
ATOM     33  C   UNL A   1      48.335  28.161  33.095  1.00  0.00     0.060 A 
ATOM     34  C   UNL A   1      47.932  29.196  32.239  1.00  0.00     0.016 A 
ATOM     35  C   UNL A   1      47.256  27.604  33.820  1.00  0.00     0.016 A 
ATOM     36  C   UNL A   1      46.588  29.616  32.049  1.00  0.00     0.010 A 
ATOM     37  C   UNL A   1      45.906  28.036  33.676  1.00  0.00     0.010 A 
ATOM     38  C   UNL A   1      45.553  29.051  32.783  1.00  0.00    -0.014 A 
BRANCH  38  39
ATOM     39  C   UNL A   1      44.146  29.549  32.680  1.00  0.00     0.031 A 
ATOM     40  C   UNL A   1      43.196  28.949  31.673  1.00  0.00     0.074 A 
ATOM     41  C   UNL A   1      43.693  30.550  33.461  1.00  0.00     0.049 A 
ATOM     42  N   UNL A   1      42.002  29.349  31.306  1.00  0.00    -0.248 NA
ATOM     43  C   UNL A   1      43.649  27.724  31.002  1.00  0.00     0.031 C 
ATOM     44  C   UNL A   1      44.435  31.167  34.556  1.00  0.00     0.029 A 
ATOM     45  N   UNL A   1      42.498  31.240  33.434  1.00  0.00    -0.354 N 
ATOM     46  C   UNL A   1      41.570  28.442  30.346  1.00  0.00     0.074 A 
ATOM     47  C   UNL A   1      42.628  27.461  30.199  1.00  0.00     0.031 C 
ATOM     48  C   UNL A   1      43.701  32.172  35.068  1.00  0.00     0.029 A 
ATOM     49  C   UNL A   1      42.457  32.302  34.307  1.00  0.00     0.049 A 
ATOM     50  H   UNL A   1      41.749  30.996  32.846  1.00  0.00     0.167 HD
ATOM     51  C   UNL A   1      40.410  28.431  29.640  1.00  0.00     0.037 A 
ATOM     52  C   UNL A   1      41.552  33.293  34.450  1.00  0.00     0.037 A 
ATOM     53  C   UNL A   1      39.358  29.412  29.759  1.00  0.00     0.049 A 
ATOM     54  C   UNL A   1      40.328  33.337  33.569  1.00  0.00     0.074 A 
ATOM     55  C   UNL A   1      38.158  29.482  29.071  1.00  0.00     0.029 A 
ATOM     56  N   UNL A   1      39.385  30.503  30.615  1.00  0.00    -0.354 N 
ATOM     57  N   UNL A   1      39.943  32.496  32.642  1.00  0.00    -0.248 NA
ATOM     58  C   UNL A   1      39.416  34.479  33.751  1.00  0.00     0.031 C 
ATOM     59  C   UNL A   1      37.483  30.641  29.471  1.00  0.00     0.029 A 
ATOM     60  C   UNL A   1      38.236  31.266  30.450  1.00  0.00     0.049 A 
ATOM     61  H   UNL A   1      40.112  30.708  31.246  1.00  0.00     0.167 HD
ATOM     62  C   UNL A   1      38.738  32.988  32.152  1.00  0.00     0.074 A 
ATOM     63  C   UNL A   1      38.449  34.200  32.888  1.00  0.00     0.031 C 
ATOM     64  C   UNL A   1      37.943  32.471  31.182  1.00  0.00     0.037 A 
BRANCH  51  65
ATOM     65  C   UNL A   1      40.234  27.345  28.616  1.00  0.00     0.064 A 
ATOM     66  C   UNL A   1      40.890  27.383  27.376  1.00  0.00     0.173 A 
ATOM     67  C   UNL A   1      39.429  26.231  28.897  1.00  0.00     0.173 A 
ATOM     68  F   UNL A   1      41.667  28.427  27.054  1.00  0.00    -0.203 F 
ATOM     69  C   UNL A   1      40.721  26.359  26.446  1.00  0.00     0.198 A 
ATOM     70  C   UNL A   1      39.283  25.197  27.976  1.00  0.00     0.198 A 
ATOM     71  F   UNL A   1      38.790  26.139  30.073  1.00  0.00    -0.203 F 
ATOM     72  F   UNL A   1      41.320  26.437  25.249  1.00  0.00    -0.200 F 
ATOM     73  C   UNL A   1      39.921  25.266  26.747  1.00  0.00     0.200 A 
ATOM     74  F   UNL A   1      38.522  24.136  28.276  1.00  0.00    -0.200 F 
ATOM     75  F   UNL A   1      39.761  24.283  25.851  1.00  0.00    -0.200 F 
ENDBRANCH  51  65
BRANCH  52  76
ATOM     76  C   UNL A   1      41.791  34.367  35.451  1.00  0.00     0.064 A 
ATOM     77  C   UNL A   1      42.408  35.572  35.089  1.00  0.00     0.173 A 
ATOM     78  C   UNL A   1      41.410  34.208  36.792  1.00  0.00     0.173 A 
ATOM     79  F   UNL A   1      42.829  35.756  33.829  1.00  0.00    -0.203 F 
ATOM     80  C   UNL A   1      42.630  36.578  36.028  1.00  0.00     0.198 A 
ATOM     81  C   UNL A   1      41.606  35.225  37.724  1.00  0.00     0.198 A 
ATOM     82  F   UNL A   1      40.832  33.066  37.195  1.00  0.00    -0.203 F 
ATOM     83  F   UNL A   1      43.250  37.708  35.662  1.00  0.00    -0.200 F 
ATOM     84  C   UNL A   1      42.217  36.409  37.341  1.00  0.00     0.200 A 
ATOM     85  F   UNL A   1      41.200  35.059  38.990  1.00  0.00    -0.200 F 
ATOM     86  F   UNL A   1      42.416  37.383  38.240  1.00  0.00    -0.200 F 
ENDBRANCH  52  76
BRANCH  64  87
ATOM     87  C   UNL A   1      36.656  33.188  30.883  1.00  0.00     0.064 A 
ATOM     88  C   UNL A   1      36.450  33.868  29.673  1.00  0.00     0.173 A 
ATOM     89  C   UNL A   1      35.602  33.172  31.811  1.00  0.00     0.173 A 
ATOM     90  F   UNL A   1      37.429  33.928  28.759  1.00  0.00    -0.203 F 
ATOM     91  C   UNL A   1      35.248  34.525  29.415  1.00  0.00     0.198 A 
ATOM     92  C   UNL A   1      34.393  33.808  31.539  1.00  0.00     0.198 A 
ATOM     93  F   UNL A   1      35.743  32.532  32.982  1.00  0.00    -0.203 F 
ATOM     94  F   UNL A   1      35.091  35.207  28.272  1.00  0.00    -0.200 F 
ATOM     95  C   UNL A   1      34.220  34.491  30.346  1.00  0.00     0.200 A 
ATOM     96  F   UNL A   1      33.398  33.765  32.435  1.00  0.00    -0.200 F 
ATOM     97  F   UNL A   1      33.065  35.123  30.094  1.00  0.00    -0.200 F 
ENDBRANCH  64  87
ENDBRANCH  38  39
ENDBRANCH  31  33
ENDBRANCH  30  31
ENDBRANCH  29  30
ENDBRANCH  28  29
ENDBRANCH  27  28
ENDBRANCH  26  27
ENDBRANCH   1  26
TORSDOF 20
ENDMDL
