MODEL 1
REMARK VINA RESULT:     -12.2      0.000      0.000
REMARK SMILES O=C(OCCOCCOCCOC(=O)c1cccc(N2C(=O)C[C@H]([NH+]3CCOCC3)C2=O)c1)c1ccc(-c2c3nc(c(-c4c(F)c(F)c(F)c(F)c4F)c4ccc([nH]4)c(-c4c(F)c(F)c(F)c(F)c4F)c4nc(c(-c5c(F)c(F)c(F)c(F)c5F)c5ccc2[nH]5)C=C4)C=C3)cc1
REMARK SMILES IDX 7 1 6 2 5 3 4 4 3 5 2 6 1 7 34 8 35 9 96 10 36 11 95 12
REMARK SMILES IDX 37 13 38 14 39 15 89 16 40 17 94 18 88 19 90 20 41 21 93 22
REMARK SMILES IDX 87 23 86 24 42 26 74 27 54 28 73 29 55 30 58 31 72 32 91 33
REMARK SMILES IDX 56 34 57 35 71 37 92 38 59 39 43 40 44 41 52 42 45 43 46 44
REMARK SMILES IDX 50 45 53 46 47 47 48 48 51 49 49 50 75 51 76 52 84 53 77 54
REMARK SMILES IDX 78 55 82 56 85 57 79 58 80 59 83 60 81 61 60 62 61 63 69 64
REMARK SMILES IDX 62 65 63 66 67 67 70 68 64 69 65 70 68 71 66 72 8 73 9 74
REMARK SMILES IDX 10 75 11 76 12 77 13 78 14 79 15 80 16 81 33 82 17 83 19 84
REMARK SMILES IDX 18 85 20 86 21 87 31 88 22 89 23 90 24 91 32 92 25 93 26 94
REMARK SMILES IDX 30 95 27 97 29 98 28 99
REMARK H PARENT 90 25 58 36 25 96
REMARK Flexibility Score: inf
ROOT
ATOM      1  C   UNL A   1      42.851  18.752  25.806  1.00  0.00     0.188 C 
ENDROOT
BRANCH   1   2
ATOM      2  O   UNL A   1      43.448  19.551  24.779  1.00  0.00    -0.376 OA
BRANCH   2   3
ATOM      3  C   UNL A   1      44.395  20.493  25.293  1.00  0.00     0.202 C 
BRANCH   3   4
ATOM      4  C   UNL A   1      44.777  21.583  24.276  1.00  0.00     0.261 C 
BRANCH   4   5
ATOM      5  O   UNL A   1      44.071  22.823  24.471  1.00  0.00    -0.460 OA
BRANCH   5   6
ATOM      6  C   UNL A   1      44.542  24.041  24.835  1.00  0.00     0.338 C 
ATOM      7  O   UNL A   1      45.641  24.382  24.395  1.00  0.00    -0.246 OA
BRANCH   6   8
ATOM      8  C   UNL A   1      43.818  25.026  25.710  1.00  0.00     0.060 A 
ATOM      9  C   UNL A   1      44.175  26.358  25.927  1.00  0.00     0.016 A 
ATOM     10  C   UNL A   1      42.656  24.558  26.359  1.00  0.00     0.016 A 
ATOM     11  C   UNL A   1      43.465  27.173  26.806  1.00  0.00     0.010 A 
ATOM     12  C   UNL A   1      41.926  25.372  27.235  1.00  0.00     0.010 A 
ATOM     13  C   UNL A   1      42.361  26.675  27.492  1.00  0.00    -0.014 A 
BRANCH  13  14
ATOM     14  C   UNL A   1      41.829  27.474  28.613  1.00  0.00     0.031 A 
ATOM     15  C   UNL A   1      42.504  27.355  29.949  1.00  0.00     0.074 A 
ATOM     16  C   UNL A   1      40.848  28.371  28.420  1.00  0.00     0.049 A 
ATOM     17  N   UNL A   1      42.250  27.982  31.069  1.00  0.00    -0.248 NA
ATOM     18  C   UNL A   1      43.632  26.411  30.029  1.00  0.00     0.031 C 
ATOM     19  C   UNL A   1      40.150  28.614  27.159  1.00  0.00     0.029 A 
ATOM     20  N   UNL A   1      40.265  29.242  29.304  1.00  0.00    -0.354 N 
ATOM     21  C   UNL A   1      43.186  27.512  31.980  1.00  0.00     0.074 A 
ATOM     22  C   UNL A   1      43.996  26.529  31.296  1.00  0.00     0.031 C 
ATOM     23  C   UNL A   1      39.191  29.533  27.371  1.00  0.00     0.029 A 
ATOM     24  C   UNL A   1      39.202  29.928  28.771  1.00  0.00     0.049 A 
ATOM     25  H   UNL A   1      40.579  29.365  30.229  1.00  0.00     0.167 HD
ATOM     26  C   UNL A   1      43.360  27.875  33.272  1.00  0.00     0.037 A 
ATOM     27  C   UNL A   1      38.324  30.748  29.372  1.00  0.00     0.037 A 
ATOM     28  C   UNL A   1      42.548  28.840  33.960  1.00  0.00     0.049 A 
ATOM     29  C   UNL A   1      38.524  31.102  30.820  1.00  0.00     0.074 A 
ATOM     30  C   UNL A   1      42.628  29.263  35.276  1.00  0.00     0.029 A 
ATOM     31  N   UNL A   1      41.493  29.525  33.382  1.00  0.00    -0.354 N 
ATOM     32  N   UNL A   1      39.437  30.684  31.662  1.00  0.00    -0.248 NA
ATOM     33  C   UNL A   1      37.577  32.071  31.392  1.00  0.00     0.031 C 
ATOM     34  C   UNL A   1      41.593  30.177  35.505  1.00  0.00     0.029 A 
ATOM     35  C   UNL A   1      40.898  30.351  34.321  1.00  0.00     0.049 A 
ATOM     36  H   UNL A   1      41.208  29.439  32.443  1.00  0.00     0.167 HD
ATOM     37  C   UNL A   1      39.170  31.338  32.854  1.00  0.00     0.074 A 
ATOM     38  C   UNL A   1      38.052  32.223  32.615  1.00  0.00     0.031 C 
ATOM     39  C   UNL A   1      39.777  31.206  34.056  1.00  0.00     0.037 A 
BRANCH  26  40
ATOM     40  C   UNL A   1      44.450  27.183  34.030  1.00  0.00     0.064 A 
ATOM     41  C   UNL A   1      45.748  27.710  34.100  1.00  0.00     0.173 A 
ATOM     42  C   UNL A   1      44.189  25.973  34.689  1.00  0.00     0.173 A 
ATOM     43  F   UNL A   1      46.050  28.851  33.461  1.00  0.00    -0.203 F 
ATOM     44  C   UNL A   1      46.754  27.035  34.785  1.00  0.00     0.198 A 
ATOM     45  C   UNL A   1      45.192  25.315  35.394  1.00  0.00     0.198 A 
ATOM     46  F   UNL A   1      42.965  25.428  34.644  1.00  0.00    -0.203 F 
ATOM     47  F   UNL A   1      48.000  27.528  34.798  1.00  0.00    -0.200 F 
ATOM     48  C   UNL A   1      46.474  25.842  35.436  1.00  0.00     0.200 A 
ATOM     49  F   UNL A   1      44.919  24.166  36.025  1.00  0.00    -0.200 F 
ATOM     50  F   UNL A   1      47.445  25.194  36.094  1.00  0.00    -0.200 F 
ENDBRANCH  26  40
BRANCH  27  51
ATOM     51  C   UNL A   1      37.100  31.235  28.692  1.00  0.00     0.064 A 
ATOM     52  C   UNL A   1      36.934  32.592  28.393  1.00  0.00     0.173 A 
ATOM     53  C   UNL A   1      35.987  30.390  28.579  1.00  0.00     0.173 A 
ATOM     54  F   UNL A   1      37.960  33.443  28.532  1.00  0.00    -0.203 F 
ATOM     55  C   UNL A   1      35.673  33.098  28.084  1.00  0.00     0.198 A 
ATOM     56  C   UNL A   1      34.746  30.890  28.195  1.00  0.00     0.198 A 
ATOM     57  F   UNL A   1      36.089  29.096  28.913  1.00  0.00    -0.203 F 
ATOM     58  F   UNL A   1      35.506  34.419  27.922  1.00  0.00    -0.200 F 
ATOM     59  C   UNL A   1      34.585  32.247  27.967  1.00  0.00     0.200 A 
ATOM     60  F   UNL A   1      33.690  30.071  28.097  1.00  0.00    -0.200 F 
ATOM     61  F   UNL A   1      33.382  32.741  27.646  1.00  0.00    -0.200 F 
ENDBRANCH  27  51
BRANCH  39  62
ATOM     62  C   UNL A   1      39.224  32.043  35.166  1.00  0.00     0.064 A 
ATOM     63  C   UNL A   1      39.564  33.399  35.293  1.00  0.00     0.173 A 
ATOM     64  C   UNL A   1      38.406  31.469  36.148  1.00  0.00     0.173 A 
ATOM     65  F   UNL A   1      40.376  33.978  34.396  1.00  0.00    -0.203 F 
ATOM     66  C   UNL A   1      39.140  34.139  36.391  1.00  0.00     0.198 A 
ATOM     67  C   UNL A   1      37.958  32.222  37.229  1.00  0.00     0.198 A 
ATOM     68  F   UNL A   1      38.064  30.174  36.073  1.00  0.00    -0.203 F 
ATOM     69  F   UNL A   1      39.544  35.409  36.536  1.00  0.00    -0.200 F 
ATOM     70  C   UNL A   1      38.336  33.551  37.356  1.00  0.00     0.200 A 
ATOM     71  F   UNL A   1      37.182  31.654  38.161  1.00  0.00    -0.200 F 
ATOM     72  F   UNL A   1      37.942  34.260  38.423  1.00  0.00    -0.200 F 
ENDBRANCH  39  62
ENDBRANCH  13  14
ENDBRANCH   6   8
ENDBRANCH   5   6
ENDBRANCH   4   5
ENDBRANCH   3   4
ENDBRANCH   2   3
ENDBRANCH   1   2
BRANCH   1  73
ATOM     73  C   UNL A   1      42.027  19.559  26.808  1.00  0.00     0.188 C 
BRANCH  73  74
ATOM     74  O   UNL A   1      40.859  20.116  26.210  1.00  0.00    -0.376 OA
BRANCH  74  75
ATOM     75  C   UNL A   1      40.892  21.544  26.132  1.00  0.00     0.202 C 
BRANCH  75  76
ATOM     76  C   UNL A   1      39.770  22.238  26.919  1.00  0.00     0.261 C 
BRANCH  76  77
ATOM     77  O   UNL A   1      38.498  22.321  26.244  1.00  0.00    -0.460 OA
BRANCH  77  78
ATOM     78  C   UNL A   1      37.979  23.556  26.114  1.00  0.00     0.338 C 
ATOM     79  O   UNL A   1      38.207  24.534  26.817  1.00  0.00    -0.246 OA
BRANCH  78  80
ATOM     80  C   UNL A   1      36.905  23.515  25.118  1.00  0.00     0.062 A 
ATOM     81  C   UNL A   1      36.950  22.764  23.947  1.00  0.00     0.016 A 
ATOM     82  C   UNL A   1      35.801  24.309  25.409  1.00  0.00     0.042 A 
ATOM     83  C   UNL A   1      35.847  22.794  23.087  1.00  0.00     0.003 A 
ATOM     84  C   UNL A   1      34.701  24.367  24.550  1.00  0.00     0.053 A 
ATOM     85  C   UNL A   1      34.716  23.569  23.400  1.00  0.00     0.027 A 
BRANCH  84  86
ATOM     86  N   UNL A   1      33.625  25.216  24.900  1.00  0.00    -0.245 N 
ATOM     87  C   UNL A   1      32.645  24.861  25.797  1.00  0.00     0.240 C 
ATOM     88  C   UNL A   1      33.382  26.464  24.376  1.00  0.00     0.292 C 
ATOM     89  O   UNL A   1      32.543  23.842  26.466  1.00  0.00    -0.274 OA
ATOM     90  C   UNL A   1      31.689  25.995  25.940  1.00  0.00     0.176 C 
ATOM     91  C   UNL A   1      31.922  26.802  24.684  1.00  0.00     0.284 C 
ATOM     92  O   UNL A   1      34.124  27.173  23.714  1.00  0.00    -0.267 OA
BRANCH  91  93
ATOM     93  N   UNL A   1      31.041  26.582  23.511  1.00  0.00    -0.320 N 
ATOM     94  C   UNL A   1      30.705  27.814  22.761  1.00  0.00     0.291 C 
ATOM     95  C   UNL A   1      29.816  25.770  23.668  1.00  0.00     0.291 C 
ATOM     96  H   UNL A   1      31.674  25.988  22.975  1.00  0.00     0.348 HD
ATOM     97  C   UNL A   1      29.418  28.544  23.170  1.00  0.00     0.221 C 
ATOM     98  C   UNL A   1      28.563  26.551  24.100  1.00  0.00     0.221 C 
ATOM     99  O   UNL A   1      28.306  27.649  23.221  1.00  0.00    -0.370 OA
ENDBRANCH  91  93
ENDBRANCH  84  86
ENDBRANCH  78  80
ENDBRANCH  77  78
ENDBRANCH  76  77
ENDBRANCH  75  76
ENDBRANCH  74  75
ENDBRANCH  73  74
ENDBRANCH   1  73
TORSDOF 19
ENDMDL
MODEL 2
REMARK VINA RESULT:     -11.9      1.022      1.879
REMARK SMILES O=C(OCCOCCOCCOC(=O)c1cccc(N2C(=O)C[C@H]([NH+]3CCOCC3)C2=O)c1)c1ccc(-c2c3nc(c(-c4c(F)c(F)c(F)c(F)c4F)c4ccc([nH]4)c(-c4c(F)c(F)c(F)c(F)c4F)c4nc(c(-c5c(F)c(F)c(F)c(F)c5F)c5ccc2[nH]5)C=C4)C=C3)cc1
REMARK SMILES IDX 7 1 6 2 5 3 4 4 3 5 2 6 1 7 34 8 35 9 96 10 36 11 95 12
REMARK SMILES IDX 37 13 38 14 39 15 89 16 40 17 94 18 88 19 90 20 41 21 93 22
REMARK SMILES IDX 87 23 86 24 42 26 74 27 54 28 73 29 55 30 58 31 72 32 91 33
REMARK SMILES IDX 56 34 57 35 71 37 92 38 59 39 43 40 44 41 52 42 45 43 46 44
REMARK SMILES IDX 50 45 53 46 47 47 48 48 51 49 49 50 75 51 76 52 84 53 77 54
REMARK SMILES IDX 78 55 82 56 85 57 79 58 80 59 83 60 81 61 60 62 61 63 69 64
REMARK SMILES IDX 62 65 63 66 67 67 70 68 64 69 65 70 68 71 66 72 8 73 9 74
REMARK SMILES IDX 10 75 11 76 12 77 13 78 14 79 15 80 16 81 33 82 17 83 19 84
REMARK SMILES IDX 18 85 20 86 21 87 31 88 22 89 23 90 24 91 32 92 25 93 26 94
REMARK SMILES IDX 30 95 27 97 29 98 28 99
REMARK H PARENT 90 25 58 36 25 96
REMARK Flexibility Score: inf
ROOT
ATOM      1  C   UNL A   1      42.621  18.936  26.218  1.00  0.00     0.188 C 
ENDROOT
BRANCH   1   2
ATOM      2  O   UNL A   1      43.148  19.489  25.007  1.00  0.00    -0.376 OA
BRANCH   2   3
ATOM      3  C   UNL A   1      44.292  20.319  25.233  1.00  0.00     0.202 C 
BRANCH   3   4
ATOM      4  C   UNL A   1      44.496  21.379  24.136  1.00  0.00     0.261 C 
BRANCH   4   5
ATOM      5  O   UNL A   1      43.817  22.620  24.402  1.00  0.00    -0.460 OA
BRANCH   5   6
ATOM      6  C   UNL A   1      44.318  23.819  24.785  1.00  0.00     0.338 C 
ATOM      7  O   UNL A   1      45.436  24.129  24.368  1.00  0.00    -0.246 OA
BRANCH   6   8
ATOM      8  C   UNL A   1      43.610  24.820  25.655  1.00  0.00     0.060 A 
ATOM      9  C   UNL A   1      43.933  26.171  25.792  1.00  0.00     0.016 A 
ATOM     10  C   UNL A   1      42.504  24.345  26.390  1.00  0.00     0.016 A 
ATOM     11  C   UNL A   1      43.244  27.003  26.673  1.00  0.00     0.010 A 
ATOM     12  C   UNL A   1      41.796  25.175  27.269  1.00  0.00     0.010 A 
ATOM     13  C   UNL A   1      42.198  26.501  27.443  1.00  0.00    -0.014 A 
BRANCH  13  14
ATOM     14  C   UNL A   1      41.702  27.334  28.556  1.00  0.00     0.031 A 
ATOM     15  C   UNL A   1      42.398  27.230  29.882  1.00  0.00     0.074 A 
ATOM     16  C   UNL A   1      40.736  28.246  28.361  1.00  0.00     0.049 A 
ATOM     17  N   UNL A   1      42.177  27.885  30.992  1.00  0.00    -0.248 NA
ATOM     18  C   UNL A   1      43.508  26.266  29.962  1.00  0.00     0.031 C 
ATOM     19  C   UNL A   1      40.020  28.477  27.108  1.00  0.00     0.029 A 
ATOM     20  N   UNL A   1      40.185  29.147  29.236  1.00  0.00    -0.354 N 
ATOM     21  C   UNL A   1      43.119  27.416  31.897  1.00  0.00     0.074 A 
ATOM     22  C   UNL A   1      43.898  26.403  31.219  1.00  0.00     0.031 C 
ATOM     23  C   UNL A   1      39.083  29.419  27.316  1.00  0.00     0.029 A 
ATOM     24  C   UNL A   1      39.126  29.842  28.708  1.00  0.00     0.049 A 
ATOM     25  H   UNL A   1      40.518  29.283  30.153  1.00  0.00     0.167 HD
ATOM     26  C   UNL A   1      43.324  27.802  33.178  1.00  0.00     0.037 A 
ATOM     27  C   UNL A   1      38.275  30.692  29.306  1.00  0.00     0.037 A 
ATOM     28  C   UNL A   1      42.543  28.797  33.859  1.00  0.00     0.049 A 
ATOM     29  C   UNL A   1      38.508  31.072  30.742  1.00  0.00     0.074 A 
ATOM     30  C   UNL A   1      42.654  29.245  35.164  1.00  0.00     0.029 A 
ATOM     31  N   UNL A   1      41.491  29.491  33.285  1.00  0.00    -0.354 N 
ATOM     32  N   UNL A   1      39.427  30.654  31.577  1.00  0.00    -0.248 NA
ATOM     33  C   UNL A   1      37.590  32.071  31.310  1.00  0.00     0.031 C 
ATOM     34  C   UNL A   1      41.641  30.184  35.392  1.00  0.00     0.029 A 
ATOM     35  C   UNL A   1      40.928  30.348  34.217  1.00  0.00     0.049 A 
ATOM     36  H   UNL A   1      41.187  29.391  32.354  1.00  0.00     0.167 HD
ATOM     37  C   UNL A   1      39.194  31.337  32.759  1.00  0.00     0.074 A 
ATOM     38  C   UNL A   1      38.090  32.239  32.521  1.00  0.00     0.031 C 
ATOM     39  C   UNL A   1      39.820  31.218  33.953  1.00  0.00     0.037 A 
BRANCH  26  40
ATOM     40  C   UNL A   1      44.413  27.104  33.931  1.00  0.00     0.064 A 
ATOM     41  C   UNL A   1      44.179  25.908  34.625  1.00  0.00     0.173 A 
ATOM     42  C   UNL A   1      45.706  27.646  33.960  1.00  0.00     0.173 A 
ATOM     43  F   UNL A   1      42.951  25.367  34.646  1.00  0.00    -0.203 F 
ATOM     44  C   UNL A   1      45.199  25.291  35.343  1.00  0.00     0.198 A 
ATOM     45  C   UNL A   1      46.728  27.012  34.660  1.00  0.00     0.198 A 
ATOM     46  F   UNL A   1      45.974  28.791  33.317  1.00  0.00    -0.203 F 
ATOM     47  F   UNL A   1      44.944  24.176  36.042  1.00  0.00    -0.200 F 
ATOM     48  C   UNL A   1      46.472  25.840  35.356  1.00  0.00     0.200 A 
ATOM     49  F   UNL A   1      47.959  27.541  34.667  1.00  0.00    -0.200 F 
ATOM     50  F   UNL A   1      47.453  25.245  36.049  1.00  0.00    -0.200 F 
ENDBRANCH  26  40
BRANCH  27  51
ATOM     51  C   UNL A   1      37.049  31.189  28.638  1.00  0.00     0.064 A 
ATOM     52  C   UNL A   1      36.875  32.552  28.372  1.00  0.00     0.173 A 
ATOM     53  C   UNL A   1      35.941  30.341  28.502  1.00  0.00     0.173 A 
ATOM     54  F   UNL A   1      37.897  33.405  28.532  1.00  0.00    -0.203 F 
ATOM     55  C   UNL A   1      35.612  33.058  28.075  1.00  0.00     0.198 A 
ATOM     56  C   UNL A   1      34.697  30.843  28.129  1.00  0.00     0.198 A 
ATOM     57  F   UNL A   1      36.050  29.039  28.804  1.00  0.00    -0.203 F 
ATOM     58  F   UNL A   1      35.437  34.382  27.945  1.00  0.00    -0.200 F 
ATOM     59  C   UNL A   1      34.529  32.204  27.935  1.00  0.00     0.200 A 
ATOM     60  F   UNL A   1      33.646  30.020  28.011  1.00  0.00    -0.200 F 
ATOM     61  F   UNL A   1      33.324  32.699  27.626  1.00  0.00    -0.200 F 
ENDBRANCH  27  51
BRANCH  39  62
ATOM     62  C   UNL A   1      39.303  32.089  35.055  1.00  0.00     0.064 A 
ATOM     63  C   UNL A   1      39.732  33.418  35.193  1.00  0.00     0.173 A 
ATOM     64  C   UNL A   1      38.427  31.570  36.018  1.00  0.00     0.173 A 
ATOM     65  F   UNL A   1      40.600  33.942  34.314  1.00  0.00    -0.203 F 
ATOM     66  C   UNL A   1      39.338  34.184  36.285  1.00  0.00     0.198 A 
ATOM     67  C   UNL A   1      38.010  32.351  37.092  1.00  0.00     0.198 A 
ATOM     68  F   UNL A   1      38.000  30.302  35.932  1.00  0.00    -0.203 F 
ATOM     69  F   UNL A   1      39.824  35.422  36.443  1.00  0.00    -0.200 F 
ATOM     70  C   UNL A   1      38.476  33.650  37.232  1.00  0.00     0.200 A 
ATOM     71  F   UNL A   1      37.179  31.835  38.007  1.00  0.00    -0.200 F 
ATOM     72  F   UNL A   1      38.110  34.383  38.293  1.00  0.00    -0.200 F 
ENDBRANCH  39  62
ENDBRANCH  13  14
ENDBRANCH   6   8
ENDBRANCH   5   6
ENDBRANCH   4   5
ENDBRANCH   3   4
ENDBRANCH   2   3
ENDBRANCH   1   2
BRANCH   1  73
ATOM     73  C   UNL A   1      41.972  19.973  27.133  1.00  0.00     0.188 C 
BRANCH  73  74
ATOM     74  O   UNL A   1      40.624  20.248  26.754  1.00  0.00    -0.376 OA
BRANCH  74  75
ATOM     75  C   UNL A   1      40.466  21.518  26.117  1.00  0.00     0.202 C 
BRANCH  75  76
ATOM     76  C   UNL A   1      39.122  22.201  26.413  1.00  0.00     0.261 C 
BRANCH  76  77
ATOM     77  O   UNL A   1      37.978  21.636  25.742  1.00  0.00    -0.460 OA
BRANCH  77  78
ATOM     78  C   UNL A   1      37.170  22.512  25.115  1.00  0.00     0.338 C 
ATOM     79  O   UNL A   1      37.387  23.699  24.901  1.00  0.00    -0.246 OA
BRANCH  78  80
ATOM     80  C   UNL A   1      35.863  21.882  24.907  1.00  0.00     0.062 A 
ATOM     81  C   UNL A   1      35.628  20.514  24.995  1.00  0.00     0.016 A 
ATOM     82  C   UNL A   1      34.831  22.759  24.590  1.00  0.00     0.042 A 
ATOM     83  C   UNL A   1      34.327  20.041  24.797  1.00  0.00     0.003 A 
ATOM     84  C   UNL A   1      33.530  22.301  24.366  1.00  0.00     0.053 A 
ATOM     85  C   UNL A   1      33.277  20.932  24.512  1.00  0.00     0.027 A 
BRANCH  84  86
ATOM     86  N   UNL A   1      32.539  23.250  24.023  1.00  0.00    -0.245 N 
ATOM     87  C   UNL A   1      32.544  23.951  22.839  1.00  0.00     0.240 C 
ATOM     88  C   UNL A   1      31.485  23.634  24.816  1.00  0.00     0.292 C 
ATOM     89  O   UNL A   1      33.313  23.862  21.892  1.00  0.00    -0.274 OA
ATOM     90  C   UNL A   1      31.351  24.842  22.803  1.00  0.00     0.176 C 
ATOM     91  C   UNL A   1      30.965  24.961  24.259  1.00  0.00     0.284 C 
ATOM     92  O   UNL A   1      31.056  23.103  25.829  1.00  0.00    -0.267 OA
BRANCH  91  93
ATOM     93  N   UNL A   1      31.453  26.123  25.043  1.00  0.00    -0.320 N 
ATOM     94  C   UNL A   1      30.877  27.423  24.627  1.00  0.00     0.291 C 
ATOM     95  C   UNL A   1      32.905  26.292  25.260  1.00  0.00     0.291 C 
ATOM     96  H   UNL A   1      31.090  25.835  25.951  1.00  0.00     0.348 HD
ATOM     97  C   UNL A   1      31.663  28.225  23.580  1.00  0.00     0.221 C 
ATOM     98  C   UNL A   1      33.643  27.084  24.168  1.00  0.00     0.221 C 
ATOM     99  O   UNL A   1      33.036  28.360  23.951  1.00  0.00    -0.370 OA
ENDBRANCH  91  93
ENDBRANCH  84  86
ENDBRANCH  78  80
ENDBRANCH  77  78
ENDBRANCH  76  77
ENDBRANCH  75  76
ENDBRANCH  74  75
ENDBRANCH  73  74
ENDBRANCH   1  73
TORSDOF 19
ENDMDL
MODEL 3
REMARK VINA RESULT:     -11.6      4.723     10.520
REMARK SMILES O=C(OCCOCCOCCOC(=O)c1cccc(N2C(=O)C[C@H]([NH+]3CCOCC3)C2=O)c1)c1ccc(-c2c3nc(c(-c4c(F)c(F)c(F)c(F)c4F)c4ccc([nH]4)c(-c4c(F)c(F)c(F)c(F)c4F)c4nc(c(-c5c(F)c(F)c(F)c(F)c5F)c5ccc2[nH]5)C=C4)C=C3)cc1
REMARK SMILES IDX 7 1 6 2 5 3 4 4 3 5 2 6 1 7 34 8 35 9 96 10 36 11 95 12
REMARK SMILES IDX 37 13 38 14 39 15 89 16 40 17 94 18 88 19 90 20 41 21 93 22
REMARK SMILES IDX 87 23 86 24 42 26 74 27 54 28 73 29 55 30 58 31 72 32 91 33
REMARK SMILES IDX 56 34 57 35 71 37 92 38 59 39 43 40 44 41 52 42 45 43 46 44
REMARK SMILES IDX 50 45 53 46 47 47 48 48 51 49 49 50 75 51 76 52 84 53 77 54
REMARK SMILES IDX 78 55 82 56 85 57 79 58 80 59 83 60 81 61 60 62 61 63 69 64
REMARK SMILES IDX 62 65 63 66 67 67 70 68 64 69 65 70 68 71 66 72 8 73 9 74
REMARK SMILES IDX 10 75 11 76 12 77 13 78 14 79 15 80 16 81 33 82 17 83 19 84
REMARK SMILES IDX 18 85 20 86 21 87 31 88 22 89 23 90 24 91 32 92 25 93 26 94
REMARK SMILES IDX 30 95 27 97 29 98 28 99
REMARK H PARENT 90 25 58 36 25 96
REMARK Flexibility Score: inf
ROOT
ATOM      1  C   UNL A   1      33.673  34.310  28.483  1.00  0.00     0.188 C 
ENDROOT
BRANCH   1   2
ATOM      2  O   UNL A   1      33.108  34.583  29.769  1.00  0.00    -0.376 OA
BRANCH   2   3
ATOM      3  C   UNL A   1      34.078  35.056  30.709  1.00  0.00     0.202 C 
BRANCH   3   4
ATOM      4  C   UNL A   1      33.898  34.459  32.116  1.00  0.00     0.261 C 
BRANCH   4   5
ATOM      5  O   UNL A   1      34.373  33.105  32.232  1.00  0.00    -0.460 OA
BRANCH   5   6
ATOM      6  C   UNL A   1      35.468  32.620  32.866  1.00  0.00     0.338 C 
ATOM      7  O   UNL A   1      35.589  32.870  34.066  1.00  0.00    -0.246 OA
BRANCH   6   8
ATOM      8  C   UNL A   1      36.537  31.774  32.231  1.00  0.00     0.060 A 
ATOM      9  C   UNL A   1      37.586  31.134  32.892  1.00  0.00     0.016 A 
ATOM     10  C   UNL A   1      36.457  31.602  30.833  1.00  0.00     0.016 A 
ATOM     11  C   UNL A   1      38.560  30.417  32.200  1.00  0.00     0.010 A 
ATOM     12  C   UNL A   1      37.423  30.873  30.127  1.00  0.00     0.010 A 
ATOM     13  C   UNL A   1      38.505  30.315  30.813  1.00  0.00    -0.014 A 
BRANCH  13  14
ATOM     14  C   UNL A   1      39.700  29.803  30.112  1.00  0.00     0.031 A 
ATOM     15  C   UNL A   1      40.837  30.753  29.868  1.00  0.00     0.074 A 
ATOM     16  C   UNL A   1      39.820  28.500  29.809  1.00  0.00     0.049 A 
ATOM     17  N   UNL A   1      42.001  30.532  29.315  1.00  0.00    -0.248 NA
ATOM     18  C   UNL A   1      40.639  32.138  30.326  1.00  0.00     0.031 C 
ATOM     19  C   UNL A   1      38.807  27.473  30.042  1.00  0.00     0.029 A 
ATOM     20  N   UNL A   1      40.859  27.825  29.223  1.00  0.00    -0.354 N 
ATOM     21  C   UNL A   1      42.673  31.746  29.363  1.00  0.00     0.074 A 
ATOM     22  C   UNL A   1      41.781  32.707  29.972  1.00  0.00     0.031 C 
ATOM     23  C   UNL A   1      39.258  26.307  29.548  1.00  0.00     0.029 A 
ATOM     24  C   UNL A   1      40.573  26.509  28.958  1.00  0.00     0.049 A 
ATOM     25  H   UNL A   1      41.726  28.242  29.014  1.00  0.00     0.167 HD
ATOM     26  C   UNL A   1      43.927  32.033  28.943  1.00  0.00     0.037 A 
ATOM     27  C   UNL A   1      41.289  25.596  28.280  1.00  0.00     0.037 A 
ATOM     28  C   UNL A   1      44.811  31.084  28.323  1.00  0.00     0.049 A 
ATOM     29  C   UNL A   1      42.665  25.958  27.794  1.00  0.00     0.074 A 
ATOM     30  C   UNL A   1      46.095  31.279  27.842  1.00  0.00     0.029 A 
ATOM     31  N   UNL A   1      44.492  29.758  28.089  1.00  0.00    -0.354 N 
ATOM     32  N   UNL A   1      43.307  27.096  27.881  1.00  0.00    -0.248 NA
ATOM     33  C   UNL A   1      43.427  24.886  27.135  1.00  0.00     0.031 C 
ATOM     34  C   UNL A   1      46.537  30.076  27.278  1.00  0.00     0.029 A 
ATOM     35  C   UNL A   1      45.545  29.126  27.447  1.00  0.00     0.049 A 
ATOM     36  H   UNL A   1      43.643  29.326  28.340  1.00  0.00     0.167 HD
ATOM     37  C   UNL A   1      44.540  26.873  27.289  1.00  0.00     0.074 A 
ATOM     38  C   UNL A   1      44.583  25.482  26.901  1.00  0.00     0.031 C 
ATOM     39  C   UNL A   1      45.548  27.746  27.060  1.00  0.00     0.037 A 
BRANCH  26  40
ATOM     40  C   UNL A   1      44.391  33.447  29.106  1.00  0.00     0.064 A 
ATOM     41  C   UNL A   1      44.091  34.434  28.156  1.00  0.00     0.173 A 
ATOM     42  C   UNL A   1      45.149  33.814  30.226  1.00  0.00     0.173 A 
ATOM     43  F   UNL A   1      43.391  34.122  27.054  1.00  0.00    -0.203 F 
ATOM     44  C   UNL A   1      44.557  35.736  28.311  1.00  0.00     0.198 A 
ATOM     45  C   UNL A   1      45.591  35.123  30.390  1.00  0.00     0.198 A 
ATOM     46  F   UNL A   1      45.466  32.902  31.157  1.00  0.00    -0.203 F 
ATOM     47  F   UNL A   1      44.304  36.653  27.368  1.00  0.00    -0.200 F 
ATOM     48  C   UNL A   1      45.301  36.080  29.430  1.00  0.00     0.200 A 
ATOM     49  F   UNL A   1      46.306  35.454  31.473  1.00  0.00    -0.200 F 
ATOM     50  F   UNL A   1      45.750  37.334  29.577  1.00  0.00    -0.200 F 
ENDBRANCH  26  40
BRANCH  27  51
ATOM     51  C   UNL A   1      40.732  24.277  27.898  1.00  0.00     0.064 A 
ATOM     52  C   UNL A   1      41.341  23.088  28.317  1.00  0.00     0.173 A 
ATOM     53  C   UNL A   1      39.750  24.201  26.900  1.00  0.00     0.173 A 
ATOM     54  F   UNL A   1      42.316  23.120  29.236  1.00  0.00    -0.203 F 
ATOM     55  C   UNL A   1      41.043  21.882  27.689  1.00  0.00     0.198 A 
ATOM     56  C   UNL A   1      39.402  22.980  26.329  1.00  0.00     0.198 A 
ATOM     57  F   UNL A   1      39.185  25.322  26.427  1.00  0.00    -0.203 F 
ATOM     58  F   UNL A   1      41.724  20.773  28.016  1.00  0.00    -0.200 F 
ATOM     59  C   UNL A   1      40.062  21.824  26.711  1.00  0.00     0.200 A 
ATOM     60  F   UNL A   1      38.466  22.926  25.372  1.00  0.00    -0.200 F 
ATOM     61  F   UNL A   1      39.766  20.654  26.130  1.00  0.00    -0.200 F 
ENDBRANCH  27  51
BRANCH  39  62
ATOM     62  C   UNL A   1      46.751  27.191  26.363  1.00  0.00     0.064 A 
ATOM     63  C   UNL A   1      47.797  26.592  27.084  1.00  0.00     0.173 A 
ATOM     64  C   UNL A   1      46.891  27.321  24.975  1.00  0.00     0.173 A 
ATOM     65  F   UNL A   1      47.719  26.481  28.419  1.00  0.00    -0.203 F 
ATOM     66  C   UNL A   1      48.961  26.185  26.443  1.00  0.00     0.198 A 
ATOM     67  C   UNL A   1      48.045  26.883  24.334  1.00  0.00     0.198 A 
ATOM     68  F   UNL A   1      45.922  27.897  24.248  1.00  0.00    -0.203 F 
ATOM     69  F   UNL A   1      49.980  25.691  27.159  1.00  0.00    -0.200 F 
ATOM     70  C   UNL A   1      49.083  26.328  25.068  1.00  0.00     0.200 A 
ATOM     71  F   UNL A   1      48.164  27.022  23.007  1.00  0.00    -0.200 F 
ATOM     72  F   UNL A   1      50.212  25.951  24.454  1.00  0.00    -0.200 F 
ENDBRANCH  39  62
ENDBRANCH  13  14
ENDBRANCH   6   8
ENDBRANCH   5   6
ENDBRANCH   4   5
ENDBRANCH   3   4
ENDBRANCH   2   3
ENDBRANCH   1   2
BRANCH   1  73
ATOM     73  C   UNL A   1      33.241  32.967  27.896  1.00  0.00     0.188 C 
BRANCH  73  74
ATOM     74  O   UNL A   1      34.070  31.898  28.348  1.00  0.00    -0.376 OA
BRANCH  74  75
ATOM     75  C   UNL A   1      34.282  30.891  27.354  1.00  0.00     0.202 C 
BRANCH  75  76
ATOM     76  C   UNL A   1      32.987  30.294  26.784  1.00  0.00     0.261 C 
BRANCH  76  77
ATOM     77  O   UNL A   1      32.986  28.863  26.612  1.00  0.00    -0.460 OA
BRANCH  77  78
ATOM     78  C   UNL A   1      31.780  28.267  26.639  1.00  0.00     0.338 C 
ATOM     79  O   UNL A   1      31.148  27.917  27.630  1.00  0.00    -0.246 OA
BRANCH  78  80
ATOM     80  C   UNL A   1      31.411  27.885  25.274  1.00  0.00     0.062 A 
ATOM     81  C   UNL A   1      30.584  28.636  24.445  1.00  0.00     0.016 A 
ATOM     82  C   UNL A   1      31.940  26.674  24.837  1.00  0.00     0.042 A 
ATOM     83  C   UNL A   1      30.326  28.171  23.152  1.00  0.00     0.003 A 
ATOM     84  C   UNL A   1      31.674  26.185  23.556  1.00  0.00     0.053 A 
ATOM     85  C   UNL A   1      30.891  26.966  22.698  1.00  0.00     0.027 A 
BRANCH  84  86
ATOM     86  N   UNL A   1      32.227  24.934  23.192  1.00  0.00    -0.245 N 
ATOM     87  C   UNL A   1      31.681  23.730  23.570  1.00  0.00     0.240 C 
ATOM     88  C   UNL A   1      33.383  24.745  22.472  1.00  0.00     0.292 C 
ATOM     89  O   UNL A   1      30.654  23.510  24.197  1.00  0.00    -0.274 OA
ATOM     90  C   UNL A   1      32.505  22.628  22.999  1.00  0.00     0.176 C 
ATOM     91  C   UNL A   1      33.827  23.301  22.710  1.00  0.00     0.284 C 
ATOM     92  O   UNL A   1      34.019  25.558  21.819  1.00  0.00    -0.267 OA
BRANCH  91  93
ATOM     93  N   UNL A   1      34.917  23.211  23.713  1.00  0.00    -0.320 N 
ATOM     94  C   UNL A   1      35.074  21.872  24.325  1.00  0.00     0.291 C 
ATOM     95  C   UNL A   1      35.010  24.235  24.775  1.00  0.00     0.291 C 
ATOM     96  H   UNL A   1      35.694  23.421  23.086  1.00  0.00     0.348 HD
ATOM     97  C   UNL A   1      34.306  21.613  25.629  1.00  0.00     0.221 C 
ATOM     98  C   UNL A   1      34.204  23.933  26.049  1.00  0.00     0.221 C 
ATOM     99  O   UNL A   1      34.539  22.650  26.584  1.00  0.00    -0.370 OA
ENDBRANCH  91  93
ENDBRANCH  84  86
ENDBRANCH  78  80
ENDBRANCH  77  78
ENDBRANCH  76  77
ENDBRANCH  75  76
ENDBRANCH  74  75
ENDBRANCH  73  74
ENDBRANCH   1  73
TORSDOF 19
ENDMDL
