MODEL 1
REMARK VINA RESULT:     -10.5      0.000      0.000
REMARK SMILES C=CCN(CC(=O)OCCOCCOCCOC(=O)c1ccc(-c2c3nc(c(-c4c(F)c(F)c(F)c(F)c4F)c4ccc([nH]4)c(-c4c(F)c(F)c(F)c(F)c4F)c4nc(c(-c5c(F)c(F)c(F)c(F)c5F)c5ccc2[nH]5)C=C4)C=C3)cc1)C(=O)N1CC[C@@H]([NH+]2CCCCC2)C1
REMARK SMILES IDX 12 1 11 2 10 3 9 4 8 5 6 6 7 7 5 8 4 9 3 10 2 11 1 12 83 13
REMARK SMILES IDX 84 14 85 15 86 16 95 17 87 18 88 19 89 20 90 21 94 22 91 24
REMARK SMILES IDX 93 25 92 26 13 27 14 28 15 29 16 30 17 31 18 32 19 33 20 34
REMARK SMILES IDX 21 35 82 36 22 37 81 38 23 39 24 40 25 41 75 42 26 43 80 44
REMARK SMILES IDX 74 45 76 46 27 47 79 48 73 49 72 50 28 52 60 53 40 54 59 55
REMARK SMILES IDX 41 56 44 57 58 58 77 59 42 60 43 61 57 63 78 64 45 65 29 66
REMARK SMILES IDX 30 67 38 68 31 69 32 70 36 71 39 72 33 73 34 74 37 75 35 76
REMARK SMILES IDX 61 77 62 78 70 79 63 80 64 81 68 82 71 83 65 84 66 85 69 86
REMARK SMILES IDX 67 87 46 88 47 89 55 90 48 91 49 92 53 93 56 94 50 95 51 96
REMARK SMILES IDX 54 97 52 98
REMARK H PARENT 89 23 76 51 44 62
REMARK Flexibility Score: inf
ROOT
ATOM      1  C   UNL A   1      34.346  33.427  29.012  1.00  0.00     0.188 C 
ENDROOT
BRANCH   1   2
ATOM      2  O   UNL A   1      34.463  32.015  29.004  1.00  0.00    -0.376 OA
BRANCH   2   3
ATOM      3  C   UNL A   1      33.940  31.387  27.837  1.00  0.00     0.202 C 
BRANCH   3   4
ATOM      4  C   UNL A   1      34.721  30.137  27.400  1.00  0.00     0.261 C 
BRANCH   4   5
ATOM      5  O   UNL A   1      33.987  28.900  27.638  1.00  0.00    -0.462 OA
BRANCH   5   6
ATOM      6  C   UNL A   1      33.333  28.397  26.552  1.00  0.00     0.325 C 
ATOM      7  O   UNL A   1      32.467  29.011  25.933  1.00  0.00    -0.250 OA
BRANCH   6   8
ATOM      8  C   UNL A   1      33.701  26.955  26.157  1.00  0.00     0.244 C 
BRANCH   8   9
ATOM      9  N   UNL A   1      32.742  26.066  25.496  1.00  0.00    -0.310 N 
BRANCH   9  10
ATOM     10  C   UNL A   1      32.202  24.980  26.328  1.00  0.00     0.149 C 
BRANCH  10  11
ATOM     11  C   UNL A   1      32.713  23.636  25.868  1.00  0.00    -0.013 C 
ATOM     12  C   UNL A   1      31.923  22.671  25.374  1.00  0.00     0.006 C 
ENDBRANCH  10  11
ENDBRANCH   9  10
BRANCH   9  13
ATOM     13  C   UNL A   1      32.307  26.113  24.188  1.00  0.00     0.321 C 
ATOM     14  O   UNL A   1      33.042  25.690  23.286  1.00  0.00    -0.248 OA
BRANCH  13  15
ATOM     15  N   UNL A   1      31.091  26.654  23.836  1.00  0.00    -0.318 N 
ATOM     16  C   UNL A   1      29.733  26.437  24.276  1.00  0.00     0.128 C 
ATOM     17  C   UNL A   1      31.056  27.422  22.608  1.00  0.00     0.186 C 
ATOM     18  C   UNL A   1      28.846  27.421  23.515  1.00  0.00     0.088 C 
ATOM     19  C   UNL A   1      29.721  28.167  22.493  1.00  0.00     0.205 C 
BRANCH  19  20
ATOM     20  N   UNL A   1      29.465  29.604  22.584  1.00  0.00    -0.331 N 
ATOM     21  C   UNL A   1      29.631  30.474  23.720  1.00  0.00     0.262 C 
ATOM     22  C   UNL A   1      29.518  30.393  21.362  1.00  0.00     0.262 C 
ATOM     23  H   UNL A   1      28.594  29.167  22.883  1.00  0.00     0.348 HD
ATOM     24  C   UNL A   1      28.434  31.414  23.860  1.00  0.00     0.062 C 
ATOM     25  C   UNL A   1      28.173  31.084  21.266  1.00  0.00     0.062 C 
ATOM     26  C   UNL A   1      27.736  31.802  22.549  1.00  0.00     0.012 C 
ENDBRANCH  19  20
ENDBRANCH  13  15
ENDBRANCH   9  13
ENDBRANCH   8   9
ENDBRANCH   6   8
ENDBRANCH   5   6
ENDBRANCH   4   5
ENDBRANCH   3   4
ENDBRANCH   2   3
ENDBRANCH   1   2
BRANCH   1  27
ATOM     27  C   UNL A   1      33.265  34.031  28.104  1.00  0.00     0.188 C 
BRANCH  27  28
ATOM     28  O   UNL A   1      32.512  35.105  28.659  1.00  0.00    -0.376 OA
BRANCH  28  29
ATOM     29  C   UNL A   1      33.345  36.267  28.866  1.00  0.00     0.202 C 
BRANCH  29  30
ATOM     30  C   UNL A   1      32.996  37.048  30.153  1.00  0.00     0.261 C 
BRANCH  30  31
ATOM     31  O   UNL A   1      32.154  36.305  31.075  1.00  0.00    -0.460 OA
BRANCH  31  32
ATOM     32  C   UNL A   1      32.540  36.257  32.388  1.00  0.00     0.338 C 
ATOM     33  O   UNL A   1      32.188  37.008  33.264  1.00  0.00    -0.246 OA
BRANCH  32  34
ATOM     34  C   UNL A   1      33.691  35.300  32.541  1.00  0.00     0.060 A 
ATOM     35  C   UNL A   1      33.544  33.942  32.835  1.00  0.00     0.016 A 
ATOM     36  C   UNL A   1      34.984  35.794  32.349  1.00  0.00     0.016 A 
ATOM     37  C   UNL A   1      34.669  33.070  32.811  1.00  0.00     0.010 A 
ATOM     38  C   UNL A   1      36.097  34.925  32.285  1.00  0.00     0.010 A 
ATOM     39  C   UNL A   1      35.960  33.538  32.488  1.00  0.00    -0.014 A 
BRANCH  39  40
ATOM     40  C   UNL A   1      37.189  32.684  32.708  1.00  0.00     0.031 A 
ATOM     41  C   UNL A   1      37.944  32.999  33.972  1.00  0.00     0.074 A 
ATOM     42  C   UNL A   1      37.675  31.697  31.912  1.00  0.00     0.049 A 
ATOM     43  N   UNL A   1      39.007  32.432  34.480  1.00  0.00    -0.248 NA
ATOM     44  C   UNL A   1      37.405  34.108  34.779  1.00  0.00     0.031 C 
ATOM     45  C   UNL A   1      37.077  31.204  30.683  1.00  0.00     0.029 A 
ATOM     46  N   UNL A   1      38.814  30.911  32.015  1.00  0.00    -0.354 N 
ATOM     47  C   UNL A   1      39.227  33.085  35.682  1.00  0.00     0.074 A 
ATOM     48  C   UNL A   1      38.253  34.146  35.787  1.00  0.00     0.031 C 
ATOM     49  C   UNL A   1      37.843  30.254  30.120  1.00  0.00     0.029 A 
ATOM     50  C   UNL A   1      39.002  30.026  30.965  1.00  0.00     0.049 A 
ATOM     51  H   UNL A   1      39.438  30.977  32.773  1.00  0.00     0.167 HD
ATOM     52  C   UNL A   1      40.135  32.814  36.646  1.00  0.00     0.037 A 
ATOM     53  C   UNL A   1      39.973  29.119  30.711  1.00  0.00     0.037 A 
ATOM     54  C   UNL A   1      41.162  31.825  36.527  1.00  0.00     0.049 A 
ATOM     55  C   UNL A   1      41.071  28.936  31.730  1.00  0.00     0.074 A 
ATOM     56  C   UNL A   1      42.176  31.528  37.417  1.00  0.00     0.029 A 
ATOM     57  N   UNL A   1      41.325  30.992  35.430  1.00  0.00    -0.354 N 
ATOM     58  N   UNL A   1      41.217  29.518  32.895  1.00  0.00    -0.248 NA
ATOM     59  C   UNL A   1      42.124  27.957  31.416  1.00  0.00     0.031 C 
ATOM     60  C   UNL A   1      42.993  30.558  36.830  1.00  0.00     0.029 A 
ATOM     61  C   UNL A   1      42.444  30.200  35.607  1.00  0.00     0.049 A 
ATOM     62  H   UNL A   1      40.733  30.969  34.644  1.00  0.00     0.167 HD
ATOM     63  C   UNL A   1      42.343  28.945  33.471  1.00  0.00     0.074 A 
ATOM     64  C   UNL A   1      42.841  27.962  32.532  1.00  0.00     0.031 C 
ATOM     65  C   UNL A   1      42.909  29.206  34.673  1.00  0.00     0.037 A 
BRANCH  52  66
ATOM     66  C   UNL A   1      40.046  33.667  37.873  1.00  0.00     0.064 A 
ATOM     67  C   UNL A   1      39.150  33.355  38.910  1.00  0.00     0.173 A 
ATOM     68  C   UNL A   1      40.755  34.872  37.949  1.00  0.00     0.173 A 
ATOM     69  F   UNL A   1      38.418  32.231  38.856  1.00  0.00    -0.203 F 
ATOM     70  C   UNL A   1      38.922  34.253  39.946  1.00  0.00     0.198 A 
ATOM     71  C   UNL A   1      40.548  35.751  39.007  1.00  0.00     0.198 A 
ATOM     72  F   UNL A   1      41.608  35.218  36.974  1.00  0.00    -0.203 F 
ATOM     73  F   UNL A   1      37.985  33.986  40.868  1.00  0.00    -0.200 F 
ATOM     74  C   UNL A   1      39.620  35.450  39.993  1.00  0.00     0.200 A 
ATOM     75  F   UNL A   1      41.219  36.909  39.050  1.00  0.00    -0.200 F 
ATOM     76  F   UNL A   1      39.375  36.330  40.974  1.00  0.00    -0.200 F 
ENDBRANCH  52  66
BRANCH  53  77
ATOM     77  C   UNL A   1      39.975  28.279  29.467  1.00  0.00     0.064 A 
ATOM     78  C   UNL A   1      39.368  27.010  29.441  1.00  0.00     0.173 A 
ATOM     79  C   UNL A   1      40.671  28.673  28.313  1.00  0.00     0.173 A 
ATOM     80  F   UNL A   1      38.716  26.560  30.523  1.00  0.00    -0.203 F 
ATOM     81  C   UNL A   1      39.491  26.162  28.338  1.00  0.00     0.198 A 
ATOM     82  C   UNL A   1      40.769  27.834  27.198  1.00  0.00     0.198 A 
ATOM     83  F   UNL A   1      41.280  29.866  28.271  1.00  0.00    -0.203 F 
ATOM     84  F   UNL A   1      38.965  24.930  28.378  1.00  0.00    -0.200 F 
ATOM     85  C   UNL A   1      40.191  26.574  27.216  1.00  0.00     0.200 A 
ATOM     86  F   UNL A   1      41.446  28.240  26.114  1.00  0.00    -0.200 F 
ATOM     87  F   UNL A   1      40.326  25.754  26.164  1.00  0.00    -0.200 F 
ENDBRANCH  53  77
BRANCH  65  88
ATOM     88  C   UNL A   1      44.101  28.392  35.081  1.00  0.00     0.064 A 
ATOM     89  C   UNL A   1      45.410  28.798  34.793  1.00  0.00     0.173 A 
ATOM     90  C   UNL A   1      43.924  27.239  35.861  1.00  0.00     0.173 A 
ATOM     91  F   UNL A   1      45.631  29.886  34.039  1.00  0.00    -0.203 F 
ATOM     92  C   UNL A   1      46.501  28.074  35.265  1.00  0.00     0.198 A 
ATOM     93  C   UNL A   1      45.016  26.538  36.361  1.00  0.00     0.198 A 
ATOM     94  F   UNL A   1      42.689  26.812  36.169  1.00  0.00    -0.203 F 
ATOM     95  F   UNL A   1      47.746  28.462  34.952  1.00  0.00    -0.200 F 
ATOM     96  C   UNL A   1      46.304  26.954  36.059  1.00  0.00     0.200 A 
ATOM     97  F   UNL A   1      44.822  25.469  37.146  1.00  0.00    -0.200 F 
ATOM     98  F   UNL A   1      47.356  26.275  36.537  1.00  0.00    -0.200 F 
ENDBRANCH  65  88
ENDBRANCH  39  40
ENDBRANCH  32  34
ENDBRANCH  31  32
ENDBRANCH  30  31
ENDBRANCH  29  30
ENDBRANCH  28  29
ENDBRANCH  27  28
ENDBRANCH   1  27
TORSDOF 23
ENDMDL
MODEL 2
REMARK VINA RESULT:     -10.4      1.248      3.714
REMARK SMILES C=CCN(CC(=O)OCCOCCOCCOC(=O)c1ccc(-c2c3nc(c(-c4c(F)c(F)c(F)c(F)c4F)c4ccc([nH]4)c(-c4c(F)c(F)c(F)c(F)c4F)c4nc(c(-c5c(F)c(F)c(F)c(F)c5F)c5ccc2[nH]5)C=C4)C=C3)cc1)C(=O)N1CC[C@@H]([NH+]2CCCCC2)C1
REMARK SMILES IDX 12 1 11 2 10 3 9 4 8 5 6 6 7 7 5 8 4 9 3 10 2 11 1 12 83 13
REMARK SMILES IDX 84 14 85 15 86 16 95 17 87 18 88 19 89 20 90 21 94 22 91 24
REMARK SMILES IDX 93 25 92 26 13 27 14 28 15 29 16 30 17 31 18 32 19 33 20 34
REMARK SMILES IDX 21 35 82 36 22 37 81 38 23 39 24 40 25 41 75 42 26 43 80 44
REMARK SMILES IDX 74 45 76 46 27 47 79 48 73 49 72 50 28 52 60 53 40 54 59 55
REMARK SMILES IDX 41 56 44 57 58 58 77 59 42 60 43 61 57 63 78 64 45 65 29 66
REMARK SMILES IDX 30 67 38 68 31 69 32 70 36 71 39 72 33 73 34 74 37 75 35 76
REMARK SMILES IDX 61 77 62 78 70 79 63 80 64 81 68 82 71 83 65 84 66 85 69 86
REMARK SMILES IDX 67 87 46 88 47 89 55 90 48 91 49 92 53 93 56 94 50 95 51 96
REMARK SMILES IDX 54 97 52 98
REMARK H PARENT 89 23 76 51 44 62
REMARK Flexibility Score: inf
ROOT
ATOM      1  C   UNL A   1      34.414  33.190  28.946  1.00  0.00     0.188 C 
ENDROOT
BRANCH   1   2
ATOM      2  O   UNL A   1      34.674  31.812  28.743  1.00  0.00    -0.376 OA
BRANCH   2   3
ATOM      3  C   UNL A   1      33.945  31.227  27.667  1.00  0.00     0.202 C 
BRANCH   3   4
ATOM      4  C   UNL A   1      34.542  29.905  27.157  1.00  0.00     0.261 C 
BRANCH   4   5
ATOM      5  O   UNL A   1      33.823  28.735  27.646  1.00  0.00    -0.462 OA
BRANCH   5   6
ATOM      6  C   UNL A   1      32.663  28.451  26.990  1.00  0.00     0.325 C 
ATOM      7  O   UNL A   1      31.546  28.648  27.465  1.00  0.00    -0.250 OA
BRANCH   6   8
ATOM      8  C   UNL A   1      32.817  27.800  25.604  1.00  0.00     0.244 C 
BRANCH   8   9
ATOM      9  N   UNL A   1      31.813  26.880  25.064  1.00  0.00    -0.310 N 
BRANCH   9  10
ATOM     10  C   UNL A   1      31.316  27.198  23.717  1.00  0.00     0.149 C 
BRANCH  10  11
ATOM     11  C   UNL A   1      30.270  28.285  23.765  1.00  0.00    -0.013 C 
ATOM     12  C   UNL A   1      29.130  28.250  23.056  1.00  0.00     0.006 C 
ENDBRANCH  10  11
ENDBRANCH   9  10
BRANCH   9  13
ATOM     13  C   UNL A   1      31.264  25.773  25.677  1.00  0.00     0.321 C 
ATOM     14  O   UNL A   1      30.277  25.909  26.412  1.00  0.00    -0.248 OA
BRANCH  13  15
ATOM     15  N   UNL A   1      31.800  24.512  25.535  1.00  0.00    -0.318 N 
ATOM     16  C   UNL A   1      31.359  23.305  24.876  1.00  0.00     0.128 C 
ATOM     17  C   UNL A   1      32.909  24.180  26.406  1.00  0.00     0.186 C 
ATOM     18  C   UNL A   1      32.466  22.265  25.047  1.00  0.00     0.088 C 
ATOM     19  C   UNL A   1      33.555  22.865  25.952  1.00  0.00     0.205 C 
BRANCH  19  20
ATOM     20  N   UNL A   1      34.869  22.652  25.347  1.00  0.00    -0.331 N 
ATOM     21  C   UNL A   1      35.371  21.474  24.686  1.00  0.00     0.262 C 
ATOM     22  C   UNL A   1      35.614  23.815  24.889  1.00  0.00     0.262 C 
ATOM     23  H   UNL A   1      34.967  22.315  26.304  1.00  0.00     0.348 HD
ATOM     24  C   UNL A   1      36.801  21.172  25.136  1.00  0.00     0.062 C 
ATOM     25  C   UNL A   1      36.946  23.753  25.608  1.00  0.00     0.062 C 
ATOM     26  C   UNL A   1      37.647  22.391  25.526  1.00  0.00     0.012 C 
ENDBRANCH  19  20
ENDBRANCH  13  15
ENDBRANCH   9  13
ENDBRANCH   8   9
ENDBRANCH   6   8
ENDBRANCH   5   6
ENDBRANCH   4   5
ENDBRANCH   3   4
ENDBRANCH   2   3
ENDBRANCH   1   2
BRANCH   1  27
ATOM     27  C   UNL A   1      33.337  33.823  28.055  1.00  0.00     0.188 C 
BRANCH  27  28
ATOM     28  O   UNL A   1      32.564  34.862  28.651  1.00  0.00    -0.376 OA
BRANCH  28  29
ATOM     29  C   UNL A   1      33.336  36.077  28.769  1.00  0.00     0.202 C 
BRANCH  29  30
ATOM     30  C   UNL A   1      33.073  36.844  30.084  1.00  0.00     0.261 C 
BRANCH  30  31
ATOM     31  O   UNL A   1      32.189  36.144  30.999  1.00  0.00    -0.460 OA
BRANCH  31  32
ATOM     32  C   UNL A   1      32.532  36.128  32.325  1.00  0.00     0.338 C 
ATOM     33  O   UNL A   1      32.128  36.881  33.177  1.00  0.00    -0.246 OA
BRANCH  32  34
ATOM     34  C   UNL A   1      33.707  35.211  32.531  1.00  0.00     0.060 A 
ATOM     35  C   UNL A   1      33.595  33.874  32.919  1.00  0.00     0.016 A 
ATOM     36  C   UNL A   1      34.986  35.721  32.292  1.00  0.00     0.016 A 
ATOM     37  C   UNL A   1      34.741  33.029  32.943  1.00  0.00     0.010 A 
ATOM     38  C   UNL A   1      36.119  34.876  32.276  1.00  0.00     0.010 A 
ATOM     39  C   UNL A   1      36.018  33.504  32.576  1.00  0.00    -0.014 A 
BRANCH  39  40
ATOM     40  C   UNL A   1      37.269  32.696  32.841  1.00  0.00     0.031 A 
ATOM     41  C   UNL A   1      37.981  33.059  34.117  1.00  0.00     0.074 A 
ATOM     42  C   UNL A   1      37.807  31.711  32.075  1.00  0.00     0.049 A 
ATOM     43  N   UNL A   1      39.050  32.538  34.660  1.00  0.00    -0.248 NA
ATOM     44  C   UNL A   1      37.387  34.164  34.889  1.00  0.00     0.031 C 
ATOM     45  C   UNL A   1      37.256  31.177  30.842  1.00  0.00     0.029 A 
ATOM     46  N   UNL A   1      38.969  30.967  32.220  1.00  0.00    -0.354 N 
ATOM     47  C   UNL A   1      39.219  33.220  35.855  1.00  0.00     0.074 A 
ATOM     48  C   UNL A   1      38.208  34.248  35.916  1.00  0.00     0.031 C 
ATOM     49  C   UNL A   1      38.067  30.243  30.316  1.00  0.00     0.029 A 
ATOM     50  C   UNL A   1      39.212  30.070  31.192  1.00  0.00     0.049 A 
ATOM     51  H   UNL A   1      39.572  31.068  32.991  1.00  0.00     0.167 HD
ATOM     52  C   UNL A   1      40.112  32.997  36.844  1.00  0.00     0.037 A 
ATOM     53  C   UNL A   1      40.219  29.193  30.978  1.00  0.00     0.037 A 
ATOM     54  C   UNL A   1      41.175  32.041  36.769  1.00  0.00     0.049 A 
ATOM     55  C   UNL A   1      41.296  29.065  32.027  1.00  0.00     0.074 A 
ATOM     56  C   UNL A   1      42.176  31.796  37.688  1.00  0.00     0.029 A 
ATOM     57  N   UNL A   1      41.392  31.195  35.691  1.00  0.00    -0.354 N 
ATOM     58  N   UNL A   1      41.395  29.673  33.183  1.00  0.00    -0.248 NA
ATOM     59  C   UNL A   1      42.389  28.117  31.756  1.00  0.00     0.031 C 
ATOM     60  C   UNL A   1      43.038  30.843  37.138  1.00  0.00     0.029 A 
ATOM     61  C   UNL A   1      42.532  30.444  35.910  1.00  0.00     0.049 A 
ATOM     62  H   UNL A   1      40.820  31.138  34.892  1.00  0.00     0.167 HD
ATOM     63  C   UNL A   1      42.525  29.148  33.796  1.00  0.00     0.074 A 
ATOM     64  C   UNL A   1      43.078  28.167  32.888  1.00  0.00     0.031 C 
ATOM     65  C   UNL A   1      43.053  29.451  35.006  1.00  0.00     0.037 A 
BRANCH  52  66
ATOM     66  C   UNL A   1      39.964  33.868  38.052  1.00  0.00     0.064 A 
ATOM     67  C   UNL A   1      39.044  33.553  39.067  1.00  0.00     0.173 A 
ATOM     68  C   UNL A   1      40.642  35.091  38.129  1.00  0.00     0.173 A 
ATOM     69  F   UNL A   1      38.341  32.411  39.010  1.00  0.00    -0.203 F 
ATOM     70  C   UNL A   1      38.763  34.463  40.080  1.00  0.00     0.198 A 
ATOM     71  C   UNL A   1      40.382  35.983  39.164  1.00  0.00     0.198 A 
ATOM     72  F   UNL A   1      41.517  35.441  37.174  1.00  0.00    -0.203 F 
ATOM     73  F   UNL A   1      37.804  34.189  40.977  1.00  0.00    -0.200 F 
ATOM     74  C   UNL A   1      39.431  35.677  40.126  1.00  0.00     0.200 A 
ATOM     75  F   UNL A   1      41.024  37.158  39.208  1.00  0.00    -0.200 F 
ATOM     76  F   UNL A   1      39.135  36.568  41.083  1.00  0.00    -0.200 F 
ENDBRANCH  52  66
BRANCH  53  77
ATOM     77  C   UNL A   1      40.279  28.330  29.751  1.00  0.00     0.064 A 
ATOM     78  C   UNL A   1      40.954  28.754  28.591  1.00  0.00     0.173 A 
ATOM     79  C   UNL A   1      39.577  27.117  29.668  1.00  0.00     0.173 A 
ATOM     80  F   UNL A   1      41.616  29.920  28.594  1.00  0.00    -0.203 F 
ATOM     81  C   UNL A   1      40.892  28.027  27.400  1.00  0.00     0.198 A 
ATOM     82  C   UNL A   1      39.538  26.375  28.483  1.00  0.00     0.198 A 
ATOM     83  F   UNL A   1      38.904  26.657  30.733  1.00  0.00    -0.203 F 
ATOM     84  F   UNL A   1      41.484  28.499  26.295  1.00  0.00    -0.200 F 
ATOM     85  C   UNL A   1      40.183  26.837  27.346  1.00  0.00     0.200 A 
ATOM     86  F   UNL A   1      38.854  25.223  28.437  1.00  0.00    -0.200 F 
ATOM     87  F   UNL A   1      40.107  26.148  26.199  1.00  0.00    -0.200 F 
ENDBRANCH  53  77
BRANCH  65  88
ATOM     88  C   UNL A   1      44.261  28.685  35.458  1.00  0.00     0.064 A 
ATOM     89  C   UNL A   1      44.157  27.539  36.256  1.00  0.00     0.173 A 
ATOM     90  C   UNL A   1      45.533  29.054  34.996  1.00  0.00     0.173 A 
ATOM     91  F   UNL A   1      42.964  27.153  36.735  1.00  0.00    -0.203 F 
ATOM     92  C   UNL A   1      45.285  26.792  36.583  1.00  0.00     0.198 A 
ATOM     93  C   UNL A   1      46.654  28.287  35.295  1.00  0.00     0.198 A 
ATOM     94  F   UNL A   1      45.685  30.141  34.224  1.00  0.00    -0.203 F 
ATOM     95  F   UNL A   1      45.169  25.717  37.374  1.00  0.00    -0.200 F 
ATOM     96  C   UNL A   1      46.530  27.158  36.091  1.00  0.00     0.200 A 
ATOM     97  F   UNL A   1      47.851  28.631  34.800  1.00  0.00    -0.200 F 
ATOM     98  F   UNL A   1      47.610  26.422  36.383  1.00  0.00    -0.200 F 
ENDBRANCH  65  88
ENDBRANCH  39  40
ENDBRANCH  32  34
ENDBRANCH  31  32
ENDBRANCH  30  31
ENDBRANCH  29  30
ENDBRANCH  28  29
ENDBRANCH  27  28
ENDBRANCH   1  27
TORSDOF 23
ENDMDL
MODEL 3
REMARK VINA RESULT:     -10.3      2.080      3.746
REMARK SMILES C=CCN(CC(=O)OCCOCCOCCOC(=O)c1ccc(-c2c3nc(c(-c4c(F)c(F)c(F)c(F)c4F)c4ccc([nH]4)c(-c4c(F)c(F)c(F)c(F)c4F)c4nc(c(-c5c(F)c(F)c(F)c(F)c5F)c5ccc2[nH]5)C=C4)C=C3)cc1)C(=O)N1CC[C@@H]([NH+]2CCCCC2)C1
REMARK SMILES IDX 12 1 11 2 10 3 9 4 8 5 6 6 7 7 5 8 4 9 3 10 2 11 1 12 83 13
REMARK SMILES IDX 84 14 85 15 86 16 95 17 87 18 88 19 89 20 90 21 94 22 91 24
REMARK SMILES IDX 93 25 92 26 13 27 14 28 15 29 16 30 17 31 18 32 19 33 20 34
REMARK SMILES IDX 21 35 82 36 22 37 81 38 23 39 24 40 25 41 75 42 26 43 80 44
REMARK SMILES IDX 74 45 76 46 27 47 79 48 73 49 72 50 28 52 60 53 40 54 59 55
REMARK SMILES IDX 41 56 44 57 58 58 77 59 42 60 43 61 57 63 78 64 45 65 29 66
REMARK SMILES IDX 30 67 38 68 31 69 32 70 36 71 39 72 33 73 34 74 37 75 35 76
REMARK SMILES IDX 61 77 62 78 70 79 63 80 64 81 68 82 71 83 65 84 66 85 69 86
REMARK SMILES IDX 67 87 46 88 47 89 55 90 48 91 49 92 53 93 56 94 50 95 51 96
REMARK SMILES IDX 54 97 52 98
REMARK H PARENT 89 23 76 51 44 62
REMARK Flexibility Score: inf
ROOT
ATOM      1  C   UNL A   1      33.267  28.052  26.696  1.00  0.00     0.188 C 
ENDROOT
BRANCH   1   2
ATOM      2  O   UNL A   1      33.299  27.060  25.684  1.00  0.00    -0.376 OA
BRANCH   2   3
ATOM      3  C   UNL A   1      34.047  25.896  26.024  1.00  0.00     0.202 C 
BRANCH   3   4
ATOM      4  C   UNL A   1      34.354  24.981  24.827  1.00  0.00     0.261 C 
BRANCH   4   5
ATOM      5  O   UNL A   1      35.093  23.783  25.206  1.00  0.00    -0.462 OA
BRANCH   5   6
ATOM      6  C   UNL A   1      35.017  22.751  24.319  1.00  0.00     0.325 C 
ATOM      7  O   UNL A   1      35.944  21.976  24.094  1.00  0.00    -0.250 OA
BRANCH   6   8
ATOM      8  C   UNL A   1      33.691  22.627  23.545  1.00  0.00     0.244 C 
BRANCH   8   9
ATOM      9  N   UNL A   1      32.545  21.894  24.087  1.00  0.00    -0.310 N 
BRANCH   9  10
ATOM     10  C   UNL A   1      32.435  20.486  23.674  1.00  0.00     0.149 C 
BRANCH  10  11
ATOM     11  C   UNL A   1      33.298  19.597  24.536  1.00  0.00    -0.013 C 
ATOM     12  C   UNL A   1      32.838  18.509  25.173  1.00  0.00     0.006 C 
ENDBRANCH  10  11
ENDBRANCH   9  10
BRANCH   9  13
ATOM     13  C   UNL A   1      31.550  22.371  24.915  1.00  0.00     0.321 C 
ATOM     14  O   UNL A   1      31.048  21.618  25.760  1.00  0.00    -0.248 OA
BRANCH  13  15
ATOM     15  N   UNL A   1      31.057  23.652  24.811  1.00  0.00    -0.318 N 
ATOM     16  C   UNL A   1      30.630  24.641  25.773  1.00  0.00     0.128 C 
ATOM     17  C   UNL A   1      30.613  24.069  23.497  1.00  0.00     0.186 C 
ATOM     18  C   UNL A   1      30.246  25.897  24.991  1.00  0.00     0.088 C 
ATOM     19  C   UNL A   1      30.345  25.579  23.489  1.00  0.00     0.205 C 
BRANCH  19  20
ATOM     20  N   UNL A   1      31.092  26.637  22.812  1.00  0.00    -0.331 N 
ATOM     21  C   UNL A   1      32.267  26.517  21.986  1.00  0.00     0.262 C 
ATOM     22  C   UNL A   1      30.395  27.870  22.478  1.00  0.00     0.262 C 
ATOM     23  H   UNL A   1      31.557  26.529  23.712  1.00  0.00     0.348 HD
ATOM     24  C   UNL A   1      33.287  27.600  22.338  1.00  0.00     0.062 C 
ATOM     25  C   UNL A   1      31.195  28.979  23.132  1.00  0.00     0.062 C 
ATOM     26  C   UNL A   1      32.702  28.924  22.848  1.00  0.00     0.012 C 
ENDBRANCH  19  20
ENDBRANCH  13  15
ENDBRANCH   9  13
ENDBRANCH   8   9
ENDBRANCH   6   8
ENDBRANCH   5   6
ENDBRANCH   4   5
ENDBRANCH   3   4
ENDBRANCH   2   3
ENDBRANCH   1   2
BRANCH   1  27
ATOM     27  C   UNL A   1      31.879  28.544  27.129  1.00  0.00     0.188 C 
BRANCH  27  28
ATOM     28  O   UNL A   1      31.429  29.754  26.526  1.00  0.00    -0.376 OA
BRANCH  28  29
ATOM     29  C   UNL A   1      32.399  30.811  26.703  1.00  0.00     0.202 C 
BRANCH  29  30
ATOM     30  C   UNL A   1      31.759  32.181  27.017  1.00  0.00     0.261 C 
BRANCH  30  31
ATOM     31  O   UNL A   1      32.684  33.296  26.905  1.00  0.00    -0.460 OA
BRANCH  31  32
ATOM     32  C   UNL A   1      33.096  33.896  28.065  1.00  0.00     0.338 C 
ATOM     33  O   UNL A   1      32.668  34.924  28.528  1.00  0.00    -0.246 OA
BRANCH  32  34
ATOM     34  C   UNL A   1      34.359  33.240  28.553  1.00  0.00     0.060 A 
ATOM     35  C   UNL A   1      35.626  33.495  28.023  1.00  0.00     0.016 A 
ATOM     36  C   UNL A   1      34.261  32.343  29.620  1.00  0.00     0.016 A 
ATOM     37  C   UNL A   1      36.790  32.954  28.639  1.00  0.00     0.010 A 
ATOM     38  C   UNL A   1      35.416  31.837  30.258  1.00  0.00     0.010 A 
ATOM     39  C   UNL A   1      36.709  32.153  29.797  1.00  0.00    -0.014 A 
BRANCH  39  40
ATOM     40  C   UNL A   1      37.901  31.371  30.304  1.00  0.00     0.031 A 
ATOM     41  C   UNL A   1      38.323  31.723  31.705  1.00  0.00     0.074 A 
ATOM     42  C   UNL A   1      38.614  30.417  29.650  1.00  0.00     0.049 A 
ATOM     43  N   UNL A   1      39.271  31.216  32.450  1.00  0.00    -0.248 NA
ATOM     44  C   UNL A   1      37.550  32.795  32.356  1.00  0.00     0.031 C 
ATOM     45  C   UNL A   1      38.346  29.897  28.321  1.00  0.00     0.029 A 
ATOM     46  N   UNL A   1      39.741  29.698  30.021  1.00  0.00    -0.354 N 
ATOM     47  C   UNL A   1      39.169  31.875  33.665  1.00  0.00     0.074 A 
ATOM     48  C   UNL A   1      38.138  32.877  33.532  1.00  0.00     0.031 C 
ATOM     49  C   UNL A   1      39.275  28.995  27.958  1.00  0.00     0.029 A 
ATOM     50  C   UNL A   1      40.218  28.830  29.051  1.00  0.00     0.049 A 
ATOM     51  H   UNL A   1      40.168  29.797  30.902  1.00  0.00     0.167 HD
ATOM     52  C   UNL A   1      39.843  31.652  34.814  1.00  0.00     0.037 A 
ATOM     53  C   UNL A   1      41.272  27.983  29.035  1.00  0.00     0.037 A 
ATOM     54  C   UNL A   1      40.925  30.725  34.945  1.00  0.00     0.049 A 
ATOM     55  C   UNL A   1      42.112  27.858  30.283  1.00  0.00     0.074 A 
ATOM     56  C   UNL A   1      41.721  30.483  36.048  1.00  0.00     0.029 A 
ATOM     57  N   UNL A   1      41.385  29.908  33.923  1.00  0.00    -0.354 N 
ATOM     58  N   UNL A   1      41.952  28.442  31.445  1.00  0.00    -0.248 NA
ATOM     59  C   UNL A   1      43.264  26.943  30.230  1.00  0.00     0.031 C 
ATOM     60  C   UNL A   1      42.705  29.564  35.674  1.00  0.00     0.029 A 
ATOM     61  C   UNL A   1      42.476  29.181  34.361  1.00  0.00     0.049 A 
ATOM     62  H   UNL A   1      40.993  29.854  33.021  1.00  0.00     0.167 HD
ATOM     63  C   UNL A   1      42.944  27.932  32.270  1.00  0.00     0.074 A 
ATOM     64  C   UNL A   1      43.701  26.985  31.481  1.00  0.00     0.031 C 
ATOM     65  C   UNL A   1      43.201  28.220  33.569  1.00  0.00     0.037 A 
BRANCH  52  66
ATOM     66  C   UNL A   1      39.424  32.492  35.980  1.00  0.00     0.064 A 
ATOM     67  C   UNL A   1      40.058  33.716  36.258  1.00  0.00     0.173 A 
ATOM     68  C   UNL A   1      38.484  32.009  36.898  1.00  0.00     0.173 A 
ATOM     69  F   UNL A   1      40.996  34.194  35.427  1.00  0.00    -0.203 F 
ATOM     70  C   UNL A   1      39.810  34.390  37.448  1.00  0.00     0.198 A 
ATOM     71  C   UNL A   1      38.214  32.706  38.071  1.00  0.00     0.198 A 
ATOM     72  F   UNL A   1      37.866  30.838  36.682  1.00  0.00    -0.203 F 
ATOM     73  F   UNL A   1      40.504  35.499  37.745  1.00  0.00    -0.200 F 
ATOM     74  C   UNL A   1      38.890  33.884  38.354  1.00  0.00     0.200 A 
ATOM     75  F   UNL A   1      37.328  32.216  38.948  1.00  0.00    -0.200 F 
ATOM     76  F   UNL A   1      38.677  34.517  39.516  1.00  0.00    -0.200 F 
ENDBRANCH  52  66
BRANCH  53  77
ATOM     77  C   UNL A   1      41.609  27.150  27.834  1.00  0.00     0.064 A 
ATOM     78  C   UNL A   1      41.121  25.838  27.692  1.00  0.00     0.173 A 
ATOM     79  C   UNL A   1      42.510  27.600  26.854  1.00  0.00     0.173 A 
ATOM     80  F   UNL A   1      40.283  25.336  28.610  1.00  0.00    -0.203 F 
ATOM     81  C   UNL A   1      41.546  25.006  26.653  1.00  0.00     0.198 A 
ATOM     82  C   UNL A   1      42.913  26.776  25.799  1.00  0.00     0.198 A 
ATOM     83  F   UNL A   1      43.021  28.837  26.932  1.00  0.00    -0.203 F 
ATOM     84  F   UNL A   1      41.118  23.737  26.593  1.00  0.00    -0.200 F 
ATOM     85  C   UNL A   1      42.442  25.475  25.707  1.00  0.00     0.200 A 
ATOM     86  F   UNL A   1      43.778  27.236  24.884  1.00  0.00    -0.200 F 
ATOM     87  F   UNL A   1      42.865  24.671  24.721  1.00  0.00    -0.200 F 
ENDBRANCH  53  77
BRANCH  65  88
ATOM     88  C   UNL A   1      44.310  27.475  34.248  1.00  0.00     0.064 A 
ATOM     89  C   UNL A   1      45.611  27.989  34.326  1.00  0.00     0.173 A 
ATOM     90  C   UNL A   1      44.035  26.272  34.918  1.00  0.00     0.173 A 
ATOM     91  F   UNL A   1      45.927  29.128  33.691  1.00  0.00    -0.203 F 
ATOM     92  C   UNL A   1      46.600  27.323  35.044  1.00  0.00     0.198 A 
ATOM     93  C   UNL A   1      45.016  25.627  35.664  1.00  0.00     0.198 A 
ATOM     94  F   UNL A   1      42.804  25.741  34.878  1.00  0.00    -0.203 F 
ATOM     95  F   UNL A   1      47.846  27.815  35.080  1.00  0.00    -0.200 F 
ATOM     96  C   UNL A   1      46.299  26.151  35.723  1.00  0.00     0.200 A 
ATOM     97  F   UNL A   1      44.716  24.507  36.336  1.00  0.00    -0.200 F 
ATOM     98  F   UNL A   1      47.244  25.526  36.438  1.00  0.00    -0.200 F 
ENDBRANCH  65  88
ENDBRANCH  39  40
ENDBRANCH  32  34
ENDBRANCH  31  32
ENDBRANCH  30  31
ENDBRANCH  29  30
ENDBRANCH  28  29
ENDBRANCH  27  28
ENDBRANCH   1  27
TORSDOF 23
ENDMDL
