MODEL 1
REMARK VINA RESULT:      -9.9      0.000      0.000
REMARK SMILES COc1cccc(NC(=O)COc2csc(C(=O)OCCOCCOCCOC(=O)c3ccc(-c4c5nc(c(-c6c(F)c(F)c(F)c(F)c6F)c6ccc([nH]6)c(-c6c(F)c(F)c(F)c(F)c6F)c6nc(c(-c7c(F)c(F)c(F)c(F)c7F)c7ccc4[nH]7)C=C6)C=C5)cc3)c2)c1
REMARK SMILES IDX 22 1 21 2 20 3 19 4 17 5 18 6 16 7 13 8 14 9 94 10 15 11
REMARK SMILES IDX 12 12 11 13 9 14 8 15 10 17 7 18 3 19 4 20 95 21 5 22 6 23
REMARK SMILES IDX 2 24 1 25 23 26 24 27 25 28 26 29 27 30 28 31 29 32 30 33
REMARK SMILES IDX 31 34 32 35 93 36 33 37 92 38 34 39 35 40 36 41 86 42 37 43
REMARK SMILES IDX 91 44 85 45 87 46 38 47 90 48 84 49 83 50 39 52 71 53 51 54
REMARK SMILES IDX 70 55 52 56 55 57 69 58 88 59 53 60 54 61 68 63 89 64 56 65
REMARK SMILES IDX 40 66 41 67 49 68 42 69 43 70 47 71 50 72 44 73 45 74 48 75
REMARK SMILES IDX 46 76 72 77 73 78 81 79 74 80 75 81 79 82 82 83 76 84 77 85
REMARK SMILES IDX 80 86 78 87 57 88 58 89 66 90 59 91 60 92 64 93 67 94 61 95
REMARK SMILES IDX 62 96 65 97 63 98
REMARK H PARENT 8 16 87 51 55 62
REMARK Flexibility Score: inf
ROOT
ATOM      1  O   UNL A   1      35.107  31.448  28.987  1.00  0.00    -0.376 OA
ENDROOT
BRANCH   1   2
ATOM      2  C   UNL A   1      34.761  31.112  27.650  1.00  0.00     0.202 C 
BRANCH   2   3
ATOM      3  C   UNL A   1      33.275  31.156  27.283  1.00  0.00     0.261 C 
BRANCH   3   4
ATOM      4  O   UNL A   1      32.669  29.855  27.242  1.00  0.00    -0.459 OA
BRANCH   4   5
ATOM      5  C   UNL A   1      32.402  29.364  25.995  1.00  0.00     0.348 C 
ATOM      6  O   UNL A   1      32.224  30.053  24.999  1.00  0.00    -0.245 OA
BRANCH   5   7
ATOM      7  C   UNL A   1      32.492  27.917  26.011  1.00  0.00     0.116 A 
ATOM      8  C   UNL A   1      33.033  25.684  25.568  1.00  0.00     0.131 A 
ATOM      9  C   UNL A   1      31.985  25.540  26.448  1.00  0.00     0.112 A 
ATOM     10  C   UNL A   1      33.304  27.059  25.292  1.00  0.00     0.074 A 
ATOM     11  S   UNL A   1      31.418  27.048  27.024  1.00  0.00    -0.133 S 
BRANCH   8  12
ATOM     12  O   UNL A   1      33.788  24.704  25.011  1.00  0.00    -0.483 OA
BRANCH  12  13
ATOM     13  C   UNL A   1      34.135  24.827  23.648  1.00  0.00     0.329 C 
BRANCH  13  14
ATOM     14  C   UNL A   1      33.320  24.210  22.503  1.00  0.00     0.262 C 
ATOM     15  N   UNL A   1      32.092  24.641  22.114  1.00  0.00    -0.323 N 
ATOM     16  H   UNL A   1      31.761  24.174  21.313  1.00  0.00     0.170 HD
ATOM     17  O   UNL A   1      33.808  23.270  21.858  1.00  0.00    -0.271 OA
BRANCH  15  18
ATOM     18  C   UNL A   1      31.187  25.600  22.595  1.00  0.00     0.044 A 
ATOM     19  C   UNL A   1      30.543  27.951  22.559  1.00  0.00     0.120 A 
ATOM     20  C   UNL A   1      29.541  27.689  23.487  1.00  0.00     0.046 A 
ATOM     21  C   UNL A   1      31.369  26.912  22.124  1.00  0.00     0.072 A 
ATOM     22  C   UNL A   1      29.325  26.386  23.928  1.00  0.00     0.006 A 
ATOM     23  C   UNL A   1      30.134  25.342  23.469  1.00  0.00     0.026 A 
BRANCH  19  24
ATOM     24  O   UNL A   1      30.671  29.260  22.179  1.00  0.00    -0.497 OA
ATOM     25  C   UNL A   1      29.442  29.958  22.002  1.00  0.00     0.278 C 
ENDBRANCH  19  24
ENDBRANCH  15  18
ENDBRANCH  13  14
ENDBRANCH  12  13
ENDBRANCH   8  12
ENDBRANCH   5   7
ENDBRANCH   4   5
ENDBRANCH   3   4
ENDBRANCH   2   3
ENDBRANCH   1   2
BRANCH   1  26
ATOM     26  C   UNL A   1      34.731  32.713  29.521  1.00  0.00     0.188 C 
BRANCH  26  27
ATOM     27  C   UNL A   1      35.289  34.015  28.915  1.00  0.00     0.188 C 
BRANCH  27  28
ATOM     28  O   UNL A   1      34.357  34.736  28.122  1.00  0.00    -0.376 OA
BRANCH  28  29
ATOM     29  C   UNL A   1      33.970  36.009  28.618  1.00  0.00     0.202 C 
BRANCH  29  30
ATOM     30  C   UNL A   1      32.856  35.926  29.664  1.00  0.00     0.261 C 
BRANCH  30  31
ATOM     31  O   UNL A   1      33.243  36.354  30.981  1.00  0.00    -0.460 OA
BRANCH  31  32
ATOM     32  C   UNL A   1      32.866  35.563  32.010  1.00  0.00     0.338 C 
ATOM     33  O   UNL A   1      31.733  35.328  32.388  1.00  0.00    -0.246 OA
BRANCH  32  34
ATOM     34  C   UNL A   1      34.073  34.892  32.528  1.00  0.00     0.060 A 
ATOM     35  C   UNL A   1      35.321  35.488  32.321  1.00  0.00     0.016 A 
ATOM     36  C   UNL A   1      33.968  33.676  33.210  1.00  0.00     0.016 A 
ATOM     37  C   UNL A   1      36.478  34.849  32.774  1.00  0.00     0.010 A 
ATOM     38  C   UNL A   1      35.126  33.033  33.651  1.00  0.00     0.010 A 
ATOM     39  C   UNL A   1      36.388  33.603  33.412  1.00  0.00    -0.014 A 
BRANCH  39  40
ATOM     40  C   UNL A   1      37.612  32.818  33.695  1.00  0.00     0.031 A 
ATOM     41  C   UNL A   1      38.371  33.094  34.961  1.00  0.00     0.074 A 
ATOM     42  C   UNL A   1      38.061  31.892  32.830  1.00  0.00     0.049 A 
ATOM     43  N   UNL A   1      39.484  32.565  35.398  1.00  0.00    -0.248 NA
ATOM     44  C   UNL A   1      37.797  34.115  35.853  1.00  0.00     0.031 C 
ATOM     45  C   UNL A   1      37.417  31.532  31.570  1.00  0.00     0.029 A 
ATOM     46  N   UNL A   1      39.183  31.103  32.879  1.00  0.00    -0.354 N 
ATOM     47  C   UNL A   1      39.748  33.188  36.609  1.00  0.00     0.074 A 
ATOM     48  C   UNL A   1      38.692  34.154  36.828  1.00  0.00     0.031 C 
ATOM     49  C   UNL A   1      38.169  30.605  30.950  1.00  0.00     0.029 A 
ATOM     50  C   UNL A   1      39.354  30.326  31.761  1.00  0.00     0.049 A 
ATOM     51  H   UNL A   1      39.805  31.095  33.642  1.00  0.00     0.167 HD
ATOM     52  C   UNL A   1      40.773  32.970  37.467  1.00  0.00     0.037 A 
ATOM     53  C   UNL A   1      40.363  29.499  31.424  1.00  0.00     0.037 A 
ATOM     54  C   UNL A   1      41.825  32.014  37.251  1.00  0.00     0.049 A 
ATOM     55  C   UNL A   1      41.515  29.301  32.374  1.00  0.00     0.074 A 
ATOM     56  C   UNL A   1      42.877  31.685  38.087  1.00  0.00     0.029 A 
ATOM     57  N   UNL A   1      41.967  31.246  36.105  1.00  0.00    -0.354 N 
ATOM     58  N   UNL A   1      41.724  29.844  33.548  1.00  0.00    -0.248 NA
ATOM     59  C   UNL A   1      42.571  28.367  31.952  1.00  0.00     0.031 C 
ATOM     60  C   UNL A   1      43.684  30.751  37.426  1.00  0.00     0.029 A 
ATOM     61  C   UNL A   1      43.109  30.467  36.198  1.00  0.00     0.049 A 
ATOM     62  H   UNL A   1      41.349  31.254  35.339  1.00  0.00     0.167 HD
ATOM     63  C   UNL A   1      42.917  29.308  34.014  1.00  0.00     0.074 A 
ATOM     64  C   UNL A   1      43.386  28.387  32.999  1.00  0.00     0.031 C 
ATOM     65  C   UNL A   1      43.566  29.556  35.179  1.00  0.00     0.037 A 
BRANCH  52  66
ATOM     66  C   UNL A   1      40.814  33.810  38.708  1.00  0.00     0.064 A 
ATOM     67  C   UNL A   1      40.103  33.451  39.863  1.00  0.00     0.173 A 
ATOM     68  C   UNL A   1      41.577  34.986  38.743  1.00  0.00     0.173 A 
ATOM     69  F   UNL A   1      39.346  32.345  39.874  1.00  0.00    -0.203 F 
ATOM     70  C   UNL A   1      40.131  34.257  40.998  1.00  0.00     0.198 A 
ATOM     71  C   UNL A   1      41.623  35.776  39.888  1.00  0.00     0.198 A 
ATOM     72  F   UNL A   1      42.276  35.371  37.664  1.00  0.00    -0.203 F 
ATOM     73  F   UNL A   1      39.404  33.923  42.073  1.00  0.00    -0.200 F 
ATOM     74  C   UNL A   1      40.893  35.416  41.010  1.00  0.00     0.200 A 
ATOM     75  F   UNL A   1      42.366  36.891  39.901  1.00  0.00    -0.200 F 
ATOM     76  F   UNL A   1      40.916  36.193  42.102  1.00  0.00    -0.200 F 
ENDBRANCH  52  66
BRANCH  53  77
ATOM     77  C   UNL A   1      40.330  28.802  30.114  1.00  0.00     0.064 A 
ATOM     78  C   UNL A   1      40.970  29.341  28.990  1.00  0.00     0.173 A 
ATOM     79  C   UNL A   1      39.662  27.577  29.963  1.00  0.00     0.173 A 
ATOM     80  F   UNL A   1      41.595  30.523  29.079  1.00  0.00    -0.203 F 
ATOM     81  C   UNL A   1      40.937  28.684  27.761  1.00  0.00     0.198 A 
ATOM     82  C   UNL A   1      39.649  26.912  28.740  1.00  0.00     0.198 A 
ATOM     83  F   UNL A   1      39.029  27.026  31.009  1.00  0.00    -0.203 F 
ATOM     84  F   UNL A   1      41.527  29.236  26.693  1.00  0.00    -0.200 F 
ATOM     85  C   UNL A   1      40.283  27.467  27.639  1.00  0.00     0.200 A 
ATOM     86  F   UNL A   1      39.020  25.733  28.628  1.00  0.00    -0.200 F 
ATOM     87  F   UNL A   1      40.257  26.833  26.459  1.00  0.00    -0.200 F 
ENDBRANCH  53  77
BRANCH  65  88
ATOM     88  C   UNL A   1      44.843  28.810  35.433  1.00  0.00     0.064 A 
ATOM     89  C   UNL A   1      44.848  27.548  36.043  1.00  0.00     0.173 A 
ATOM     90  C   UNL A   1      46.072  29.339  35.010  1.00  0.00     0.173 A 
ATOM     91  F   UNL A   1      43.699  27.005  36.476  1.00  0.00    -0.203 F 
ATOM     92  C   UNL A   1      46.037  26.850  36.237  1.00  0.00     0.198 A 
ATOM     93  C   UNL A   1      47.257  28.629  35.183  1.00  0.00     0.198 A 
ATOM     94  F   UNL A   1      46.122  30.540  34.414  1.00  0.00    -0.203 F 
ATOM     95  F   UNL A   1      46.021  25.661  36.855  1.00  0.00    -0.200 F 
ATOM     96  C   UNL A   1      47.239  27.388  35.801  1.00  0.00     0.200 A 
ATOM     97  F   UNL A   1      48.416  29.145  34.750  1.00  0.00    -0.200 F 
ATOM     98  F   UNL A   1      48.382  26.711  35.980  1.00  0.00    -0.200 F 
ENDBRANCH  65  88
ENDBRANCH  39  40
ENDBRANCH  32  34
ENDBRANCH  31  32
ENDBRANCH  30  31
ENDBRANCH  29  30
ENDBRANCH  28  29
ENDBRANCH  27  28
ENDBRANCH  26  27
ENDBRANCH   1  26
TORSDOF 22
ENDMDL
MODEL 2
REMARK VINA RESULT:      -9.7      1.231      3.003
REMARK SMILES COc1cccc(NC(=O)COc2csc(C(=O)OCCOCCOCCOC(=O)c3ccc(-c4c5nc(c(-c6c(F)c(F)c(F)c(F)c6F)c6ccc([nH]6)c(-c6c(F)c(F)c(F)c(F)c6F)c6nc(c(-c7c(F)c(F)c(F)c(F)c7F)c7ccc4[nH]7)C=C6)C=C5)cc3)c2)c1
REMARK SMILES IDX 22 1 21 2 20 3 19 4 17 5 18 6 16 7 13 8 14 9 94 10 15 11
REMARK SMILES IDX 12 12 11 13 9 14 8 15 10 17 7 18 3 19 4 20 95 21 5 22 6 23
REMARK SMILES IDX 2 24 1 25 23 26 24 27 25 28 26 29 27 30 28 31 29 32 30 33
REMARK SMILES IDX 31 34 32 35 93 36 33 37 92 38 34 39 35 40 36 41 86 42 37 43
REMARK SMILES IDX 91 44 85 45 87 46 38 47 90 48 84 49 83 50 39 52 71 53 51 54
REMARK SMILES IDX 70 55 52 56 55 57 69 58 88 59 53 60 54 61 68 63 89 64 56 65
REMARK SMILES IDX 40 66 41 67 49 68 42 69 43 70 47 71 50 72 44 73 45 74 48 75
REMARK SMILES IDX 46 76 72 77 73 78 81 79 74 80 75 81 79 82 82 83 76 84 77 85
REMARK SMILES IDX 80 86 78 87 57 88 58 89 66 90 59 91 60 92 64 93 67 94 61 95
REMARK SMILES IDX 62 96 65 97 63 98
REMARK H PARENT 8 16 87 51 55 62
REMARK Flexibility Score: inf
ROOT
ATOM      1  O   UNL A   1      34.973  31.580  28.941  1.00  0.00    -0.376 OA
ENDROOT
BRANCH   1   2
ATOM      2  C   UNL A   1      34.720  31.220  27.589  1.00  0.00     0.202 C 
BRANCH   2   3
ATOM      3  C   UNL A   1      33.867  29.972  27.349  1.00  0.00     0.261 C 
BRANCH   3   4
ATOM      4  O   UNL A   1      34.503  29.016  26.485  1.00  0.00    -0.459 OA
BRANCH   4   5
ATOM      5  C   UNL A   1      33.704  28.008  26.026  1.00  0.00     0.348 C 
ATOM      6  O   UNL A   1      33.654  26.884  26.511  1.00  0.00    -0.245 OA
BRANCH   5   7
ATOM      7  C   UNL A   1      32.843  28.508  24.973  1.00  0.00     0.116 A 
ATOM      8  C   UNL A   1      31.035  29.333  23.737  1.00  0.00     0.131 A 
ATOM      9  C   UNL A   1      31.941  29.051  22.740  1.00  0.00     0.112 A 
ATOM     10  C   UNL A   1      31.547  28.988  25.025  1.00  0.00     0.074 A 
ATOM     11  S   UNL A   1      33.431  28.492  23.365  1.00  0.00    -0.133 S 
BRANCH   8  12
ATOM     12  O   UNL A   1      29.807  29.894  23.607  1.00  0.00    -0.483 OA
BRANCH  12  13
ATOM     13  C   UNL A   1      28.882  29.274  22.739  1.00  0.00     0.329 C 
BRANCH  13  14
ATOM     14  C   UNL A   1      27.815  28.274  23.207  1.00  0.00     0.262 C 
ATOM     15  N   UNL A   1      28.085  27.055  23.740  1.00  0.00    -0.323 N 
ATOM     16  H   UNL A   1      27.277  26.589  24.053  1.00  0.00     0.170 HD
ATOM     17  O   UNL A   1      26.619  28.591  23.126  1.00  0.00    -0.271 OA
BRANCH  15  18
ATOM     18  C   UNL A   1      29.255  26.307  23.946  1.00  0.00     0.044 A 
ATOM     19  C   UNL A   1      30.679  25.216  25.597  1.00  0.00     0.120 A 
ATOM     20  C   UNL A   1      31.581  24.879  24.594  1.00  0.00     0.046 A 
ATOM     21  C   UNL A   1      29.527  25.937  25.274  1.00  0.00     0.072 A 
ATOM     22  C   UNL A   1      31.301  25.203  23.269  1.00  0.00     0.006 A 
ATOM     23  C   UNL A   1      30.132  25.899  22.944  1.00  0.00     0.026 A 
BRANCH  19  24
ATOM     24  O   UNL A   1      31.037  24.845  26.865  1.00  0.00    -0.497 OA
ATOM     25  C   UNL A   1      31.845  23.675  26.944  1.00  0.00     0.278 C 
ENDBRANCH  19  24
ENDBRANCH  15  18
ENDBRANCH  13  14
ENDBRANCH  12  13
ENDBRANCH   8  12
ENDBRANCH   5   7
ENDBRANCH   4   5
ENDBRANCH   3   4
ENDBRANCH   2   3
ENDBRANCH   1   2
BRANCH   1  26
ATOM     26  C   UNL A   1      35.029  32.954  29.311  1.00  0.00     0.188 C 
BRANCH  26  27
ATOM     27  C   UNL A   1      35.211  34.046  28.238  1.00  0.00     0.188 C 
BRANCH  27  28
ATOM     28  O   UNL A   1      34.061  34.853  28.026  1.00  0.00    -0.376 OA
BRANCH  28  29
ATOM     29  C   UNL A   1      34.017  36.076  28.748  1.00  0.00     0.202 C 
BRANCH  29  30
ATOM     30  C   UNL A   1      32.820  36.163  29.698  1.00  0.00     0.261 C 
BRANCH  30  31
ATOM     31  O   UNL A   1      33.159  36.511  31.051  1.00  0.00    -0.460 OA
BRANCH  31  32
ATOM     32  C   UNL A   1      32.745  35.663  32.018  1.00  0.00     0.338 C 
ATOM     33  O   UNL A   1      31.599  35.397  32.330  1.00  0.00    -0.246 OA
BRANCH  32  34
ATOM     34  C   UNL A   1      33.935  34.976  32.555  1.00  0.00     0.060 A 
ATOM     35  C   UNL A   1      35.184  35.594  32.438  1.00  0.00     0.016 A 
ATOM     36  C   UNL A   1      33.813  33.724  33.163  1.00  0.00     0.016 A 
ATOM     37  C   UNL A   1      36.327  34.943  32.910  1.00  0.00     0.010 A 
ATOM     38  C   UNL A   1      34.957  33.068  33.622  1.00  0.00     0.010 A 
ATOM     39  C   UNL A   1      36.222  33.663  33.474  1.00  0.00    -0.014 A 
BRANCH  39  40
ATOM     40  C   UNL A   1      37.441  32.875  33.771  1.00  0.00     0.031 A 
ATOM     41  C   UNL A   1      38.200  33.165  35.034  1.00  0.00     0.074 A 
ATOM     42  C   UNL A   1      37.886  31.933  32.921  1.00  0.00     0.049 A 
ATOM     43  N   UNL A   1      39.310  32.637  35.480  1.00  0.00    -0.248 NA
ATOM     44  C   UNL A   1      37.631  34.203  35.909  1.00  0.00     0.031 C 
ATOM     45  C   UNL A   1      37.242  31.558  31.665  1.00  0.00     0.029 A 
ATOM     46  N   UNL A   1      39.003  31.138  32.983  1.00  0.00    -0.354 N 
ATOM     47  C   UNL A   1      39.575  33.276  36.682  1.00  0.00     0.074 A 
ATOM     48  C   UNL A   1      38.525  34.252  36.884  1.00  0.00     0.031 C 
ATOM     49  C   UNL A   1      37.989  30.617  31.060  1.00  0.00     0.029 A 
ATOM     50  C   UNL A   1      39.171  30.343  31.877  1.00  0.00     0.049 A 
ATOM     51  H   UNL A   1      39.623  31.138  33.747  1.00  0.00     0.167 HD
ATOM     52  C   UNL A   1      40.597  33.066  37.544  1.00  0.00     0.037 A 
ATOM     53  C   UNL A   1      40.176  29.505  31.554  1.00  0.00     0.037 A 
ATOM     54  C   UNL A   1      41.644  32.100  37.344  1.00  0.00     0.049 A 
ATOM     55  C   UNL A   1      41.325  29.315  32.509  1.00  0.00     0.074 A 
ATOM     56  C   UNL A   1      42.693  31.778  38.187  1.00  0.00     0.029 A 
ATOM     57  N   UNL A   1      41.784  31.314  36.210  1.00  0.00    -0.354 N 
ATOM     58  N   UNL A   1      41.536  29.874  33.675  1.00  0.00    -0.248 NA
ATOM     59  C   UNL A   1      42.376  28.368  32.103  1.00  0.00     0.031 C 
ATOM     60  C   UNL A   1      43.496  30.829  37.541  1.00  0.00     0.029 A 
ATOM     61  C   UNL A   1      42.921  30.529  36.317  1.00  0.00     0.049 A 
ATOM     62  H   UNL A   1      41.166  31.314  35.443  1.00  0.00     0.167 HD
ATOM     63  C   UNL A   1      42.725  29.339  34.150  1.00  0.00     0.074 A 
ATOM     64  C   UNL A   1      43.189  28.400  33.150  1.00  0.00     0.031 C 
ATOM     65  C   UNL A   1      43.373  29.601  35.312  1.00  0.00     0.037 A 
BRANCH  52  66
ATOM     66  C   UNL A   1      40.642  33.924  38.772  1.00  0.00     0.064 A 
ATOM     67  C   UNL A   1      41.325  35.150  38.789  1.00  0.00     0.173 A 
ATOM     68  C   UNL A   1      39.989  33.518  39.945  1.00  0.00     0.173 A 
ATOM     69  F   UNL A   1      41.978  35.574  37.698  1.00  0.00    -0.203 F 
ATOM     70  C   UNL A   1      41.379  35.921  39.947  1.00  0.00     0.198 A 
ATOM     71  C   UNL A   1      40.024  34.304  41.093  1.00  0.00     0.198 A 
ATOM     72  F   UNL A   1      39.321  32.355  39.979  1.00  0.00    -0.203 F 
ATOM     73  F   UNL A   1      42.081  37.063  39.957  1.00  0.00    -0.200 F 
ATOM     74  C   UNL A   1      40.726  35.499  41.096  1.00  0.00     0.200 A 
ATOM     75  F   UNL A   1      39.386  33.900  42.200  1.00  0.00    -0.200 F 
ATOM     76  F   UNL A   1      40.782  36.242  42.210  1.00  0.00    -0.200 F 
ENDBRANCH  52  66
BRANCH  53  77
ATOM     77  C   UNL A   1      40.141  28.789  30.255  1.00  0.00     0.064 A 
ATOM     78  C   UNL A   1      39.489  27.556  30.124  1.00  0.00     0.173 A 
ATOM     79  C   UNL A   1      40.755  29.330  29.115  1.00  0.00     0.173 A 
ATOM     80  F   UNL A   1      38.913  26.987  31.192  1.00  0.00    -0.203 F 
ATOM     81  C   UNL A   1      39.458  26.886  28.902  1.00  0.00     0.198 A 
ATOM     82  C   UNL A   1      40.705  28.670  27.890  1.00  0.00     0.198 A 
ATOM     83  F   UNL A   1      41.398  30.504  29.193  1.00  0.00    -0.203 F 
ATOM     84  F   UNL A   1      38.857  25.692  28.810  1.00  0.00    -0.200 F 
ATOM     85  C   UNL A   1      40.060  27.447  27.785  1.00  0.00     0.200 A 
ATOM     86  F   UNL A   1      41.283  29.218  26.812  1.00  0.00    -0.200 F 
ATOM     87  F   UNL A   1      40.025  26.805  26.609  1.00  0.00    -0.200 F 
ENDBRANCH  53  77
BRANCH  65  88
ATOM     88  C   UNL A   1      44.646  28.851  35.579  1.00  0.00     0.064 A 
ATOM     89  C   UNL A   1      45.896  29.370  35.212  1.00  0.00     0.173 A 
ATOM     90  C   UNL A   1      44.619  27.624  36.260  1.00  0.00     0.173 A 
ATOM     91  F   UNL A   1      45.973  30.534  34.548  1.00  0.00    -0.203 F 
ATOM     92  C   UNL A   1      47.071  28.681  35.500  1.00  0.00     0.198 A 
ATOM     93  C   UNL A   1      45.797  26.949  36.569  1.00  0.00     0.198 A 
ATOM     94  F   UNL A   1      43.450  27.087  36.639  1.00  0.00    -0.203 F 
ATOM     95  F   UNL A   1      48.251  29.180  35.108  1.00  0.00    -0.200 F 
ATOM     96  C   UNL A   1      47.021  27.476  36.184  1.00  0.00     0.200 A 
ATOM     97  F   UNL A   1      45.748  25.790  37.240  1.00  0.00    -0.200 F 
ATOM     98  F   UNL A   1      48.154  26.818  36.469  1.00  0.00    -0.200 F 
ENDBRANCH  65  88
ENDBRANCH  39  40
ENDBRANCH  32  34
ENDBRANCH  31  32
ENDBRANCH  30  31
ENDBRANCH  29  30
ENDBRANCH  28  29
ENDBRANCH  27  28
ENDBRANCH  26  27
ENDBRANCH   1  26
TORSDOF 22
ENDMDL
MODEL 3
REMARK VINA RESULT:      -9.7      1.739      3.102
REMARK SMILES COc1cccc(NC(=O)COc2csc(C(=O)OCCOCCOCCOC(=O)c3ccc(-c4c5nc(c(-c6c(F)c(F)c(F)c(F)c6F)c6ccc([nH]6)c(-c6c(F)c(F)c(F)c(F)c6F)c6nc(c(-c7c(F)c(F)c(F)c(F)c7F)c7ccc4[nH]7)C=C6)C=C5)cc3)c2)c1
REMARK SMILES IDX 22 1 21 2 20 3 19 4 17 5 18 6 16 7 13 8 14 9 94 10 15 11
REMARK SMILES IDX 12 12 11 13 9 14 8 15 10 17 7 18 3 19 4 20 95 21 5 22 6 23
REMARK SMILES IDX 2 24 1 25 23 26 24 27 25 28 26 29 27 30 28 31 29 32 30 33
REMARK SMILES IDX 31 34 32 35 93 36 33 37 92 38 34 39 35 40 36 41 86 42 37 43
REMARK SMILES IDX 91 44 85 45 87 46 38 47 90 48 84 49 83 50 39 52 71 53 51 54
REMARK SMILES IDX 70 55 52 56 55 57 69 58 88 59 53 60 54 61 68 63 89 64 56 65
REMARK SMILES IDX 40 66 41 67 49 68 42 69 43 70 47 71 50 72 44 73 45 74 48 75
REMARK SMILES IDX 46 76 72 77 73 78 81 79 74 80 75 81 79 82 82 83 76 84 77 85
REMARK SMILES IDX 80 86 78 87 57 88 58 89 66 90 59 91 60 92 64 93 67 94 61 95
REMARK SMILES IDX 62 96 65 97 63 98
REMARK H PARENT 8 16 87 51 55 62
REMARK Flexibility Score: inf
ROOT
ATOM      1  O   UNL A   1      34.870  31.501  29.135  1.00  0.00    -0.376 OA
ENDROOT
BRANCH   1   2
ATOM      2  C   UNL A   1      34.919  31.208  27.745  1.00  0.00     0.202 C 
BRANCH   2   3
ATOM      3  C   UNL A   1      33.581  31.089  27.011  1.00  0.00     0.261 C 
BRANCH   3   4
ATOM      4  O   UNL A   1      33.439  29.846  26.304  1.00  0.00    -0.459 OA
BRANCH   4   5
ATOM      5  C   UNL A   1      32.211  29.615  25.752  1.00  0.00     0.348 C 
ATOM      6  O   UNL A   1      31.353  30.472  25.578  1.00  0.00    -0.245 OA
BRANCH   5   7
ATOM      7  C   UNL A   1      32.133  28.243  25.292  1.00  0.00     0.116 A 
ATOM      8  C   UNL A   1      31.462  26.045  24.850  1.00  0.00     0.131 A 
ATOM      9  C   UNL A   1      32.767  26.025  24.411  1.00  0.00     0.112 A 
ATOM     10  C   UNL A   1      31.108  27.320  25.389  1.00  0.00     0.074 A 
ATOM     11  S   UNL A   1      33.511  27.560  24.538  1.00  0.00    -0.133 S 
BRANCH   8  12
ATOM     12  O   UNL A   1      30.552  25.041  24.789  1.00  0.00    -0.483 OA
BRANCH  12  13
ATOM     13  C   UNL A   1      30.999  23.723  25.026  1.00  0.00     0.329 C 
BRANCH  13  14
ATOM     14  C   UNL A   1      31.069  23.087  26.421  1.00  0.00     0.262 C 
ATOM     15  N   UNL A   1      32.066  22.265  26.843  1.00  0.00    -0.323 N 
ATOM     16  H   UNL A   1      31.980  22.019  27.792  1.00  0.00     0.170 HD
ATOM     17  O   UNL A   1      30.181  23.349  27.246  1.00  0.00    -0.271 OA
BRANCH  15  18
ATOM     18  C   UNL A   1      33.188  21.685  26.231  1.00  0.00     0.044 A 
ATOM     19  C   UNL A   1      34.009  19.820  24.892  1.00  0.00     0.120 A 
ATOM     20  C   UNL A   1      35.303  20.316  24.998  1.00  0.00     0.046 A 
ATOM     21  C   UNL A   1      32.958  20.497  25.517  1.00  0.00     0.072 A 
ATOM     22  C   UNL A   1      35.536  21.515  25.667  1.00  0.00     0.006 A 
ATOM     23  C   UNL A   1      34.479  22.206  26.266  1.00  0.00     0.026 A 
BRANCH  19  24
ATOM     24  O   UNL A   1      33.879  18.643  24.207  1.00  0.00    -0.497 OA
ATOM     25  C   UNL A   1      32.801  17.814  24.632  1.00  0.00     0.278 C 
ENDBRANCH  19  24
ENDBRANCH  15  18
ENDBRANCH  13  14
ENDBRANCH  12  13
ENDBRANCH   8  12
ENDBRANCH   5   7
ENDBRANCH   4   5
ENDBRANCH   3   4
ENDBRANCH   2   3
ENDBRANCH   1   2
BRANCH   1  26
ATOM     26  C   UNL A   1      34.983  32.849  29.582  1.00  0.00     0.188 C 
BRANCH  26  27
ATOM     27  C   UNL A   1      35.392  33.965  28.601  1.00  0.00     0.188 C 
BRANCH  27  28
ATOM     28  O   UNL A   1      34.298  34.668  28.029  1.00  0.00    -0.376 OA
BRANCH  28  29
ATOM     29  C   UNL A   1      34.038  35.958  28.563  1.00  0.00     0.202 C 
BRANCH  29  30
ATOM     30  C   UNL A   1      32.905  35.957  29.593  1.00  0.00     0.261 C 
BRANCH  30  31
ATOM     31  O   UNL A   1      33.300  36.370  30.912  1.00  0.00    -0.460 OA
BRANCH  31  32
ATOM     32  C   UNL A   1      32.909  35.580  31.937  1.00  0.00     0.338 C 
ATOM     33  O   UNL A   1      31.771  35.354  32.306  1.00  0.00    -0.246 OA
BRANCH  32  34
ATOM     34  C   UNL A   1      34.106  34.897  32.463  1.00  0.00     0.060 A 
ATOM     35  C   UNL A   1      35.365  35.460  32.227  1.00  0.00     0.016 A 
ATOM     36  C   UNL A   1      33.981  33.703  33.178  1.00  0.00     0.016 A 
ATOM     37  C   UNL A   1      36.512  34.808  32.687  1.00  0.00     0.010 A 
ATOM     38  C   UNL A   1      35.129  33.047  33.627  1.00  0.00     0.010 A 
ATOM     39  C   UNL A   1      36.400  33.583  33.360  1.00  0.00    -0.014 A 
BRANCH  39  40
ATOM     40  C   UNL A   1      37.610  32.779  33.654  1.00  0.00     0.031 A 
ATOM     41  C   UNL A   1      38.381  33.065  34.911  1.00  0.00     0.074 A 
ATOM     42  C   UNL A   1      38.036  31.827  32.806  1.00  0.00     0.049 A 
ATOM     43  N   UNL A   1      39.486  32.523  35.353  1.00  0.00    -0.248 NA
ATOM     44  C   UNL A   1      37.832  34.116  35.784  1.00  0.00     0.031 C 
ATOM     45  C   UNL A   1      37.379  31.454  31.556  1.00  0.00     0.029 A 
ATOM     46  N   UNL A   1      39.142  31.016  32.866  1.00  0.00    -0.354 N 
ATOM     47  C   UNL A   1      39.768  33.165  36.550  1.00  0.00     0.074 A 
ATOM     48  C   UNL A   1      38.733  34.157  36.753  1.00  0.00     0.031 C 
ATOM     49  C   UNL A   1      38.109  30.499  30.952  1.00  0.00     0.029 A 
ATOM     50  C   UNL A   1      39.292  30.213  31.764  1.00  0.00     0.049 A 
ATOM     51  H   UNL A   1      39.767  31.011  33.626  1.00  0.00     0.167 HD
ATOM     52  C   UNL A   1      40.792  32.944  37.407  1.00  0.00     0.037 A 
ATOM     53  C   UNL A   1      40.282  29.358  31.439  1.00  0.00     0.037 A 
ATOM     54  C   UNL A   1      41.824  31.963  37.206  1.00  0.00     0.049 A 
ATOM     55  C   UNL A   1      41.435  29.157  32.388  1.00  0.00     0.074 A 
ATOM     56  C   UNL A   1      42.873  31.629  38.044  1.00  0.00     0.029 A 
ATOM     57  N   UNL A   1      41.945  31.168  36.075  1.00  0.00    -0.354 N 
ATOM     58  N   UNL A   1      41.661  29.719  33.550  1.00  0.00    -0.248 NA
ATOM     59  C   UNL A   1      42.469  28.193  31.980  1.00  0.00     0.031 C 
ATOM     60  C   UNL A   1      43.658  30.666  37.398  1.00  0.00     0.029 A 
ATOM     61  C   UNL A   1      43.071  30.368  36.179  1.00  0.00     0.049 A 
ATOM     62  H   UNL A   1      41.323  31.173  35.312  1.00  0.00     0.167 HD
ATOM     63  C   UNL A   1      42.845  29.169  34.020  1.00  0.00     0.074 A 
ATOM     64  C   UNL A   1      43.290  28.218  33.023  1.00  0.00     0.031 C 
ATOM     65  C   UNL A   1      43.504  29.428  35.177  1.00  0.00     0.037 A 
BRANCH  52  66
ATOM     66  C   UNL A   1      40.857  33.808  38.630  1.00  0.00     0.064 A 
ATOM     67  C   UNL A   1      40.141  33.490  39.795  1.00  0.00     0.173 A 
ATOM     68  C   UNL A   1      41.648  34.965  38.639  1.00  0.00     0.173 A 
ATOM     69  F   UNL A   1      39.358  32.402  39.830  1.00  0.00    -0.203 F 
ATOM     70  C   UNL A   1      40.191  34.318  40.913  1.00  0.00     0.198 A 
ATOM     71  C   UNL A   1      41.715  35.778  39.767  1.00  0.00     0.198 A 
ATOM     72  F   UNL A   1      42.352  35.312  37.551  1.00  0.00    -0.203 F 
ATOM     73  F   UNL A   1      39.458  34.024  41.996  1.00  0.00    -0.200 F 
ATOM     74  C   UNL A   1      40.980  35.459  40.899  1.00  0.00     0.200 A 
ATOM     75  F   UNL A   1      42.485  36.875  39.757  1.00  0.00    -0.200 F 
ATOM     76  F   UNL A   1      41.025  36.257  41.975  1.00  0.00    -0.200 F 
ENDBRANCH  52  66
BRANCH  53  77
ATOM     77  C   UNL A   1      40.229  28.636  30.144  1.00  0.00     0.064 A 
ATOM     78  C   UNL A   1      40.873  29.139  29.006  1.00  0.00     0.173 A 
ATOM     79  C   UNL A   1      39.535  27.422  30.022  1.00  0.00     0.173 A 
ATOM     80  F   UNL A   1      41.523  30.310  29.068  1.00  0.00    -0.203 F 
ATOM     81  C   UNL A   1      40.821  28.458  27.791  1.00  0.00     0.198 A 
ATOM     82  C   UNL A   1      39.503  26.732  28.812  1.00  0.00     0.198 A 
ATOM     83  F   UNL A   1      38.897  26.905  31.081  1.00  0.00    -0.203 F 
ATOM     84  F   UNL A   1      41.417  28.976  26.709  1.00  0.00    -0.200 F 
ATOM     85  C   UNL A   1      40.142  27.251  27.697  1.00  0.00     0.200 A 
ATOM     86  F   UNL A   1      38.850  25.564  28.727  1.00  0.00    -0.200 F 
ATOM     87  F   UNL A   1      40.097  26.595  26.530  1.00  0.00    -0.200 F 
ENDBRANCH  53  77
BRANCH  65  88
ATOM     88  C   UNL A   1      44.767  28.661  35.440  1.00  0.00     0.064 A 
ATOM     89  C   UNL A   1      46.024  29.170  35.081  1.00  0.00     0.173 A 
ATOM     90  C   UNL A   1      44.725  27.428  36.108  1.00  0.00     0.173 A 
ATOM     91  F   UNL A   1      46.116  30.339  34.429  1.00  0.00    -0.203 F 
ATOM     92  C   UNL A   1      47.190  28.465  35.366  1.00  0.00     0.198 A 
ATOM     93  C   UNL A   1      45.894  26.736  36.414  1.00  0.00     0.198 A 
ATOM     94  F   UNL A   1      43.548  26.900  36.479  1.00  0.00    -0.203 F 
ATOM     95  F   UNL A   1      48.378  28.953  34.983  1.00  0.00    -0.200 F 
ATOM     96  C   UNL A   1      47.125  27.253  36.038  1.00  0.00     0.200 A 
ATOM     97  F   UNL A   1      45.830  25.571  37.073  1.00  0.00    -0.200 F 
ATOM     98  F   UNL A   1      48.249  26.579  36.320  1.00  0.00    -0.200 F 
ENDBRANCH  65  88
ENDBRANCH  39  40
ENDBRANCH  32  34
ENDBRANCH  31  32
ENDBRANCH  30  31
ENDBRANCH  29  30
ENDBRANCH  28  29
ENDBRANCH  27  28
ENDBRANCH  26  27
ENDBRANCH   1  26
TORSDOF 22
ENDMDL
