MODEL 1
REMARK VINA RESULT:     -12.7      0.000      0.000
REMARK SMILES Cc1ccc([C@@H]2[C@H](C(=O)OCCOCCOCCOC(=O)c3ccc(-c4c5nc(c(-c6c(F)c(F)c(F)c(F)c6F)c6ccc([nH]6)c(-c6c(F)c(F)c(F)c(F)c6F)c6nc(c(-c7c(F)c(F)c(F)c(F)c7F)c7ccc4[nH]7)C=C6)C=C5)cc3)c3ccccc3C(=O)N2c2ccccc2)cc1
REMARK SMILES IDX 15 1 14 2 13 3 12 4 11 5 10 6 8 7 9 8 7 9 6 10 93 11 85 12
REMARK SMILES IDX 91 13 86 14 90 15 92 16 87 17 89 18 88 19 5 20 1 21 2 22
REMARK SMILES IDX 3 23 101 24 4 25 100 26 94 27 95 28 99 29 96 30 98 31 97 32
REMARK SMILES IDX 16 33 17 34 18 35 19 36 20 37 21 38 22 39 23 40 84 41 24 42
REMARK SMILES IDX 83 43 25 44 26 45 27 46 77 47 28 48 82 49 76 50 78 51 29 52
REMARK SMILES IDX 81 53 75 54 74 55 30 57 62 58 42 59 61 60 43 61 46 62 60 63
REMARK SMILES IDX 79 64 44 65 45 66 59 68 80 69 47 70 31 71 32 72 40 73 33 74
REMARK SMILES IDX 34 75 38 76 41 77 35 78 36 79 39 80 37 81 63 82 64 83 72 84
REMARK SMILES IDX 65 85 66 86 70 87 73 88 67 89 68 90 71 91 69 92 48 93 49 94
REMARK SMILES IDX 57 95 50 96 51 97 55 98 58 99 52 100 53 101 56 102 54 103
REMARK H PARENT 78 56 46 67
REMARK Flexibility Score: inf
ROOT
ATOM      1  C   UNL A   1      36.637  22.197  23.677  1.00  0.00     0.188 C 
ENDROOT
BRANCH   1   2
ATOM      2  C   UNL A   1      35.560  23.229  23.356  1.00  0.00     0.188 C 
BRANCH   2   3
ATOM      3  O   UNL A   1      34.276  22.671  23.157  1.00  0.00    -0.376 OA
BRANCH   3   4
ATOM      4  C   UNL A   1      33.474  23.345  22.183  1.00  0.00     0.202 C 
BRANCH   4   5
ATOM      5  C   UNL A   1      32.827  24.688  22.620  1.00  0.00     0.261 C 
BRANCH   5   6
ATOM      6  O   UNL A   1      33.515  26.128  22.927  1.00  0.00    -0.463 OA
BRANCH   6   7
ATOM      7  C   UNL A   1      33.899  26.919  24.039  1.00  0.00     0.316 C 
ATOM      8  O   UNL A   1      34.219  28.101  23.861  1.00  0.00    -0.251 OA
BRANCH   7   9
ATOM      9  C   UNL A   1      33.722  26.509  25.565  1.00  0.00     0.157 C 
ATOM     10  C   UNL A   1      32.870  27.541  26.342  1.00  0.00     0.140 C 
ATOM     11  N   UNL A   1      31.461  27.374  25.939  1.00  0.00    -0.300 N 
ATOM     12  C   UNL A   1      33.209  25.146  26.080  1.00  0.00    -0.019 A 
ATOM     13  C   UNL A   1      30.914  26.173  26.447  1.00  0.00     0.259 C 
ATOM     14  C   UNL A   1      34.071  24.037  26.245  1.00  0.00     0.005 A 
ATOM     15  C   UNL A   1      31.849  24.993  26.441  1.00  0.00     0.044 A 
ATOM     16  O   UNL A   1      29.749  26.026  26.820  1.00  0.00    -0.269 OA
ATOM     17  C   UNL A   1      33.553  22.774  26.563  1.00  0.00     0.000 A 
ATOM     18  C   UNL A   1      31.348  23.730  26.782  1.00  0.00     0.014 A 
ATOM     19  C   UNL A   1      32.189  22.617  26.805  1.00  0.00     0.001 A 
BRANCH  10  20
ATOM     20  C   UNL A   1      33.565  28.842  26.746  1.00  0.00    -0.024 A 
ATOM     21  C   UNL A   1      34.821  32.366  28.912  1.00  0.00     0.044 C 
ATOM     22  C   UNL A   1      34.453  31.230  28.007  1.00  0.00    -0.051 A 
ATOM     23  C   UNL A   1      35.307  30.141  27.829  1.00  0.00     0.004 A 
ATOM     24  C   UNL A   1      33.208  31.196  27.390  1.00  0.00     0.004 A 
ATOM     25  C   UNL A   1      34.883  28.981  27.163  1.00  0.00     0.006 A 
ATOM     26  C   UNL A   1      32.767  30.015  26.787  1.00  0.00     0.006 A 
ENDBRANCH  10  20
BRANCH  11  27
ATOM     27  C   UNL A   1      30.912  27.831  24.680  1.00  0.00     0.045 A 
ATOM     28  C   UNL A   1      30.919  29.192  24.323  1.00  0.00     0.026 A 
ATOM     29  C   UNL A   1      30.137  27.004  23.882  1.00  0.00     0.026 A 
ATOM     30  C   UNL A   1      30.171  29.690  23.245  1.00  0.00     0.002 A 
ATOM     31  C   UNL A   1      29.280  27.532  22.923  1.00  0.00     0.002 A 
ATOM     32  C   UNL A   1      29.348  28.846  22.529  1.00  0.00     0.000 A 
ENDBRANCH  11  27
ENDBRANCH   7   9
ENDBRANCH   6   7
ENDBRANCH   5   6
ENDBRANCH   4   5
ENDBRANCH   3   4
ENDBRANCH   2   3
ENDBRANCH   1   2
BRANCH   1  33
ATOM     33  O   UNL A   1      36.673  21.785  25.046  1.00  0.00    -0.376 OA
BRANCH  33  34
ATOM     34  C   UNL A   1      37.356  22.742  25.877  1.00  0.00     0.202 C 
BRANCH  34  35
ATOM     35  C   UNL A   1      38.884  22.611  25.824  1.00  0.00     0.261 C 
BRANCH  35  36
ATOM     36  O   UNL A   1      39.248  21.501  26.663  1.00  0.00    -0.460 OA
BRANCH  36  37
ATOM     37  C   UNL A   1      40.505  21.071  26.427  1.00  0.00     0.338 C 
ATOM     38  O   UNL A   1      40.823  19.910  26.219  1.00  0.00    -0.246 OA
BRANCH  37  39
ATOM     39  C   UNL A   1      41.462  22.160  26.759  1.00  0.00     0.060 A 
ATOM     40  C   UNL A   1      41.396  22.606  28.043  1.00  0.00     0.016 A 
ATOM     41  C   UNL A   1      42.259  22.897  25.869  1.00  0.00     0.016 A 
ATOM     42  C   UNL A   1      42.047  23.800  28.366  1.00  0.00     0.010 A 
ATOM     43  C   UNL A   1      42.851  24.150  26.244  1.00  0.00     0.010 A 
ATOM     44  C   UNL A   1      42.695  24.698  27.521  1.00  0.00    -0.014 A 
BRANCH  44  45
ATOM     45  C   UNL A   1      43.147  26.173  27.870  1.00  0.00     0.031 A 
ATOM     46  C   UNL A   1      42.041  27.161  27.728  1.00  0.00     0.074 A 
ATOM     47  C   UNL A   1      44.335  26.779  28.343  1.00  0.00     0.049 A 
ATOM     48  N   UNL A   1      42.176  28.446  27.813  1.00  0.00    -0.248 NA
ATOM     49  C   UNL A   1      40.669  26.774  27.363  1.00  0.00     0.031 C 
ATOM     50  C   UNL A   1      44.387  27.686  29.497  1.00  0.00     0.029 A 
ATOM     51  N   UNL A   1      45.749  26.660  28.104  1.00  0.00    -0.354 N 
ATOM     52  C   UNL A   1      40.917  28.876  28.151  1.00  0.00     0.074 A 
ATOM     53  C   UNL A   1      40.046  27.948  27.491  1.00  0.00     0.031 C 
ATOM     54  C   UNL A   1      45.651  28.090  29.749  1.00  0.00     0.029 A 
ATOM     55  C   UNL A   1      46.572  27.591  28.737  1.00  0.00     0.049 A 
ATOM     56  H   UNL A   1      46.117  25.956  27.522  1.00  0.00     0.167 HD
ATOM     57  C   UNL A   1      40.792  29.653  29.269  1.00  0.00     0.037 A 
ATOM     58  C   UNL A   1      47.697  28.200  28.209  1.00  0.00     0.037 A 
ATOM     59  C   UNL A   1      42.068  30.297  29.657  1.00  0.00     0.049 A 
ATOM     60  C   UNL A   1      47.383  29.674  27.989  1.00  0.00     0.074 A 
ATOM     61  C   UNL A   1      42.810  30.436  30.821  1.00  0.00     0.029 A 
ATOM     62  N   UNL A   1      42.901  30.793  28.659  1.00  0.00    -0.354 N 
ATOM     63  N   UNL A   1      46.383  30.252  28.584  1.00  0.00    -0.248 NA
ATOM     64  C   UNL A   1      48.012  30.574  27.013  1.00  0.00     0.031 C 
ATOM     65  C   UNL A   1      44.026  31.120  30.514  1.00  0.00     0.029 A 
ATOM     66  C   UNL A   1      44.025  31.405  29.164  1.00  0.00     0.049 A 
ATOM     67  H   UNL A   1      42.707  30.713  27.697  1.00  0.00     0.167 HD
ATOM     68  C   UNL A   1      46.078  31.414  27.945  1.00  0.00     0.074 A 
ATOM     69  C   UNL A   1      47.144  31.599  26.985  1.00  0.00     0.031 C 
ATOM     70  C   UNL A   1      44.924  32.074  28.234  1.00  0.00     0.037 A 
BRANCH  57  71
ATOM     71  C   UNL A   1      39.553  29.642  30.170  1.00  0.00     0.064 A 
ATOM     72  C   UNL A   1      38.756  30.802  30.282  1.00  0.00     0.173 A 
ATOM     73  C   UNL A   1      39.142  28.590  31.028  1.00  0.00     0.173 A 
ATOM     74  F   UNL A   1      38.975  31.876  29.513  1.00  0.00    -0.203 F 
ATOM     75  C   UNL A   1      37.696  30.915  31.189  1.00  0.00     0.198 A 
ATOM     76  C   UNL A   1      38.041  28.681  31.885  1.00  0.00     0.198 A 
ATOM     77  F   UNL A   1      39.791  27.430  31.135  1.00  0.00    -0.203 F 
ATOM     78  F   UNL A   1      37.036  32.077  31.295  1.00  0.00    -0.200 F 
ATOM     79  C   UNL A   1      37.329  29.850  31.982  1.00  0.00     0.200 A 
ATOM     80  F   UNL A   1      37.704  27.623  32.638  1.00  0.00    -0.200 F 
ATOM     81  F   UNL A   1      36.305  29.951  32.839  1.00  0.00    -0.200 F 
ENDBRANCH  57  71
BRANCH  58  82
ATOM     82  C   UNL A   1      48.818  27.480  27.469  1.00  0.00     0.064 A 
ATOM     83  C   UNL A   1      49.923  26.967  28.187  1.00  0.00     0.173 A 
ATOM     84  C   UNL A   1      48.889  27.268  26.078  1.00  0.00     0.173 A 
ATOM     85  F   UNL A   1      49.991  27.143  29.514  1.00  0.00    -0.203 F 
ATOM     86  C   UNL A   1      50.956  26.220  27.577  1.00  0.00     0.198 A 
ATOM     87  C   UNL A   1      49.935  26.551  25.456  1.00  0.00     0.198 A 
ATOM     88  F   UNL A   1      47.901  27.685  25.285  1.00  0.00    -0.203 F 
ATOM     89  F   UNL A   1      51.896  25.632  28.332  1.00  0.00    -0.200 F 
ATOM     90  C   UNL A   1      50.955  26.000  26.210  1.00  0.00     0.200 A 
ATOM     91  F   UNL A   1      49.877  26.298  24.138  1.00  0.00    -0.200 F 
ATOM     92  F   UNL A   1      51.850  25.173  25.648  1.00  0.00    -0.200 F 
ENDBRANCH  58  82
BRANCH  70  93
ATOM     93  C   UNL A   1      44.536  33.404  27.662  1.00  0.00     0.064 A 
ATOM     94  C   UNL A   1      44.531  34.578  28.428  1.00  0.00     0.173 A 
ATOM     95  C   UNL A   1      43.980  33.511  26.367  1.00  0.00     0.173 A 
ATOM     96  F   UNL A   1      44.954  34.581  29.700  1.00  0.00    -0.203 F 
ATOM     97  C   UNL A   1      44.039  35.781  27.921  1.00  0.00     0.198 A 
ATOM     98  C   UNL A   1      43.432  34.694  25.888  1.00  0.00     0.198 A 
ATOM     99  F   UNL A   1      43.954  32.477  25.514  1.00  0.00    -0.203 F 
ATOM    100  F   UNL A   1      44.094  36.888  28.673  1.00  0.00    -0.200 F 
ATOM    101  C   UNL A   1      43.473  35.834  26.660  1.00  0.00     0.200 A 
ATOM    102  F   UNL A   1      42.860  34.715  24.676  1.00  0.00    -0.200 F 
ATOM    103  F   UNL A   1      42.961  36.979  26.193  1.00  0.00    -0.200 F 
ENDBRANCH  70  93
ENDBRANCH  44  45
ENDBRANCH  37  39
ENDBRANCH  36  37
ENDBRANCH  35  36
ENDBRANCH  34  35
ENDBRANCH  33  34
ENDBRANCH   1  33
TORSDOF 19
ENDMDL
MODEL 2
REMARK VINA RESULT:     -12.6      1.027      2.907
REMARK SMILES Cc1ccc([C@@H]2[C@H](C(=O)OCCOCCOCCOC(=O)c3ccc(-c4c5nc(c(-c6c(F)c(F)c(F)c(F)c6F)c6ccc([nH]6)c(-c6c(F)c(F)c(F)c(F)c6F)c6nc(c(-c7c(F)c(F)c(F)c(F)c7F)c7ccc4[nH]7)C=C6)C=C5)cc3)c3ccccc3C(=O)N2c2ccccc2)cc1
REMARK SMILES IDX 15 1 14 2 13 3 12 4 11 5 10 6 8 7 9 8 7 9 6 10 93 11 85 12
REMARK SMILES IDX 91 13 86 14 90 15 92 16 87 17 89 18 88 19 5 20 1 21 2 22
REMARK SMILES IDX 3 23 101 24 4 25 100 26 94 27 95 28 99 29 96 30 98 31 97 32
REMARK SMILES IDX 16 33 17 34 18 35 19 36 20 37 21 38 22 39 23 40 84 41 24 42
REMARK SMILES IDX 83 43 25 44 26 45 27 46 77 47 28 48 82 49 76 50 78 51 29 52
REMARK SMILES IDX 81 53 75 54 74 55 30 57 62 58 42 59 61 60 43 61 46 62 60 63
REMARK SMILES IDX 79 64 44 65 45 66 59 68 80 69 47 70 31 71 32 72 40 73 33 74
REMARK SMILES IDX 34 75 38 76 41 77 35 78 36 79 39 80 37 81 63 82 64 83 72 84
REMARK SMILES IDX 65 85 66 86 70 87 73 88 67 89 68 90 71 91 69 92 48 93 49 94
REMARK SMILES IDX 57 95 50 96 51 97 55 98 58 99 52 100 53 101 56 102 54 103
REMARK H PARENT 78 56 46 67
REMARK Flexibility Score: inf
ROOT
ATOM      1  C   UNL A   1      35.233  22.288  25.192  1.00  0.00     0.188 C 
ENDROOT
BRANCH   1   2
ATOM      2  C   UNL A   1      34.813  23.642  25.756  1.00  0.00     0.188 C 
BRANCH   2   3
ATOM      3  O   UNL A   1      33.966  23.552  26.885  1.00  0.00    -0.376 OA
BRANCH   3   4
ATOM      4  C   UNL A   1      32.647  23.069  26.607  1.00  0.00     0.202 C 
BRANCH   4   5
ATOM      5  C   UNL A   1      31.471  24.032  26.926  1.00  0.00     0.261 C 
BRANCH   5   6
ATOM      6  O   UNL A   1      31.258  25.592  26.521  1.00  0.00    -0.463 OA
BRANCH   6   7
ATOM      7  C   UNL A   1      30.703  26.361  25.467  1.00  0.00     0.316 C 
ATOM      8  O   UNL A   1      30.393  27.540  25.675  1.00  0.00    -0.251 OA
BRANCH   7   9
ATOM      9  C   UNL A   1      30.662  25.931  23.937  1.00  0.00     0.157 C 
ATOM     10  C   UNL A   1      31.091  27.089  23.004  1.00  0.00     0.140 C 
ATOM     11  N   UNL A   1      32.553  27.253  23.113  1.00  0.00    -0.300 N 
ATOM     12  C   UNL A   1      31.356  24.692  23.328  1.00  0.00    -0.019 A 
ATOM     13  C   UNL A   1      33.243  26.180  22.504  1.00  0.00     0.259 C 
ATOM     14  C   UNL A   1      30.749  23.415  23.340  1.00  0.00     0.005 A 
ATOM     15  C   UNL A   1      32.616  24.825  22.698  1.00  0.00     0.044 A 
ATOM     16  O   UNL A   1      34.315  26.276  21.903  1.00  0.00    -0.269 OA
ATOM     17  C   UNL A   1      31.463  22.283  22.923  1.00  0.00     0.000 A 
ATOM     18  C   UNL A   1      33.311  23.689  22.263  1.00  0.00     0.014 A 
ATOM     19  C   UNL A   1      32.752  22.419  22.411  1.00  0.00     0.001 A 
BRANCH  10  20
ATOM     20  C   UNL A   1      30.057  28.186  22.749  1.00  0.00    -0.024 A 
ATOM     21  C   UNL A   1      27.191  31.380  23.276  1.00  0.00     0.044 C 
ATOM     22  C   UNL A   1      28.106  30.246  22.923  1.00  0.00    -0.051 A 
ATOM     23  C   UNL A   1      29.356  30.477  22.350  1.00  0.00     0.004 A 
ATOM     24  C   UNL A   1      27.760  28.939  23.243  1.00  0.00     0.004 A 
ATOM     25  C   UNL A   1      30.301  29.447  22.219  1.00  0.00     0.006 A 
ATOM     26  C   UNL A   1      28.727  27.931  23.173  1.00  0.00     0.006 A 
ENDBRANCH  10  20
BRANCH  11  27
ATOM     27  C   UNL A   1      33.223  27.876  24.234  1.00  0.00     0.045 A 
ATOM     28  C   UNL A   1      33.855  27.111  25.233  1.00  0.00     0.026 A 
ATOM     29  C   UNL A   1      33.069  29.224  24.516  1.00  0.00     0.026 A 
ATOM     30  C   UNL A   1      34.280  27.668  26.449  1.00  0.00     0.002 A 
ATOM     31  C   UNL A   1      33.347  29.727  25.783  1.00  0.00     0.002 A 
ATOM     32  C   UNL A   1      34.031  28.996  26.723  1.00  0.00     0.000 A 
ENDBRANCH  11  27
ENDBRANCH   7   9
ENDBRANCH   6   7
ENDBRANCH   5   6
ENDBRANCH   4   5
ENDBRANCH   3   4
ENDBRANCH   2   3
ENDBRANCH   1   2
BRANCH   1  33
ATOM     33  O   UNL A   1      36.169  21.574  26.002  1.00  0.00    -0.376 OA
BRANCH  33  34
ATOM     34  C   UNL A   1      37.365  21.239  25.274  1.00  0.00     0.202 C 
BRANCH  34  35
ATOM     35  C   UNL A   1      38.571  22.108  25.655  1.00  0.00     0.261 C 
BRANCH  35  36
ATOM     36  O   UNL A   1      39.272  21.428  26.712  1.00  0.00    -0.460 OA
BRANCH  36  37
ATOM     37  C   UNL A   1      40.518  21.062  26.348  1.00  0.00     0.338 C 
ATOM     38  O   UNL A   1      40.853  19.933  26.023  1.00  0.00    -0.246 OA
BRANCH  37  39
ATOM     39  C   UNL A   1      41.465  22.156  26.693  1.00  0.00     0.060 A 
ATOM     40  C   UNL A   1      41.402  22.578  27.986  1.00  0.00     0.016 A 
ATOM     41  C   UNL A   1      42.250  22.916  25.813  1.00  0.00     0.016 A 
ATOM     42  C   UNL A   1      42.043  23.774  28.326  1.00  0.00     0.010 A 
ATOM     43  C   UNL A   1      42.832  24.168  26.206  1.00  0.00     0.010 A 
ATOM     44  C   UNL A   1      42.677  24.692  27.493  1.00  0.00    -0.014 A 
BRANCH  44  45
ATOM     45  C   UNL A   1      43.115  26.166  27.865  1.00  0.00     0.031 A 
ATOM     46  C   UNL A   1      42.020  27.157  27.671  1.00  0.00     0.074 A 
ATOM     47  C   UNL A   1      44.282  26.768  28.395  1.00  0.00     0.049 A 
ATOM     48  N   UNL A   1      42.155  28.442  27.764  1.00  0.00    -0.248 NA
ATOM     49  C   UNL A   1      40.667  26.774  27.240  1.00  0.00     0.031 C 
ATOM     50  C   UNL A   1      44.281  27.673  29.552  1.00  0.00     0.029 A 
ATOM     51  N   UNL A   1      45.705  26.645  28.224  1.00  0.00    -0.354 N 
ATOM     52  C   UNL A   1      40.882  28.875  28.042  1.00  0.00     0.074 A 
ATOM     53  C   UNL A   1      40.042  27.950  27.340  1.00  0.00     0.031 C 
ATOM     54  C   UNL A   1      45.532  28.073  29.865  1.00  0.00     0.029 A 
ATOM     55  C   UNL A   1      46.499  27.574  28.897  1.00  0.00     0.049 A 
ATOM     56  H   UNL A   1      46.099  25.941  27.660  1.00  0.00     0.167 HD
ATOM     57  C   UNL A   1      40.706  29.651  29.153  1.00  0.00     0.037 A 
ATOM     58  C   UNL A   1      47.650  28.180  28.425  1.00  0.00     0.037 A 
ATOM     59  C   UNL A   1      41.963  30.291  29.603  1.00  0.00     0.049 A 
ATOM     60  C   UNL A   1      47.351  29.655  28.192  1.00  0.00     0.074 A 
ATOM     61  C   UNL A   1      42.649  30.426  30.802  1.00  0.00     0.029 A 
ATOM     62  N   UNL A   1      42.845  30.785  28.647  1.00  0.00    -0.354 N 
ATOM     63  N   UNL A   1      46.325  30.235  28.738  1.00  0.00    -0.248 NA
ATOM     64  C   UNL A   1      48.029  30.555  27.249  1.00  0.00     0.031 C 
ATOM     65  C   UNL A   1      43.881  31.107  30.555  1.00  0.00     0.029 A 
ATOM     66  C   UNL A   1      43.945  31.394  29.206  1.00  0.00     0.049 A 
ATOM     67  H   UNL A   1      42.697  30.708  27.677  1.00  0.00     0.167 HD
ATOM     68  C   UNL A   1      46.054  31.399  28.087  1.00  0.00     0.074 A 
ATOM     69  C   UNL A   1      47.165  31.581  27.180  1.00  0.00     0.031 C 
ATOM     70  C   UNL A   1      44.890  32.062  28.321  1.00  0.00     0.037 A 
BRANCH  57  71
ATOM     71  C   UNL A   1      39.425  29.642  29.994  1.00  0.00     0.064 A 
ATOM     72  C   UNL A   1      38.432  30.621  29.771  1.00  0.00     0.173 A 
ATOM     73  C   UNL A   1      39.141  28.790  31.092  1.00  0.00     0.173 A 
ATOM     74  F   UNL A   1      38.517  31.481  28.748  1.00  0.00    -0.203 F 
ATOM     75  C   UNL A   1      37.305  30.765  30.589  1.00  0.00     0.198 A 
ATOM     76  C   UNL A   1      37.982  28.893  31.866  1.00  0.00     0.198 A 
ATOM     77  F   UNL A   1      39.973  27.841  31.522  1.00  0.00    -0.203 F 
ATOM     78  F   UNL A   1      36.448  31.770  30.363  1.00  0.00    -0.200 F 
ATOM     79  C   UNL A   1      37.072  29.893  31.629  1.00  0.00     0.200 A 
ATOM     80  F   UNL A   1      37.779  28.023  32.867  1.00  0.00    -0.200 F 
ATOM     81  F   UNL A   1      35.986  30.018  32.402  1.00  0.00    -0.200 F 
ENDBRANCH  57  71
BRANCH  58  82
ATOM     82  C   UNL A   1      48.803  27.458  27.739  1.00  0.00     0.064 A 
ATOM     83  C   UNL A   1      49.915  27.022  28.496  1.00  0.00     0.173 A 
ATOM     84  C   UNL A   1      48.900  27.172  26.362  1.00  0.00     0.173 A 
ATOM     85  F   UNL A   1      49.959  27.273  29.812  1.00  0.00    -0.203 F 
ATOM     86  C   UNL A   1      50.979  26.276  27.941  1.00  0.00     0.198 A 
ATOM     87  C   UNL A   1      49.976  26.456  25.793  1.00  0.00     0.198 A 
ATOM     88  F   UNL A   1      47.908  27.512  25.536  1.00  0.00    -0.203 F 
ATOM     89  F   UNL A   1      51.928  25.762  28.738  1.00  0.00    -0.200 F 
ATOM     90  C   UNL A   1      51.003  25.982  26.588  1.00  0.00     0.200 A 
ATOM     91  F   UNL A   1      49.944  26.129  24.491  1.00  0.00    -0.200 F 
ATOM     92  F   UNL A   1      51.931  25.155  26.083  1.00  0.00    -0.200 F 
ENDBRANCH  58  82
BRANCH  70  93
ATOM     93  C   UNL A   1      44.533  33.394  27.733  1.00  0.00     0.064 A 
ATOM     94  C   UNL A   1      44.530  34.572  28.492  1.00  0.00     0.173 A 
ATOM     95  C   UNL A   1      44.006  33.499  26.426  1.00  0.00     0.173 A 
ATOM     96  F   UNL A   1      44.926  34.577  29.772  1.00  0.00    -0.203 F 
ATOM     97  C   UNL A   1      44.066  35.779  27.966  1.00  0.00     0.198 A 
ATOM     98  C   UNL A   1      43.486  34.688  25.928  1.00  0.00     0.198 A 
ATOM     99  F   UNL A   1      43.982  32.461  25.580  1.00  0.00    -0.203 F 
ATOM    100  F   UNL A   1      44.121  36.890  28.713  1.00  0.00    -0.200 F 
ATOM    101  C   UNL A   1      43.527  35.832  26.693  1.00  0.00     0.200 A 
ATOM    102  F   UNL A   1      42.939  34.709  24.704  1.00  0.00    -0.200 F 
ATOM    103  F   UNL A   1      43.041  36.981  26.209  1.00  0.00    -0.200 F 
ENDBRANCH  70  93
ENDBRANCH  44  45
ENDBRANCH  37  39
ENDBRANCH  36  37
ENDBRANCH  35  36
ENDBRANCH  34  35
ENDBRANCH  33  34
ENDBRANCH   1  33
TORSDOF 19
ENDMDL
MODEL 3
REMARK VINA RESULT:     -11.8      5.647     11.232
REMARK SMILES Cc1ccc([C@@H]2[C@H](C(=O)OCCOCCOCCOC(=O)c3ccc(-c4c5nc(c(-c6c(F)c(F)c(F)c(F)c6F)c6ccc([nH]6)c(-c6c(F)c(F)c(F)c(F)c6F)c6nc(c(-c7c(F)c(F)c(F)c(F)c7F)c7ccc4[nH]7)C=C6)C=C5)cc3)c3ccccc3C(=O)N2c2ccccc2)cc1
REMARK SMILES IDX 15 1 14 2 13 3 12 4 11 5 10 6 8 7 9 8 7 9 6 10 93 11 85 12
REMARK SMILES IDX 91 13 86 14 90 15 92 16 87 17 89 18 88 19 5 20 1 21 2 22
REMARK SMILES IDX 3 23 101 24 4 25 100 26 94 27 95 28 99 29 96 30 98 31 97 32
REMARK SMILES IDX 16 33 17 34 18 35 19 36 20 37 21 38 22 39 23 40 84 41 24 42
REMARK SMILES IDX 83 43 25 44 26 45 27 46 77 47 28 48 82 49 76 50 78 51 29 52
REMARK SMILES IDX 81 53 75 54 74 55 30 57 62 58 42 59 61 60 43 61 46 62 60 63
REMARK SMILES IDX 79 64 44 65 45 66 59 68 80 69 47 70 31 71 32 72 40 73 33 74
REMARK SMILES IDX 34 75 38 76 41 77 35 78 36 79 39 80 37 81 63 82 64 83 72 84
REMARK SMILES IDX 65 85 66 86 70 87 73 88 67 89 68 90 71 91 69 92 48 93 49 94
REMARK SMILES IDX 57 95 50 96 51 97 55 98 58 99 52 100 53 101 56 102 54 103
REMARK H PARENT 78 56 46 67
REMARK Flexibility Score: inf
ROOT
ATOM      1  C   UNL A   1      48.670  25.852  33.770  1.00  0.00     0.188 C 
ENDROOT
BRANCH   1   2
ATOM      2  C   UNL A   1      49.924  25.842  32.902  1.00  0.00     0.188 C 
BRANCH   2   3
ATOM      3  O   UNL A   1      49.860  24.936  31.818  1.00  0.00    -0.376 OA
BRANCH   3   4
ATOM      4  C   UNL A   1      49.456  25.516  30.575  1.00  0.00     0.202 C 
BRANCH   4   5
ATOM      5  C   UNL A   1      47.933  25.752  30.378  1.00  0.00     0.261 C 
BRANCH   5   6
ATOM      6  O   UNL A   1      47.027  25.657  29.032  1.00  0.00    -0.463 OA
BRANCH   6   7
ATOM      7  C   UNL A   1      46.238  24.708  28.334  1.00  0.00     0.316 C 
ATOM      8  O   UNL A   1      45.651  23.823  28.969  1.00  0.00    -0.251 OA
BRANCH   7   9
ATOM      9  C   UNL A   1      45.817  24.808  26.804  1.00  0.00     0.157 C 
ATOM     10  C   UNL A   1      44.318  25.158  26.643  1.00  0.00     0.140 C 
ATOM     11  N   UNL A   1      44.137  26.582  26.979  1.00  0.00    -0.300 N 
ATOM     12  C   UNL A   1      46.514  25.673  25.730  1.00  0.00    -0.019 A 
ATOM     13  C   UNL A   1      44.693  27.425  25.989  1.00  0.00     0.259 C 
ATOM     14  C   UNL A   1      47.651  25.214  25.025  1.00  0.00     0.005 A 
ATOM     15  C   UNL A   1      45.992  26.945  25.398  1.00  0.00     0.044 A 
ATOM     16  O   UNL A   1      44.230  28.513  25.642  1.00  0.00    -0.269 OA
ATOM     17  C   UNL A   1      48.354  26.076  24.172  1.00  0.00     0.000 A 
ATOM     18  C   UNL A   1      46.691  27.789  24.524  1.00  0.00     0.014 A 
ATOM     19  C   UNL A   1      47.889  27.370  23.944  1.00  0.00     0.001 A 
BRANCH  10  20
ATOM     20  C   UNL A   1      43.318  24.023  26.869  1.00  0.00    -0.024 A 
ATOM     21  C   UNL A   1      41.521  20.120  27.339  1.00  0.00     0.044 C 
ATOM     22  C   UNL A   1      41.968  21.537  27.144  1.00  0.00    -0.051 A 
ATOM     23  C   UNL A   1      42.128  22.400  28.228  1.00  0.00     0.004 A 
ATOM     24  C   UNL A   1      42.320  21.996  25.880  1.00  0.00     0.004 A 
ATOM     25  C   UNL A   1      42.751  23.649  28.081  1.00  0.00     0.006 A 
ATOM     26  C   UNL A   1      42.999  23.211  25.750  1.00  0.00     0.006 A 
ENDBRANCH  10  20
BRANCH  11  27
ATOM     27  C   UNL A   1      44.141  27.110  28.327  1.00  0.00     0.045 A 
ATOM     28  C   UNL A   1      45.008  28.151  28.710  1.00  0.00     0.026 A 
ATOM     29  C   UNL A   1      43.481  26.465  29.362  1.00  0.00     0.026 A 
ATOM     30  C   UNL A   1      45.215  28.499  30.054  1.00  0.00     0.002 A 
ATOM     31  C   UNL A   1      43.817  26.712  30.689  1.00  0.00     0.002 A 
ATOM     32  C   UNL A   1      44.604  27.776  31.055  1.00  0.00     0.000 A 
ENDBRANCH  11  27
ENDBRANCH   7   9
ENDBRANCH   6   7
ENDBRANCH   5   6
ENDBRANCH   4   5
ENDBRANCH   3   4
ENDBRANCH   2   3
ENDBRANCH   1   2
BRANCH   1  33
ATOM     33  O   UNL A   1      48.924  25.854  35.177  1.00  0.00    -0.376 OA
BRANCH  33  34
ATOM     34  C   UNL A   1      48.287  24.745  35.840  1.00  0.00     0.202 C 
BRANCH  34  35
ATOM     35  C   UNL A   1      46.880  24.445  35.305  1.00  0.00     0.261 C 
BRANCH  35  36
ATOM     36  O   UNL A   1      45.953  25.229  36.076  1.00  0.00    -0.460 OA
BRANCH  36  37
ATOM     37  C   UNL A   1      44.674  24.851  35.877  1.00  0.00     0.338 C 
ATOM     38  O   UNL A   1      44.300  23.702  35.690  1.00  0.00    -0.246 OA
BRANCH  37  39
ATOM     39  C   UNL A   1      43.844  26.058  35.622  1.00  0.00     0.060 A 
ATOM     40  C   UNL A   1      42.549  25.800  35.289  1.00  0.00     0.016 A 
ATOM     41  C   UNL A   1      44.283  27.385  35.489  1.00  0.00     0.016 A 
ATOM     42  C   UNL A   1      41.778  26.841  34.763  1.00  0.00     0.010 A 
ATOM     43  C   UNL A   1      43.464  28.396  34.883  1.00  0.00     0.010 A 
ATOM     44  C   UNL A   1      42.173  28.131  34.414  1.00  0.00    -0.014 A 
BRANCH  44  45
ATOM     45  C   UNL A   1      41.358  29.171  33.545  1.00  0.00     0.031 A 
ATOM     46  C   UNL A   1      40.560  30.114  34.376  1.00  0.00     0.074 A 
ATOM     47  C   UNL A   1      41.248  29.463  32.164  1.00  0.00     0.049 A 
ATOM     48  N   UNL A   1      39.699  30.965  33.916  1.00  0.00    -0.248 NA
ATOM     49  C   UNL A   1      40.591  30.102  35.847  1.00  0.00     0.031 C 
ATOM     50  C   UNL A   1      41.405  30.810  31.599  1.00  0.00     0.029 A 
ATOM     51  N   UNL A   1      41.157  28.726  30.932  1.00  0.00    -0.354 N 
ATOM     52  C   UNL A   1      39.636  31.918  34.903  1.00  0.00     0.074 A 
ATOM     53  C   UNL A   1      39.845  31.177  36.112  1.00  0.00     0.031 C 
ATOM     54  C   UNL A   1      41.284  30.796  30.254  1.00  0.00     0.029 A 
ATOM     55  C   UNL A   1      40.927  29.469  29.774  1.00  0.00     0.049 A 
ATOM     56  H   UNL A   1      41.252  27.747  30.908  1.00  0.00     0.167 HD
ATOM     57  C   UNL A   1      39.862  33.217  34.544  1.00  0.00     0.037 A 
ATOM     58  C   UNL A   1      40.115  29.117  28.709  1.00  0.00     0.037 A 
ATOM     59  C   UNL A   1      39.664  33.447  33.094  1.00  0.00     0.049 A 
ATOM     60  C   UNL A   1      38.909  30.047  28.702  1.00  0.00     0.074 A 
ATOM     61  C   UNL A   1      40.373  34.053  32.067  1.00  0.00     0.029 A 
ATOM     62  N   UNL A   1      38.607  32.811  32.451  1.00  0.00    -0.354 N 
ATOM     63  N   UNL A   1      38.917  31.177  29.345  1.00  0.00    -0.248 NA
ATOM     64  C   UNL A   1      37.579  29.763  28.146  1.00  0.00     0.031 C 
ATOM     65  C   UNL A   1      39.661  33.867  30.842  1.00  0.00     0.029 A 
ATOM     66  C   UNL A   1      38.514  33.152  31.121  1.00  0.00     0.049 A 
ATOM     67  H   UNL A   1      37.992  32.186  32.900  1.00  0.00     0.167 HD
ATOM     68  C   UNL A   1      37.642  31.619  29.512  1.00  0.00     0.074 A 
ATOM     69  C   UNL A   1      36.832  30.723  28.718  1.00  0.00     0.031 C 
ATOM     70  C   UNL A   1      37.379  32.652  30.357  1.00  0.00     0.037 A 
BRANCH  57  71
ATOM     71  C   UNL A   1      40.508  34.249  35.473  1.00  0.00     0.064 A 
ATOM     72  C   UNL A   1      39.724  34.901  36.451  1.00  0.00     0.173 A 
ATOM     73  C   UNL A   1      41.841  34.730  35.406  1.00  0.00     0.173 A 
ATOM     74  F   UNL A   1      38.455  34.543  36.682  1.00  0.00    -0.203 F 
ATOM     75  C   UNL A   1      40.207  35.953  37.239  1.00  0.00     0.198 A 
ATOM     76  C   UNL A   1      42.340  35.735  36.240  1.00  0.00     0.198 A 
ATOM     77  F   UNL A   1      42.733  34.304  34.511  1.00  0.00    -0.203 F 
ATOM     78  F   UNL A   1      39.380  36.577  38.089  1.00  0.00    -0.200 F 
ATOM     79  C   UNL A   1      41.519  36.363  37.143  1.00  0.00     0.200 A 
ATOM     80  F   UNL A   1      43.625  36.105  36.128  1.00  0.00    -0.200 F 
ATOM     81  F   UNL A   1      41.987  37.358  37.907  1.00  0.00    -0.200 F 
ENDBRANCH  57  71
BRANCH  58  82
ATOM     82  C   UNL A   1      40.106  27.755  28.026  1.00  0.00     0.064 A 
ATOM     83  C   UNL A   1      39.444  26.664  28.633  1.00  0.00     0.173 A 
ATOM     84  C   UNL A   1      40.725  27.440  26.800  1.00  0.00     0.173 A 
ATOM     85  F   UNL A   1      38.852  26.829  29.825  1.00  0.00    -0.203 F 
ATOM     86  C   UNL A   1      39.326  25.397  28.019  1.00  0.00     0.198 A 
ATOM     87  C   UNL A   1      40.641  26.167  26.194  1.00  0.00     0.198 A 
ATOM     88  F   UNL A   1      41.368  28.385  26.110  1.00  0.00    -0.203 F 
ATOM     89  F   UNL A   1      38.559  24.448  28.576  1.00  0.00    -0.200 F 
ATOM     90  C   UNL A   1      39.915  25.152  26.790  1.00  0.00     0.200 A 
ATOM     91  F   UNL A   1      41.166  25.974  24.973  1.00  0.00    -0.200 F 
ATOM     92  F   UNL A   1      39.685  24.002  26.137  1.00  0.00    -0.200 F 
ENDBRANCH  58  82
BRANCH  70  93
ATOM     93  C   UNL A   1      36.031  33.279  30.545  1.00  0.00     0.064 A 
ATOM     94  C   UNL A   1      35.454  34.121  29.584  1.00  0.00     0.173 A 
ATOM     95  C   UNL A   1      35.351  33.198  31.782  1.00  0.00     0.173 A 
ATOM     96  F   UNL A   1      36.052  34.344  28.406  1.00  0.00    -0.203 F 
ATOM     97  C   UNL A   1      34.262  34.804  29.830  1.00  0.00     0.198 A 
ATOM     98  C   UNL A   1      34.199  33.928  32.046  1.00  0.00     0.198 A 
ATOM     99  F   UNL A   1      35.770  32.403  32.775  1.00  0.00    -0.203 F 
ATOM    100  F   UNL A   1      33.725  35.564  28.867  1.00  0.00    -0.200 F 
ATOM    101  C   UNL A   1      33.647  34.723  31.066  1.00  0.00     0.200 A 
ATOM    102  F   UNL A   1      33.637  33.860  33.261  1.00  0.00    -0.200 F 
ATOM    103  F   UNL A   1      32.528  35.414  31.314  1.00  0.00    -0.200 F 
ENDBRANCH  70  93
ENDBRANCH  44  45
ENDBRANCH  37  39
ENDBRANCH  36  37
ENDBRANCH  35  36
ENDBRANCH  34  35
ENDBRANCH  33  34
ENDBRANCH   1  33
TORSDOF 19
ENDMDL
