MODEL 1
REMARK VINA RESULT:     -10.1      0.000      0.000
REMARK SMILES O=C(NC(=S)Nc1cc(C(=O)OCCOCCOCCOC(=O)c2ccc(-c3c4nc(c(-c5c(F)c(F)c(F)c(F)c5F)c5ccc([nH]5)c(-c5c(F)c(F)c(F)c(F)c5F)c5nc(c(-c6c(F)c(F)c(F)c(F)c6F)c6ccc3[nH]6)C=C5)C=C4)cc2)ccc1Br)c1ccc(F)cc1
REMARK SMILES IDX 16 1 15 2 14 3 13 4 12 5 10 6 11 7 9 8 7 9 8 10 89 11 88 12
REMARK SMILES IDX 90 13 87 14 6 15 4 17 5 18 3 19 1 20 2 21 91 23 92 24 97 25
REMARK SMILES IDX 93 26 96 27 94 28 95 29 17 30 18 31 19 32 20 33 21 34 22 35
REMARK SMILES IDX 23 36 24 37 25 38 86 39 26 40 85 41 27 42 28 43 29 44 79 45
REMARK SMILES IDX 30 46 84 47 78 48 80 49 31 50 83 51 77 52 76 53 32 55 64 56
REMARK SMILES IDX 44 57 63 58 45 59 48 60 62 61 81 62 46 63 47 64 61 66 82 67
REMARK SMILES IDX 49 68 33 69 34 70 42 71 35 72 36 73 40 74 43 75 37 76 38 77
REMARK SMILES IDX 41 78 39 79 65 80 66 81 74 82 67 83 68 84 72 85 75 86 69 87
REMARK SMILES IDX 70 88 73 89 71 90 50 91 51 92 59 93 52 94 53 95 57 96 60 97
REMARK SMILES IDX 54 98 55 99 58 100 56 101
REMARK H PARENT 6 16 3 22 80 54 48 65
REMARK Flexibility Score: inf
ROOT
ATOM      1  C   UNL A   1      32.586  36.209  29.746  1.00  0.00     0.188 C 
ENDROOT
BRANCH   1   2
ATOM      2  O   UNL A   1      32.532  36.916  30.980  1.00  0.00    -0.376 OA
BRANCH   2   3
ATOM      3  C   UNL A   1      32.875  36.166  32.148  1.00  0.00     0.202 C 
BRANCH   3   4
ATOM      4  C   UNL A   1      34.349  35.748  32.233  1.00  0.00     0.261 C 
BRANCH   4   5
ATOM      5  O   UNL A   1      34.559  34.376  31.839  1.00  0.00    -0.460 OA
BRANCH   5   6
ATOM      6  C   UNL A   1      34.392  33.469  32.826  1.00  0.00     0.338 C 
ATOM      7  O   UNL A   1      33.379  32.874  33.145  1.00  0.00    -0.246 OA
BRANCH   6   8
ATOM      8  C   UNL A   1      35.697  33.113  33.398  1.00  0.00     0.062 A 
ATOM      9  C   UNL A   1      38.001  30.728  33.646  1.00  0.00     0.055 A 
ATOM     10  C   UNL A   1      36.374  31.402  32.698  1.00  0.00     0.043 A 
ATOM     11  C   UNL A   1      38.729  31.840  35.106  1.00  0.00     0.041 A 
ATOM     12  C   UNL A   1      38.046  33.561  35.793  1.00  0.00     0.019 A 
ATOM     13  Br  UNL A   1      40.264  31.164  36.034  1.00  0.00    -0.049 Br
ATOM     14  C   UNL A   1      36.401  34.220  34.858  1.00  0.00     0.017 A 
BRANCH   9  15
ATOM     15  N   UNL A   1      38.149  29.339  33.699  1.00  0.00    -0.331 N 
ATOM     16  H   UNL A   1      37.594  28.839  34.342  1.00  0.00     0.169 HD
BRANCH  15  17
ATOM     17  C   UNL A   1      39.008  28.638  32.921  1.00  0.00     0.177 C 
ATOM     18  S   UNL A   1      38.401  27.423  31.948  1.00  0.00    -0.040 S 
BRANCH  17  19
ATOM     19  N   UNL A   1      40.383  28.829  32.966  1.00  0.00    -0.299 N 
ATOM     20  O   UNL A   1      42.640  28.926  33.268  1.00  0.00    -0.269 OA
ATOM     21  C   UNL A   1      41.555  28.545  33.713  1.00  0.00     0.257 C 
ATOM     22  H   UNL A   1      40.644  29.362  32.180  1.00  0.00     0.172 HD
BRANCH  21  23
ATOM     23  C   UNL A   1      41.642  27.741  34.956  1.00  0.00     0.040 A 
ATOM     24  C   UNL A   1      42.591  26.869  35.066  1.00  0.00     0.017 A 
ATOM     25  C   UNL A   1      41.591  26.466  35.161  1.00  0.00     0.017 A 
ATOM     26  C   UNL A   1      43.354  24.969  35.016  1.00  0.00     0.040 A 
ATOM     27  C   UNL A   1      42.328  24.556  35.136  1.00  0.00     0.040 A 
ATOM     28  C   UNL A   1      43.224  23.712  34.786  1.00  0.00     0.123 A 
ATOM     29  F   UNL A   1      43.721  22.736  35.542  1.00  0.00    -0.207 F 
ENDBRANCH  21  23
ENDBRANCH  17  19
ENDBRANCH  15  17
ENDBRANCH   9  15
ENDBRANCH   6   8
ENDBRANCH   5   6
ENDBRANCH   4   5
ENDBRANCH   3   4
ENDBRANCH   2   3
ENDBRANCH   1   2
BRANCH   1  30
ATOM     30  C   UNL A   1      33.642  36.696  28.752  1.00  0.00     0.188 C 
BRANCH  30  31
ATOM     31  O   UNL A   1      34.334  35.610  28.139  1.00  0.00    -0.376 OA
BRANCH  31  32
ATOM     32  C   UNL A   1      33.674  34.341  28.210  1.00  0.00     0.202 C 
BRANCH  32  33
ATOM     33  C   UNL A   1      34.608  33.130  28.072  1.00  0.00     0.261 C 
BRANCH  33  34
ATOM     34  O   UNL A   1      34.028  31.949  28.658  1.00  0.00    -0.460 OA
BRANCH  34  35
ATOM     35  C   UNL A   1      34.197  30.809  27.943  1.00  0.00     0.338 C 
ATOM     36  O   UNL A   1      33.434  30.353  27.110  1.00  0.00    -0.246 OA
BRANCH  35  37
ATOM     37  C   UNL A   1      35.579  30.326  28.158  1.00  0.00     0.060 A 
ATOM     38  C   UNL A   1      35.929  29.878  29.439  1.00  0.00     0.016 A 
ATOM     39  C   UNL A   1      36.503  30.250  27.109  1.00  0.00     0.016 A 
ATOM     40  C   UNL A   1      37.211  29.380  29.680  1.00  0.00     0.010 A 
ATOM     41  C   UNL A   1      37.786  29.758  27.350  1.00  0.00     0.010 A 
ATOM     42  C   UNL A   1      38.151  29.344  28.640  1.00  0.00    -0.014 A 
BRANCH  42  43
ATOM     43  C   UNL A   1      39.568  29.033  28.931  1.00  0.00     0.031 A 
ATOM     44  C   UNL A   1      40.391  30.064  29.647  1.00  0.00     0.074 A 
ATOM     45  C   UNL A   1      40.118  27.870  28.545  1.00  0.00     0.049 A 
ATOM     46  N   UNL A   1      41.651  30.025  29.995  1.00  0.00    -0.248 NA
ATOM     47  C   UNL A   1      39.699  31.309  30.021  1.00  0.00     0.031 C 
ATOM     48  C   UNL A   1      39.424  26.791  27.846  1.00  0.00     0.029 A 
ATOM     49  N   UNL A   1      41.406  27.413  28.679  1.00  0.00    -0.354 N 
ATOM     50  C   UNL A   1      41.897  31.226  30.643  1.00  0.00     0.074 A 
ATOM     51  C   UNL A   1      40.669  31.989  30.615  1.00  0.00     0.031 C 
ATOM     52  C   UNL A   1      40.299  25.800  27.598  1.00  0.00     0.029 A 
ATOM     53  C   UNL A   1      41.616  26.184  28.107  1.00  0.00     0.049 A 
ATOM     54  H   UNL A   1      42.112  27.919  29.142  1.00  0.00     0.167 HD
ATOM     55  C   UNL A   1      43.043  31.651  31.222  1.00  0.00     0.037 A 
ATOM     56  C   UNL A   1      42.749  25.466  27.995  1.00  0.00     0.037 A 
ATOM     57  C   UNL A   1      44.272  30.911  31.235  1.00  0.00     0.049 A 
ATOM     58  C   UNL A   1      44.035  26.007  28.560  1.00  0.00     0.074 A 
ATOM     59  C   UNL A   1      45.473  31.239  31.837  1.00  0.00     0.029 A 
ATOM     60  N   UNL A   1      44.459  29.696  30.597  1.00  0.00    -0.354 N 
ATOM     61  N   UNL A   1      44.244  27.117  29.224  1.00  0.00    -0.248 NA
ATOM     62  C   UNL A   1      45.245  25.198  28.349  1.00  0.00     0.031 C 
ATOM     63  C   UNL A   1      46.401  30.236  31.532  1.00  0.00     0.029 A 
ATOM     64  C   UNL A   1      45.767  29.275  30.760  1.00  0.00     0.049 A 
ATOM     65  H   UNL A   1      43.764  29.205  30.101  1.00  0.00     0.167 HD
ATOM     66  C   UNL A   1      45.600  27.134  29.522  1.00  0.00     0.074 A 
ATOM     67  C   UNL A   1      46.166  25.920  28.972  1.00  0.00     0.031 C 
ATOM     68  C   UNL A   1      46.312  28.070  30.195  1.00  0.00     0.037 A 
BRANCH  55  69
ATOM     69  C   UNL A   1      43.008  32.988  31.889  1.00  0.00     0.064 A 
ATOM     70  C   UNL A   1      42.823  33.100  33.274  1.00  0.00     0.173 A 
ATOM     71  C   UNL A   1      43.168  34.163  31.143  1.00  0.00     0.173 A 
ATOM     72  F   UNL A   1      42.643  32.000  34.021  1.00  0.00    -0.203 F 
ATOM     73  C   UNL A   1      42.787  34.347  33.890  1.00  0.00     0.198 A 
ATOM     74  C   UNL A   1      43.144  35.409  31.765  1.00  0.00     0.198 A 
ATOM     75  F   UNL A   1      43.338  34.102  29.814  1.00  0.00    -0.203 F 
ATOM     76  F   UNL A   1      42.577  34.435  35.210  1.00  0.00    -0.200 F 
ATOM     77  C   UNL A   1      42.951  35.500  33.136  1.00  0.00     0.200 A 
ATOM     78  F   UNL A   1      43.298  36.523  31.036  1.00  0.00    -0.200 F 
ATOM     79  F   UNL A   1      42.910  36.701  33.728  1.00  0.00    -0.200 F 
ENDBRANCH  55  69
BRANCH  56  80
ATOM     80  C   UNL A   1      42.732  24.154  27.302  1.00  0.00     0.064 A 
ATOM     81  C   UNL A   1      42.389  22.984  27.993  1.00  0.00     0.173 A 
ATOM     82  C   UNL A   1      43.091  24.041  25.953  1.00  0.00     0.173 A 
ATOM     83  F   UNL A   1      42.067  23.045  29.293  1.00  0.00    -0.203 F 
ATOM     84  C   UNL A   1      42.417  21.744  27.358  1.00  0.00     0.198 A 
ATOM     85  C   UNL A   1      43.104  22.803  25.316  1.00  0.00     0.198 A 
ATOM     86  F   UNL A   1      43.436  25.135  25.257  1.00  0.00    -0.203 F 
ATOM     87  F   UNL A   1      42.119  20.634  28.047  1.00  0.00    -0.200 F 
ATOM     88  C   UNL A   1      42.772  21.654  26.020  1.00  0.00     0.200 A 
ATOM     89  F   UNL A   1      43.450  22.719  24.024  1.00  0.00    -0.200 F 
ATOM     90  F   UNL A   1      42.807  20.461  25.413  1.00  0.00    -0.200 F 
ENDBRANCH  56  80
BRANCH  68  91
ATOM     91  C   UNL A   1      47.777  27.821  30.373  1.00  0.00     0.064 A 
ATOM     92  C   UNL A   1      48.723  28.450  29.552  1.00  0.00     0.173 A 
ATOM     93  C   UNL A   1      48.241  26.996  31.407  1.00  0.00     0.173 A 
ATOM     94  F   UNL A   1      48.323  29.238  28.542  1.00  0.00    -0.203 F 
ATOM     95  C   UNL A   1      50.086  28.254  29.755  1.00  0.00     0.198 A 
ATOM     96  C   UNL A   1      49.604  26.815  31.618  1.00  0.00     0.198 A 
ATOM     97  F   UNL A   1      47.371  26.376  32.219  1.00  0.00    -0.203 F 
ATOM     98  F   UNL A   1      50.975  28.845  28.946  1.00  0.00    -0.200 F 
ATOM     99  C   UNL A   1      50.525  27.442  30.792  1.00  0.00     0.200 A 
ATOM    100  F   UNL A   1      50.028  26.035  32.622  1.00  0.00    -0.200 F 
ATOM    101  F   UNL A   1      51.838  27.260  30.991  1.00  0.00    -0.200 F 
ENDBRANCH  68  91
ENDBRANCH  42  43
ENDBRANCH  35  37
ENDBRANCH  34  35
ENDBRANCH  33  34
ENDBRANCH  32  33
ENDBRANCH  31  32
ENDBRANCH  30  31
ENDBRANCH   1  30
TORSDOF 21
ENDMDL
MODEL 2
REMARK VINA RESULT:     -10.1      4.864      9.775
REMARK SMILES O=C(NC(=S)Nc1cc(C(=O)OCCOCCOCCOC(=O)c2ccc(-c3c4nc(c(-c5c(F)c(F)c(F)c(F)c5F)c5ccc([nH]5)c(-c5c(F)c(F)c(F)c(F)c5F)c5nc(c(-c6c(F)c(F)c(F)c(F)c6F)c6ccc3[nH]6)C=C5)C=C4)cc2)ccc1Br)c1ccc(F)cc1
REMARK SMILES IDX 16 1 15 2 14 3 13 4 12 5 10 6 11 7 9 8 7 9 8 10 89 11 88 12
REMARK SMILES IDX 90 13 87 14 6 15 4 17 5 18 3 19 1 20 2 21 91 23 92 24 97 25
REMARK SMILES IDX 93 26 96 27 94 28 95 29 17 30 18 31 19 32 20 33 21 34 22 35
REMARK SMILES IDX 23 36 24 37 25 38 86 39 26 40 85 41 27 42 28 43 29 44 79 45
REMARK SMILES IDX 30 46 84 47 78 48 80 49 31 50 83 51 77 52 76 53 32 55 64 56
REMARK SMILES IDX 44 57 63 58 45 59 48 60 62 61 81 62 46 63 47 64 61 66 82 67
REMARK SMILES IDX 49 68 33 69 34 70 42 71 35 72 36 73 40 74 43 75 37 76 38 77
REMARK SMILES IDX 41 78 39 79 65 80 66 81 74 82 67 83 68 84 72 85 75 86 69 87
REMARK SMILES IDX 70 88 73 89 71 90 50 91 51 92 59 93 52 94 53 95 57 96 60 97
REMARK SMILES IDX 54 98 55 99 58 100 56 101
REMARK H PARENT 6 16 3 22 80 54 48 65
REMARK Flexibility Score: inf
ROOT
ATOM      1  C   UNL A   1      35.130  33.647  28.657  1.00  0.00     0.188 C 
ENDROOT
BRANCH   1   2
ATOM      2  O   UNL A   1      34.934  32.546  27.777  1.00  0.00    -0.376 OA
BRANCH   2   3
ATOM      3  C   UNL A   1      33.606  32.018  27.720  1.00  0.00     0.202 C 
BRANCH   3   4
ATOM      4  C   UNL A   1      33.524  30.487  27.642  1.00  0.00     0.261 C 
BRANCH   4   5
ATOM      5  O   UNL A   1      32.489  30.034  26.747  1.00  0.00    -0.460 OA
BRANCH   5   6
ATOM      6  C   UNL A   1      32.258  28.703  26.773  1.00  0.00     0.338 C 
ATOM      7  O   UNL A   1      31.952  28.006  27.724  1.00  0.00    -0.246 OA
BRANCH   6   8
ATOM      8  C   UNL A   1      32.232  28.175  25.403  1.00  0.00     0.062 A 
ATOM      9  C   UNL A   1      30.815  25.964  23.363  1.00  0.00     0.055 A 
ATOM     10  C   UNL A   1      30.737  26.928  25.114  1.00  0.00     0.043 A 
ATOM     11  C   UNL A   1      32.321  26.387  22.159  1.00  0.00     0.041 A 
ATOM     12  C   UNL A   1      33.811  27.649  22.456  1.00  0.00     0.019 A 
ATOM     13  Br  UNL A   1      32.407  25.427  20.502  1.00  0.00    -0.049 Br
ATOM     14  C   UNL A   1      33.743  28.594  24.221  1.00  0.00     0.017 A 
BRANCH   9  15
ATOM     15  N   UNL A   1      30.256  24.682  23.343  1.00  0.00    -0.331 N 
ATOM     16  H   UNL A   1      29.403  24.558  22.868  1.00  0.00     0.169 HD
BRANCH  15  17
ATOM     17  C   UNL A   1      30.817  23.603  23.938  1.00  0.00     0.177 C 
ATOM     18  S   UNL A   1      31.631  22.495  22.989  1.00  0.00    -0.040 S 
BRANCH  17  19
ATOM     19  N   UNL A   1      30.667  23.334  25.293  1.00  0.00    -0.299 N 
ATOM     20  O   UNL A   1      30.707  23.017  27.550  1.00  0.00    -0.269 OA
ATOM     21  C   UNL A   1      31.352  23.289  26.534  1.00  0.00     0.257 C 
ATOM     22  H   UNL A   1      29.730  23.077  25.452  1.00  0.00     0.172 HD
BRANCH  21  23
ATOM     23  C   UNL A   1      32.775  23.630  26.776  1.00  0.00     0.040 A 
ATOM     24  C   UNL A   1      33.494  24.034  25.781  1.00  0.00     0.017 A 
ATOM     25  C   UNL A   1      33.870  23.151  26.284  1.00  0.00     0.017 A 
ATOM     26  C   UNL A   1      34.885  23.781  24.298  1.00  0.00     0.040 A 
ATOM     27  C   UNL A   1      35.284  22.888  24.827  1.00  0.00     0.040 A 
ATOM     28  C   UNL A   1      35.681  23.035  23.619  1.00  0.00     0.123 A 
ATOM     29  F   UNL A   1      36.908  23.373  23.231  1.00  0.00    -0.207 F 
ENDBRANCH  21  23
ENDBRANCH  17  19
ENDBRANCH  15  17
ENDBRANCH   9  15
ENDBRANCH   6   8
ENDBRANCH   5   6
ENDBRANCH   4   5
ENDBRANCH   3   4
ENDBRANCH   2   3
ENDBRANCH   1   2
BRANCH   1  30
ATOM     30  C   UNL A   1      33.859  34.380  29.091  1.00  0.00     0.188 C 
BRANCH  30  31
ATOM     31  O   UNL A   1      33.660  34.307  30.501  1.00  0.00    -0.376 OA
BRANCH  31  32
ATOM     32  C   UNL A   1      34.844  34.111  31.281  1.00  0.00     0.202 C 
BRANCH  32  33
ATOM     33  C   UNL A   1      34.651  33.223  32.519  1.00  0.00     0.261 C 
BRANCH  33  34
ATOM     34  O   UNL A   1      35.391  31.993  32.404  1.00  0.00    -0.460 OA
BRANCH  34  35
ATOM     35  C   UNL A   1      36.538  31.941  33.126  1.00  0.00     0.338 C 
ATOM     36  O   UNL A   1      36.647  32.085  34.331  1.00  0.00    -0.246 OA
BRANCH  35  37
ATOM     37  C   UNL A   1      37.619  31.440  32.247  1.00  0.00     0.060 A 
ATOM     38  C   UNL A   1      38.731  30.836  32.850  1.00  0.00     0.016 A 
ATOM     39  C   UNL A   1      37.519  31.499  30.852  1.00  0.00     0.016 A 
ATOM     40  C   UNL A   1      39.757  30.317  32.060  1.00  0.00     0.010 A 
ATOM     41  C   UNL A   1      38.548  30.986  30.063  1.00  0.00     0.010 A 
ATOM     42  C   UNL A   1      39.680  30.414  30.663  1.00  0.00    -0.014 A 
BRANCH  42  43
ATOM     43  C   UNL A   1      40.853  30.075  29.829  1.00  0.00     0.031 A 
ATOM     44  C   UNL A   1      40.943  28.689  29.256  1.00  0.00     0.074 A 
ATOM     45  C   UNL A   1      41.830  30.968  29.603  1.00  0.00     0.049 A 
ATOM     46  N   UNL A   1      41.878  28.158  28.513  1.00  0.00    -0.248 NA
ATOM     47  C   UNL A   1      39.827  27.780  29.566  1.00  0.00     0.031 C 
ATOM     48  C   UNL A   1      41.856  32.342  30.101  1.00  0.00     0.029 A 
ATOM     49  N   UNL A   1      43.003  30.839  28.903  1.00  0.00    -0.354 N 
ATOM     50  C   UNL A   1      41.456  26.863  28.250  1.00  0.00     0.074 A 
ATOM     51  C   UNL A   1      40.198  26.674  28.938  1.00  0.00     0.031 C 
ATOM     52  C   UNL A   1      43.000  32.928  29.702  1.00  0.00     0.029 A 
ATOM     53  C   UNL A   1      43.790  31.964  28.936  1.00  0.00     0.049 A 
ATOM     54  H   UNL A   1      43.257  30.019  28.422  1.00  0.00     0.167 HD
ATOM     55  C   UNL A   1      42.057  25.918  27.493  1.00  0.00     0.037 A 
ATOM     56  C   UNL A   1      45.015  32.176  28.418  1.00  0.00     0.037 A 
ATOM     57  C   UNL A   1      43.316  26.088  26.826  1.00  0.00     0.049 A 
ATOM     58  C   UNL A   1      45.708  31.073  27.664  1.00  0.00     0.074 A 
ATOM     59  C   UNL A   1      43.984  25.205  25.997  1.00  0.00     0.029 A 
ATOM     60  N   UNL A   1      44.108  27.221  26.929  1.00  0.00    -0.354 N 
ATOM     61  N   UNL A   1      45.273  29.872  27.370  1.00  0.00    -0.248 NA
ATOM     62  C   UNL A   1      47.067  31.354  27.178  1.00  0.00     0.031 C 
ATOM     63  C   UNL A   1      45.201  25.790  25.627  1.00  0.00     0.029 A 
ATOM     64  C   UNL A   1      45.275  27.046  26.208  1.00  0.00     0.049 A 
ATOM     65  H   UNL A   1      43.874  28.029  27.440  1.00  0.00     0.167 HD
ATOM     66  C   UNL A   1      46.296  29.261  26.656  1.00  0.00     0.074 A 
ATOM     67  C   UNL A   1      47.372  30.224  26.555  1.00  0.00     0.031 C 
ATOM     68  C   UNL A   1      46.337  28.013  26.129  1.00  0.00     0.037 A 
BRANCH  55  69
ATOM     69  C   UNL A   1      41.348  24.610  27.353  1.00  0.00     0.064 A 
ATOM     70  C   UNL A   1      41.825  23.458  27.993  1.00  0.00     0.173 A 
ATOM     71  C   UNL A   1      40.182  24.508  26.582  1.00  0.00     0.173 A 
ATOM     72  F   UNL A   1      42.949  23.508  28.722  1.00  0.00    -0.203 F 
ATOM     73  C   UNL A   1      41.163  22.241  27.856  1.00  0.00     0.198 A 
ATOM     74  C   UNL A   1      39.516  23.292  26.457  1.00  0.00     0.198 A 
ATOM     75  F   UNL A   1      39.697  25.584  25.944  1.00  0.00    -0.203 F 
ATOM     76  F   UNL A   1      41.651  21.144  28.450  1.00  0.00    -0.200 F 
ATOM     77  C   UNL A   1      40.008  22.160  27.091  1.00  0.00     0.200 A 
ATOM     78  F   UNL A   1      38.403  23.212  25.715  1.00  0.00    -0.200 F 
ATOM     79  F   UNL A   1      39.374  20.987  26.956  1.00  0.00    -0.200 F 
ENDBRANCH  55  69
BRANCH  56  80
ATOM     80  C   UNL A   1      45.684  33.486  28.607  1.00  0.00     0.064 A 
ATOM     81  C   UNL A   1      45.502  34.523  27.681  1.00  0.00     0.173 A 
ATOM     82  C   UNL A   1      46.542  33.714  29.690  1.00  0.00     0.173 A 
ATOM     83  F   UNL A   1      44.711  34.336  26.615  1.00  0.00    -0.203 F 
ATOM     84  C   UNL A   1      46.165  35.739  27.829  1.00  0.00     0.198 A 
ATOM     85  C   UNL A   1      47.193  34.935  29.845  1.00  0.00     0.198 A 
ATOM     86  F   UNL A   1      46.753  32.745  30.594  1.00  0.00    -0.203 F 
ATOM     87  F   UNL A   1      46.003  36.704  26.914  1.00  0.00    -0.200 F 
ATOM     88  C   UNL A   1      47.008  35.945  28.912  1.00  0.00     0.200 A 
ATOM     89  F   UNL A   1      48.008  35.130  30.890  1.00  0.00    -0.200 F 
ATOM     90  F   UNL A   1      47.651  37.112  29.048  1.00  0.00    -0.200 F 
ENDBRANCH  56  80
BRANCH  68  91
ATOM     91  C   UNL A   1      47.582  27.618  25.397  1.00  0.00     0.064 A 
ATOM     92  C   UNL A   1      47.680  27.761  24.007  1.00  0.00     0.173 A 
ATOM     93  C   UNL A   1      48.702  27.148  26.096  1.00  0.00     0.173 A 
ATOM     94  F   UNL A   1      46.628  28.195  23.296  1.00  0.00    -0.203 F 
ATOM     95  C   UNL A   1      48.858  27.439  23.338  1.00  0.00     0.198 A 
ATOM     96  C   UNL A   1      49.883  26.842  25.427  1.00  0.00     0.198 A 
ATOM     97  F   UNL A   1      48.653  26.998  27.429  1.00  0.00    -0.203 F 
ATOM     98  F   UNL A   1      48.926  27.560  22.006  1.00  0.00    -0.200 F 
ATOM     99  C   UNL A   1      49.960  26.985  24.050  1.00  0.00     0.200 A 
ATOM    100  F   UNL A   1      50.949  26.409  26.116  1.00  0.00    -0.200 F 
ATOM    101  F   UNL A   1      51.096  26.682  23.406  1.00  0.00    -0.200 F 
ENDBRANCH  68  91
ENDBRANCH  42  43
ENDBRANCH  35  37
ENDBRANCH  34  35
ENDBRANCH  33  34
ENDBRANCH  32  33
ENDBRANCH  31  32
ENDBRANCH  30  31
ENDBRANCH   1  30
TORSDOF 21
ENDMDL
MODEL 3
REMARK VINA RESULT:      -9.7      4.810      7.291
REMARK SMILES O=C(NC(=S)Nc1cc(C(=O)OCCOCCOCCOC(=O)c2ccc(-c3c4nc(c(-c5c(F)c(F)c(F)c(F)c5F)c5ccc([nH]5)c(-c5c(F)c(F)c(F)c(F)c5F)c5nc(c(-c6c(F)c(F)c(F)c(F)c6F)c6ccc3[nH]6)C=C5)C=C4)cc2)ccc1Br)c1ccc(F)cc1
REMARK SMILES IDX 16 1 15 2 14 3 13 4 12 5 10 6 11 7 9 8 7 9 8 10 89 11 88 12
REMARK SMILES IDX 90 13 87 14 6 15 4 17 5 18 3 19 1 20 2 21 91 23 92 24 97 25
REMARK SMILES IDX 93 26 96 27 94 28 95 29 17 30 18 31 19 32 20 33 21 34 22 35
REMARK SMILES IDX 23 36 24 37 25 38 86 39 26 40 85 41 27 42 28 43 29 44 79 45
REMARK SMILES IDX 30 46 84 47 78 48 80 49 31 50 83 51 77 52 76 53 32 55 64 56
REMARK SMILES IDX 44 57 63 58 45 59 48 60 62 61 81 62 46 63 47 64 61 66 82 67
REMARK SMILES IDX 49 68 33 69 34 70 42 71 35 72 36 73 40 74 43 75 37 76 38 77
REMARK SMILES IDX 41 78 39 79 65 80 66 81 74 82 67 83 68 84 72 85 75 86 69 87
REMARK SMILES IDX 70 88 73 89 71 90 50 91 51 92 59 93 52 94 53 95 57 96 60 97
REMARK SMILES IDX 54 98 55 99 58 100 56 101
REMARK H PARENT 6 16 3 22 80 54 48 65
REMARK Flexibility Score: inf
ROOT
ATOM      1  C   UNL A   1      34.435  34.755  28.765  1.00  0.00     0.188 C 
ENDROOT
BRANCH   1   2
ATOM      2  O   UNL A   1      33.900  34.086  27.628  1.00  0.00    -0.376 OA
BRANCH   2   3
ATOM      3  C   UNL A   1      33.282  32.821  27.878  1.00  0.00     0.202 C 
BRANCH   3   4
ATOM      4  C   UNL A   1      34.208  31.608  27.714  1.00  0.00     0.261 C 
BRANCH   4   5
ATOM      5  O   UNL A   1      33.599  30.546  26.952  1.00  0.00    -0.460 OA
BRANCH   5   6
ATOM      6  C   UNL A   1      34.385  29.466  26.754  1.00  0.00     0.338 C 
ATOM      7  O   UNL A   1      35.436  29.182  27.301  1.00  0.00    -0.246 OA
BRANCH   6   8
ATOM      8  C   UNL A   1      33.699  28.506  25.879  1.00  0.00     0.062 A 
ATOM      9  C   UNL A   1      32.034  25.629  25.770  1.00  0.00     0.055 A 
ATOM     10  C   UNL A   1      32.746  27.118  26.901  1.00  0.00     0.043 A 
ATOM     11  C   UNL A   1      32.337  25.740  23.822  1.00  0.00     0.041 A 
ATOM     12  C   UNL A   1      33.287  27.144  22.808  1.00  0.00     0.019 A 
ATOM     13  Br  UNL A   1      31.686  24.288  22.755  1.00  0.00    -0.049 Br
ATOM     14  C   UNL A   1      34.021  28.621  23.946  1.00  0.00     0.017 A 
BRANCH   9  15
ATOM     15  N   UNL A   1      31.958  24.376  26.385  1.00  0.00    -0.331 N 
ATOM     16  H   UNL A   1      31.066  24.032  26.625  1.00  0.00     0.169 HD
BRANCH  15  17
ATOM     17  C   UNL A   1      33.034  23.606  26.670  1.00  0.00     0.177 C 
ATOM     18  S   UNL A   1      32.823  22.253  27.628  1.00  0.00    -0.040 S 
BRANCH  17  19
ATOM     19  N   UNL A   1      34.322  23.944  26.273  1.00  0.00    -0.299 N 
ATOM     20  O   UNL A   1      36.398  24.285  25.395  1.00  0.00    -0.269 OA
ATOM     21  C   UNL A   1      35.397  23.564  25.430  1.00  0.00     0.257 C 
ATOM     22  H   UNL A   1      34.590  24.756  26.763  1.00  0.00     0.172 HD
BRANCH  21  23
ATOM     23  C   UNL A   1      35.425  22.419  24.488  1.00  0.00     0.040 A 
ATOM     24  C   UNL A   1      34.314  21.822  24.204  1.00  0.00     0.017 A 
ATOM     25  C   UNL A   1      35.078  21.182  24.627  1.00  0.00     0.017 A 
ATOM     26  C   UNL A   1      32.947  20.306  24.378  1.00  0.00     0.040 A 
ATOM     27  C   UNL A   1      33.739  19.643  24.792  1.00  0.00     0.040 A 
ATOM     28  C   UNL A   1      32.538  19.219  24.928  1.00  0.00     0.123 A 
ATOM     29  F   UNL A   1      31.990  18.191  24.287  1.00  0.00    -0.207 F 
ENDBRANCH  21  23
ENDBRANCH  17  19
ENDBRANCH  15  17
ENDBRANCH   9  15
ENDBRANCH   6   8
ENDBRANCH   5   6
ENDBRANCH   4   5
ENDBRANCH   3   4
ENDBRANCH   2   3
ENDBRANCH   1   2
BRANCH   1  30
ATOM     30  C   UNL A   1      33.409  35.435  29.673  1.00  0.00     0.188 C 
BRANCH  30  31
ATOM     31  O   UNL A   1      33.193  34.696  30.875  1.00  0.00    -0.376 OA
BRANCH  31  32
ATOM     32  C   UNL A   1      34.359  34.464  31.673  1.00  0.00     0.202 C 
BRANCH  32  33
ATOM     33  C   UNL A   1      34.414  33.076  32.328  1.00  0.00     0.261 C 
BRANCH  33  34
ATOM     34  O   UNL A   1      35.529  32.307  31.839  1.00  0.00    -0.460 OA
BRANCH  34  35
ATOM     35  C   UNL A   1      36.497  32.050  32.753  1.00  0.00     0.338 C 
ATOM     36  O   UNL A   1      36.353  31.960  33.960  1.00  0.00    -0.246 OA
BRANCH  35  37
ATOM     37  C   UNL A   1      37.727  31.654  32.030  1.00  0.00     0.060 A 
ATOM     38  C   UNL A   1      37.765  31.845  30.642  1.00  0.00     0.016 A 
ATOM     39  C   UNL A   1      38.850  31.162  32.705  1.00  0.00     0.016 A 
ATOM     40  C   UNL A   1      38.917  31.519  29.924  1.00  0.00     0.010 A 
ATOM     41  C   UNL A   1      39.998  30.830  31.987  1.00  0.00     0.010 A 
ATOM     42  C   UNL A   1      40.028  30.985  30.592  1.00  0.00    -0.014 A 
BRANCH  42  43
ATOM     43  C   UNL A   1      41.162  30.430  29.822  1.00  0.00     0.031 A 
ATOM     44  C   UNL A   1      42.296  31.347  29.461  1.00  0.00     0.074 A 
ATOM     45  C   UNL A   1      41.174  29.145  29.430  1.00  0.00     0.049 A 
ATOM     46  N   UNL A   1      43.384  31.093  28.782  1.00  0.00    -0.248 NA
ATOM     47  C   UNL A   1      42.186  32.738  29.931  1.00  0.00     0.031 C 
ATOM     48  C   UNL A   1      40.136  28.158  29.719  1.00  0.00     0.029 A 
ATOM     49  N   UNL A   1      42.098  28.457  28.684  1.00  0.00    -0.354 N 
ATOM     50  C   UNL A   1      44.095  32.284  28.759  1.00  0.00     0.074 A 
ATOM     51  C   UNL A   1      43.305  33.270  29.462  1.00  0.00     0.031 C 
ATOM     52  C   UNL A   1      40.474  26.991  29.142  1.00  0.00     0.029 A 
ATOM     53  C   UNL A   1      41.742  27.156  28.432  1.00  0.00     0.049 A 
ATOM     54  H   UNL A   1      42.937  28.858  28.360  1.00  0.00     0.167 HD
ATOM     55  C   UNL A   1      45.306  32.531  28.209  1.00  0.00     0.037 A 
ATOM     56  C   UNL A   1      42.367  26.217  27.696  1.00  0.00     0.037 A 
ATOM     57  C   UNL A   1      46.086  31.565  27.490  1.00  0.00     0.049 A 
ATOM     58  C   UNL A   1      43.665  26.547  27.011  1.00  0.00     0.074 A 
ATOM     59  C   UNL A   1      47.346  31.708  26.937  1.00  0.00     0.029 A 
ATOM     60  N   UNL A   1      45.666  30.275  27.209  1.00  0.00    -0.354 N 
ATOM     61  N   UNL A   1      44.359  27.658  27.045  1.00  0.00    -0.248 NA
ATOM     62  C   UNL A   1      44.261  25.493  26.175  1.00  0.00     0.031 C 
ATOM     63  C   UNL A   1      47.674  30.512  26.288  1.00  0.00     0.029 A 
ATOM     64  C   UNL A   1      46.627  29.620  26.459  1.00  0.00     0.049 A 
ATOM     65  H   UNL A   1      44.811  29.883  27.499  1.00  0.00     0.167 HD
ATOM     66  C   UNL A   1      45.476  27.435  26.250  1.00  0.00     0.074 A 
ATOM     67  C   UNL A   1      45.372  26.079  25.751  1.00  0.00     0.031 C 
ATOM     68  C   UNL A   1      46.499  28.276  25.963  1.00  0.00     0.037 A 
BRANCH  55  69
ATOM     69  C   UNL A   1      45.853  33.912  28.371  1.00  0.00     0.064 A 
ATOM     70  C   UNL A   1      45.623  34.898  27.403  1.00  0.00     0.173 A 
ATOM     71  C   UNL A   1      46.606  34.254  29.503  1.00  0.00     0.173 A 
ATOM     72  F   UNL A   1      44.926  34.605  26.294  1.00  0.00    -0.203 F 
ATOM     73  C   UNL A   1      46.139  36.182  27.556  1.00  0.00     0.198 A 
ATOM     74  C   UNL A   1      47.110  35.542  29.658  1.00  0.00     0.198 A 
ATOM     75  F   UNL A   1      46.858  33.337  30.449  1.00  0.00    -0.203 F 
ATOM     76  F   UNL A   1      45.934  37.102  26.605  1.00  0.00    -0.200 F 
ATOM     77  C   UNL A   1      46.878  36.503  28.685  1.00  0.00     0.200 A 
ATOM     78  F   UNL A   1      47.828  35.852  30.747  1.00  0.00    -0.200 F 
ATOM     79  F   UNL A   1      47.379  37.738  28.829  1.00  0.00    -0.200 F 
ENDBRANCH  55  69
BRANCH  56  80
ATOM     80  C   UNL A   1      41.767  24.868  27.550  1.00  0.00     0.064 A 
ATOM     81  C   UNL A   1      40.625  24.674  26.762  1.00  0.00     0.173 A 
ATOM     82  C   UNL A   1      42.301  23.760  28.221  1.00  0.00     0.173 A 
ATOM     83  F   UNL A   1      40.066  25.713  26.126  1.00  0.00    -0.203 F 
ATOM     84  C   UNL A   1      40.031  23.417  26.659  1.00  0.00     0.198 A 
ATOM     85  C   UNL A   1      41.715  22.502  28.106  1.00  0.00     0.198 A 
ATOM     86  F   UNL A   1      43.387  23.904  28.994  1.00  0.00    -0.203 F 
ATOM     87  F   UNL A   1      38.920  23.261  25.928  1.00  0.00    -0.200 F 
ATOM     88  C   UNL A   1      40.578  22.332  27.329  1.00  0.00     0.200 A 
ATOM     89  F   UNL A   1      42.244  21.456  28.756  1.00  0.00    -0.200 F 
ATOM     90  F   UNL A   1      40.002  21.126  27.236  1.00  0.00    -0.200 F 
ENDBRANCH  56  80
BRANCH  68  91
ATOM     91  C   UNL A   1      47.584  27.760  25.071  1.00  0.00     0.064 A 
ATOM     92  C   UNL A   1      47.499  27.890  23.678  1.00  0.00     0.173 A 
ATOM     93  C   UNL A   1      48.741  27.183  25.614  1.00  0.00     0.173 A 
ATOM     94  F   UNL A   1      46.404  28.423  23.116  1.00  0.00    -0.203 F 
ATOM     95  C   UNL A   1      48.534  27.453  22.857  1.00  0.00     0.198 A 
ATOM     96  C   UNL A   1      49.781  26.761  24.791  1.00  0.00     0.198 A 
ATOM     97  F   UNL A   1      48.865  27.041  26.942  1.00  0.00    -0.203 F 
ATOM     98  F   UNL A   1      48.426  27.564  21.526  1.00  0.00    -0.200 F 
ATOM     99  C   UNL A   1      49.676  26.895  23.415  1.00  0.00     0.200 A 
ATOM    100  F   UNL A   1      50.886  26.228  25.330  1.00  0.00    -0.200 F 
ATOM    101  F   UNL A   1      50.676  26.481  22.623  1.00  0.00    -0.200 F 
ENDBRANCH  68  91
ENDBRANCH  42  43
ENDBRANCH  35  37
ENDBRANCH  34  35
ENDBRANCH  33  34
ENDBRANCH  32  33
ENDBRANCH  31  32
ENDBRANCH  30  31
ENDBRANCH   1  30
TORSDOF 21
ENDMDL
