MODEL 1
REMARK VINA RESULT:     -12.3      0.000      0.000
REMARK SMILES O=C(OCCOCCOCCOC(=O)c1nnn(-c2cccc(Br)c2)c1[C@@H]1COc2ccccc2O1)c1ccc(-c2c3nc(c(-c4c(F)c(F)c(F)c(F)c4F)c4ccc([nH]4)c(-c4c(F)c(F)c(F)c(F)c4F)c4nc(c(-c5c(F)c(F)c(F)c(F)c5F)c5ccc2[nH]5)C=C4)C=C3)cc1
REMARK SMILES IDX 7 1 6 2 5 3 4 4 3 5 2 6 1 7 37 8 38 9 99 10 39 11 98 12
REMARK SMILES IDX 40 13 41 14 42 15 92 16 43 17 97 18 91 19 93 20 44 21 96 22
REMARK SMILES IDX 90 23 89 24 45 26 77 27 57 28 76 29 58 30 61 31 75 32 94 33
REMARK SMILES IDX 59 34 60 35 74 37 95 38 62 39 46 40 47 41 55 42 48 43 49 44
REMARK SMILES IDX 53 45 56 46 50 47 51 48 54 49 52 50 78 51 79 52 87 53 80 54
REMARK SMILES IDX 81 55 85 56 88 57 82 58 83 59 86 60 84 61 63 62 64 63 72 64
REMARK SMILES IDX 65 65 66 66 70 67 73 68 67 69 68 70 71 71 69 72 8 73 9 74
REMARK SMILES IDX 10 75 11 76 12 77 13 78 14 79 15 80 16 81 26 82 17 83 18 84
REMARK SMILES IDX 27 85 28 86 36 87 29 88 35 89 30 90 34 91 31 92 33 93 32 94
REMARK SMILES IDX 19 95 20 96 25 97 21 98 23 99 22 100 24 101
REMARK H PARENT 93 25 61 36
REMARK Flexibility Score: inf
ROOT
ATOM      1  C   UNL A   1      39.602  22.118  26.449  1.00  0.00     0.188 C 
ENDROOT
BRANCH   1   2
ATOM      2  O   UNL A   1      40.855  21.469  26.616  1.00  0.00    -0.376 OA
BRANCH   2   3
ATOM      3  C   UNL A   1      40.810  20.055  26.522  1.00  0.00     0.202 C 
BRANCH   3   4
ATOM      4  C   UNL A   1      42.187  19.431  26.303  1.00  0.00     0.261 C 
BRANCH   4   5
ATOM      5  O   UNL A   1      42.877  19.865  25.115  1.00  0.00    -0.460 OA
BRANCH   5   6
ATOM      6  C   UNL A   1      44.117  20.381  25.014  1.00  0.00     0.338 C 
ATOM      7  O   UNL A   1      45.100  19.657  24.900  1.00  0.00    -0.246 OA
BRANCH   6   8
ATOM      8  C   UNL A   1      44.339  21.815  25.299  1.00  0.00     0.060 A 
ATOM      9  C   UNL A   1      45.350  22.281  26.138  1.00  0.00     0.016 A 
ATOM     10  C   UNL A   1      43.393  22.713  24.772  1.00  0.00     0.016 A 
ATOM     11  C   UNL A   1      45.395  23.626  26.485  1.00  0.00     0.010 A 
ATOM     12  C   UNL A   1      43.425  24.056  25.132  1.00  0.00     0.010 A 
ATOM     13  C   UNL A   1      44.390  24.491  26.043  1.00  0.00    -0.014 A 
BRANCH  13  14
ATOM     14  C   UNL A   1      44.245  25.749  26.774  1.00  0.00     0.031 A 
ATOM     15  C   UNL A   1      45.246  26.837  26.594  1.00  0.00     0.074 A 
ATOM     16  C   UNL A   1      43.186  25.915  27.594  1.00  0.00     0.049 A 
ATOM     17  N   UNL A   1      45.888  27.495  27.510  1.00  0.00    -0.248 NA
ATOM     18  C   UNL A   1      45.560  27.260  25.222  1.00  0.00     0.031 C 
ATOM     19  C   UNL A   1      42.000  25.056  27.700  1.00  0.00     0.029 A 
ATOM     20  N   UNL A   1      42.900  26.950  28.436  1.00  0.00    -0.354 N 
ATOM     21  C   UNL A   1      46.565  28.520  26.851  1.00  0.00     0.074 A 
ATOM     22  C   UNL A   1      46.378  28.292  25.439  1.00  0.00     0.031 C 
ATOM     23  C   UNL A   1      41.039  25.711  28.381  1.00  0.00     0.029 A 
ATOM     24  C   UNL A   1      41.583  26.968  28.861  1.00  0.00     0.049 A 
ATOM     25  H   UNL A   1      43.566  27.618  28.716  1.00  0.00     0.167 HD
ATOM     26  C   UNL A   1      47.099  29.589  27.506  1.00  0.00     0.037 A 
ATOM     27  C   UNL A   1      40.942  27.978  29.488  1.00  0.00     0.037 A 
ATOM     28  C   UNL A   1      47.374  29.308  28.886  1.00  0.00     0.049 A 
ATOM     29  C   UNL A   1      41.952  28.858  30.113  1.00  0.00     0.074 A 
ATOM     30  C   UNL A   1      48.189  28.417  29.557  1.00  0.00     0.029 A 
ATOM     31  N   UNL A   1      46.585  29.871  29.855  1.00  0.00    -0.354 N 
ATOM     32  N   UNL A   1      42.688  28.530  31.137  1.00  0.00    -0.248 NA
ATOM     33  C   UNL A   1      42.403  30.024  29.368  1.00  0.00     0.031 C 
ATOM     34  C   UNL A   1      47.528  28.152  30.792  1.00  0.00     0.029 A 
ATOM     35  C   UNL A   1      46.347  28.895  30.786  1.00  0.00     0.049 A 
ATOM     36  H   UNL A   1      46.252  30.798  29.876  1.00  0.00     0.167 HD
ATOM     37  C   UNL A   1      43.891  29.187  30.933  1.00  0.00     0.074 A 
ATOM     38  C   UNL A   1      43.610  30.186  29.911  1.00  0.00     0.031 C 
ATOM     39  C   UNL A   1      45.064  28.675  31.407  1.00  0.00     0.037 A 
BRANCH  26  40
ATOM     40  C   UNL A   1      47.130  30.991  26.950  1.00  0.00     0.064 A 
ATOM     41  C   UNL A   1      48.333  31.725  26.942  1.00  0.00     0.173 A 
ATOM     42  C   UNL A   1      45.959  31.737  26.694  1.00  0.00     0.173 A 
ATOM     43  F   UNL A   1      49.501  31.125  27.214  1.00  0.00    -0.203 F 
ATOM     44  C   UNL A   1      48.354  33.110  26.742  1.00  0.00     0.198 A 
ATOM     45  C   UNL A   1      45.990  33.109  26.445  1.00  0.00     0.198 A 
ATOM     46  F   UNL A   1      44.742  31.186  26.780  1.00  0.00    -0.203 F 
ATOM     47  F   UNL A   1      49.509  33.781  26.854  1.00  0.00    -0.200 F 
ATOM     48  C   UNL A   1      47.182  33.801  26.495  1.00  0.00     0.200 A 
ATOM     49  F   UNL A   1      44.841  33.767  26.230  1.00  0.00    -0.200 F 
ATOM     50  F   UNL A   1      47.195  35.133  26.355  1.00  0.00    -0.200 F 
ENDBRANCH  26  40
BRANCH  27  51
ATOM     51  C   UNL A   1      39.522  28.351  29.312  1.00  0.00     0.064 A 
ATOM     52  C   UNL A   1      38.638  28.409  30.397  1.00  0.00     0.173 A 
ATOM     53  C   UNL A   1      39.055  28.876  28.089  1.00  0.00     0.173 A 
ATOM     54  F   UNL A   1      39.029  27.988  31.608  1.00  0.00    -0.203 F 
ATOM     55  C   UNL A   1      37.357  28.953  30.263  1.00  0.00     0.198 A 
ATOM     56  C   UNL A   1      37.773  29.402  27.951  1.00  0.00     0.198 A 
ATOM     57  F   UNL A   1      39.865  28.968  27.024  1.00  0.00    -0.203 F 
ATOM     58  F   UNL A   1      36.553  29.039  31.332  1.00  0.00    -0.200 F 
ATOM     59  C   UNL A   1      36.926  29.449  29.042  1.00  0.00     0.200 A 
ATOM     60  F   UNL A   1      37.385  29.910  26.774  1.00  0.00    -0.200 F 
ATOM     61  F   UNL A   1      35.713  30.005  28.924  1.00  0.00    -0.200 F 
ENDBRANCH  27  51
BRANCH  39  62
ATOM     62  C   UNL A   1      44.980  27.563  32.410  1.00  0.00     0.064 A 
ATOM     63  C   UNL A   1      44.901  27.787  33.795  1.00  0.00     0.173 A 
ATOM     64  C   UNL A   1      44.825  26.247  31.955  1.00  0.00     0.173 A 
ATOM     65  F   UNL A   1      44.930  29.031  34.291  1.00  0.00    -0.203 F 
ATOM     66  C   UNL A   1      44.726  26.732  34.687  1.00  0.00     0.198 A 
ATOM     67  C   UNL A   1      44.617  25.198  32.848  1.00  0.00     0.198 A 
ATOM     68  F   UNL A   1      44.822  25.985  30.639  1.00  0.00    -0.203 F 
ATOM     69  F   UNL A   1      44.660  26.971  36.005  1.00  0.00    -0.200 F 
ATOM     70  C   UNL A   1      44.579  25.439  34.212  1.00  0.00     0.200 A 
ATOM     71  F   UNL A   1      44.420  23.956  32.383  1.00  0.00    -0.200 F 
ATOM     72  F   UNL A   1      44.367  24.430  35.068  1.00  0.00    -0.200 F 
ENDBRANCH  39  62
ENDBRANCH  13  14
ENDBRANCH   6   8
ENDBRANCH   5   6
ENDBRANCH   4   5
ENDBRANCH   3   4
ENDBRANCH   2   3
ENDBRANCH   1   2
BRANCH   1  73
ATOM     73  C   UNL A   1      38.552  21.371  25.593  1.00  0.00     0.188 C 
BRANCH  73  74
ATOM     74  O   UNL A   1      37.241  21.882  25.386  1.00  0.00    -0.376 OA
BRANCH  74  75
ATOM     75  C   UNL A   1      37.062  23.199  24.899  1.00  0.00     0.202 C 
BRANCH  75  76
ATOM     76  C   UNL A   1      36.265  24.159  25.776  1.00  0.00     0.261 C 
BRANCH  76  77
ATOM     77  O   UNL A   1      35.112  24.709  25.127  1.00  0.00    -0.458 OA
BRANCH  77  78
ATOM     78  C   UNL A   1      33.904  24.402  25.664  1.00  0.00     0.361 C 
ATOM     79  O   UNL A   1      33.088  25.214  26.108  1.00  0.00    -0.244 OA
BRANCH  78  80
ATOM     80  C   UNL A   1      33.646  22.978  25.678  1.00  0.00     0.198 A 
ATOM     81  N   UNL A   1      33.736  22.211  26.818  1.00  0.00    -0.122 NA
ATOM     82  C   UNL A   1      33.257  22.170  24.623  1.00  0.00     0.123 A 
ATOM     83  N   UNL A   1      33.429  20.960  26.503  1.00  0.00    -0.061 NA
ATOM     84  N   UNL A   1      33.315  20.896  25.159  1.00  0.00    -0.213 N 
BRANCH  82  85
ATOM     85  C   UNL A   1      32.721  22.452  23.259  1.00  0.00     0.262 C 
ATOM     86  C   UNL A   1      33.657  23.152  22.277  1.00  0.00     0.281 C 
ATOM     87  O   UNL A   1      31.458  23.095  23.452  1.00  0.00    -0.477 OA
ATOM     88  O   UNL A   1      33.761  24.560  22.458  1.00  0.00    -0.485 OA
ATOM     89  C   UNL A   1      31.458  24.439  23.221  1.00  0.00     0.162 A 
ATOM     90  C   UNL A   1      32.548  25.138  22.709  1.00  0.00     0.161 A 
ATOM     91  C   UNL A   1      30.287  25.122  23.552  1.00  0.00     0.050 A 
ATOM     92  C   UNL A   1      32.460  26.514  22.503  1.00  0.00     0.050 A 
ATOM     93  C   UNL A   1      30.206  26.502  23.365  1.00  0.00     0.004 A 
ATOM     94  C   UNL A   1      31.290  27.198  22.833  1.00  0.00     0.004 A 
ENDBRANCH  82  85
BRANCH  84  95
ATOM     95  C   UNL A   1      33.317  19.664  24.473  1.00  0.00     0.068 A 
ATOM     96  C   UNL A   1      32.485  19.502  23.354  1.00  0.00     0.028 A 
ATOM     97  C   UNL A   1      34.105  18.608  24.937  1.00  0.00     0.044 A 
ATOM     98  C   UNL A   1      32.388  18.259  22.736  1.00  0.00     0.003 A 
ATOM     99  C   UNL A   1      33.970  17.359  24.328  1.00  0.00     0.020 A 
ATOM    100  C   UNL A   1      33.113  17.180  23.239  1.00  0.00     0.016 A 
ATOM    101  Br  UNL A   1      34.914  15.874  25.019  1.00  0.00    -0.051 Br
ENDBRANCH  84  95
ENDBRANCH  78  80
ENDBRANCH  77  78
ENDBRANCH  76  77
ENDBRANCH  75  76
ENDBRANCH  74  75
ENDBRANCH  73  74
ENDBRANCH   1  73
TORSDOF 19
ENDMDL
MODEL 2
REMARK VINA RESULT:     -12.1      2.454      4.162
REMARK SMILES O=C(OCCOCCOCCOC(=O)c1nnn(-c2cccc(Br)c2)c1[C@@H]1COc2ccccc2O1)c1ccc(-c2c3nc(c(-c4c(F)c(F)c(F)c(F)c4F)c4ccc([nH]4)c(-c4c(F)c(F)c(F)c(F)c4F)c4nc(c(-c5c(F)c(F)c(F)c(F)c5F)c5ccc2[nH]5)C=C4)C=C3)cc1
REMARK SMILES IDX 7 1 6 2 5 3 4 4 3 5 2 6 1 7 37 8 38 9 99 10 39 11 98 12
REMARK SMILES IDX 40 13 41 14 42 15 92 16 43 17 97 18 91 19 93 20 44 21 96 22
REMARK SMILES IDX 90 23 89 24 45 26 77 27 57 28 76 29 58 30 61 31 75 32 94 33
REMARK SMILES IDX 59 34 60 35 74 37 95 38 62 39 46 40 47 41 55 42 48 43 49 44
REMARK SMILES IDX 53 45 56 46 50 47 51 48 54 49 52 50 78 51 79 52 87 53 80 54
REMARK SMILES IDX 81 55 85 56 88 57 82 58 83 59 86 60 84 61 63 62 64 63 72 64
REMARK SMILES IDX 65 65 66 66 70 67 73 68 67 69 68 70 71 71 69 72 8 73 9 74
REMARK SMILES IDX 10 75 11 76 12 77 13 78 14 79 15 80 16 81 26 82 17 83 18 84
REMARK SMILES IDX 27 85 28 86 36 87 29 88 35 89 30 90 34 91 31 92 33 93 32 94
REMARK SMILES IDX 19 95 20 96 25 97 21 98 23 99 22 100 24 101
REMARK H PARENT 93 25 61 36
REMARK Flexibility Score: inf
ROOT
ATOM      1  C   UNL A   1      39.114  23.044  26.469  1.00  0.00     0.188 C 
ENDROOT
BRANCH   1   2
ATOM      2  O   UNL A   1      40.321  22.391  26.838  1.00  0.00    -0.376 OA
BRANCH   2   3
ATOM      3  C   UNL A   1      40.356  21.003  26.551  1.00  0.00     0.202 C 
BRANCH   3   4
ATOM      4  C   UNL A   1      41.726  20.378  26.818  1.00  0.00     0.261 C 
BRANCH   4   5
ATOM      5  O   UNL A   1      42.497  20.065  25.642  1.00  0.00    -0.460 OA
BRANCH   5   6
ATOM      6  C   UNL A   1      43.670  20.598  25.250  1.00  0.00     0.338 C 
ATOM      7  O   UNL A   1      44.578  19.892  24.822  1.00  0.00    -0.246 OA
BRANCH   6   8
ATOM      8  C   UNL A   1      43.978  22.007  25.571  1.00  0.00     0.060 A 
ATOM      9  C   UNL A   1      44.805  22.389  26.627  1.00  0.00     0.016 A 
ATOM     10  C   UNL A   1      43.293  22.985  24.827  1.00  0.00     0.016 A 
ATOM     11  C   UNL A   1      44.917  23.732  26.967  1.00  0.00     0.010 A 
ATOM     12  C   UNL A   1      43.389  24.327  25.176  1.00  0.00     0.010 A 
ATOM     13  C   UNL A   1      44.151  24.685  26.290  1.00  0.00    -0.014 A 
BRANCH  13  14
ATOM     14  C   UNL A   1      43.978  25.975  26.957  1.00  0.00     0.031 A 
ATOM     15  C   UNL A   1      44.960  27.071  26.729  1.00  0.00     0.074 A 
ATOM     16  C   UNL A   1      42.911  26.162  27.762  1.00  0.00     0.049 A 
ATOM     17  N   UNL A   1      45.584  27.786  27.615  1.00  0.00    -0.248 NA
ATOM     18  C   UNL A   1      45.276  27.432  25.340  1.00  0.00     0.031 C 
ATOM     19  C   UNL A   1      41.740  25.287  27.903  1.00  0.00     0.029 A 
ATOM     20  N   UNL A   1      42.600  27.231  28.550  1.00  0.00    -0.354 N 
ATOM     21  C   UNL A   1      46.247  28.789  26.909  1.00  0.00     0.074 A 
ATOM     22  C   UNL A   1      46.073  28.488  25.510  1.00  0.00     0.031 C 
ATOM     23  C   UNL A   1      40.763  25.957  28.546  1.00  0.00     0.029 A 
ATOM     24  C   UNL A   1      41.281  27.246  28.966  1.00  0.00     0.049 A 
ATOM     25  H   UNL A   1      43.252  27.925  28.800  1.00  0.00     0.167 HD
ATOM     26  C   UNL A   1      46.757  29.898  27.514  1.00  0.00     0.037 A 
ATOM     27  C   UNL A   1      40.617  28.274  29.539  1.00  0.00     0.037 A 
ATOM     28  C   UNL A   1      47.027  29.692  28.908  1.00  0.00     0.049 A 
ATOM     29  C   UNL A   1      41.607  29.202  30.125  1.00  0.00     0.074 A 
ATOM     30  C   UNL A   1      47.854  28.850  29.627  1.00  0.00     0.029 A 
ATOM     31  N   UNL A   1      46.222  30.287  29.843  1.00  0.00    -0.354 N 
ATOM     32  N   UNL A   1      42.342  28.939  31.168  1.00  0.00    -0.248 NA
ATOM     33  C   UNL A   1      42.042  30.338  29.325  1.00  0.00     0.031 C 
ATOM     34  C   UNL A   1      47.190  28.635  30.870  1.00  0.00     0.029 A 
ATOM     35  C   UNL A   1      45.995  29.354  30.820  1.00  0.00     0.049 A 
ATOM     36  H   UNL A   1      45.872  31.208  29.817  1.00  0.00     0.167 HD
ATOM     37  C   UNL A   1      43.533  29.607  30.939  1.00  0.00     0.074 A 
ATOM     38  C   UNL A   1      43.242  30.550  29.867  1.00  0.00     0.031 C 
ATOM     39  C   UNL A   1      44.713  29.141  31.444  1.00  0.00     0.037 A 
BRANCH  26  40
ATOM     40  C   UNL A   1      46.765  31.272  26.889  1.00  0.00     0.064 A 
ATOM     41  C   UNL A   1      47.954  32.030  26.857  1.00  0.00     0.173 A 
ATOM     42  C   UNL A   1      45.583  31.980  26.585  1.00  0.00     0.173 A 
ATOM     43  F   UNL A   1      49.131  31.468  27.170  1.00  0.00    -0.203 F 
ATOM     44  C   UNL A   1      47.950  33.403  26.588  1.00  0.00     0.198 A 
ATOM     45  C   UNL A   1      45.589  33.339  26.268  1.00  0.00     0.198 A 
ATOM     46  F   UNL A   1      44.376  31.409  26.686  1.00  0.00    -0.203 F 
ATOM     47  F   UNL A   1      49.089  34.103  26.678  1.00  0.00    -0.200 F 
ATOM     48  C   UNL A   1      46.767  34.056  26.296  1.00  0.00     0.200 A 
ATOM     49  F   UNL A   1      44.430  33.961  26.009  1.00  0.00    -0.200 F 
ATOM     50  F   UNL A   1      46.754  35.380  26.090  1.00  0.00    -0.200 F 
ENDBRANCH  26  40
BRANCH  27  51
ATOM     51  C   UNL A   1      39.192  28.612  29.336  1.00  0.00     0.064 A 
ATOM     52  C   UNL A   1      38.297  28.695  30.411  1.00  0.00     0.173 A 
ATOM     53  C   UNL A   1      38.725  29.078  28.089  1.00  0.00     0.173 A 
ATOM     54  F   UNL A   1      38.685  28.331  31.641  1.00  0.00    -0.203 F 
ATOM     55  C   UNL A   1      37.007  29.208  30.245  1.00  0.00     0.198 A 
ATOM     56  C   UNL A   1      37.434  29.572  27.920  1.00  0.00     0.198 A 
ATOM     57  F   UNL A   1      39.543  29.143  27.028  1.00  0.00    -0.203 F 
ATOM     58  F   UNL A   1      36.192  29.320  31.302  1.00  0.00    -0.200 F 
ATOM     59  C   UNL A   1      36.577  29.646  29.001  1.00  0.00     0.200 A 
ATOM     60  F   UNL A   1      37.047  30.025  26.720  1.00  0.00    -0.200 F 
ATOM     61  F   UNL A   1      35.355  30.173  28.851  1.00  0.00    -0.200 F 
ENDBRANCH  27  51
BRANCH  39  62
ATOM     62  C   UNL A   1      44.643  28.079  32.500  1.00  0.00     0.064 A 
ATOM     63  C   UNL A   1      44.541  26.709  32.203  1.00  0.00     0.173 A 
ATOM     64  C   UNL A   1      44.835  28.440  33.841  1.00  0.00     0.173 A 
ATOM     65  F   UNL A   1      44.468  26.287  30.933  1.00  0.00    -0.203 F 
ATOM     66  C   UNL A   1      44.578  25.749  33.209  1.00  0.00     0.198 A 
ATOM     67  C   UNL A   1      44.904  27.474  34.842  1.00  0.00     0.198 A 
ATOM     68  F   UNL A   1      45.008  29.729  34.173  1.00  0.00    -0.203 F 
ATOM     69  F   UNL A   1      44.472  24.447  32.901  1.00  0.00    -0.200 F 
ATOM     70  C   UNL A   1      44.764  26.131  34.528  1.00  0.00     0.200 A 
ATOM     71  F   UNL A   1      45.140  27.843  36.109  1.00  0.00    -0.200 F 
ATOM     72  F   UNL A   1      44.843  25.204  35.492  1.00  0.00    -0.200 F 
ENDBRANCH  39  62
ENDBRANCH  13  14
ENDBRANCH   6   8
ENDBRANCH   5   6
ENDBRANCH   4   5
ENDBRANCH   3   4
ENDBRANCH   2   3
ENDBRANCH   1   2
BRANCH   1  73
ATOM     73  C   UNL A   1      38.080  22.190  25.698  1.00  0.00     0.188 C 
BRANCH  73  74
ATOM     74  O   UNL A   1      37.270  22.733  24.663  1.00  0.00    -0.376 OA
BRANCH  74  75
ATOM     75  C   UNL A   1      36.434  23.845  24.925  1.00  0.00     0.202 C 
BRANCH  75  76
ATOM     76  C   UNL A   1      34.956  23.695  24.583  1.00  0.00     0.261 C 
BRANCH  76  77
ATOM     77  O   UNL A   1      34.365  24.887  24.050  1.00  0.00    -0.458 OA
BRANCH  77  78
ATOM     78  C   UNL A   1      33.656  25.656  24.915  1.00  0.00     0.361 C 
ATOM     79  O   UNL A   1      33.672  25.556  26.144  1.00  0.00    -0.244 OA
BRANCH  78  80
ATOM     80  C   UNL A   1      32.840  26.644  24.242  1.00  0.00     0.198 A 
ATOM     81  N   UNL A   1      33.368  27.746  23.607  1.00  0.00    -0.122 NA
ATOM     82  C   UNL A   1      31.464  26.657  24.095  1.00  0.00     0.123 A 
ATOM     83  N   UNL A   1      32.368  28.443  23.083  1.00  0.00    -0.061 NA
ATOM     84  N   UNL A   1      31.216  27.892  23.523  1.00  0.00    -0.213 N 
BRANCH  82  85
ATOM     85  C   UNL A   1      30.401  25.627  24.290  1.00  0.00     0.262 C 
ATOM     86  C   UNL A   1      30.117  25.189  25.724  1.00  0.00     0.281 C 
ATOM     87  O   UNL A   1      30.705  24.564  23.383  1.00  0.00    -0.477 OA
ATOM     88  O   UNL A   1      31.042  24.242  26.250  1.00  0.00    -0.485 OA
ATOM     89  C   UNL A   1      31.239  23.451  23.962  1.00  0.00     0.162 A 
ATOM     90  C   UNL A   1      31.366  23.278  25.338  1.00  0.00     0.161 A 
ATOM     91  C   UNL A   1      31.693  22.459  23.092  1.00  0.00     0.050 A 
ATOM     92  C   UNL A   1      31.923  22.105  25.846  1.00  0.00     0.050 A 
ATOM     93  C   UNL A   1      32.269  21.294  23.599  1.00  0.00     0.004 A 
ATOM     94  C   UNL A   1      32.378  21.113  24.976  1.00  0.00     0.004 A 
ENDBRANCH  82  85
BRANCH  84  95
ATOM     95  C   UNL A   1      29.984  28.573  23.424  1.00  0.00     0.068 A 
ATOM     96  C   UNL A   1      28.803  27.831  23.268  1.00  0.00     0.028 A 
ATOM     97  C   UNL A   1      29.955  29.969  23.434  1.00  0.00     0.044 A 
ATOM     98  C   UNL A   1      27.595  28.487  23.052  1.00  0.00     0.003 A 
ATOM     99  C   UNL A   1      28.742  30.612  23.181  1.00  0.00     0.020 A 
ATOM    100  C   UNL A   1      27.568  29.879  22.984  1.00  0.00     0.016 A 
ATOM    101  Br  UNL A   1      28.692  32.497  23.048  1.00  0.00    -0.051 Br
ENDBRANCH  84  95
ENDBRANCH  78  80
ENDBRANCH  77  78
ENDBRANCH  76  77
ENDBRANCH  75  76
ENDBRANCH  74  75
ENDBRANCH  73  74
ENDBRANCH   1  73
TORSDOF 19
ENDMDL
MODEL 3
REMARK VINA RESULT:     -11.9      3.535      5.321
REMARK SMILES O=C(OCCOCCOCCOC(=O)c1nnn(-c2cccc(Br)c2)c1[C@@H]1COc2ccccc2O1)c1ccc(-c2c3nc(c(-c4c(F)c(F)c(F)c(F)c4F)c4ccc([nH]4)c(-c4c(F)c(F)c(F)c(F)c4F)c4nc(c(-c5c(F)c(F)c(F)c(F)c5F)c5ccc2[nH]5)C=C4)C=C3)cc1
REMARK SMILES IDX 7 1 6 2 5 3 4 4 3 5 2 6 1 7 37 8 38 9 99 10 39 11 98 12
REMARK SMILES IDX 40 13 41 14 42 15 92 16 43 17 97 18 91 19 93 20 44 21 96 22
REMARK SMILES IDX 90 23 89 24 45 26 77 27 57 28 76 29 58 30 61 31 75 32 94 33
REMARK SMILES IDX 59 34 60 35 74 37 95 38 62 39 46 40 47 41 55 42 48 43 49 44
REMARK SMILES IDX 53 45 56 46 50 47 51 48 54 49 52 50 78 51 79 52 87 53 80 54
REMARK SMILES IDX 81 55 85 56 88 57 82 58 83 59 86 60 84 61 63 62 64 63 72 64
REMARK SMILES IDX 65 65 66 66 70 67 73 68 67 69 68 70 71 71 69 72 8 73 9 74
REMARK SMILES IDX 10 75 11 76 12 77 13 78 14 79 15 80 16 81 26 82 17 83 18 84
REMARK SMILES IDX 27 85 28 86 36 87 29 88 35 89 30 90 34 91 31 92 33 93 32 94
REMARK SMILES IDX 19 95 20 96 25 97 21 98 23 99 22 100 24 101
REMARK H PARENT 93 25 61 36
REMARK Flexibility Score: inf
ROOT
ATOM      1  C   UNL A   1      38.092  21.964  25.536  1.00  0.00     0.188 C 
ENDROOT
BRANCH   1   2
ATOM      2  O   UNL A   1      39.286  21.229  25.766  1.00  0.00    -0.376 OA
BRANCH   2   3
ATOM      3  C   UNL A   1      40.066  21.689  26.857  1.00  0.00     0.202 C 
BRANCH   3   4
ATOM      4  C   UNL A   1      41.560  21.736  26.539  1.00  0.00     0.261 C 
BRANCH   4   5
ATOM      5  O   UNL A   1      41.932  22.616  25.460  1.00  0.00    -0.460 OA
BRANCH   5   6
ATOM      6  C   UNL A   1      42.637  23.761  25.525  1.00  0.00     0.338 C 
ATOM      7  O   UNL A   1      43.801  23.815  25.141  1.00  0.00    -0.246 OA
BRANCH   6   8
ATOM      8  C   UNL A   1      42.106  24.904  26.299  1.00  0.00     0.060 A 
ATOM      9  C   UNL A   1      41.358  25.933  25.728  1.00  0.00     0.016 A 
ATOM     10  C   UNL A   1      42.494  24.983  27.648  1.00  0.00     0.016 A 
ATOM     11  C   UNL A   1      41.032  27.053  26.484  1.00  0.00     0.010 A 
ATOM     12  C   UNL A   1      42.186  26.111  28.402  1.00  0.00     0.010 A 
ATOM     13  C   UNL A   1      41.512  27.171  27.791  1.00  0.00    -0.014 A 
BRANCH  13  14
ATOM     14  C   UNL A   1      41.515  28.516  28.365  1.00  0.00     0.031 A 
ATOM     15  C   UNL A   1      42.635  29.451  28.070  1.00  0.00     0.074 A 
ATOM     16  C   UNL A   1      40.483  28.899  29.146  1.00  0.00     0.049 A 
ATOM     17  N   UNL A   1      43.350  30.136  28.910  1.00  0.00    -0.248 NA
ATOM     18  C   UNL A   1      42.994  29.669  26.662  1.00  0.00     0.031 C 
ATOM     19  C   UNL A   1      39.206  28.202  29.339  1.00  0.00     0.029 A 
ATOM     20  N   UNL A   1      40.320  30.053  29.856  1.00  0.00    -0.354 N 
ATOM     21  C   UNL A   1      44.141  30.990  28.142  1.00  0.00     0.074 A 
ATOM     22  C   UNL A   1      43.926  30.619  26.765  1.00  0.00     0.031 C 
ATOM     23  C   UNL A   1      38.328  29.039  29.925  1.00  0.00     0.029 A 
ATOM     24  C   UNL A   1      39.015  30.273  30.259  1.00  0.00     0.049 A 
ATOM     25  H   UNL A   1      41.059  30.669  30.063  1.00  0.00     0.167 HD
ATOM     26  C   UNL A   1      44.795  32.061  28.672  1.00  0.00     0.037 A 
ATOM     27  C   UNL A   1      38.496  31.418  30.754  1.00  0.00     0.037 A 
ATOM     28  C   UNL A   1      45.037  31.917  30.079  1.00  0.00     0.049 A 
ATOM     29  C   UNL A   1      39.601  32.244  31.283  1.00  0.00     0.074 A 
ATOM     30  C   UNL A   1      45.744  31.025  30.862  1.00  0.00     0.029 A 
ATOM     31  N   UNL A   1      44.320  32.679  30.964  1.00  0.00    -0.354 N 
ATOM     32  N   UNL A   1      40.295  31.958  32.348  1.00  0.00    -0.248 NA
ATOM     33  C   UNL A   1      40.184  33.253  30.410  1.00  0.00     0.031 C 
ATOM     34  C   UNL A   1      45.059  30.987  32.111  1.00  0.00     0.029 A 
ATOM     35  C   UNL A   1      43.972  31.855  32.001  1.00  0.00     0.049 A 
ATOM     36  H   UNL A   1      44.097  33.634  30.871  1.00  0.00     0.167 HD
ATOM     37  C   UNL A   1      41.566  32.443  32.082  1.00  0.00     0.074 A 
ATOM     38  C   UNL A   1      41.402  33.339  30.945  1.00  0.00     0.031 C 
ATOM     39  C   UNL A   1      42.672  31.860  32.628  1.00  0.00     0.037 A 
BRANCH  26  40
ATOM     40  C   UNL A   1      44.987  33.374  27.954  1.00  0.00     0.064 A 
ATOM     41  C   UNL A   1      46.284  33.822  27.628  1.00  0.00     0.173 A 
ATOM     42  C   UNL A   1      43.962  34.337  27.836  1.00  0.00     0.173 A 
ATOM     43  F   UNL A   1      47.339  33.001  27.744  1.00  0.00    -0.203 F 
ATOM     44  C   UNL A   1      46.539  35.147  27.261  1.00  0.00     0.198 A 
ATOM     45  C   UNL A   1      44.214  35.645  27.421  1.00  0.00     0.198 A 
ATOM     46  F   UNL A   1      42.706  34.077  28.218  1.00  0.00    -0.203 F 
ATOM     47  F   UNL A   1      47.801  35.554  27.068  1.00  0.00    -0.200 F 
ATOM     48  C   UNL A   1      45.504  36.058  27.159  1.00  0.00     0.200 A 
ATOM     49  F   UNL A   1      43.201  36.521  27.349  1.00  0.00    -0.200 F 
ATOM     50  F   UNL A   1      45.752  37.340  26.858  1.00  0.00    -0.200 F 
ENDBRANCH  26  40
BRANCH  27  51
ATOM     51  C   UNL A   1      37.128  31.929  30.517  1.00  0.00     0.064 A 
ATOM     52  C   UNL A   1      36.185  32.008  31.549  1.00  0.00     0.173 A 
ATOM     53  C   UNL A   1      36.788  32.560  29.302  1.00  0.00     0.173 A 
ATOM     54  F   UNL A   1      36.458  31.489  32.754  1.00  0.00    -0.203 F 
ATOM     55  C   UNL A   1      34.968  32.674  31.372  1.00  0.00     0.198 A 
ATOM     56  C   UNL A   1      35.569  33.207  29.120  1.00  0.00     0.198 A 
ATOM     57  F   UNL A   1      37.670  32.634  28.294  1.00  0.00    -0.203 F 
ATOM     58  F   UNL A   1      34.108  32.775  32.395  1.00  0.00    -0.200 F 
ATOM     59  C   UNL A   1      34.661  33.272  30.159  1.00  0.00     0.200 A 
ATOM     60  F   UNL A   1      35.304  33.811  27.954  1.00  0.00    -0.200 F 
ATOM     61  F   UNL A   1      33.512  33.943  30.003  1.00  0.00    -0.200 F 
ENDBRANCH  27  51
BRANCH  39  62
ATOM     62  C   UNL A   1      42.462  30.893  33.755  1.00  0.00     0.064 A 
ATOM     63  C   UNL A   1      42.452  31.283  35.105  1.00  0.00     0.173 A 
ATOM     64  C   UNL A   1      42.113  29.569  33.459  1.00  0.00     0.173 A 
ATOM     65  F   UNL A   1      42.666  32.559  35.452  1.00  0.00    -0.203 F 
ATOM     66  C   UNL A   1      42.155  30.372  36.115  1.00  0.00     0.198 A 
ATOM     67  C   UNL A   1      41.785  28.668  34.470  1.00  0.00     0.198 A 
ATOM     68  F   UNL A   1      42.039  29.162  32.182  1.00  0.00    -0.203 F 
ATOM     69  F   UNL A   1      42.158  30.767  37.398  1.00  0.00    -0.200 F 
ATOM     70  C   UNL A   1      41.818  29.067  35.797  1.00  0.00     0.200 A 
ATOM     71  F   UNL A   1      41.406  27.421  34.155  1.00  0.00    -0.200 F 
ATOM     72  F   UNL A   1      41.491  28.202  36.767  1.00  0.00    -0.200 F 
ENDBRANCH  39  62
ENDBRANCH  13  14
ENDBRANCH   6   8
ENDBRANCH   5   6
ENDBRANCH   4   5
ENDBRANCH   3   4
ENDBRANCH   2   3
ENDBRANCH   1   2
BRANCH   1  73
ATOM     73  C   UNL A   1      36.983  21.240  24.737  1.00  0.00     0.188 C 
BRANCH  73  74
ATOM     74  O   UNL A   1      35.751  21.869  24.408  1.00  0.00    -0.376 OA
BRANCH  74  75
ATOM     75  C   UNL A   1      35.741  23.198  23.919  1.00  0.00     0.202 C 
BRANCH  75  76
ATOM     76  C   UNL A   1      35.201  24.275  24.854  1.00  0.00     0.261 C 
BRANCH  76  77
ATOM     77  O   UNL A   1      34.268  25.165  24.229  1.00  0.00    -0.458 OA
BRANCH  77  78
ATOM     78  C   UNL A   1      33.669  26.083  25.028  1.00  0.00     0.361 C 
ATOM     79  O   UNL A   1      33.796  26.160  26.253  1.00  0.00    -0.244 OA
BRANCH  78  80
ATOM     80  C   UNL A   1      32.828  27.001  24.291  1.00  0.00     0.198 A 
ATOM     81  N   UNL A   1      33.330  28.046  23.549  1.00  0.00    -0.122 NA
ATOM     82  C   UNL A   1      31.449  26.989  24.175  1.00  0.00     0.123 A 
ATOM     83  N   UNL A   1      32.312  28.686  22.989  1.00  0.00    -0.061 NA
ATOM     84  N   UNL A   1      31.175  28.167  23.503  1.00  0.00    -0.213 N 
BRANCH  82  85
ATOM     85  C   UNL A   1      30.402  25.972  24.485  1.00  0.00     0.262 C 
ATOM     86  C   UNL A   1      30.160  25.652  25.958  1.00  0.00     0.281 C 
ATOM     87  O   UNL A   1      30.690  24.839  23.661  1.00  0.00    -0.477 OA
ATOM     88  O   UNL A   1      31.108  24.759  26.534  1.00  0.00    -0.485 OA
ATOM     89  C   UNL A   1      31.250  23.782  24.316  1.00  0.00     0.162 A 
ATOM     90  C   UNL A   1      31.417  23.724  25.697  1.00  0.00     0.161 A 
ATOM     91  C   UNL A   1      31.689  22.724  23.518  1.00  0.00     0.050 A 
ATOM     92  C   UNL A   1      31.998  22.602  26.284  1.00  0.00     0.050 A 
ATOM     93  C   UNL A   1      32.289  21.609  24.103  1.00  0.00     0.004 A 
ATOM     94  C   UNL A   1      32.438  21.544  25.487  1.00  0.00     0.004 A 
ENDBRANCH  82  85
BRANCH  84  95
ATOM     95  C   UNL A   1      29.935  28.826  23.373  1.00  0.00     0.068 A 
ATOM     96  C   UNL A   1      28.769  28.063  23.202  1.00  0.00     0.028 A 
ATOM     97  C   UNL A   1      29.883  30.221  23.368  1.00  0.00     0.044 A 
ATOM     98  C   UNL A   1      27.555  28.697  22.956  1.00  0.00     0.003 A 
ATOM     99  C   UNL A   1      28.665  30.842  23.086  1.00  0.00     0.020 A 
ATOM    100  C   UNL A   1      27.507  30.088  22.874  1.00  0.00     0.016 A 
ATOM    101  Br  UNL A   1      28.586  32.725  22.932  1.00  0.00    -0.051 Br
ENDBRANCH  84  95
ENDBRANCH  78  80
ENDBRANCH  77  78
ENDBRANCH  76  77
ENDBRANCH  75  76
ENDBRANCH  74  75
ENDBRANCH  73  74
ENDBRANCH   1  73
TORSDOF 19
ENDMDL
