MODEL 1
REMARK VINA RESULT:     -10.4      0.000      0.000
REMARK SMILES C[C@H](Nc1ccc(F)cc1Br)[C@@H](C)C(=O)OCCOCCOCCOC(=O)c1ccc(-c2c3nc(c(-c4c(F)c(F)c(F)c(F)c4F)c4ccc([nH]4)c(-c4c(F)c(F)c(F)c(F)c4F)c4nc(c(-c5c(F)c(F)c(F)c(F)c5F)c5ccc2[nH]5)C=C4)C=C3)cc1
REMARK SMILES IDX 20 1 19 2 18 3 17 4 16 5 14 6 15 7 12 8 13 9 2 10 1 11 3 12
REMARK SMILES IDX 4 14 5 15 10 16 6 17 9 18 11 19 7 20 8 21 21 22 22 23 23 24
REMARK SMILES IDX 24 25 25 26 26 27 27 28 28 29 29 30 90 31 30 32 89 33 31 34
REMARK SMILES IDX 32 35 33 36 83 37 34 38 88 39 82 40 84 41 35 42 87 43 81 44
REMARK SMILES IDX 80 45 36 47 68 48 48 49 67 50 49 51 52 52 66 53 85 54 50 55
REMARK SMILES IDX 51 56 65 58 86 59 53 60 37 61 38 62 46 63 39 64 40 65 44 66
REMARK SMILES IDX 47 67 41 68 42 69 45 70 43 71 69 72 70 73 78 74 71 75 72 76
REMARK SMILES IDX 76 77 79 78 73 79 74 80 77 81 75 82 54 83 55 84 63 85 56 86
REMARK SMILES IDX 57 87 61 88 64 89 58 90 59 91 62 92 60 93
REMARK H PARENT 3 13 84 46 52 57
REMARK Flexibility Score: inf
ROOT
ATOM      1  C   UNL A   1      39.241  21.947  26.444  1.00  0.00     0.188 C 
ENDROOT
BRANCH   1   2
ATOM      2  O   UNL A   1      38.292  21.861  25.395  1.00  0.00    -0.376 OA
BRANCH   2   3
ATOM      3  C   UNL A   1      36.902  21.930  25.689  1.00  0.00     0.202 C 
BRANCH   3   4
ATOM      4  C   UNL A   1      35.892  21.266  24.730  1.00  0.00     0.261 C 
BRANCH   4   5
ATOM      5  O   UNL A   1      34.488  21.652  24.821  1.00  0.00    -0.463 OA
BRANCH   5   6
ATOM      6  C   UNL A   1      34.201  22.916  24.415  1.00  0.00     0.310 C 
ATOM      7  O   UNL A   1      34.693  23.423  23.408  1.00  0.00    -0.252 OA
BRANCH   6   8
ATOM      8  C   UNL A   1      33.262  23.742  25.303  1.00  0.00     0.118 C 
ATOM      9  C   UNL A   1      32.919  22.810  26.480  1.00  0.00     0.022 C 
BRANCH   8  10
ATOM     10  C   UNL A   1      31.976  24.420  24.750  1.00  0.00     0.090 C 
ATOM     11  C   UNL A   1      31.097  23.532  23.852  1.00  0.00     0.031 C 
BRANCH  10  12
ATOM     12  N   UNL A   1      32.379  25.542  23.873  1.00  0.00    -0.381 N 
ATOM     13  H   UNL A   1      33.116  25.432  23.230  1.00  0.00     0.160 HD
BRANCH  12  14
ATOM     14  C   UNL A   1      31.701  26.760  23.970  1.00  0.00     0.049 A 
ATOM     15  C   UNL A   1      30.592  27.009  23.152  1.00  0.00     0.030 A 
ATOM     16  C   UNL A   1      32.163  27.800  24.806  1.00  0.00     0.044 A 
ATOM     17  C   UNL A   1      29.973  28.259  23.147  1.00  0.00     0.041 A 
ATOM     18  C   UNL A   1      31.556  29.056  24.792  1.00  0.00     0.057 A 
ATOM     19  Br  UNL A   1      33.664  27.549  25.949  1.00  0.00    -0.048 Br
ATOM     20  C   UNL A   1      30.470  29.271  23.958  1.00  0.00     0.124 A 
ATOM     21  F   UNL A   1      29.890  30.478  23.929  1.00  0.00    -0.207 F 
ENDBRANCH  12  14
ENDBRANCH  10  12
ENDBRANCH   8  10
ENDBRANCH   6   8
ENDBRANCH   5   6
ENDBRANCH   4   5
ENDBRANCH   3   4
ENDBRANCH   2   3
ENDBRANCH   1   2
BRANCH   1  22
ATOM     22  C   UNL A   1      40.539  21.154  26.338  1.00  0.00     0.188 C 
BRANCH  22  23
ATOM     23  O   UNL A   1      41.661  21.914  25.949  1.00  0.00    -0.376 OA
BRANCH  23  24
ATOM     24  C   UNL A   1      42.893  21.265  25.683  1.00  0.00     0.202 C 
BRANCH  24  25
ATOM     25  C   UNL A   1      43.966  22.171  25.064  1.00  0.00     0.261 C 
BRANCH  25  26
ATOM     26  O   UNL A   1      43.502  23.480  24.680  1.00  0.00    -0.460 OA
BRANCH  26  27
ATOM     27  C   UNL A   1      44.279  24.525  25.048  1.00  0.00     0.338 C 
ATOM     28  O   UNL A   1      45.309  24.901  24.504  1.00  0.00    -0.246 OA
BRANCH  27  29
ATOM     29  C   UNL A   1      43.541  25.324  26.051  1.00  0.00     0.060 A 
ATOM     30  C   UNL A   1      43.946  26.650  26.266  1.00  0.00     0.016 A 
ATOM     31  C   UNL A   1      42.439  24.810  26.738  1.00  0.00     0.016 A 
ATOM     32  C   UNL A   1      43.279  27.450  27.192  1.00  0.00     0.010 A 
ATOM     33  C   UNL A   1      41.781  25.607  27.682  1.00  0.00     0.010 A 
ATOM     34  C   UNL A   1      42.217  26.920  27.939  1.00  0.00    -0.014 A 
BRANCH  34  35
ATOM     35  C   UNL A   1      41.699  27.686  29.102  1.00  0.00     0.031 A 
ATOM     36  C   UNL A   1      42.433  27.594  30.412  1.00  0.00     0.074 A 
ATOM     37  C   UNL A   1      40.638  28.507  28.986  1.00  0.00     0.049 A 
ATOM     38  N   UNL A   1      42.175  28.172  31.558  1.00  0.00    -0.248 NA
ATOM     39  C   UNL A   1      43.625  26.731  30.431  1.00  0.00     0.031 C 
ATOM     40  C   UNL A   1      39.869  28.726  27.764  1.00  0.00     0.029 A 
ATOM     41  N   UNL A   1      40.031  29.315  29.917  1.00  0.00    -0.354 N 
ATOM     42  C   UNL A   1      43.164  27.738  32.432  1.00  0.00     0.074 A 
ATOM     43  C   UNL A   1      44.007  26.821  31.696  1.00  0.00     0.031 C 
ATOM     44  C   UNL A   1      38.892  29.615  28.018  1.00  0.00     0.029 A 
ATOM     45  C   UNL A   1      38.944  29.997  29.428  1.00  0.00     0.049 A 
ATOM     46  H   UNL A   1      40.346  29.396  30.846  1.00  0.00     0.167 HD
ATOM     47  C   UNL A   1      43.361  28.082  33.727  1.00  0.00     0.037 A 
ATOM     48  C   UNL A   1      38.078  30.821  30.055  1.00  0.00     0.037 A 
ATOM     49  C   UNL A   1      42.526  28.998  34.460  1.00  0.00     0.049 A 
ATOM     50  C   UNL A   1      38.275  31.128  31.519  1.00  0.00     0.074 A 
ATOM     51  C   UNL A   1      42.652  29.420  35.772  1.00  0.00     0.029 A 
ATOM     52  N   UNL A   1      41.403  29.629  33.944  1.00  0.00    -0.354 N 
ATOM     53  N   UNL A   1      39.221  30.727  32.333  1.00  0.00    -0.248 NA
ATOM     54  C   UNL A   1      37.280  32.009  32.149  1.00  0.00     0.031 C 
ATOM     55  C   UNL A   1      41.571  30.254  36.070  1.00  0.00     0.029 A 
ATOM     56  C   UNL A   1      40.809  30.412  34.924  1.00  0.00     0.049 A 
ATOM     57  H   UNL A   1      41.076  29.536  33.021  1.00  0.00     0.167 HD
ATOM     58  C   UNL A   1      38.954  31.327  33.558  1.00  0.00     0.074 A 
ATOM     59  C   UNL A   1      37.769  32.136  33.375  1.00  0.00     0.031 C 
ATOM     60  C   UNL A   1      39.628  31.215  34.731  1.00  0.00     0.037 A 
BRANCH  47  61
ATOM     61  C   UNL A   1      44.508  27.433  34.449  1.00  0.00     0.064 A 
ATOM     62  C   UNL A   1      45.750  28.066  34.595  1.00  0.00     0.173 A 
ATOM     63  C   UNL A   1      44.349  26.164  35.029  1.00  0.00     0.173 A 
ATOM     64  F   UNL A   1      45.961  29.273  34.046  1.00  0.00    -0.203 F 
ATOM     65  C   UNL A   1      46.800  27.444  35.265  1.00  0.00     0.198 A 
ATOM     66  C   UNL A   1      45.389  25.559  35.728  1.00  0.00     0.198 A 
ATOM     67  F   UNL A   1      43.181  25.512  34.923  1.00  0.00    -0.203 F 
ATOM     68  F   UNL A   1      47.996  28.045  35.343  1.00  0.00    -0.200 F 
ATOM     69  C   UNL A   1      46.616  26.194  35.839  1.00  0.00     0.200 A 
ATOM     70  F   UNL A   1      45.204  24.358  36.295  1.00  0.00    -0.200 F 
ATOM     71  F   UNL A   1      47.625  25.599  36.491  1.00  0.00    -0.200 F 
ENDBRANCH  47  61
BRANCH  48  72
ATOM     72  C   UNL A   1      36.932  31.407  29.308  1.00  0.00     0.064 A 
ATOM     73  C   UNL A   1      36.900  32.768  28.970  1.00  0.00     0.173 A 
ATOM     74  C   UNL A   1      35.826  30.623  28.946  1.00  0.00     0.173 A 
ATOM     75  F   UNL A   1      37.918  33.568  29.320  1.00  0.00    -0.203 F 
ATOM     76  C   UNL A   1      35.800  33.324  28.320  1.00  0.00     0.198 A 
ATOM     77  C   UNL A   1      34.742  31.173  28.266  1.00  0.00     0.198 A 
ATOM     78  F   UNL A   1      35.800  29.316  29.252  1.00  0.00    -0.203 F 
ATOM     79  F   UNL A   1      35.772  34.638  28.061  1.00  0.00    -0.200 F 
ATOM     80  C   UNL A   1      34.725  32.524  27.961  1.00  0.00     0.200 A 
ATOM     81  F   UNL A   1      33.710  30.393  27.913  1.00  0.00    -0.200 F 
ATOM     82  F   UNL A   1      33.668  33.059  27.335  1.00  0.00    -0.200 F 
ENDBRANCH  48  72
BRANCH  60  83
ATOM     83  C   UNL A   1      39.122  32.018  35.899  1.00  0.00     0.064 A 
ATOM     84  C   UNL A   1      39.510  33.351  36.106  1.00  0.00     0.173 A 
ATOM     85  C   UNL A   1      38.220  31.451  36.813  1.00  0.00     0.173 A 
ATOM     86  F   UNL A   1      40.378  33.940  35.269  1.00  0.00    -0.203 F 
ATOM     87  C   UNL A   1      39.047  34.070  37.206  1.00  0.00     0.198 A 
ATOM     88  C   UNL A   1      37.730  32.185  37.890  1.00  0.00     0.198 A 
ATOM     89  F   UNL A   1      37.806  30.185  36.659  1.00  0.00    -0.203 F 
ATOM     90  F   UNL A   1      39.484  35.319  37.419  1.00  0.00    -0.200 F 
ATOM     91  C   UNL A   1      38.154  33.490  38.094  1.00  0.00     0.200 A 
ATOM     92  F   UNL A   1      36.852  31.627  38.735  1.00  0.00    -0.200 F 
ATOM     93  F   UNL A   1      37.709  34.183  39.149  1.00  0.00    -0.200 F 
ENDBRANCH  60  83
ENDBRANCH  34  35
ENDBRANCH  27  29
ENDBRANCH  26  27
ENDBRANCH  25  26
ENDBRANCH  24  25
ENDBRANCH  23  24
ENDBRANCH  22  23
ENDBRANCH   1  22
TORSDOF 20
ENDMDL
MODEL 2
REMARK VINA RESULT:     -10.1      5.076      7.634
REMARK SMILES C[C@H](Nc1ccc(F)cc1Br)[C@@H](C)C(=O)OCCOCCOCCOC(=O)c1ccc(-c2c3nc(c(-c4c(F)c(F)c(F)c(F)c4F)c4ccc([nH]4)c(-c4c(F)c(F)c(F)c(F)c4F)c4nc(c(-c5c(F)c(F)c(F)c(F)c5F)c5ccc2[nH]5)C=C4)C=C3)cc1
REMARK SMILES IDX 20 1 19 2 18 3 17 4 16 5 14 6 15 7 12 8 13 9 2 10 1 11 3 12
REMARK SMILES IDX 4 14 5 15 10 16 6 17 9 18 11 19 7 20 8 21 21 22 22 23 23 24
REMARK SMILES IDX 24 25 25 26 26 27 27 28 28 29 29 30 90 31 30 32 89 33 31 34
REMARK SMILES IDX 32 35 33 36 83 37 34 38 88 39 82 40 84 41 35 42 87 43 81 44
REMARK SMILES IDX 80 45 36 47 68 48 48 49 67 50 49 51 52 52 66 53 85 54 50 55
REMARK SMILES IDX 51 56 65 58 86 59 53 60 37 61 38 62 46 63 39 64 40 65 44 66
REMARK SMILES IDX 47 67 41 68 42 69 45 70 43 71 69 72 70 73 78 74 71 75 72 76
REMARK SMILES IDX 76 77 79 78 73 79 74 80 77 81 75 82 54 83 55 84 63 85 56 86
REMARK SMILES IDX 57 87 61 88 64 89 58 90 59 91 62 92 60 93
REMARK H PARENT 3 13 84 46 52 57
REMARK Flexibility Score: inf
ROOT
ATOM      1  C   UNL A   1      41.761  21.321  26.732  1.00  0.00     0.188 C 
ENDROOT
BRANCH   1   2
ATOM      2  O   UNL A   1      40.943  22.208  25.989  1.00  0.00    -0.376 OA
BRANCH   2   3
ATOM      3  C   UNL A   1      39.821  22.826  26.609  1.00  0.00     0.202 C 
BRANCH   3   4
ATOM      4  C   UNL A   1      38.404  22.296  26.310  1.00  0.00     0.261 C 
BRANCH   4   5
ATOM      5  O   UNL A   1      38.168  21.612  25.043  1.00  0.00    -0.463 OA
BRANCH   5   6
ATOM      6  C   UNL A   1      36.894  21.189  24.834  1.00  0.00     0.310 C 
ATOM      7  O   UNL A   1      36.545  20.018  24.986  1.00  0.00    -0.252 OA
BRANCH   6   8
ATOM      8  C   UNL A   1      35.883  22.227  24.334  1.00  0.00     0.118 C 
ATOM      9  C   UNL A   1      36.611  22.963  23.194  1.00  0.00     0.022 C 
BRANCH   8  10
ATOM     10  C   UNL A   1      35.193  23.244  25.287  1.00  0.00     0.090 C 
ATOM     11  C   UNL A   1      34.705  22.664  26.627  1.00  0.00     0.031 C 
BRANCH  10  12
ATOM     12  N   UNL A   1      33.960  23.737  24.632  1.00  0.00    -0.381 N 
ATOM     13  H   UNL A   1      33.631  23.314  23.806  1.00  0.00     0.160 HD
BRANCH  12  14
ATOM     14  C   UNL A   1      33.271  24.812  25.199  1.00  0.00     0.049 A 
ATOM     15  C   UNL A   1      33.923  26.036  25.391  1.00  0.00     0.030 A 
ATOM     16  C   UNL A   1      31.952  24.674  25.682  1.00  0.00     0.044 A 
ATOM     17  C   UNL A   1      33.293  27.085  26.061  1.00  0.00     0.041 A 
ATOM     18  C   UNL A   1      31.324  25.714  26.366  1.00  0.00     0.057 A 
ATOM     19  Br  UNL A   1      30.991  23.045  25.465  1.00  0.00    -0.048 Br
ATOM     20  C   UNL A   1      32.006  26.908  26.552  1.00  0.00     0.124 A 
ATOM     21  F   UNL A   1      31.416  27.907  27.220  1.00  0.00    -0.207 F 
ENDBRANCH  12  14
ENDBRANCH  10  12
ENDBRANCH   8  10
ENDBRANCH   6   8
ENDBRANCH   5   6
ENDBRANCH   4   5
ENDBRANCH   3   4
ENDBRANCH   2   3
ENDBRANCH   1   2
BRANCH   1  22
ATOM     22  C   UNL A   1      41.538  19.819  26.600  1.00  0.00     0.188 C 
BRANCH  22  23
ATOM     23  O   UNL A   1      42.410  19.025  27.373  1.00  0.00    -0.376 OA
BRANCH  23  24
ATOM     24  C   UNL A   1      43.261  18.087  26.737  1.00  0.00     0.202 C 
BRANCH  24  25
ATOM     25  C   UNL A   1      43.469  18.335  25.237  1.00  0.00     0.261 C 
BRANCH  25  26
ATOM     26  O   UNL A   1      44.797  18.766  24.876  1.00  0.00    -0.460 OA
BRANCH  26  27
ATOM     27  C   UNL A   1      44.879  19.728  23.928  1.00  0.00     0.338 C 
ATOM     28  O   UNL A   1      44.760  19.580  22.720  1.00  0.00    -0.246 OA
BRANCH  27  29
ATOM     29  C   UNL A   1      44.857  21.047  24.601  1.00  0.00     0.060 A 
ATOM     30  C   UNL A   1      44.266  22.122  23.922  1.00  0.00     0.016 A 
ATOM     31  C   UNL A   1      45.358  21.224  25.891  1.00  0.00     0.016 A 
ATOM     32  C   UNL A   1      44.210  23.383  24.513  1.00  0.00     0.010 A 
ATOM     33  C   UNL A   1      45.320  22.495  26.478  1.00  0.00     0.010 A 
ATOM     34  C   UNL A   1      44.775  23.589  25.779  1.00  0.00    -0.014 A 
BRANCH  34  35
ATOM     35  C   UNL A   1      44.951  24.979  26.275  1.00  0.00     0.031 A 
ATOM     36  C   UNL A   1      46.307  25.621  26.160  1.00  0.00     0.074 A 
ATOM     37  C   UNL A   1      43.913  25.690  26.755  1.00  0.00     0.049 A 
ATOM     38  N   UNL A   1      46.699  26.818  26.517  1.00  0.00    -0.248 NA
ATOM     39  C   UNL A   1      47.367  24.798  25.556  1.00  0.00     0.031 C 
ATOM     40  C   UNL A   1      42.541  25.206  26.874  1.00  0.00     0.029 A 
ATOM     41  N   UNL A   1      43.859  26.980  27.226  1.00  0.00    -0.354 N 
ATOM     42  C   UNL A   1      48.047  26.887  26.189  1.00  0.00     0.074 A 
ATOM     43  C   UNL A   1      48.416  25.602  25.638  1.00  0.00     0.031 C 
ATOM     44  C   UNL A   1      41.775  26.188  27.383  1.00  0.00     0.029 A 
ATOM     45  C   UNL A   1      42.611  27.355  27.659  1.00  0.00     0.049 A 
ATOM     46  H   UNL A   1      44.641  27.577  27.251  1.00  0.00     0.167 HD
ATOM     47  C   UNL A   1      48.899  27.932  26.323  1.00  0.00     0.037 A 
ATOM     48  C   UNL A   1      42.197  28.504  28.232  1.00  0.00     0.037 A 
ATOM     49  C   UNL A   1      48.532  29.214  26.867  1.00  0.00     0.049 A 
ATOM     50  C   UNL A   1      43.184  29.626  28.441  1.00  0.00     0.074 A 
ATOM     51  C   UNL A   1      49.321  30.339  27.031  1.00  0.00     0.029 A 
ATOM     52  N   UNL A   1      47.270  29.539  27.343  1.00  0.00    -0.354 N 
ATOM     53  N   UNL A   1      44.452  29.690  28.114  1.00  0.00    -0.248 NA
ATOM     54  C   UNL A   1      42.676  30.840  29.098  1.00  0.00     0.031 C 
ATOM     55  C   UNL A   1      48.556  31.322  27.665  1.00  0.00     0.029 A 
ATOM     56  C   UNL A   1      47.269  30.837  27.832  1.00  0.00     0.049 A 
ATOM     57  H   UNL A   1      46.491  28.938  27.336  1.00  0.00     0.167 HD
ATOM     58  C   UNL A   1      44.884  30.955  28.496  1.00  0.00     0.074 A 
ATOM     59  C   UNL A   1      43.737  31.633  29.060  1.00  0.00     0.031 C 
ATOM     60  C   UNL A   1      46.120  31.504  28.391  1.00  0.00     0.037 A 
BRANCH  47  61
ATOM     61  C   UNL A   1      50.327  27.719  25.906  1.00  0.00     0.064 A 
ATOM     62  C   UNL A   1      50.735  27.821  24.568  1.00  0.00     0.173 A 
ATOM     63  C   UNL A   1      51.308  27.434  26.869  1.00  0.00     0.173 A 
ATOM     64  F   UNL A   1      49.835  28.076  23.606  1.00  0.00    -0.203 F 
ATOM     65  C   UNL A   1      52.064  27.616  24.205  1.00  0.00     0.198 A 
ATOM     66  C   UNL A   1      52.641  27.263  26.508  1.00  0.00     0.198 A 
ATOM     67  F   UNL A   1      50.975  27.327  28.165  1.00  0.00    -0.203 F 
ATOM     68  F   UNL A   1      52.420  27.664  22.914  1.00  0.00    -0.200 F 
ATOM     69  C   UNL A   1      53.017  27.345  25.176  1.00  0.00     0.200 A 
ATOM     70  F   UNL A   1      53.563  27.017  27.449  1.00  0.00    -0.200 F 
ATOM     71  F   UNL A   1      54.297  27.156  24.827  1.00  0.00    -0.200 F 
ENDBRANCH  47  61
BRANCH  48  72
ATOM     72  C   UNL A   1      40.781  28.653  28.668  1.00  0.00     0.064 A 
ATOM     73  C   UNL A   1      40.381  28.329  29.973  1.00  0.00     0.173 A 
ATOM     74  C   UNL A   1      39.791  29.092  27.776  1.00  0.00     0.173 A 
ATOM     75  F   UNL A   1      41.283  27.875  30.855  1.00  0.00    -0.203 F 
ATOM     76  C   UNL A   1      39.046  28.417  30.360  1.00  0.00     0.198 A 
ATOM     77  C   UNL A   1      38.461  29.212  28.174  1.00  0.00     0.198 A 
ATOM     78  F   UNL A   1      40.117  29.407  26.513  1.00  0.00    -0.203 F 
ATOM     79  F   UNL A   1      38.683  28.046  31.595  1.00  0.00    -0.200 F 
ATOM     80  C   UNL A   1      38.088  28.866  29.463  1.00  0.00     0.200 A 
ATOM     81  F   UNL A   1      37.542  29.657  27.306  1.00  0.00    -0.200 F 
ATOM     82  F   UNL A   1      36.804  28.952  29.837  1.00  0.00    -0.200 F 
ENDBRANCH  48  72
BRANCH  60  83
ATOM     83  C   UNL A   1      46.289  32.923  28.863  1.00  0.00     0.064 A 
ATOM     84  C   UNL A   1      46.589  33.230  30.199  1.00  0.00     0.173 A 
ATOM     85  C   UNL A   1      46.167  33.991  27.960  1.00  0.00     0.173 A 
ATOM     86  F   UNL A   1      46.707  32.249  31.108  1.00  0.00    -0.203 F 
ATOM     87  C   UNL A   1      46.719  34.552  30.620  1.00  0.00     0.198 A 
ATOM     88  C   UNL A   1      46.335  35.309  28.376  1.00  0.00     0.198 A 
ATOM     89  F   UNL A   1      45.892  33.758  26.668  1.00  0.00    -0.203 F 
ATOM     90  F   UNL A   1      46.941  34.822  31.914  1.00  0.00    -0.200 F 
ATOM     91  C   UNL A   1      46.598  35.590  29.709  1.00  0.00     0.200 A 
ATOM     92  F   UNL A   1      46.236  36.309  27.489  1.00  0.00    -0.200 F 
ATOM     93  F   UNL A   1      46.726  36.859  30.115  1.00  0.00    -0.200 F 
ENDBRANCH  60  83
ENDBRANCH  34  35
ENDBRANCH  27  29
ENDBRANCH  26  27
ENDBRANCH  25  26
ENDBRANCH  24  25
ENDBRANCH  23  24
ENDBRANCH  22  23
ENDBRANCH   1  22
TORSDOF 20
ENDMDL
MODEL 3
REMARK VINA RESULT:     -10.0      5.236      9.649
REMARK SMILES C[C@H](Nc1ccc(F)cc1Br)[C@@H](C)C(=O)OCCOCCOCCOC(=O)c1ccc(-c2c3nc(c(-c4c(F)c(F)c(F)c(F)c4F)c4ccc([nH]4)c(-c4c(F)c(F)c(F)c(F)c4F)c4nc(c(-c5c(F)c(F)c(F)c(F)c5F)c5ccc2[nH]5)C=C4)C=C3)cc1
REMARK SMILES IDX 20 1 19 2 18 3 17 4 16 5 14 6 15 7 12 8 13 9 2 10 1 11 3 12
REMARK SMILES IDX 4 14 5 15 10 16 6 17 9 18 11 19 7 20 8 21 21 22 22 23 23 24
REMARK SMILES IDX 24 25 25 26 26 27 27 28 28 29 29 30 90 31 30 32 89 33 31 34
REMARK SMILES IDX 32 35 33 36 83 37 34 38 88 39 82 40 84 41 35 42 87 43 81 44
REMARK SMILES IDX 80 45 36 47 68 48 48 49 67 50 49 51 52 52 66 53 85 54 50 55
REMARK SMILES IDX 51 56 65 58 86 59 53 60 37 61 38 62 46 63 39 64 40 65 44 66
REMARK SMILES IDX 47 67 41 68 42 69 45 70 43 71 69 72 70 73 78 74 71 75 72 76
REMARK SMILES IDX 76 77 79 78 73 79 74 80 77 81 75 82 54 83 55 84 63 85 56 86
REMARK SMILES IDX 57 87 61 88 64 89 58 90 59 91 62 92 60 93
REMARK H PARENT 3 13 84 46 52 57
REMARK Flexibility Score: inf
ROOT
ATOM      1  C   UNL A   1      41.761  21.454  27.046  1.00  0.00     0.188 C 
ENDROOT
BRANCH   1   2
ATOM      2  O   UNL A   1      41.070  22.337  26.181  1.00  0.00    -0.376 OA
BRANCH   2   3
ATOM      3  C   UNL A   1      39.871  22.966  26.618  1.00  0.00     0.202 C 
BRANCH   3   4
ATOM      4  C   UNL A   1      38.513  22.297  26.322  1.00  0.00     0.261 C 
BRANCH   4   5
ATOM      5  O   UNL A   1      38.308  21.685  25.013  1.00  0.00    -0.463 OA
BRANCH   5   6
ATOM      6  C   UNL A   1      37.120  21.049  24.844  1.00  0.00     0.310 C 
ATOM      7  O   UNL A   1      36.996  19.828  24.932  1.00  0.00    -0.252 OA
BRANCH   6   8
ATOM      8  C   UNL A   1      35.908  21.912  24.474  1.00  0.00     0.118 C 
ATOM      9  C   UNL A   1      36.438  22.891  23.409  1.00  0.00     0.022 C 
BRANCH   8  10
ATOM     10  C   UNL A   1      35.067  22.670  25.541  1.00  0.00     0.090 C 
ATOM     11  C   UNL A   1      34.613  21.823  26.743  1.00  0.00     0.031 C 
BRANCH  10  12
ATOM     12  N   UNL A   1      33.805  23.117  24.910  1.00  0.00    -0.381 N 
ATOM     13  H   UNL A   1      33.370  22.567  24.219  1.00  0.00     0.160 HD
BRANCH  12  14
ATOM     14  C   UNL A   1      33.238  24.330  25.308  1.00  0.00     0.049 A 
ATOM     15  C   UNL A   1      33.991  25.508  25.243  1.00  0.00     0.030 A 
ATOM     16  C   UNL A   1      31.946  24.393  25.874  1.00  0.00     0.044 A 
ATOM     17  C   UNL A   1      33.488  26.708  25.743  1.00  0.00     0.041 A 
ATOM     18  C   UNL A   1      31.444  25.588  26.390  1.00  0.00     0.057 A 
ATOM     19  Br  UNL A   1      30.852  22.841  26.004  1.00  0.00    -0.048 Br
ATOM     20  C   UNL A   1      32.226  26.732  26.322  1.00  0.00     0.124 A 
ATOM     21  F   UNL A   1      31.758  27.881  26.828  1.00  0.00    -0.207 F 
ENDBRANCH  12  14
ENDBRANCH  10  12
ENDBRANCH   8  10
ENDBRANCH   6   8
ENDBRANCH   5   6
ENDBRANCH   4   5
ENDBRANCH   3   4
ENDBRANCH   2   3
ENDBRANCH   1   2
BRANCH   1  22
ATOM     22  C   UNL A   1      41.458  19.961  26.981  1.00  0.00     0.188 C 
BRANCH  22  23
ATOM     23  O   UNL A   1      42.397  19.142  27.639  1.00  0.00    -0.376 OA
BRANCH  23  24
ATOM     24  C   UNL A   1      43.079  18.131  26.917  1.00  0.00     0.202 C 
BRANCH  24  25
ATOM     25  C   UNL A   1      43.328  18.464  25.440  1.00  0.00     0.261 C 
BRANCH  25  26
ATOM     26  O   UNL A   1      44.671  18.892  25.137  1.00  0.00    -0.460 OA
BRANCH  26  27
ATOM     27  C   UNL A   1      44.804  19.784  24.129  1.00  0.00     0.338 C 
ATOM     28  O   UNL A   1      44.648  19.570  22.934  1.00  0.00    -0.246 OA
BRANCH  27  29
ATOM     29  C   UNL A   1      44.894  21.140  24.716  1.00  0.00     0.060 A 
ATOM     30  C   UNL A   1      44.522  22.230  23.917  1.00  0.00     0.016 A 
ATOM     31  C   UNL A   1      45.288  21.345  26.040  1.00  0.00     0.016 A 
ATOM     32  C   UNL A   1      44.578  23.527  24.424  1.00  0.00     0.010 A 
ATOM     33  C   UNL A   1      45.363  22.650  26.543  1.00  0.00     0.010 A 
ATOM     34  C   UNL A   1      45.041  23.750  25.728  1.00  0.00    -0.014 A 
BRANCH  34  35
ATOM     35  C   UNL A   1      45.352  25.139  26.157  1.00  0.00     0.031 A 
ATOM     36  C   UNL A   1      44.257  25.967  26.773  1.00  0.00     0.074 A 
ATOM     37  C   UNL A   1      46.599  25.638  26.070  1.00  0.00     0.049 A 
ATOM     38  N   UNL A   1      44.291  27.195  27.226  1.00  0.00    -0.248 NA
ATOM     39  C   UNL A   1      42.942  25.318  26.898  1.00  0.00     0.031 C 
ATOM     40  C   UNL A   1      47.759  24.925  25.541  1.00  0.00     0.029 A 
ATOM     41  N   UNL A   1      47.095  26.866  26.435  1.00  0.00    -0.354 N 
ATOM     42  C   UNL A   1      43.006  27.466  27.679  1.00  0.00     0.074 A 
ATOM     43  C   UNL A   1      42.207  26.290  27.416  1.00  0.00     0.031 C 
ATOM     44  C   UNL A   1      48.836  25.728  25.618  1.00  0.00     0.029 A 
ATOM     45  C   UNL A   1      48.433  27.022  26.167  1.00  0.00     0.049 A 
ATOM     46  H   UNL A   1      46.543  27.568  26.850  1.00  0.00     0.167 HD
ATOM     47  C   UNL A   1      42.537  28.589  28.274  1.00  0.00     0.037 A 
ATOM     48  C   UNL A   1      49.235  28.095  26.329  1.00  0.00     0.037 A 
ATOM     49  C   UNL A   1      43.333  29.759  28.541  1.00  0.00     0.049 A 
ATOM     50  C   UNL A   1      48.669  29.360  26.923  1.00  0.00     0.074 A 
ATOM     51  C   UNL A   1      42.950  30.942  29.151  1.00  0.00     0.029 A 
ATOM     52  N   UNL A   1      44.672  29.897  28.208  1.00  0.00    -0.354 N 
ATOM     53  N   UNL A   1      47.458  29.604  27.364  1.00  0.00    -0.248 NA
ATOM     54  C   UNL A   1      49.588  30.502  27.044  1.00  0.00     0.031 C 
ATOM     55  C   UNL A   1      44.039  31.818  29.128  1.00  0.00     0.029 A 
ATOM     56  C   UNL A   1      45.122  31.159  28.570  1.00  0.00     0.049 A 
ATOM     57  H   UNL A   1      45.222  29.204  27.778  1.00  0.00     0.167 HD
ATOM     58  C   UNL A   1      47.477  30.910  27.839  1.00  0.00     0.074 A 
ATOM     59  C   UNL A   1      48.826  31.400  27.653  1.00  0.00     0.031 C 
ATOM     60  C   UNL A   1      46.468  31.638  28.380  1.00  0.00     0.037 A 
BRANCH  47  61
ATOM     61  C   UNL A   1      41.081  28.620  28.643  1.00  0.00     0.064 A 
ATOM     62  C   UNL A   1      40.626  28.234  29.913  1.00  0.00     0.173 A 
ATOM     63  C   UNL A   1      40.127  29.070  27.716  1.00  0.00     0.173 A 
ATOM     64  F   UNL A   1      41.494  27.781  30.831  1.00  0.00    -0.203 F 
ATOM     65  C   UNL A   1      39.271  28.268  30.231  1.00  0.00     0.198 A 
ATOM     66  C   UNL A   1      38.778  29.136  28.049  1.00  0.00     0.198 A 
ATOM     67  F   UNL A   1      40.506  29.454  26.487  1.00  0.00    -0.203 F 
ATOM     68  F   UNL A   1      38.854  27.842  31.431  1.00  0.00    -0.200 F 
ATOM     69  C   UNL A   1      38.348  28.727  29.302  1.00  0.00     0.200 A 
ATOM     70  F   UNL A   1      37.890  29.594  27.154  1.00  0.00    -0.200 F 
ATOM     71  F   UNL A   1      37.045  28.766  29.612  1.00  0.00    -0.200 F 
ENDBRANCH  47  61
BRANCH  48  72
ATOM     72  C   UNL A   1      50.662  28.030  25.908  1.00  0.00     0.064 A 
ATOM     73  C   UNL A   1      51.030  28.138  24.559  1.00  0.00     0.173 A 
ATOM     74  C   UNL A   1      51.685  27.825  26.846  1.00  0.00     0.173 A 
ATOM     75  F   UNL A   1      50.088  28.304  23.619  1.00  0.00    -0.203 F 
ATOM     76  C   UNL A   1      52.362  28.022  24.164  1.00  0.00     0.198 A 
ATOM     77  C   UNL A   1      53.019  27.744  26.454  1.00  0.00     0.198 A 
ATOM     78  F   UNL A   1      51.388  27.707  28.150  1.00  0.00    -0.203 F 
ATOM     79  F   UNL A   1      52.679  28.071  22.864  1.00  0.00    -0.200 F 
ATOM     80  C   UNL A   1      53.356  27.832  25.112  1.00  0.00     0.200 A 
ATOM     81  F   UNL A   1      53.977  27.571  27.376  1.00  0.00    -0.200 F 
ATOM     82  F   UNL A   1      54.636  27.723  24.732  1.00  0.00    -0.200 F 
ENDBRANCH  48  72
BRANCH  60  83
ATOM     83  C   UNL A   1      46.793  33.032  28.845  1.00  0.00     0.064 A 
ATOM     84  C   UNL A   1      46.559  34.156  28.039  1.00  0.00     0.173 A 
ATOM     85  C   UNL A   1      47.328  33.247  30.125  1.00  0.00     0.173 A 
ATOM     86  F   UNL A   1      46.058  34.008  26.802  1.00  0.00    -0.203 F 
ATOM     87  C   UNL A   1      46.888  35.437  28.479  1.00  0.00     0.198 A 
ATOM     88  C   UNL A   1      47.620  34.532  30.577  1.00  0.00     0.198 A 
ATOM     89  F   UNL A   1      47.563  32.211  30.944  1.00  0.00    -0.203 F 
ATOM     90  F   UNL A   1      46.716  36.487  27.665  1.00  0.00    -0.200 F 
ATOM     91  C   UNL A   1      47.412  35.624  29.749  1.00  0.00     0.200 A 
ATOM     92  F   UNL A   1      48.109  34.711  31.811  1.00  0.00    -0.200 F 
ATOM     93  F   UNL A   1      47.725  36.856  30.171  1.00  0.00    -0.200 F 
ENDBRANCH  60  83
ENDBRANCH  34  35
ENDBRANCH  27  29
ENDBRANCH  26  27
ENDBRANCH  25  26
ENDBRANCH  24  25
ENDBRANCH  23  24
ENDBRANCH  22  23
ENDBRANCH   1  22
TORSDOF 20
ENDMDL
