MODEL 1
REMARK VINA RESULT:     -11.7      0.000      0.000
REMARK SMILES C[C@@H](C(=O)OCCOCCOCCOC(=O)c1ccc(-c2c3nc(c(-c4c(F)c(F)c(F)c(F)c4F)c4ccc([nH]4)c(-c4c(F)c(F)c(F)c(F)c4F)c4nc(c(-c5c(F)c(F)c(F)c(F)c5F)c5ccc2[nH]5)C=C4)C=C3)cc1)c1ccccc1-c1ccn(C(F)F)c(=O)c1
REMARK SMILES IDX 9 1 8 2 7 3 6 4 5 5 3 6 4 7 2 8 1 9 80 10 81 11 85 12 82 13
REMARK SMILES IDX 84 14 83 15 86 16 87 17 95 18 88 19 93 20 89 21 94 22 90 23
REMARK SMILES IDX 91 24 92 25 10 26 11 27 12 28 13 29 14 30 15 31 16 32 17 33
REMARK SMILES IDX 18 34 79 35 19 36 78 37 20 38 21 39 22 40 72 41 23 42 77 43
REMARK SMILES IDX 71 44 73 45 24 46 76 47 70 48 69 49 25 51 57 52 37 53 56 54
REMARK SMILES IDX 38 55 41 56 55 57 74 58 39 59 40 60 54 62 75 63 42 64 26 65
REMARK SMILES IDX 27 66 35 67 28 68 29 69 33 70 36 71 30 72 31 73 34 74 32 75
REMARK SMILES IDX 58 76 59 77 67 78 60 79 61 80 65 81 68 82 62 83 63 84 66 85
REMARK SMILES IDX 64 86 43 87 44 88 52 89 45 90 46 91 50 92 53 93 47 94 48 95
REMARK SMILES IDX 51 96 49 97
REMARK H PARENT 73 50 41 61
REMARK Flexibility Score: inf
ROOT
ATOM      1  C   UNL A   1      34.915  33.340  28.370  1.00  0.00     0.188 C 
ENDROOT
BRANCH   1   2
ATOM      2  O   UNL A   1      35.108  32.305  27.404  1.00  0.00    -0.376 OA
BRANCH   2   3
ATOM      3  C   UNL A   1      35.522  31.079  28.018  1.00  0.00     0.202 C 
BRANCH   3   4
ATOM      4  C   UNL A   1      34.918  29.784  27.438  1.00  0.00     0.261 C 
BRANCH   4   5
ATOM      5  O   UNL A   1      33.615  29.983  26.858  1.00  0.00    -0.463 OA
BRANCH   5   6
ATOM      6  C   UNL A   1      33.241  29.108  25.879  1.00  0.00     0.313 C 
ATOM      7  O   UNL A   1      33.864  28.948  24.836  1.00  0.00    -0.252 OA
BRANCH   6   8
ATOM      8  C   UNL A   1      31.886  28.459  26.168  1.00  0.00     0.127 C 
ATOM      9  C   UNL A   1      31.529  28.195  27.641  1.00  0.00     0.025 C 
BRANCH   8  10
ATOM     10  C   UNL A   1      31.528  27.207  25.355  1.00  0.00    -0.026 A 
ATOM     11  C   UNL A   1      32.175  26.019  25.784  1.00  0.00     0.005 A 
ATOM     12  C   UNL A   1      30.733  27.143  24.190  1.00  0.00    -0.014 A 
ATOM     13  C   UNL A   1      32.061  24.815  25.091  1.00  0.00     0.000 A 
ATOM     14  C   UNL A   1      30.623  25.907  23.520  1.00  0.00     0.009 A 
ATOM     15  C   UNL A   1      31.280  24.759  23.953  1.00  0.00     0.001 A 
BRANCH  12  16
ATOM     16  C   UNL A   1      30.070  28.277  23.498  1.00  0.00    -0.011 A 
ATOM     17  C   UNL A   1      30.758  29.040  22.482  1.00  0.00     0.027 A 
ATOM     18  C   UNL A   1      28.761  28.530  23.695  1.00  0.00     0.080 A 
ATOM     19  C   UNL A   1      30.157  30.059  21.862  1.00  0.00     0.095 A 
ATOM     20  C   UNL A   1      28.067  29.655  22.988  1.00  0.00     0.255 A 
ATOM     21  N   UNL A   1      28.866  30.426  22.165  1.00  0.00    -0.258 N 
ATOM     22  O   UNL A   1      26.866  29.824  23.175  1.00  0.00    -0.269 OA
BRANCH  21  23
ATOM     23  C   UNL A   1      28.320  31.612  21.549  1.00  0.00     0.451 C 
ATOM     24  F   UNL A   1      28.736  32.725  22.204  1.00  0.00    -0.185 F 
ATOM     25  F   UNL A   1      28.671  31.738  20.246  1.00  0.00    -0.185 F 
ENDBRANCH  21  23
ENDBRANCH  12  16
ENDBRANCH   8  10
ENDBRANCH   6   8
ENDBRANCH   5   6
ENDBRANCH   4   5
ENDBRANCH   3   4
ENDBRANCH   2   3
ENDBRANCH   1   2
BRANCH   1  26
ATOM     26  C   UNL A   1      34.707  32.824  29.779  1.00  0.00     0.188 C 
BRANCH  26  27
ATOM     27  O   UNL A   1      33.997  33.768  30.566  1.00  0.00    -0.376 OA
BRANCH  27  28
ATOM     28  C   UNL A   1      34.831  34.357  31.566  1.00  0.00     0.202 C 
BRANCH  28  29
ATOM     29  C   UNL A   1      34.760  33.623  32.913  1.00  0.00     0.261 C 
BRANCH  29  30
ATOM     30  O   UNL A   1      35.374  32.314  33.009  1.00  0.00    -0.460 OA
BRANCH  30  31
ATOM     31  C   UNL A   1      36.576  32.169  33.615  1.00  0.00     0.338 C 
ATOM     32  O   UNL A   1      36.846  32.446  34.771  1.00  0.00    -0.246 OA
BRANCH  31  33
ATOM     33  C   UNL A   1      37.522  31.499  32.674  1.00  0.00     0.060 A 
ATOM     34  C   UNL A   1      38.480  30.609  33.180  1.00  0.00     0.016 A 
ATOM     35  C   UNL A   1      37.466  31.729  31.292  1.00  0.00     0.016 A 
ATOM     36  C   UNL A   1      39.366  29.953  32.311  1.00  0.00     0.010 A 
ATOM     37  C   UNL A   1      38.360  31.084  30.425  1.00  0.00     0.010 A 
ATOM     38  C   UNL A   1      39.332  30.206  30.928  1.00  0.00    -0.014 A 
BRANCH  38  39
ATOM     39  C   UNL A   1      40.448  29.738  30.059  1.00  0.00     0.031 A 
ATOM     40  C   UNL A   1      41.587  30.684  29.802  1.00  0.00     0.074 A 
ATOM     41  C   UNL A   1      40.480  28.514  29.497  1.00  0.00     0.049 A 
ATOM     42  N   UNL A   1      42.698  30.494  29.136  1.00  0.00    -0.248 NA
ATOM     43  C   UNL A   1      41.436  32.039  30.352  1.00  0.00     0.031 C 
ATOM     44  C   UNL A   1      39.421  27.520  29.589  1.00  0.00     0.029 A 
ATOM     45  N   UNL A   1      41.456  27.892  28.750  1.00  0.00    -0.354 N 
ATOM     46  C   UNL A   1      43.374  31.705  29.183  1.00  0.00     0.074 A 
ATOM     47  C   UNL A   1      42.542  32.627  29.925  1.00  0.00     0.031 C 
ATOM     48  C   UNL A   1      39.834  26.381  29.004  1.00  0.00     0.029 A 
ATOM     49  C   UNL A   1      41.163  26.587  28.428  1.00  0.00     0.049 A 
ATOM     50  H   UNL A   1      42.288  28.341  28.474  1.00  0.00     0.167 HD
ATOM     51  C   UNL A   1      44.575  32.029  28.649  1.00  0.00     0.037 A 
ATOM     52  C   UNL A   1      41.879  25.674  27.738  1.00  0.00     0.037 A 
ATOM     53  C   UNL A   1      45.391  31.141  27.867  1.00  0.00     0.049 A 
ATOM     54  C   UNL A   1      43.211  26.065  27.139  1.00  0.00     0.074 A 
ATOM     55  C   UNL A   1      46.617  31.394  27.276  1.00  0.00     0.029 A 
ATOM     56  N   UNL A   1      45.055  29.835  27.550  1.00  0.00    -0.354 N 
ATOM     57  N   UNL A   1      43.868  27.195  27.237  1.00  0.00    -0.248 NA
ATOM     58  C   UNL A   1      43.888  25.057  26.306  1.00  0.00     0.031 C 
ATOM     59  C   UNL A   1      47.000  30.256  26.559  1.00  0.00     0.029 A 
ATOM     60  C   UNL A   1      46.041  29.274  26.752  1.00  0.00     0.049 A 
ATOM     61  H   UNL A   1      44.238  29.372  27.847  1.00  0.00     0.167 HD
ATOM     62  C   UNL A   1      45.030  27.031  26.492  1.00  0.00     0.074 A 
ATOM     63  C   UNL A   1      45.009  25.682  25.972  1.00  0.00     0.031 C 
ATOM     64  C   UNL A   1      46.019  27.926  26.247  1.00  0.00     0.037 A 
BRANCH  51  65
ATOM     65  C   UNL A   1      45.051  33.432  28.867  1.00  0.00     0.064 A 
ATOM     66  C   UNL A   1      45.842  33.773  29.976  1.00  0.00     0.173 A 
ATOM     67  C   UNL A   1      44.703  34.450  27.968  1.00  0.00     0.173 A 
ATOM     68  F   UNL A   1      46.180  32.837  30.877  1.00  0.00    -0.203 F 
ATOM     69  C   UNL A   1      46.240  35.088  30.191  1.00  0.00     0.198 A 
ATOM     70  C   UNL A   1      45.128  35.759  28.170  1.00  0.00     0.198 A 
ATOM     71  F   UNL A   1      43.946  34.174  26.895  1.00  0.00    -0.203 F 
ATOM     72  F   UNL A   1      46.944  35.401  31.287  1.00  0.00    -0.200 F 
ATOM     73  C   UNL A   1      45.887  36.078  29.286  1.00  0.00     0.200 A 
ATOM     74  F   UNL A   1      44.792  36.714  27.292  1.00  0.00    -0.200 F 
ATOM     75  F   UNL A   1      46.268  37.346  29.498  1.00  0.00    -0.200 F 
ENDBRANCH  51  65
BRANCH  52  76
ATOM     76  C   UNL A   1      41.363  24.288  27.544  1.00  0.00     0.064 A 
ATOM     77  C   UNL A   1      42.014  23.188  28.125  1.00  0.00     0.173 A 
ATOM     78  C   UNL A   1      40.256  24.024  26.724  1.00  0.00     0.173 A 
ATOM     79  F   UNL A   1      43.102  23.380  28.887  1.00  0.00    -0.203 F 
ATOM     80  C   UNL A   1      41.594  21.883  27.874  1.00  0.00     0.198 A 
ATOM     81  C   UNL A   1      39.816  22.721  26.501  1.00  0.00     0.198 A 
ATOM     82  F   UNL A   1      39.607  25.035  26.129  1.00  0.00    -0.203 F 
ATOM     83  F   UNL A   1      42.278  20.850  28.387  1.00  0.00    -0.200 F 
ATOM     84  C   UNL A   1      40.492  21.650  27.067  1.00  0.00     0.200 A 
ATOM     85  F   UNL A   1      38.748  22.501  25.722  1.00  0.00    -0.200 F 
ATOM     86  F   UNL A   1      40.093  20.395  26.818  1.00  0.00    -0.200 F 
ENDBRANCH  52  76
BRANCH  64  87
ATOM     87  C   UNL A   1      47.180  27.478  25.404  1.00  0.00     0.064 A 
ATOM     88  C   UNL A   1      47.231  27.727  24.024  1.00  0.00     0.173 A 
ATOM     89  C   UNL A   1      48.288  26.850  25.996  1.00  0.00     0.173 A 
ATOM     90  F   UNL A   1      46.195  28.315  23.406  1.00  0.00    -0.203 F 
ATOM     91  C   UNL A   1      48.336  27.348  23.266  1.00  0.00     0.198 A 
ATOM     92  C   UNL A   1      49.403  26.498  25.241  1.00  0.00     0.198 A 
ATOM     93  F   UNL A   1      48.297  26.596  27.313  1.00  0.00    -0.203 F 
ATOM     94  F   UNL A   1      48.346  27.562  21.943  1.00  0.00    -0.200 F 
ATOM     95  C   UNL A   1      49.425  26.741  23.876  1.00  0.00     0.200 A 
ATOM     96  F   UNL A   1      50.460  25.927  25.835  1.00  0.00    -0.200 F 
ATOM     97  F   UNL A   1      50.494  26.389  23.147  1.00  0.00    -0.200 F 
ENDBRANCH  64  87
ENDBRANCH  38  39
ENDBRANCH  31  33
ENDBRANCH  30  31
ENDBRANCH  29  30
ENDBRANCH  28  29
ENDBRANCH  27  28
ENDBRANCH  26  27
ENDBRANCH   1  26
TORSDOF 20
ENDMDL
MODEL 2
REMARK VINA RESULT:     -11.2      4.570      6.891
REMARK SMILES C[C@@H](C(=O)OCCOCCOCCOC(=O)c1ccc(-c2c3nc(c(-c4c(F)c(F)c(F)c(F)c4F)c4ccc([nH]4)c(-c4c(F)c(F)c(F)c(F)c4F)c4nc(c(-c5c(F)c(F)c(F)c(F)c5F)c5ccc2[nH]5)C=C4)C=C3)cc1)c1ccccc1-c1ccn(C(F)F)c(=O)c1
REMARK SMILES IDX 9 1 8 2 7 3 6 4 5 5 3 6 4 7 2 8 1 9 80 10 81 11 85 12 82 13
REMARK SMILES IDX 84 14 83 15 86 16 87 17 95 18 88 19 93 20 89 21 94 22 90 23
REMARK SMILES IDX 91 24 92 25 10 26 11 27 12 28 13 29 14 30 15 31 16 32 17 33
REMARK SMILES IDX 18 34 79 35 19 36 78 37 20 38 21 39 22 40 72 41 23 42 77 43
REMARK SMILES IDX 71 44 73 45 24 46 76 47 70 48 69 49 25 51 57 52 37 53 56 54
REMARK SMILES IDX 38 55 41 56 55 57 74 58 39 59 40 60 54 62 75 63 42 64 26 65
REMARK SMILES IDX 27 66 35 67 28 68 29 69 33 70 36 71 30 72 31 73 34 74 32 75
REMARK SMILES IDX 58 76 59 77 67 78 60 79 61 80 65 81 68 82 62 83 63 84 66 85
REMARK SMILES IDX 64 86 43 87 44 88 52 89 45 90 46 91 50 92 53 93 47 94 48 95
REMARK SMILES IDX 51 96 49 97
REMARK H PARENT 73 50 41 61
REMARK Flexibility Score: inf
ROOT
ATOM      1  C   UNL A   1      32.564  28.447  23.395  1.00  0.00     0.188 C 
ENDROOT
BRANCH   1   2
ATOM      2  O   UNL A   1      33.333  27.261  23.185  1.00  0.00    -0.376 OA
BRANCH   2   3
ATOM      3  C   UNL A   1      33.062  26.673  21.908  1.00  0.00     0.202 C 
BRANCH   3   4
ATOM      4  C   UNL A   1      32.871  25.143  21.885  1.00  0.00     0.261 C 
BRANCH   4   5
ATOM      5  O   UNL A   1      32.992  24.542  23.189  1.00  0.00    -0.463 OA
BRANCH   5   6
ATOM      6  C   UNL A   1      34.095  23.769  23.406  1.00  0.00     0.313 C 
ATOM      7  O   UNL A   1      34.805  23.329  22.509  1.00  0.00    -0.252 OA
BRANCH   6   8
ATOM      8  C   UNL A   1      34.261  23.395  24.880  1.00  0.00     0.127 C 
ATOM      9  C   UNL A   1      33.701  24.375  25.925  1.00  0.00     0.025 C 
BRANCH   8  10
ATOM     10  C   UNL A   1      35.661  22.958  25.333  1.00  0.00    -0.026 A 
ATOM     11  C   UNL A   1      36.552  24.026  25.613  1.00  0.00     0.005 A 
ATOM     12  C   UNL A   1      36.170  21.641  25.387  1.00  0.00    -0.014 A 
ATOM     13  C   UNL A   1      37.895  23.818  25.921  1.00  0.00     0.000 A 
ATOM     14  C   UNL A   1      37.529  21.461  25.717  1.00  0.00     0.009 A 
ATOM     15  C   UNL A   1      38.386  22.527  25.974  1.00  0.00     0.001 A 
BRANCH  12  16
ATOM     16  C   UNL A   1      35.457  20.393  25.016  1.00  0.00    -0.011 A 
ATOM     17  C   UNL A   1      36.167  19.144  24.858  1.00  0.00     0.027 A 
ATOM     18  C   UNL A   1      34.111  20.362  24.962  1.00  0.00     0.080 A 
ATOM     19  C   UNL A   1      35.521  18.023  24.526  1.00  0.00     0.095 A 
ATOM     20  C   UNL A   1      33.371  19.106  24.614  1.00  0.00     0.255 A 
ATOM     21  N   UNL A   1      34.161  18.011  24.317  1.00  0.00    -0.258 N 
ATOM     22  O   UNL A   1      32.145  19.120  24.611  1.00  0.00    -0.269 OA
BRANCH  21  23
ATOM     23  C   UNL A   1      33.544  16.796  23.838  1.00  0.00     0.451 C 
ATOM     24  F   UNL A   1      34.244  16.284  22.794  1.00  0.00    -0.185 F 
ATOM     25  F   UNL A   1      33.457  15.839  24.793  1.00  0.00    -0.185 F 
ENDBRANCH  21  23
ENDBRANCH  12  16
ENDBRANCH   8  10
ENDBRANCH   6   8
ENDBRANCH   5   6
ENDBRANCH   4   5
ENDBRANCH   3   4
ENDBRANCH   2   3
ENDBRANCH   1   2
BRANCH   1  26
ATOM     26  C   UNL A   1      31.409  28.260  24.357  1.00  0.00     0.188 C 
BRANCH  26  27
ATOM     27  O   UNL A   1      31.809  28.535  25.691  1.00  0.00    -0.376 OA
BRANCH  27  28
ATOM     28  C   UNL A   1      31.640  29.915  26.020  1.00  0.00     0.202 C 
BRANCH  28  29
ATOM     29  C   UNL A   1      32.963  30.614  26.367  1.00  0.00     0.261 C 
BRANCH  29  30
ATOM     30  O   UNL A   1      33.642  30.223  27.585  1.00  0.00    -0.460 OA
BRANCH  30  31
ATOM     31  C   UNL A   1      34.483  31.085  28.203  1.00  0.00     0.338 C 
ATOM     32  O   UNL A   1      34.212  32.203  28.605  1.00  0.00    -0.246 OA
BRANCH  31  33
ATOM     33  C   UNL A   1      35.797  30.413  28.429  1.00  0.00     0.060 A 
ATOM     34  C   UNL A   1      36.046  29.789  29.659  1.00  0.00     0.016 A 
ATOM     35  C   UNL A   1      36.783  30.380  27.433  1.00  0.00     0.016 A 
ATOM     36  C   UNL A   1      37.267  29.133  29.886  1.00  0.00     0.010 A 
ATOM     37  C   UNL A   1      38.008  29.737  27.665  1.00  0.00     0.010 A 
ATOM     38  C   UNL A   1      38.269  29.125  28.901  1.00  0.00    -0.014 A 
BRANCH  38  39
ATOM     39  C   UNL A   1      39.652  28.688  29.249  1.00  0.00     0.031 A 
ATOM     40  C   UNL A   1      40.417  29.502  30.254  1.00  0.00     0.074 A 
ATOM     41  C   UNL A   1      40.239  27.605  28.705  1.00  0.00     0.049 A 
ATOM     42  N   UNL A   1      41.603  29.296  30.767  1.00  0.00    -0.248 NA
ATOM     43  C   UNL A   1      39.760  30.731  30.722  1.00  0.00     0.031 C 
ATOM     44  C   UNL A   1      39.658  26.766  27.668  1.00  0.00     0.029 A 
ATOM     45  N   UNL A   1      41.455  27.014  28.970  1.00  0.00    -0.354 N 
ATOM     46  C   UNL A   1      41.836  30.370  31.613  1.00  0.00     0.074 A 
ATOM     47  C   UNL A   1      40.679  31.235  31.530  1.00  0.00     0.031 C 
ATOM     48  C   UNL A   1      40.472  25.718  27.442  1.00  0.00     0.029 A 
ATOM     49  C   UNL A   1      41.671  25.849  28.270  1.00  0.00     0.049 A 
ATOM     50  H   UNL A   1      42.108  27.390  29.603  1.00  0.00     0.167 HD
ATOM     51  C   UNL A   1      42.919  30.625  32.384  1.00  0.00     0.037 A 
ATOM     52  C   UNL A   1      42.720  24.999  28.287  1.00  0.00     0.037 A 
ATOM     53  C   UNL A   1      44.098  29.805  32.441  1.00  0.00     0.049 A 
ATOM     54  C   UNL A   1      43.924  25.315  29.146  1.00  0.00     0.074 A 
ATOM     55  C   UNL A   1      45.248  29.999  33.185  1.00  0.00     0.029 A 
ATOM     56  N   UNL A   1      44.286  28.644  31.708  1.00  0.00    -0.354 N 
ATOM     57  N   UNL A   1      44.111  26.303  29.986  1.00  0.00    -0.248 NA
ATOM     58  C   UNL A   1      45.078  24.405  29.034  1.00  0.00     0.031 C 
ATOM     59  C   UNL A   1      46.153  28.982  32.866  1.00  0.00     0.029 A 
ATOM     60  C   UNL A   1      45.543  28.121  31.967  1.00  0.00     0.049 A 
ATOM     61  H   UNL A   1      43.625  28.248  31.094  1.00  0.00     0.167 HD
ATOM     62  C   UNL A   1      45.390  26.131  30.504  1.00  0.00     0.074 A 
ATOM     63  C   UNL A   1      45.924  24.925  29.912  1.00  0.00     0.031 C 
ATOM     64  C   UNL A   1      46.065  26.913  31.382  1.00  0.00     0.037 A 
BRANCH  51  65
ATOM     65  C   UNL A   1      42.883  31.881  33.201  1.00  0.00     0.064 A 
ATOM     66  C   UNL A   1      42.403  31.883  34.520  1.00  0.00     0.173 A 
ATOM     67  C   UNL A   1      43.318  33.097  32.656  1.00  0.00     0.173 A 
ATOM     68  F   UNL A   1      41.953  30.747  35.076  1.00  0.00    -0.203 F 
ATOM     69  C   UNL A   1      42.333  33.064  35.252  1.00  0.00     0.198 A 
ATOM     70  C   UNL A   1      43.274  34.271  33.402  1.00  0.00     0.198 A 
ATOM     71  F   UNL A   1      43.782  33.147  31.398  1.00  0.00    -0.203 F 
ATOM     72  F   UNL A   1      41.815  33.052  36.488  1.00  0.00    -0.200 F 
ATOM     73  C   UNL A   1      42.772  34.254  34.694  1.00  0.00     0.200 A 
ATOM     74  F   UNL A   1      43.705  35.420  32.864  1.00  0.00    -0.200 F 
ATOM     75  F   UNL A   1      42.699  35.392  35.399  1.00  0.00    -0.200 F 
ENDBRANCH  51  65
BRANCH  52  76
ATOM     76  C   UNL A   1      42.713  23.762  27.455  1.00  0.00     0.064 A 
ATOM     77  C   UNL A   1      42.351  22.523  28.008  1.00  0.00     0.173 A 
ATOM     78  C   UNL A   1      43.131  23.774  26.116  1.00  0.00     0.173 A 
ATOM     79  F   UNL A   1      41.981  22.447  29.296  1.00  0.00    -0.203 F 
ATOM     80  C   UNL A   1      42.430  21.347  27.263  1.00  0.00     0.198 A 
ATOM     81  C   UNL A   1      43.176  22.603  25.362  1.00  0.00     0.198 A 
ATOM     82  F   UNL A   1      43.505  24.926  25.542  1.00  0.00    -0.203 F 
ATOM     83  F   UNL A   1      42.144  20.170  27.839  1.00  0.00    -0.200 F 
ATOM     84  C   UNL A   1      42.837  21.388  25.939  1.00  0.00     0.200 A 
ATOM     85  F   UNL A   1      43.569  22.648  24.082  1.00  0.00    -0.200 F 
ATOM     86  F   UNL A   1      42.922  20.257  25.226  1.00  0.00    -0.200 F 
ENDBRANCH  52  76
BRANCH  64  87
ATOM     87  C   UNL A   1      47.449  26.484  31.785  1.00  0.00     0.064 A 
ATOM     88  C   UNL A   1      47.668  25.606  32.856  1.00  0.00     0.173 A 
ATOM     89  C   UNL A   1      48.567  26.904  31.045  1.00  0.00     0.173 A 
ATOM     90  F   UNL A   1      46.636  25.182  33.603  1.00  0.00    -0.203 F 
ATOM     91  C   UNL A   1      48.953  25.181  33.185  1.00  0.00     0.198 A 
ATOM     92  C   UNL A   1      49.846  26.454  31.358  1.00  0.00     0.198 A 
ATOM     93  F   UNL A   1      48.414  27.735  30.003  1.00  0.00    -0.203 F 
ATOM     94  F   UNL A   1      49.141  24.372  34.238  1.00  0.00    -0.200 F 
ATOM     95  C   UNL A   1      50.040  25.598  32.431  1.00  0.00     0.200 A 
ATOM     96  F   UNL A   1      50.893  26.846  30.618  1.00  0.00    -0.200 F 
ATOM     97  F   UNL A   1      51.274  25.177  32.741  1.00  0.00    -0.200 F 
ENDBRANCH  64  87
ENDBRANCH  38  39
ENDBRANCH  31  33
ENDBRANCH  30  31
ENDBRANCH  29  30
ENDBRANCH  28  29
ENDBRANCH  27  28
ENDBRANCH  26  27
ENDBRANCH   1  26
TORSDOF 20
ENDMDL
MODEL 3
REMARK VINA RESULT:     -11.1      4.111      6.350
REMARK SMILES C[C@@H](C(=O)OCCOCCOCCOC(=O)c1ccc(-c2c3nc(c(-c4c(F)c(F)c(F)c(F)c4F)c4ccc([nH]4)c(-c4c(F)c(F)c(F)c(F)c4F)c4nc(c(-c5c(F)c(F)c(F)c(F)c5F)c5ccc2[nH]5)C=C4)C=C3)cc1)c1ccccc1-c1ccn(C(F)F)c(=O)c1
REMARK SMILES IDX 9 1 8 2 7 3 6 4 5 5 3 6 4 7 2 8 1 9 80 10 81 11 85 12 82 13
REMARK SMILES IDX 84 14 83 15 86 16 87 17 95 18 88 19 93 20 89 21 94 22 90 23
REMARK SMILES IDX 91 24 92 25 10 26 11 27 12 28 13 29 14 30 15 31 16 32 17 33
REMARK SMILES IDX 18 34 79 35 19 36 78 37 20 38 21 39 22 40 72 41 23 42 77 43
REMARK SMILES IDX 71 44 73 45 24 46 76 47 70 48 69 49 25 51 57 52 37 53 56 54
REMARK SMILES IDX 38 55 41 56 55 57 74 58 39 59 40 60 54 62 75 63 42 64 26 65
REMARK SMILES IDX 27 66 35 67 28 68 29 69 33 70 36 71 30 72 31 73 34 74 32 75
REMARK SMILES IDX 58 76 59 77 67 78 60 79 61 80 65 81 68 82 62 83 63 84 66 85
REMARK SMILES IDX 64 86 43 87 44 88 52 89 45 90 46 91 50 92 53 93 47 94 48 95
REMARK SMILES IDX 51 96 49 97
REMARK H PARENT 73 50 41 61
REMARK Flexibility Score: inf
ROOT
ATOM      1  C   UNL A   1      31.369  27.606  24.969  1.00  0.00     0.188 C 
ENDROOT
BRANCH   1   2
ATOM      2  O   UNL A   1      32.673  27.242  24.509  1.00  0.00    -0.376 OA
BRANCH   2   3
ATOM      3  C   UNL A   1      32.744  27.226  23.079  1.00  0.00     0.202 C 
BRANCH   3   4
ATOM      4  C   UNL A   1      33.337  25.957  22.437  1.00  0.00     0.261 C 
BRANCH   4   5
ATOM      5  O   UNL A   1      33.128  24.774  23.233  1.00  0.00    -0.463 OA
BRANCH   5   6
ATOM      6  C   UNL A   1      34.217  23.978  23.444  1.00  0.00     0.313 C 
ATOM      7  O   UNL A   1      34.918  23.532  22.543  1.00  0.00    -0.252 OA
BRANCH   6   8
ATOM      8  C   UNL A   1      34.377  23.590  24.915  1.00  0.00     0.127 C 
ATOM      9  C   UNL A   1      33.894  24.602  25.968  1.00  0.00     0.025 C 
BRANCH   8  10
ATOM     10  C   UNL A   1      35.751  23.063  25.349  1.00  0.00    -0.026 A 
ATOM     11  C   UNL A   1      36.713  24.072  25.619  1.00  0.00     0.005 A 
ATOM     12  C   UNL A   1      36.175  21.717  25.395  1.00  0.00    -0.014 A 
ATOM     13  C   UNL A   1      38.044  23.776  25.911  1.00  0.00     0.000 A 
ATOM     14  C   UNL A   1      37.524  21.448  25.708  1.00  0.00     0.009 A 
ATOM     15  C   UNL A   1      38.451  22.457  25.955  1.00  0.00     0.001 A 
BRANCH  12  16
ATOM     16  C   UNL A   1      35.379  20.517  25.032  1.00  0.00    -0.011 A 
ATOM     17  C   UNL A   1      36.018  19.256  24.734  1.00  0.00     0.027 A 
ATOM     18  C   UNL A   1      34.034  20.537  25.114  1.00  0.00     0.080 A 
ATOM     19  C   UNL A   1      35.297  18.180  24.410  1.00  0.00     0.095 A 
ATOM     20  C   UNL A   1      33.212  19.329  24.775  1.00  0.00     0.255 A 
ATOM     21  N   UNL A   1      33.924  18.227  24.340  1.00  0.00    -0.258 N 
ATOM     22  O   UNL A   1      31.993  19.386  24.898  1.00  0.00    -0.269 OA
BRANCH  21  23
ATOM     23  C   UNL A   1      33.213  17.065  23.861  1.00  0.00     0.451 C 
ATOM     24  F   UNL A   1      32.706  17.291  22.623  1.00  0.00    -0.185 F 
ATOM     25  F   UNL A   1      33.995  15.960  23.796  1.00  0.00    -0.185 F 
ENDBRANCH  21  23
ENDBRANCH  12  16
ENDBRANCH   8  10
ENDBRANCH   6   8
ENDBRANCH   5   6
ENDBRANCH   4   5
ENDBRANCH   3   4
ENDBRANCH   2   3
ENDBRANCH   1   2
BRANCH   1  26
ATOM     26  C   UNL A   1      31.189  27.453  26.466  1.00  0.00     0.188 C 
BRANCH  26  27
ATOM     27  O   UNL A   1      32.133  28.240  27.175  1.00  0.00    -0.376 OA
BRANCH  27  28
ATOM     28  C   UNL A   1      31.769  29.622  27.185  1.00  0.00     0.202 C 
BRANCH  28  29
ATOM     29  C   UNL A   1      32.982  30.561  27.107  1.00  0.00     0.261 C 
BRANCH  29  30
ATOM     30  O   UNL A   1      34.270  30.049  27.527  1.00  0.00    -0.460 OA
BRANCH  30  31
ATOM     31  C   UNL A   1      35.067  30.789  28.332  1.00  0.00     0.338 C 
ATOM     32  O   UNL A   1      34.738  31.764  28.985  1.00  0.00    -0.246 OA
BRANCH  31  33
ATOM     33  C   UNL A   1      36.419  30.158  28.399  1.00  0.00     0.060 A 
ATOM     34  C   UNL A   1      36.806  29.482  29.564  1.00  0.00     0.016 A 
ATOM     35  C   UNL A   1      37.307  30.214  27.315  1.00  0.00     0.016 A 
ATOM     36  C   UNL A   1      38.064  28.864  29.641  1.00  0.00     0.010 A 
ATOM     37  C   UNL A   1      38.570  29.608  27.396  1.00  0.00     0.010 A 
ATOM     38  C   UNL A   1      38.968  28.946  28.567  1.00  0.00    -0.014 A 
BRANCH  38  39
ATOM     39  C   UNL A   1      40.391  28.546  28.761  1.00  0.00     0.031 A 
ATOM     40  C   UNL A   1      41.277  29.457  29.562  1.00  0.00     0.074 A 
ATOM     41  C   UNL A   1      40.913  27.413  28.252  1.00  0.00     0.049 A 
ATOM     42  N   UNL A   1      42.527  29.305  29.922  1.00  0.00    -0.248 NA
ATOM     43  C   UNL A   1      40.675  30.728  29.992  1.00  0.00     0.031 C 
ATOM     44  C   UNL A   1      40.205  26.473  27.396  1.00  0.00     0.029 A 
ATOM     45  N   UNL A   1      42.161  26.852  28.402  1.00  0.00    -0.354 N 
ATOM     46  C   UNL A   1      42.860  30.459  30.614  1.00  0.00     0.074 A 
ATOM     47  C   UNL A   1      41.690  31.311  30.608  1.00  0.00     0.031 C 
ATOM     48  C   UNL A   1      40.993  25.407  27.166  1.00  0.00     0.029 A 
ATOM     49  C   UNL A   1      42.295  25.622  27.800  1.00  0.00     0.049 A 
ATOM     50  H   UNL A   1      42.891  27.290  28.897  1.00  0.00     0.167 HD
ATOM     51  C   UNL A   1      44.036  30.791  31.197  1.00  0.00     0.037 A 
ATOM     52  C   UNL A   1      43.347  24.778  27.755  1.00  0.00     0.037 A 
ATOM     53  C   UNL A   1      45.222  29.981  31.171  1.00  0.00     0.049 A 
ATOM     54  C   UNL A   1      44.654  25.178  28.401  1.00  0.00     0.074 A 
ATOM     55  C   UNL A   1      46.462  30.248  31.724  1.00  0.00     0.029 A 
ATOM     56  N   UNL A   1      45.323  28.751  30.539  1.00  0.00    -0.354 N 
ATOM     57  N   UNL A   1      44.943  26.247  29.103  1.00  0.00    -0.248 NA
ATOM     58  C   UNL A   1      45.794  24.262  28.221  1.00  0.00     0.031 C 
ATOM     59  C   UNL A   1      47.328  29.204  31.385  1.00  0.00     0.029 A 
ATOM     60  C   UNL A   1      46.611  28.257  30.671  1.00  0.00     0.049 A 
ATOM     61  H   UNL A   1      44.588  28.295  30.067  1.00  0.00     0.167 HD
ATOM     62  C   UNL A   1      46.283  26.129  29.452  1.00  0.00     0.074 A 
ATOM     63  C   UNL A   1      46.747  24.869  28.915  1.00  0.00     0.031 C 
ATOM     64  C   UNL A   1      47.064  26.995  30.143  1.00  0.00     0.037 A 
BRANCH  51  65
ATOM     65  C   UNL A   1      44.096  32.123  31.880  1.00  0.00     0.064 A 
ATOM     66  C   UNL A   1      44.494  33.280  31.193  1.00  0.00     0.173 A 
ATOM     67  C   UNL A   1      43.766  32.243  33.238  1.00  0.00     0.173 A 
ATOM     68  F   UNL A   1      44.842  33.211  29.899  1.00  0.00    -0.203 F 
ATOM     69  C   UNL A   1      44.588  34.503  31.850  1.00  0.00     0.198 A 
ATOM     70  C   UNL A   1      43.833  33.473  33.884  1.00  0.00     0.198 A 
ATOM     71  F   UNL A   1      43.383  31.164  33.938  1.00  0.00    -0.203 F 
ATOM     72  F   UNL A   1      45.028  35.583  31.189  1.00  0.00    -0.200 F 
ATOM     73  C   UNL A   1      44.254  34.599  33.192  1.00  0.00     0.200 A 
ATOM     74  F   UNL A   1      43.504  33.566  35.179  1.00  0.00    -0.200 F 
ATOM     75  F   UNL A   1      44.351  35.777  33.825  1.00  0.00    -0.200 F 
ENDBRANCH  51  65
BRANCH  52  76
ATOM     76  C   UNL A   1      43.242  23.462  27.062  1.00  0.00     0.064 A 
ATOM     77  C   UNL A   1      42.625  22.365  27.684  1.00  0.00     0.173 A 
ATOM     78  C   UNL A   1      43.811  23.250  25.797  1.00  0.00     0.173 A 
ATOM     79  F   UNL A   1      42.098  22.502  28.911  1.00  0.00    -0.203 F 
ATOM     80  C   UNL A   1      42.603  21.108  27.082  1.00  0.00     0.198 A 
ATOM     81  C   UNL A   1      43.759  22.001  25.181  1.00  0.00     0.198 A 
ATOM     82  F   UNL A   1      44.429  24.257  25.164  1.00  0.00    -0.203 F 
ATOM     83  F   UNL A   1      42.068  20.064  27.732  1.00  0.00    -0.200 F 
ATOM     84  C   UNL A   1      43.165  20.928  25.828  1.00  0.00     0.200 A 
ATOM     85  F   UNL A   1      44.302  21.833  23.967  1.00  0.00    -0.200 F 
ATOM     86  F   UNL A   1      43.152  19.718  25.253  1.00  0.00    -0.200 F 
ENDBRANCH  52  76
BRANCH  64  87
ATOM     87  C   UNL A   1      48.496  26.609  30.390  1.00  0.00     0.064 A 
ATOM     88  C   UNL A   1      49.525  26.996  29.519  1.00  0.00     0.173 A 
ATOM     89  C   UNL A   1      48.851  25.901  31.549  1.00  0.00     0.173 A 
ATOM     90  F   UNL A   1      49.240  27.666  28.392  1.00  0.00    -0.203 F 
ATOM     91  C   UNL A   1      50.853  26.671  29.788  1.00  0.00     0.198 A 
ATOM     92  C   UNL A   1      50.182  25.603  31.830  1.00  0.00     0.198 A 
ATOM     93  F   UNL A   1      47.908  25.516  32.421  1.00  0.00    -0.203 F 
ATOM     94  F   UNL A   1      51.816  27.017  28.922  1.00  0.00    -0.200 F 
ATOM     95  C   UNL A   1      51.181  25.982  30.947  1.00  0.00     0.200 A 
ATOM     96  F   UNL A   1      50.498  24.952  32.958  1.00  0.00    -0.200 F 
ATOM     97  F   UNL A   1      52.461  25.682  31.211  1.00  0.00    -0.200 F 
ENDBRANCH  64  87
ENDBRANCH  38  39
ENDBRANCH  31  33
ENDBRANCH  30  31
ENDBRANCH  29  30
ENDBRANCH  28  29
ENDBRANCH  27  28
ENDBRANCH  26  27
ENDBRANCH   1  26
TORSDOF 20
ENDMDL
