MODEL 1
REMARK VINA RESULT:     -14.6      0.000      0.000
REMARK SMILES COc1ccc(NC(=O)c2nn(C)cc2C(=O)OCCOCCOCCOC(=O)c2ccc(-c3c4nc(c(-c5c(F)c(F)c(F)c(F)c5F)c5ccc([nH]5)c(-c5c(F)c(F)c(F)c(F)c5F)c5nc(c(-c6c(F)c(F)c(F)c(F)c6F)c6ccc3[nH]6)C=C5)C=C4)cc2)c(C)c1
REMARK SMILES IDX 22 1 21 2 20 3 19 4 18 5 16 6 17 7 15 8 10 9 11 10 12 11
REMARK SMILES IDX 14 12 13 13 8 14 7 15 9 17 6 18 3 19 4 20 95 21 5 22 93 23
REMARK SMILES IDX 94 24 2 25 1 26 23 27 24 28 25 29 26 30 27 31 28 32 29 33
REMARK SMILES IDX 30 34 31 35 92 36 32 37 91 38 33 39 34 40 35 41 85 42 36 43
REMARK SMILES IDX 90 44 84 45 86 46 37 47 89 48 83 49 82 50 38 52 70 53 50 54
REMARK SMILES IDX 69 55 51 56 54 57 68 58 87 59 52 60 53 61 67 63 88 64 55 65
REMARK SMILES IDX 39 66 40 67 48 68 41 69 42 70 46 71 49 72 43 73 44 74 47 75
REMARK SMILES IDX 45 76 71 77 72 78 80 79 73 80 74 81 78 82 81 83 75 84 76 85
REMARK SMILES IDX 79 86 77 87 56 88 57 89 65 90 58 91 59 92 63 93 66 94 60 95
REMARK SMILES IDX 61 96 64 97 62 98
REMARK H PARENT 7 16 86 51 54 62
REMARK Flexibility Score: inf
ROOT
ATOM      1  C   UNL A   1      40.787  20.431  27.230  1.00  0.00     0.188 C 
ENDROOT
BRANCH   1   2
ATOM      2  O   UNL A   1      39.988  20.772  26.087  1.00  0.00    -0.376 OA
BRANCH   2   3
ATOM      3  C   UNL A   1      39.092  21.889  25.990  1.00  0.00     0.202 C 
BRANCH   3   4
ATOM      4  C   UNL A   1      37.437  21.770  25.299  1.00  0.00     0.261 C 
BRANCH   4   5
ATOM      5  O   UNL A   1      35.709  21.457  25.877  1.00  0.00    -0.460 OA
BRANCH   5   6
ATOM      6  C   UNL A   1      34.154  21.409  25.417  1.00  0.00     0.342 C 
ATOM      7  O   UNL A   1      33.486  20.381  25.429  1.00  0.00    -0.246 OA
BRANCH   6   8
ATOM      8  C   UNL A   1      33.477  22.572  24.768  1.00  0.00     0.111 A 
ATOM      9  C   UNL A   1      32.428  23.643  25.128  1.00  0.00     0.165 A 
ATOM     10  N   UNL A   1      32.239  24.403  24.020  1.00  0.00    -0.167 NA
ATOM     11  N   UNL A   1      32.954  23.810  23.046  1.00  0.00    -0.274 N 
ATOM     12  C   UNL A   1      33.631  22.702  23.409  1.00  0.00     0.125 A 
ATOM     13  C   UNL A   1      33.051  24.398  21.733  1.00  0.00     0.173 C 
BRANCH   9  14
ATOM     14  C   UNL A   1      31.575  24.046  26.431  1.00  0.00     0.277 C 
ATOM     15  N   UNL A   1      30.455  25.051  26.504  1.00  0.00    -0.320 N 
ATOM     16  H   UNL A   1      29.636  24.764  26.968  1.00  0.00     0.170 HD
ATOM     17  O   UNL A   1      31.744  23.382  27.462  1.00  0.00    -0.267 OA
BRANCH  15  18
ATOM     18  C   UNL A   1      30.456  26.396  25.962  1.00  0.00     0.044 A 
ATOM     19  C   UNL A   1      30.436  28.973  23.198  1.00  0.00     0.119 A 
ATOM     20  C   UNL A   1      29.466  27.626  23.136  1.00  0.00     0.048 A 
ATOM     21  C   UNL A   1      31.583  29.068  24.645  1.00  0.00     0.052 A 
ATOM     22  C   UNL A   1      29.474  26.327  24.647  1.00  0.00     0.030 A 
ATOM     23  C   UNL A   1      31.575  27.790  25.977  1.00  0.00    -0.024 A 
ATOM     24  C   UNL A   1      32.891  27.665  26.699  1.00  0.00     0.047 C 
BRANCH  19  25
ATOM     25  O   UNL A   1      29.523  29.985  22.737  1.00  0.00    -0.497 OA
ATOM     26  C   UNL A   1      28.208  29.896  22.139  1.00  0.00     0.278 C 
ENDBRANCH  19  25
ENDBRANCH  15  18
ENDBRANCH   9  14
ENDBRANCH   6   8
ENDBRANCH   5   6
ENDBRANCH   4   5
ENDBRANCH   3   4
ENDBRANCH   2   3
ENDBRANCH   1   2
BRANCH   1  27
ATOM     27  C   UNL A   1      42.002  19.428  27.118  1.00  0.00     0.188 C 
BRANCH  27  28
ATOM     28  O   UNL A   1      42.233  18.887  25.826  1.00  0.00    -0.376 OA
BRANCH  28  29
ATOM     29  C   UNL A   1      43.611  18.614  25.373  1.00  0.00     0.202 C 
BRANCH  29  30
ATOM     30  C   UNL A   1      44.648  19.662  24.467  1.00  0.00     0.261 C 
BRANCH  30  31
ATOM     31  O   UNL A   1      44.483  21.307  24.016  1.00  0.00    -0.460 OA
BRANCH  31  32
ATOM     32  C   UNL A   1      44.375  22.712  24.482  1.00  0.00     0.338 C 
ATOM     33  O   UNL A   1      45.176  23.522  24.006  1.00  0.00    -0.246 OA
BRANCH  32  34
ATOM     34  C   UNL A   1      43.108  23.427  25.526  1.00  0.00     0.060 A 
ATOM     35  C   UNL A   1      43.437  22.849  27.196  1.00  0.00     0.016 A 
ATOM     36  C   UNL A   1      42.163  25.226  25.383  1.00  0.00     0.016 A 
ATOM     37  C   UNL A   1      42.991  23.993  28.516  1.00  0.00     0.010 A 
ATOM     38  C   UNL A   1      41.690  26.166  26.747  1.00  0.00     0.010 A 
ATOM     39  C   UNL A   1      42.159  25.680  28.301  1.00  0.00    -0.014 A 
BRANCH  39  40
ATOM     40  C   UNL A   1      42.003  27.153  29.375  1.00  0.00     0.031 A 
ATOM     41  C   UNL A   1      40.651  28.253  29.548  1.00  0.00     0.074 A 
ATOM     42  C   UNL A   1      43.049  27.577  30.162  1.00  0.00     0.049 A 
ATOM     43  N   UNL A   1      40.787  29.556  29.429  1.00  0.00    -0.248 NA
ATOM     44  C   UNL A   1      39.142  27.991  29.578  1.00  0.00     0.031 C 
ATOM     45  C   UNL A   1      42.977  28.553  31.251  1.00  0.00     0.029 A 
ATOM     46  N   UNL A   1      44.401  27.185  30.231  1.00  0.00    -0.354 N 
ATOM     47  C   UNL A   1      39.509  30.126  29.444  1.00  0.00     0.074 A 
ATOM     48  C   UNL A   1      38.597  29.110  29.145  1.00  0.00     0.031 C 
ATOM     49  C   UNL A   1      44.217  28.847  31.684  1.00  0.00     0.029 A 
ATOM     50  C   UNL A   1      45.176  28.182  30.829  1.00  0.00     0.049 A 
ATOM     51  H   UNL A   1      44.753  26.325  29.903  1.00  0.00     0.167 HD
ATOM     52  C   UNL A   1      39.203  31.284  30.083  1.00  0.00     0.037 A 
ATOM     53  C   UNL A   1      46.275  28.733  30.231  1.00  0.00     0.037 A 
ATOM     54  C   UNL A   1      40.428  31.819  30.611  1.00  0.00     0.049 A 
ATOM     55  C   UNL A   1      46.046  30.168  29.870  1.00  0.00     0.074 A 
ATOM     56  C   UNL A   1      41.072  31.617  31.819  1.00  0.00     0.029 A 
ATOM     57  N   UNL A   1      41.402  32.181  29.698  1.00  0.00    -0.354 N 
ATOM     58  N   UNL A   1      44.900  30.747  30.085  1.00  0.00    -0.248 NA
ATOM     59  C   UNL A   1      47.005  31.063  29.230  1.00  0.00     0.031 C 
ATOM     60  C   UNL A   1      42.452  31.882  31.620  1.00  0.00     0.029 A 
ATOM     61  C   UNL A   1      42.637  32.262  30.302  1.00  0.00     0.049 A 
ATOM     62  H   UNL A   1      41.233  32.358  28.744  1.00  0.00     0.167 HD
ATOM     63  C   UNL A   1      44.901  31.992  29.551  1.00  0.00     0.074 A 
ATOM     64  C   UNL A   1      46.259  32.173  29.075  1.00  0.00     0.031 C 
ATOM     65  C   UNL A   1      43.763  32.735  29.515  1.00  0.00     0.037 A 
BRANCH  52  66
ATOM     66  C   UNL A   1      37.783  31.556  30.566  1.00  0.00     0.064 A 
ATOM     67  C   UNL A   1      36.817  32.062  29.678  1.00  0.00     0.173 A 
ATOM     68  C   UNL A   1      37.344  31.443  31.909  1.00  0.00     0.173 A 
ATOM     69  F   UNL A   1      37.073  32.169  28.369  1.00  0.00    -0.203 F 
ATOM     70  C   UNL A   1      35.558  32.498  30.103  1.00  0.00     0.198 A 
ATOM     71  C   UNL A   1      36.113  31.952  32.348  1.00  0.00     0.198 A 
ATOM     72  F   UNL A   1      38.099  30.835  32.838  1.00  0.00    -0.203 F 
ATOM     73  F   UNL A   1      34.680  32.962  29.203  1.00  0.00    -0.200 F 
ATOM     74  C   UNL A   1      35.217  32.479  31.442  1.00  0.00     0.200 A 
ATOM     75  F   UNL A   1      35.808  31.945  33.655  1.00  0.00    -0.200 F 
ATOM     76  F   UNL A   1      34.030  32.946  31.848  1.00  0.00    -0.200 F 
ENDBRANCH  52  66
BRANCH  53  77
ATOM     77  C   UNL A   1      47.175  27.755  29.561  1.00  0.00     0.064 A 
ATOM     78  C   UNL A   1      47.080  27.724  28.158  1.00  0.00     0.173 A 
ATOM     79  C   UNL A   1      48.398  27.391  30.135  1.00  0.00     0.173 A 
ATOM     80  F   UNL A   1      45.895  27.921  27.561  1.00  0.00    -0.203 F 
ATOM     81  C   UNL A   1      48.224  27.664  27.369  1.00  0.00     0.198 A 
ATOM     82  C   UNL A   1      49.539  27.290  29.336  1.00  0.00     0.198 A 
ATOM     83  F   UNL A   1      48.518  27.295  31.465  1.00  0.00    -0.203 F 
ATOM     84  F   UNL A   1      48.140  27.865  26.046  1.00  0.00    -0.200 F 
ATOM     85  C   UNL A   1      49.460  27.523  27.969  1.00  0.00     0.200 A 
ATOM     86  F   UNL A   1      50.741  27.108  29.897  1.00  0.00    -0.200 F 
ATOM     87  F   UNL A   1      50.575  27.683  27.242  1.00  0.00    -0.200 F 
ENDBRANCH  53  77
BRANCH  65  88
ATOM     88  C   UNL A   1      43.596  34.017  28.759  1.00  0.00     0.064 A 
ATOM     89  C   UNL A   1      43.514  35.275  29.365  1.00  0.00     0.173 A 
ATOM     90  C   UNL A   1      43.667  34.008  27.344  1.00  0.00     0.173 A 
ATOM     91  F   UNL A   1      43.589  35.419  30.695  1.00  0.00    -0.203 F 
ATOM     92  C   UNL A   1      43.396  36.436  28.607  1.00  0.00     0.198 A 
ATOM     93  C   UNL A   1      43.657  35.176  26.597  1.00  0.00     0.198 A 
ATOM     94  F   UNL A   1      43.772  32.866  26.646  1.00  0.00    -0.203 F 
ATOM     95  F   UNL A   1      43.215  37.612  29.223  1.00  0.00    -0.200 F 
ATOM     96  C   UNL A   1      43.482  36.387  27.226  1.00  0.00     0.200 A 
ATOM     97  F   UNL A   1      43.827  35.113  25.269  1.00  0.00    -0.200 F 
ATOM     98  F   UNL A   1      43.404  37.511  26.502  1.00  0.00    -0.200 F 
ENDBRANCH  65  88
ENDBRANCH  39  40
ENDBRANCH  32  34
ENDBRANCH  31  32
ENDBRANCH  30  31
ENDBRANCH  29  30
ENDBRANCH  28  29
ENDBRANCH  27  28
ENDBRANCH   1  27
TORSDOF 20
ENDMDL
MODEL 2
REMARK VINA RESULT:     -14.2      3.398     10.197
REMARK SMILES COc1ccc(NC(=O)c2nn(C)cc2C(=O)OCCOCCOCCOC(=O)c2ccc(-c3c4nc(c(-c5c(F)c(F)c(F)c(F)c5F)c5ccc([nH]5)c(-c5c(F)c(F)c(F)c(F)c5F)c5nc(c(-c6c(F)c(F)c(F)c(F)c6F)c6ccc3[nH]6)C=C5)C=C4)cc2)c(C)c1
REMARK SMILES IDX 22 1 21 2 20 3 19 4 18 5 16 6 17 7 15 8 10 9 11 10 12 11
REMARK SMILES IDX 14 12 13 13 8 14 7 15 9 17 6 18 3 19 4 20 95 21 5 22 93 23
REMARK SMILES IDX 94 24 2 25 1 26 23 27 24 28 25 29 26 30 27 31 28 32 29 33
REMARK SMILES IDX 30 34 31 35 92 36 32 37 91 38 33 39 34 40 35 41 85 42 36 43
REMARK SMILES IDX 90 44 84 45 86 46 37 47 89 48 83 49 82 50 38 52 70 53 50 54
REMARK SMILES IDX 69 55 51 56 54 57 68 58 87 59 52 60 53 61 67 63 88 64 55 65
REMARK SMILES IDX 39 66 40 67 48 68 41 69 42 70 46 71 49 72 43 73 44 74 47 75
REMARK SMILES IDX 45 76 71 77 72 78 80 79 73 80 74 81 78 82 81 83 75 84 76 85
REMARK SMILES IDX 79 86 77 87 56 88 57 89 65 90 58 91 59 92 63 93 66 94 60 95
REMARK SMILES IDX 61 96 64 97 62 98
REMARK H PARENT 7 16 86 51 54 62
REMARK Flexibility Score: inf
ROOT
ATOM      1  C   UNL A   1      33.356  29.241  26.427  1.00  0.00     0.188 C 
ENDROOT
BRANCH   1   2
ATOM      2  O   UNL A   1      33.404  28.980  25.017  1.00  0.00    -0.376 OA
BRANCH   2   3
ATOM      3  C   UNL A   1      32.503  29.506  24.033  1.00  0.00     0.202 C 
BRANCH   3   4
ATOM      4  C   UNL A   1      30.855  28.846  23.750  1.00  0.00     0.261 C 
BRANCH   4   5
ATOM      5  O   UNL A   1      29.856  27.359  24.204  1.00  0.00    -0.460 OA
BRANCH   5   6
ATOM      6  C   UNL A   1      29.930  25.858  24.817  1.00  0.00     0.342 C 
ATOM      7  O   UNL A   1      29.392  25.541  25.872  1.00  0.00    -0.246 OA
BRANCH   6   8
ATOM      8  C   UNL A   1      30.814  24.802  24.239  1.00  0.00     0.111 A 
ATOM      9  C   UNL A   1      31.368  23.419  24.633  1.00  0.00     0.165 A 
ATOM     10  N   UNL A   1      32.171  23.007  23.619  1.00  0.00    -0.167 NA
ATOM     11  N   UNL A   1      32.239  24.045  22.765  1.00  0.00    -0.274 N 
ATOM     12  C   UNL A   1      31.530  25.138  23.114  1.00  0.00     0.125 A 
ATOM     13  C   UNL A   1      32.952  23.935  21.517  1.00  0.00     0.173 C 
BRANCH   9  14
ATOM     14  C   UNL A   1      31.212  22.414  25.880  1.00  0.00     0.277 C 
ATOM     15  N   UNL A   1      32.266  22.067  26.900  1.00  0.00    -0.320 N 
ATOM     16  H   UNL A   1      31.991  22.101  27.844  1.00  0.00     0.170 HD
ATOM     17  O   UNL A   1      30.083  21.973  26.131  1.00  0.00    -0.267 OA
BRANCH  15  18
ATOM     18  C   UNL A   1      33.641  21.691  26.636  1.00  0.00     0.044 A 
ATOM     19  C   UNL A   1      37.162  22.246  25.382  1.00  0.00     0.119 A 
ATOM     20  C   UNL A   1      36.354  23.414  26.243  1.00  0.00     0.048 A 
ATOM     21  C   UNL A   1      36.193  20.718  24.998  1.00  0.00     0.052 A 
ATOM     22  C   UNL A   1      34.519  23.048  26.930  1.00  0.00     0.030 A 
ATOM     23  C   UNL A   1      34.472  20.478  25.620  1.00  0.00    -0.024 A 
ATOM     24  C   UNL A   1      33.648  19.550  24.766  1.00  0.00     0.047 C 
BRANCH  19  25
ATOM     25  O   UNL A   1      38.470  22.328  25.977  1.00  0.00    -0.497 OA
ATOM     26  C   UNL A   1      39.566  21.385  26.028  1.00  0.00     0.278 C 
ENDBRANCH  19  25
ENDBRANCH  15  18
ENDBRANCH   9  14
ENDBRANCH   6   8
ENDBRANCH   5   6
ENDBRANCH   4   5
ENDBRANCH   3   4
ENDBRANCH   2   3
ENDBRANCH   1   2
BRANCH   1  27
ATOM     27  C   UNL A   1      32.019  29.688  27.139  1.00  0.00     0.188 C 
BRANCH  27  28
ATOM     28  O   UNL A   1      31.608  31.024  26.890  1.00  0.00    -0.376 OA
BRANCH  28  29
ATOM     29  C   UNL A   1      32.611  32.102  26.797  1.00  0.00     0.202 C 
BRANCH  29  30
ATOM     30  C   UNL A   1      32.905  33.367  27.941  1.00  0.00     0.261 C 
BRANCH  30  31
ATOM     31  O   UNL A   1      33.778  33.383  29.416  1.00  0.00    -0.460 OA
BRANCH  31  32
ATOM     32  C   UNL A   1      34.771  32.686  30.272  1.00  0.00     0.338 C 
ATOM     33  O   UNL A   1      34.978  33.166  31.391  1.00  0.00    -0.246 OA
BRANCH  32  34
ATOM     34  C   UNL A   1      35.589  31.126  29.956  1.00  0.00     0.060 A 
ATOM     35  C   UNL A   1      35.962  31.091  28.198  1.00  0.00     0.016 A 
ATOM     36  C   UNL A   1      36.840  30.045  31.146  1.00  0.00     0.016 A 
ATOM     37  C   UNL A   1      37.461  30.201  27.738  1.00  0.00     0.010 A 
ATOM     38  C   UNL A   1      38.179  29.141  30.550  1.00  0.00     0.010 A 
ATOM     39  C   UNL A   1      38.608  29.260  28.915  1.00  0.00    -0.014 A 
BRANCH  39  40
ATOM     40  C   UNL A   1      40.335  28.672  28.786  1.00  0.00     0.031 A 
ATOM     41  C   UNL A   1      40.933  27.122  28.231  1.00  0.00     0.074 A 
ATOM     42  C   UNL A   1      41.389  29.453  29.199  1.00  0.00     0.049 A 
ATOM     43  N   UNL A   1      41.764  26.394  28.947  1.00  0.00    -0.248 NA
ATOM     44  C   UNL A   1      40.472  26.220  27.081  1.00  0.00     0.031 C 
ATOM     45  C   UNL A   1      42.806  29.228  28.907  1.00  0.00     0.029 A 
ATOM     46  N   UNL A   1      41.444  30.672  29.906  1.00  0.00    -0.354 N 
ATOM     47  C   UNL A   1      41.905  25.153  28.314  1.00  0.00     0.074 A 
ATOM     48  C   UNL A   1      40.818  25.003  27.446  1.00  0.00     0.031 C 
ATOM     49  C   UNL A   1      43.561  30.092  29.609  1.00  0.00     0.029 A 
ATOM     50  C   UNL A   1      42.700  30.848  30.493  1.00  0.00     0.049 A 
ATOM     51  H   UNL A   1      40.698  31.312  29.978  1.00  0.00     0.167 HD
ATOM     52  C   UNL A   1      43.081  24.484  28.212  1.00  0.00     0.037 A 
ATOM     53  C   UNL A   1      42.875  31.072  31.830  1.00  0.00     0.037 A 
ATOM     54  C   UNL A   1      44.064  25.229  28.949  1.00  0.00     0.049 A 
ATOM     55  C   UNL A   1      43.551  29.916  32.500  1.00  0.00     0.074 A 
ATOM     56  C   UNL A   1      44.908  26.259  28.571  1.00  0.00     0.029 A 
ATOM     57  N   UNL A   1      43.864  25.359  30.311  1.00  0.00    -0.354 N 
ATOM     58  N   UNL A   1      43.866  28.840  31.839  1.00  0.00    -0.248 NA
ATOM     59  C   UNL A   1      43.903  29.820  33.913  1.00  0.00     0.031 C 
ATOM     60  C   UNL A   1      45.225  27.003  29.738  1.00  0.00     0.029 A 
ATOM     61  C   UNL A   1      44.593  26.413  30.818  1.00  0.00     0.049 A 
ATOM     62  H   UNL A   1      43.278  24.776  30.847  1.00  0.00     0.167 HD
ATOM     63  C   UNL A   1      44.337  27.894  32.688  1.00  0.00     0.074 A 
ATOM     64  C   UNL A   1      44.399  28.570  33.970  1.00  0.00     0.031 C 
ATOM     65  C   UNL A   1      44.588  26.631  32.253  1.00  0.00     0.037 A 
BRANCH  52  66
ATOM     66  C   UNL A   1      43.320  23.497  27.074  1.00  0.00     0.064 A 
ATOM     67  C   UNL A   1      42.961  22.145  27.222  1.00  0.00     0.173 A 
ATOM     68  C   UNL A   1      43.995  23.797  25.864  1.00  0.00     0.173 A 
ATOM     69  F   UNL A   1      42.268  21.728  28.288  1.00  0.00    -0.203 F 
ATOM     70  C   UNL A   1      43.318  21.165  26.290  1.00  0.00     0.198 A 
ATOM     71  C   UNL A   1      44.422  22.804  24.970  1.00  0.00     0.198 A 
ATOM     72  F   UNL A   1      44.263  25.065  25.514  1.00  0.00    -0.203 F 
ATOM     73  F   UNL A   1      42.936  19.895  26.487  1.00  0.00    -0.200 F 
ATOM     74  C   UNL A   1      44.080  21.485  25.183  1.00  0.00     0.200 A 
ATOM     75  F   UNL A   1      45.179  23.131  23.911  1.00  0.00    -0.200 F 
ATOM     76  F   UNL A   1      44.462  20.533  24.322  1.00  0.00    -0.200 F 
ENDBRANCH  52  66
BRANCH  53  77
ATOM     77  C   UNL A   1      41.919  32.043  32.428  1.00  0.00     0.064 A 
ATOM     78  C   UNL A   1      41.857  33.292  31.783  1.00  0.00     0.173 A 
ATOM     79  C   UNL A   1      40.772  31.604  33.099  1.00  0.00     0.173 A 
ATOM     80  F   UNL A   1      42.966  33.829  31.252  1.00  0.00    -0.203 F 
ATOM     81  C   UNL A   1      40.633  33.904  31.535  1.00  0.00     0.198 A 
ATOM     82  C   UNL A   1      39.550  32.245  32.881  1.00  0.00     0.198 A 
ATOM     83  F   UNL A   1      40.802  30.477  33.822  1.00  0.00    -0.203 F 
ATOM     84  F   UNL A   1      40.567  34.971  30.727  1.00  0.00    -0.200 F 
ATOM     85  C   UNL A   1      39.474  33.335  32.024  1.00  0.00     0.200 A 
ATOM     86  F   UNL A   1      38.421  31.732  33.384  1.00  0.00    -0.200 F 
ATOM     87  F   UNL A   1      38.283  33.790  31.609  1.00  0.00    -0.200 F 
ENDBRANCH  53  77
BRANCH  65  88
ATOM     88  C   UNL A   1      44.894  25.462  33.139  1.00  0.00     0.064 A 
ATOM     89  C   UNL A   1      46.162  24.884  33.256  1.00  0.00     0.173 A 
ATOM     90  C   UNL A   1      43.902  24.981  34.029  1.00  0.00     0.173 A 
ATOM     91  F   UNL A   1      47.214  25.357  32.573  1.00  0.00    -0.203 F 
ATOM     92  C   UNL A   1      46.394  23.821  34.125  1.00  0.00     0.198 A 
ATOM     93  C   UNL A   1      44.168  23.995  34.967  1.00  0.00     0.198 A 
ATOM     94  F   UNL A   1      42.653  25.472  34.031  1.00  0.00    -0.203 F 
ATOM     95  F   UNL A   1      47.594  23.226  34.134  1.00  0.00    -0.200 F 
ATOM     96  C   UNL A   1      45.403  23.388  34.987  1.00  0.00     0.200 A 
ATOM     97  F   UNL A   1      43.221  23.649  35.849  1.00  0.00    -0.200 F 
ATOM     98  F   UNL A   1      45.642  22.388  35.846  1.00  0.00    -0.200 F 
ENDBRANCH  65  88
ENDBRANCH  39  40
ENDBRANCH  32  34
ENDBRANCH  31  32
ENDBRANCH  30  31
ENDBRANCH  29  30
ENDBRANCH  28  29
ENDBRANCH  27  28
ENDBRANCH   1  27
TORSDOF 20
ENDMDL
MODEL 3
REMARK VINA RESULT:     -14.2      1.583      2.434
REMARK SMILES COc1ccc(NC(=O)c2nn(C)cc2C(=O)OCCOCCOCCOC(=O)c2ccc(-c3c4nc(c(-c5c(F)c(F)c(F)c(F)c5F)c5ccc([nH]5)c(-c5c(F)c(F)c(F)c(F)c5F)c5nc(c(-c6c(F)c(F)c(F)c(F)c6F)c6ccc3[nH]6)C=C5)C=C4)cc2)c(C)c1
REMARK SMILES IDX 22 1 21 2 20 3 19 4 18 5 16 6 17 7 15 8 10 9 11 10 12 11
REMARK SMILES IDX 14 12 13 13 8 14 7 15 9 17 6 18 3 19 4 20 95 21 5 22 93 23
REMARK SMILES IDX 94 24 2 25 1 26 23 27 24 28 25 29 26 30 27 31 28 32 29 33
REMARK SMILES IDX 30 34 31 35 92 36 32 37 91 38 33 39 34 40 35 41 85 42 36 43
REMARK SMILES IDX 90 44 84 45 86 46 37 47 89 48 83 49 82 50 38 52 70 53 50 54
REMARK SMILES IDX 69 55 51 56 54 57 68 58 87 59 52 60 53 61 67 63 88 64 55 65
REMARK SMILES IDX 39 66 40 67 48 68 41 69 42 70 46 71 49 72 43 73 44 74 47 75
REMARK SMILES IDX 45 76 71 77 72 78 80 79 73 80 74 81 78 82 81 83 75 84 76 85
REMARK SMILES IDX 79 86 77 87 56 88 57 89 65 90 58 91 59 92 63 93 66 94 60 95
REMARK SMILES IDX 61 96 64 97 62 98
REMARK H PARENT 7 16 86 51 54 62
REMARK Flexibility Score: inf
ROOT
ATOM      1  C   UNL A   1      41.352  19.900  27.137  1.00  0.00     0.188 C 
ENDROOT
BRANCH   1   2
ATOM      2  O   UNL A   1      40.444  21.011  27.129  1.00  0.00    -0.376 OA
BRANCH   2   3
ATOM      3  C   UNL A   1      39.681  21.465  26.002  1.00  0.00     0.202 C 
BRANCH   3   4
ATOM      4  C   UNL A   1      38.293  22.599  26.141  1.00  0.00     0.261 C 
BRANCH   4   5
ATOM      5  O   UNL A   1      36.485  22.637  25.756  1.00  0.00    -0.460 OA
BRANCH   5   6
ATOM      6  C   UNL A   1      35.214  21.734  25.306  1.00  0.00     0.342 C 
ATOM      7  O   UNL A   1      35.318  20.566  24.952  1.00  0.00    -0.246 OA
BRANCH   6   8
ATOM      8  C   UNL A   1      33.851  22.315  25.112  1.00  0.00     0.111 A 
ATOM      9  C   UNL A   1      33.143  23.300  24.161  1.00  0.00     0.165 A 
ATOM     10  N   UNL A   1      31.858  23.407  24.584  1.00  0.00    -0.167 NA
ATOM     11  N   UNL A   1      31.792  22.705  25.731  1.00  0.00    -0.274 N 
ATOM     12  C   UNL A   1      32.940  22.113  26.120  1.00  0.00     0.125 A 
ATOM     13  C   UNL A   1      30.541  22.532  26.426  1.00  0.00     0.173 C 
BRANCH   9  14
ATOM     14  C   UNL A   1      33.548  24.162  22.864  1.00  0.00     0.277 C 
ATOM     15  N   UNL A   1      34.009  25.596  22.839  1.00  0.00    -0.320 N 
ATOM     16  H   UNL A   1      34.812  25.790  22.302  1.00  0.00     0.170 HD
ATOM     17  O   UNL A   1      33.627  23.572  21.779  1.00  0.00    -0.267 OA
BRANCH  15  18
ATOM     18  C   UNL A   1      33.398  26.719  23.522  1.00  0.00     0.044 A 
ATOM     19  C   UNL A   1      31.821  28.490  26.463  1.00  0.00     0.119 A 
ATOM     20  C   UNL A   1      33.157  27.522  26.649  1.00  0.00     0.048 A 
ATOM     21  C   UNL A   1      31.109  28.557  24.758  1.00  0.00     0.052 A 
ATOM     22  C   UNL A   1      33.984  26.656  25.055  1.00  0.00     0.030 A 
ATOM     23  C   UNL A   1      31.899  27.676  23.341  1.00  0.00    -0.024 A 
ATOM     24  C   UNL A   1      30.935  27.324  22.238  1.00  0.00     0.047 C 
BRANCH  19  25
ATOM     25  O   UNL A   1      32.171  29.600  27.310  1.00  0.00    -0.497 OA
ATOM     26  C   UNL A   1      33.150  30.656  27.159  1.00  0.00     0.278 C 
ENDBRANCH  19  25
ENDBRANCH  15  18
ENDBRANCH   9  14
ENDBRANCH   6   8
ENDBRANCH   5   6
ENDBRANCH   4   5
ENDBRANCH   3   4
ENDBRANCH   2   3
ENDBRANCH   1   2
BRANCH   1  27
ATOM     27  C   UNL A   1      42.058  19.400  25.816  1.00  0.00     0.188 C 
BRANCH  27  28
ATOM     28  O   UNL A   1      43.238  18.632  26.003  1.00  0.00    -0.376 OA
BRANCH  28  29
ATOM     29  C   UNL A   1      44.482  19.003  25.302  1.00  0.00     0.202 C 
BRANCH  29  30
ATOM     30  C   UNL A   1      44.812  20.474  24.453  1.00  0.00     0.261 C 
BRANCH  30  31
ATOM     31  O   UNL A   1      43.961  21.961  24.386  1.00  0.00    -0.460 OA
BRANCH  31  32
ATOM     32  C   UNL A   1      43.937  23.390  24.786  1.00  0.00     0.338 C 
ATOM     33  O   UNL A   1      44.845  24.107  24.354  1.00  0.00    -0.246 OA
BRANCH  32  34
ATOM     34  C   UNL A   1      42.652  24.257  25.681  1.00  0.00     0.060 A 
ATOM     35  C   UNL A   1      42.654  23.592  27.351  1.00  0.00     0.016 A 
ATOM     36  C   UNL A   1      42.005  26.180  25.497  1.00  0.00     0.016 A 
ATOM     37  C   UNL A   1      42.196  24.753  28.652  1.00  0.00     0.010 A 
ATOM     38  C   UNL A   1      41.484  27.142  26.827  1.00  0.00     0.010 A 
ATOM     39  C   UNL A   1      41.654  26.551  28.406  1.00  0.00    -0.014 A 
BRANCH  39  40
ATOM     40  C   UNL A   1      41.561  28.000  29.518  1.00  0.00     0.031 A 
ATOM     41  C   UNL A   1      40.238  29.123  29.757  1.00  0.00     0.074 A 
ATOM     42  C   UNL A   1      42.638  28.385  30.282  1.00  0.00     0.049 A 
ATOM     43  N   UNL A   1      40.398  30.426  29.664  1.00  0.00    -0.248 NA
ATOM     44  C   UNL A   1      38.725  28.892  29.826  1.00  0.00     0.031 C 
ATOM     45  C   UNL A   1      42.620  29.336  31.395  1.00  0.00     0.029 A 
ATOM     46  N   UNL A   1      43.984  27.964  30.302  1.00  0.00    -0.354 N 
ATOM     47  C   UNL A   1      39.134  31.021  29.730  1.00  0.00     0.074 A 
ATOM     48  C   UNL A   1      38.191  30.031  29.436  1.00  0.00     0.031 C 
ATOM     49  C   UNL A   1      43.878  29.594  31.798  1.00  0.00     0.029 A 
ATOM     50  C   UNL A   1      44.797  28.930  30.898  1.00  0.00     0.049 A 
ATOM     51  H   UNL A   1      44.307  27.105  29.943  1.00  0.00     0.167 HD
ATOM     52  C   UNL A   1      38.871  32.170  30.405  1.00  0.00     0.037 A 
ATOM     53  C   UNL A   1      45.889  29.473  30.281  1.00  0.00     0.037 A 
ATOM     54  C   UNL A   1      40.122  32.667  30.908  1.00  0.00     0.049 A 
ATOM     55  C   UNL A   1      45.680  30.920  29.959  1.00  0.00     0.074 A 
ATOM     56  C   UNL A   1      40.797  32.424  32.091  1.00  0.00     0.029 A 
ATOM     57  N   UNL A   1      41.076  33.031  29.974  1.00  0.00    -0.354 N 
ATOM     58  N   UNL A   1      44.553  31.517  30.223  1.00  0.00    -0.248 NA
ATOM     59  C   UNL A   1      46.638  31.810  29.312  1.00  0.00     0.031 C 
ATOM     60  C   UNL A   1      42.176  32.665  31.856  1.00  0.00     0.029 A 
ATOM     61  C   UNL A   1      42.330  33.072  30.542  1.00  0.00     0.049 A 
ATOM     62  H   UNL A   1      40.883  33.234  29.030  1.00  0.00     0.167 HD
ATOM     63  C   UNL A   1      44.564  32.774  29.717  1.00  0.00     0.074 A 
ATOM     64  C   UNL A   1      45.911  32.938  29.205  1.00  0.00     0.031 C 
ATOM     65  C   UNL A   1      43.441  33.541  29.733  1.00  0.00     0.037 A 
BRANCH  52  66
ATOM     66  C   UNL A   1      37.472  32.459  30.937  1.00  0.00     0.064 A 
ATOM     67  C   UNL A   1      36.509  33.061  30.107  1.00  0.00     0.173 A 
ATOM     68  C   UNL A   1      37.055  32.269  32.278  1.00  0.00     0.173 A 
ATOM     69  F   UNL A   1      36.743  33.250  28.803  1.00  0.00    -0.203 F 
ATOM     70  C   UNL A   1      35.276  33.512  30.589  1.00  0.00     0.198 A 
ATOM     71  C   UNL A   1      35.853  32.791  32.779  1.00  0.00     0.198 A 
ATOM     72  F   UNL A   1      37.805  31.570  33.146  1.00  0.00    -0.203 F 
ATOM     73  F   UNL A   1      34.399  34.070  29.742  1.00  0.00    -0.200 F 
ATOM     74  C   UNL A   1      34.961  33.412  31.930  1.00  0.00     0.200 A 
ATOM     75  F   UNL A   1      35.574  32.703  34.088  1.00  0.00    -0.200 F 
ATOM     76  F   UNL A   1      33.800  33.893  32.395  1.00  0.00    -0.200 F 
ENDBRANCH  52  66
BRANCH  53  77
ATOM     77  C   UNL A   1      46.747  28.492  29.562  1.00  0.00     0.064 A 
ATOM     78  C   UNL A   1      47.462  27.607  30.390  1.00  0.00     0.173 A 
ATOM     79  C   UNL A   1      46.414  28.049  28.276  1.00  0.00     0.173 A 
ATOM     80  F   UNL A   1      47.934  28.028  31.573  1.00  0.00    -0.203 F 
ATOM     81  C   UNL A   1      47.541  26.253  30.082  1.00  0.00     0.198 A 
ATOM     82  C   UNL A   1      46.532  26.696  27.955  1.00  0.00     0.198 A 
ATOM     83  F   UNL A   1      45.832  28.882  27.405  1.00  0.00    -0.203 F 
ATOM     84  F   UNL A   1      48.022  25.386  30.984  1.00  0.00    -0.200 F 
ATOM     85  C   UNL A   1      47.007  25.790  28.896  1.00  0.00     0.200 A 
ATOM     86  F   UNL A   1      46.060  26.236  26.790  1.00  0.00    -0.200 F 
ATOM     87  F   UNL A   1      46.882  24.471  28.691  1.00  0.00    -0.200 F 
ENDBRANCH  53  77
BRANCH  65  88
ATOM     88  C   UNL A   1      43.280  34.843  29.012  1.00  0.00     0.064 A 
ATOM     89  C   UNL A   1      43.289  36.091  29.644  1.00  0.00     0.173 A 
ATOM     90  C   UNL A   1      43.258  34.860  27.595  1.00  0.00     0.173 A 
ATOM     91  F   UNL A   1      43.457  36.205  30.969  1.00  0.00    -0.203 F 
ATOM     92  C   UNL A   1      43.171  37.271  28.915  1.00  0.00     0.198 A 
ATOM     93  C   UNL A   1      43.248  36.042  26.871  1.00  0.00     0.198 A 
ATOM     94  F   UNL A   1      43.270  33.729  26.873  1.00  0.00    -0.203 F 
ATOM     95  F   UNL A   1      43.079  38.441  29.563  1.00  0.00    -0.200 F 
ATOM     96  C   UNL A   1      43.165  37.247  27.532  1.00  0.00     0.200 A 
ATOM     97  F   UNL A   1      43.328  36.000  25.534  1.00  0.00    -0.200 F 
ATOM     98  F   UNL A   1      43.087  38.387  26.834  1.00  0.00    -0.200 F 
ENDBRANCH  65  88
ENDBRANCH  39  40
ENDBRANCH  32  34
ENDBRANCH  31  32
ENDBRANCH  30  31
ENDBRANCH  29  30
ENDBRANCH  28  29
ENDBRANCH  27  28
ENDBRANCH   1  27
TORSDOF 20
ENDMDL
