MODEL 1
REMARK VINA RESULT:     -11.2      0.000      0.000
REMARK SMILES O=C(OCCOCCOCCOC(=O)c1ccc(-n2cc(CSc3nc4ccccc4c(=O)n3-c3ccc(Br)cc3)nn2)cc1)c1ccc(-c2c3nc(c(-c4c(F)c(F)c(F)c(F)c4F)c4ccc([nH]4)c(-c4c(F)c(F)c(F)c(F)c4F)c4nc(c(-c5c(F)c(F)c(F)c(F)c5F)c5ccc2[nH]5)C=C4)C=C3)cc1
REMARK SMILES IDX 9 1 8 2 7 3 6 4 5 5 4 6 3 7 2 8 1 9 46 10 47 11 108 12 48 13
REMARK SMILES IDX 107 14 49 15 50 16 51 17 101 18 52 19 106 20 100 21 102 22
REMARK SMILES IDX 53 23 105 24 99 25 98 26 54 28 86 29 66 30 85 31 67 32 70 33
REMARK SMILES IDX 84 34 103 35 68 36 69 37 83 39 104 40 71 41 55 42 56 43
REMARK SMILES IDX 64 44 57 45 58 46 62 47 65 48 59 49 60 50 63 51 61 52 87 53
REMARK SMILES IDX 88 54 96 55 89 56 90 57 94 58 97 59 91 60 92 61 95 62 93 63
REMARK SMILES IDX 72 64 73 65 81 66 74 67 75 68 79 69 82 70 76 71 77 72 80 73
REMARK SMILES IDX 78 74 10 75 11 76 12 77 13 78 14 79 15 80 16 81 45 82 17 83
REMARK SMILES IDX 44 84 18 85 19 86 20 87 43 88 21 89 42 90 22 91 23 92 24 93
REMARK SMILES IDX 25 94 34 95 26 96 32 97 27 98 31 99 33 100 28 101 30 102
REMARK SMILES IDX 29 103 35 104 36 105 41 106 37 107 40 108 38 109 39 110
REMARK H PARENT 102 27 70 38
REMARK Flexibility Score: inf
ROOT
ATOM      1  O   UNL A   1      30.248  29.017  23.907  1.00  0.00    -0.376 OA
ENDROOT
BRANCH   1   2
ATOM      2  C   UNL A   1      31.196  29.626  24.773  1.00  0.00     0.188 C 
BRANCH   2   3
ATOM      3  C   UNL A   1      31.917  28.780  25.852  1.00  0.00     0.188 C 
BRANCH   3   4
ATOM      4  O   UNL A   1      32.196  29.475  27.046  1.00  0.00    -0.376 OA
BRANCH   4   5
ATOM      5  C   UNL A   1      32.825  30.740  27.002  1.00  0.00     0.202 C 
BRANCH   5   6
ATOM      6  C   UNL A   1      34.183  30.996  27.670  1.00  0.00     0.261 C 
BRANCH   6   7
ATOM      7  O   UNL A   1      34.393  32.285  28.254  1.00  0.00    -0.460 OA
BRANCH   7   8
ATOM      8  C   UNL A   1      34.656  32.674  29.513  1.00  0.00     0.338 C 
ATOM      9  O   UNL A   1      33.966  33.561  30.013  1.00  0.00    -0.246 OA
BRANCH   8  10
ATOM     10  C   UNL A   1      35.820  32.199  30.309  1.00  0.00     0.060 A 
ATOM     11  C   UNL A   1      35.789  31.242  31.324  1.00  0.00     0.016 A 
ATOM     12  C   UNL A   1      37.036  32.854  30.023  1.00  0.00     0.016 A 
ATOM     13  C   UNL A   1      36.879  31.102  32.167  1.00  0.00     0.010 A 
ATOM     14  C   UNL A   1      38.133  32.703  30.848  1.00  0.00     0.010 A 
ATOM     15  C   UNL A   1      38.004  31.901  31.972  1.00  0.00    -0.014 A 
BRANCH  15  16
ATOM     16  C   UNL A   1      39.046  31.863  32.982  1.00  0.00     0.031 A 
ATOM     17  C   UNL A   1      38.868  32.846  34.075  1.00  0.00     0.074 A 
ATOM     18  C   UNL A   1      40.038  30.952  32.919  1.00  0.00     0.049 A 
ATOM     19  N   UNL A   1      39.648  33.826  34.393  1.00  0.00    -0.248 NA
ATOM     20  C   UNL A   1      37.593  32.831  34.811  1.00  0.00     0.031 C 
ATOM     21  C   UNL A   1      40.139  29.810  32.005  1.00  0.00     0.029 A 
ATOM     22  N   UNL A   1      41.121  30.786  33.727  1.00  0.00    -0.354 N 
ATOM     23  C   UNL A   1      39.067  34.420  35.511  1.00  0.00     0.074 A 
ATOM     24  C   UNL A   1      37.731  33.896  35.600  1.00  0.00     0.031 C 
ATOM     25  C   UNL A   1      41.073  28.950  32.465  1.00  0.00     0.029 A 
ATOM     26  C   UNL A   1      41.715  29.533  33.629  1.00  0.00     0.049 A 
ATOM     27  H   UNL A   1      41.455  31.491  34.328  1.00  0.00     0.167 HD
ATOM     28  C   UNL A   1      39.848  35.047  36.434  1.00  0.00     0.037 A 
ATOM     29  C   UNL A   1      42.602  28.988  34.499  1.00  0.00     0.037 A 
ATOM     30  C   UNL A   1      41.100  35.463  35.843  1.00  0.00     0.049 A 
ATOM     31  C   UNL A   1      43.184  30.098  35.295  1.00  0.00     0.074 A 
ATOM     32  C   UNL A   1      41.462  36.279  34.788  1.00  0.00     0.029 A 
ATOM     33  N   UNL A   1      42.225  34.736  36.146  1.00  0.00    -0.354 N 
ATOM     34  N   UNL A   1      43.989  30.999  34.806  1.00  0.00    -0.248 NA
ATOM     35  C   UNL A   1      42.512  30.469  36.532  1.00  0.00     0.031 C 
ATOM     36  C   UNL A   1      42.622  35.669  34.222  1.00  0.00     0.029 A 
ATOM     37  C   UNL A   1      42.936  34.552  34.994  1.00  0.00     0.049 A 
ATOM     38  H   UNL A   1      42.474  34.405  37.038  1.00  0.00     0.167 HD
ATOM     39  C   UNL A   1      43.587  32.186  35.399  1.00  0.00     0.074 A 
ATOM     40  C   UNL A   1      42.747  31.784  36.525  1.00  0.00     0.031 C 
ATOM     41  C   UNL A   1      43.731  33.374  34.742  1.00  0.00     0.037 A 
BRANCH  28  42
ATOM     42  C   UNL A   1      39.701  34.820  37.932  1.00  0.00     0.064 A 
ATOM     43  C   UNL A   1      39.477  33.502  38.382  1.00  0.00     0.173 A 
ATOM     44  C   UNL A   1      39.405  35.832  38.873  1.00  0.00     0.173 A 
ATOM     45  F   UNL A   1      39.750  32.453  37.591  1.00  0.00    -0.203 F 
ATOM     46  C   UNL A   1      38.841  33.234  39.596  1.00  0.00     0.198 A 
ATOM     47  C   UNL A   1      38.814  35.557  40.104  1.00  0.00     0.198 A 
ATOM     48  F   UNL A   1      39.573  37.132  38.620  1.00  0.00    -0.203 F 
ATOM     49  F   UNL A   1      38.489  31.977  39.897  1.00  0.00    -0.200 F 
ATOM     50  C   UNL A   1      38.486  34.265  40.445  1.00  0.00     0.200 A 
ATOM     51  F   UNL A   1      38.479  36.572  40.913  1.00  0.00    -0.200 F 
ATOM     52  F   UNL A   1      37.795  34.020  41.565  1.00  0.00    -0.200 F 
ENDBRANCH  28  42
BRANCH  29  53
ATOM     53  C   UNL A   1      42.728  27.565  34.908  1.00  0.00     0.064 A 
ATOM     54  C   UNL A   1      41.863  27.008  35.864  1.00  0.00     0.173 A 
ATOM     55  C   UNL A   1      43.519  26.653  34.180  1.00  0.00     0.173 A 
ATOM     56  F   UNL A   1      41.038  27.796  36.570  1.00  0.00    -0.203 F 
ATOM     57  C   UNL A   1      41.776  25.624  36.061  1.00  0.00     0.198 A 
ATOM     58  C   UNL A   1      43.441  25.276  34.385  1.00  0.00     0.198 A 
ATOM     59  F   UNL A   1      44.314  27.069  33.185  1.00  0.00    -0.203 F 
ATOM     60  F   UNL A   1      40.890  25.127  36.936  1.00  0.00    -0.200 F 
ATOM     61  C   UNL A   1      42.559  24.759  35.315  1.00  0.00     0.200 A 
ATOM     62  F   UNL A   1      44.180  24.449  33.631  1.00  0.00    -0.200 F 
ATOM     63  F   UNL A   1      42.436  23.433  35.460  1.00  0.00    -0.200 F 
ENDBRANCH  29  53
BRANCH  41  64
ATOM     64  C   UNL A   1      44.617  33.395  33.531  1.00  0.00     0.064 A 
ATOM     65  C   UNL A   1      46.004  33.618  33.570  1.00  0.00     0.173 A 
ATOM     66  C   UNL A   1      44.050  33.059  32.295  1.00  0.00     0.173 A 
ATOM     67  F   UNL A   1      46.636  33.839  34.730  1.00  0.00    -0.203 F 
ATOM     68  C   UNL A   1      46.774  33.565  32.409  1.00  0.00     0.198 A 
ATOM     69  C   UNL A   1      44.828  32.966  31.145  1.00  0.00     0.198 A 
ATOM     70  F   UNL A   1      42.740  32.777  32.210  1.00  0.00    -0.203 F 
ATOM     71  F   UNL A   1      48.093  33.804  32.466  1.00  0.00    -0.200 F 
ATOM     72  C   UNL A   1      46.186  33.234  31.200  1.00  0.00     0.200 A 
ATOM     73  F   UNL A   1      44.264  32.594  29.989  1.00  0.00    -0.200 F 
ATOM     74  F   UNL A   1      46.933  33.145  30.090  1.00  0.00    -0.200 F 
ENDBRANCH  41  64
ENDBRANCH  15  16
ENDBRANCH   8  10
ENDBRANCH   7   8
ENDBRANCH   6   7
ENDBRANCH   5   6
ENDBRANCH   4   5
ENDBRANCH   3   4
ENDBRANCH   2   3
ENDBRANCH   1   2
BRANCH   1  75
ATOM     75  C   UNL A   1      30.658  28.610  22.610  1.00  0.00     0.202 C 
BRANCH  75  76
ATOM     76  C   UNL A   1      30.942  27.121  22.334  1.00  0.00     0.261 C 
BRANCH  76  77
ATOM     77  O   UNL A   1      31.377  26.347  23.469  1.00  0.00    -0.460 OA
BRANCH  77  78
ATOM     78  C   UNL A   1      31.200  25.002  23.381  1.00  0.00     0.338 C 
ATOM     79  O   UNL A   1      30.178  24.402  23.146  1.00  0.00    -0.246 OA
BRANCH  78  80
ATOM     80  C   UNL A   1      32.511  24.328  23.523  1.00  0.00     0.060 A 
ATOM     81  C   UNL A   1      32.581  22.928  23.418  1.00  0.00     0.018 A 
ATOM     82  C   UNL A   1      33.648  25.068  23.854  1.00  0.00     0.018 A 
ATOM     83  C   UNL A   1      33.793  22.260  23.587  1.00  0.00     0.029 A 
ATOM     84  C   UNL A   1      34.842  24.394  24.127  1.00  0.00     0.029 A 
ATOM     85  C   UNL A   1      34.907  22.995  23.984  1.00  0.00     0.066 A 
BRANCH  85  86
ATOM     86  N   UNL A   1      36.001  22.287  24.510  1.00  0.00    -0.220 N 
ATOM     87  C   UNL A   1      37.162  22.877  24.923  1.00  0.00     0.141 A 
ATOM     88  N   UNL A   1      35.992  20.991  24.880  1.00  0.00    -0.062 NA
ATOM     89  C   UNL A   1      37.895  21.886  25.529  1.00  0.00     0.093 A 
ATOM     90  N   UNL A   1      37.177  20.716  25.427  1.00  0.00    -0.134 NA
BRANCH  89  91
ATOM     91  C   UNL A   1      39.315  21.920  25.957  1.00  0.00     0.138 C 
BRANCH  91  92
ATOM     92  S   UNL A   1      39.995  23.070  27.149  1.00  0.00    -0.081 SA
BRANCH  92  93
ATOM     93  C   UNL A   1      41.526  23.769  26.698  1.00  0.00     0.176 A 
ATOM     94  N   UNL A   1      42.157  23.039  25.824  1.00  0.00    -0.223 NA
ATOM     95  N   UNL A   1      42.067  24.950  27.176  1.00  0.00    -0.255 N 
ATOM     96  C   UNL A   1      43.464  23.399  25.473  1.00  0.00     0.079 A 
ATOM     97  C   UNL A   1      43.452  24.891  27.374  1.00  0.00     0.266 A 
ATOM     98  C   UNL A   1      44.080  22.882  24.332  1.00  0.00     0.029 A 
ATOM     99  C   UNL A   1      44.213  24.191  26.330  1.00  0.00     0.066 A 
ATOM    100  O   UNL A   1      44.064  25.357  28.335  1.00  0.00    -0.268 OA
ATOM    101  C   UNL A   1      45.445  23.105  24.108  1.00  0.00     0.002 A 
ATOM    102  C   UNL A   1      45.587  24.376  26.154  1.00  0.00     0.016 A 
ATOM    103  C   UNL A   1      46.206  23.817  25.038  1.00  0.00     0.001 A 
BRANCH  95 104
ATOM    104  C   UNL A   1      41.374  26.178  27.502  1.00  0.00     0.051 A 
ATOM    105  C   UNL A   1      40.686  26.289  28.730  1.00  0.00     0.028 A 
ATOM    106  C   UNL A   1      41.326  27.307  26.676  1.00  0.00     0.028 A 
ATOM    107  C   UNL A   1      39.789  27.329  28.993  1.00  0.00     0.018 A 
ATOM    108  C   UNL A   1      40.383  28.327  26.897  1.00  0.00     0.018 A 
ATOM    109  C   UNL A   1      39.583  28.303  28.033  1.00  0.00     0.018 A 
ATOM    110  Br  UNL A   1      38.194  29.560  28.249  1.00  0.00    -0.051 Br
ENDBRANCH  95 104
ENDBRANCH  92  93
ENDBRANCH  91  92
ENDBRANCH  89  91
ENDBRANCH  85  86
ENDBRANCH  78  80
ENDBRANCH  77  78
ENDBRANCH  76  77
ENDBRANCH  75  76
ENDBRANCH   1  75
TORSDOF 22
ENDMDL
MODEL 2
REMARK VINA RESULT:     -11.1      1.635      2.915
REMARK SMILES O=C(OCCOCCOCCOC(=O)c1ccc(-n2cc(CSc3nc4ccccc4c(=O)n3-c3ccc(Br)cc3)nn2)cc1)c1ccc(-c2c3nc(c(-c4c(F)c(F)c(F)c(F)c4F)c4ccc([nH]4)c(-c4c(F)c(F)c(F)c(F)c4F)c4nc(c(-c5c(F)c(F)c(F)c(F)c5F)c5ccc2[nH]5)C=C4)C=C3)cc1
REMARK SMILES IDX 9 1 8 2 7 3 6 4 5 5 4 6 3 7 2 8 1 9 46 10 47 11 108 12 48 13
REMARK SMILES IDX 107 14 49 15 50 16 51 17 101 18 52 19 106 20 100 21 102 22
REMARK SMILES IDX 53 23 105 24 99 25 98 26 54 28 86 29 66 30 85 31 67 32 70 33
REMARK SMILES IDX 84 34 103 35 68 36 69 37 83 39 104 40 71 41 55 42 56 43
REMARK SMILES IDX 64 44 57 45 58 46 62 47 65 48 59 49 60 50 63 51 61 52 87 53
REMARK SMILES IDX 88 54 96 55 89 56 90 57 94 58 97 59 91 60 92 61 95 62 93 63
REMARK SMILES IDX 72 64 73 65 81 66 74 67 75 68 79 69 82 70 76 71 77 72 80 73
REMARK SMILES IDX 78 74 10 75 11 76 12 77 13 78 14 79 15 80 16 81 45 82 17 83
REMARK SMILES IDX 44 84 18 85 19 86 20 87 43 88 21 89 42 90 22 91 23 92 24 93
REMARK SMILES IDX 25 94 34 95 26 96 32 97 27 98 31 99 33 100 28 101 30 102
REMARK SMILES IDX 29 103 35 104 36 105 41 106 37 107 40 108 38 109 39 110
REMARK H PARENT 102 27 70 38
REMARK Flexibility Score: inf
ROOT
ATOM      1  O   UNL A   1      31.223  26.351  24.319  1.00  0.00    -0.376 OA
ENDROOT
BRANCH   1   2
ATOM      2  C   UNL A   1      31.298  27.313  25.362  1.00  0.00     0.188 C 
BRANCH   2   3
ATOM      3  C   UNL A   1      31.887  28.718  25.080  1.00  0.00     0.188 C 
BRANCH   3   4
ATOM      4  O   UNL A   1      31.720  29.641  26.133  1.00  0.00    -0.376 OA
BRANCH   4   5
ATOM      5  C   UNL A   1      32.783  29.901  27.026  1.00  0.00     0.202 C 
BRANCH   5   6
ATOM      6  C   UNL A   1      33.263  31.327  27.328  1.00  0.00     0.261 C 
BRANCH   6   7
ATOM      7  O   UNL A   1      34.143  31.501  28.442  1.00  0.00    -0.460 OA
BRANCH   7   8
ATOM      8  C   UNL A   1      35.472  31.355  28.574  1.00  0.00     0.338 C 
ATOM      9  O   UNL A   1      36.101  30.823  27.661  1.00  0.00    -0.246 OA
BRANCH   8  10
ATOM     10  C   UNL A   1      36.229  31.674  29.815  1.00  0.00     0.060 A 
ATOM     11  C   UNL A   1      37.018  32.804  30.033  1.00  0.00     0.016 A 
ATOM     12  C   UNL A   1      36.170  30.678  30.813  1.00  0.00     0.016 A 
ATOM     13  C   UNL A   1      37.885  32.837  31.112  1.00  0.00     0.010 A 
ATOM     14  C   UNL A   1      37.019  30.715  31.902  1.00  0.00     0.010 A 
ATOM     15  C   UNL A   1      37.939  31.749  31.982  1.00  0.00    -0.014 A 
BRANCH  15  16
ATOM     16  C   UNL A   1      38.987  31.735  32.986  1.00  0.00     0.031 A 
ATOM     17  C   UNL A   1      38.801  32.727  34.070  1.00  0.00     0.074 A 
ATOM     18  C   UNL A   1      39.992  30.839  32.926  1.00  0.00     0.049 A 
ATOM     19  N   UNL A   1      39.569  33.721  34.374  1.00  0.00    -0.248 NA
ATOM     20  C   UNL A   1      37.531  32.700  34.814  1.00  0.00     0.031 C 
ATOM     21  C   UNL A   1      40.104  29.689  32.022  1.00  0.00     0.029 A 
ATOM     22  N   UNL A   1      41.082  30.697  33.730  1.00  0.00    -0.354 N 
ATOM     23  C   UNL A   1      38.986  34.318  35.489  1.00  0.00     0.074 A 
ATOM     24  C   UNL A   1      37.658  33.775  35.591  1.00  0.00     0.031 C 
ATOM     25  C   UNL A   1      41.053  28.847  32.486  1.00  0.00     0.029 A 
ATOM     26  C   UNL A   1      41.694  29.452  33.640  1.00  0.00     0.049 A 
ATOM     27  H   UNL A   1      41.409  31.413  34.321  1.00  0.00     0.167 HD
ATOM     28  C   UNL A   1      39.763  34.966  36.401  1.00  0.00     0.037 A 
ATOM     29  C   UNL A   1      42.594  28.928  34.510  1.00  0.00     0.037 A 
ATOM     30  C   UNL A   1      41.005  35.393  35.799  1.00  0.00     0.049 A 
ATOM     31  C   UNL A   1      43.164  30.055  35.292  1.00  0.00     0.074 A 
ATOM     32  C   UNL A   1      41.349  36.204  34.733  1.00  0.00     0.029 A 
ATOM     33  N   UNL A   1      42.142  34.686  36.102  1.00  0.00    -0.354 N 
ATOM     34  N   UNL A   1      43.953  30.962  34.789  1.00  0.00    -0.248 NA
ATOM     35  C   UNL A   1      42.494  30.428  36.529  1.00  0.00     0.031 C 
ATOM     36  C   UNL A   1      42.514  35.606  34.167  1.00  0.00     0.029 A 
ATOM     37  C   UNL A   1      42.849  34.501  34.948  1.00  0.00     0.049 A 
ATOM     38  H   UNL A   1      42.402  34.368  36.996  1.00  0.00     0.167 HD
ATOM     39  C   UNL A   1      43.537  32.149  35.373  1.00  0.00     0.074 A 
ATOM     40  C   UNL A   1      42.710  31.746  36.507  1.00  0.00     0.031 C 
ATOM     41  C   UNL A   1      43.660  33.333  34.703  1.00  0.00     0.037 A 
BRANCH  28  42
ATOM     42  C   UNL A   1      39.628  34.751  37.902  1.00  0.00     0.064 A 
ATOM     43  C   UNL A   1      39.396  33.439  38.365  1.00  0.00     0.173 A 
ATOM     44  C   UNL A   1      39.349  35.774  38.838  1.00  0.00     0.173 A 
ATOM     45  F   UNL A   1      39.653  32.382  37.580  1.00  0.00    -0.203 F 
ATOM     46  C   UNL A   1      38.769  33.186  39.587  1.00  0.00     0.198 A 
ATOM     47  C   UNL A   1      38.767  35.513  40.077  1.00  0.00     0.198 A 
ATOM     48  F   UNL A   1      39.526  37.070  38.573  1.00  0.00    -0.203 F 
ATOM     49  F   UNL A   1      38.410  31.934  39.901  1.00  0.00    -0.200 F 
ATOM     50  C   UNL A   1      38.432  34.226  40.431  1.00  0.00     0.200 A 
ATOM     51  F   UNL A   1      38.449  36.537  40.881  1.00  0.00    -0.200 F 
ATOM     52  F   UNL A   1      37.749  33.996  41.559  1.00  0.00    -0.200 F 
ENDBRANCH  28  42
BRANCH  29  53
ATOM     53  C   UNL A   1      42.744  27.512  34.932  1.00  0.00     0.064 A 
ATOM     54  C   UNL A   1      41.866  26.940  35.869  1.00  0.00     0.173 A 
ATOM     55  C   UNL A   1      43.575  26.614  34.232  1.00  0.00     0.173 A 
ATOM     56  F   UNL A   1      41.005  27.713  36.547  1.00  0.00    -0.203 F 
ATOM     57  C   UNL A   1      41.808  25.556  36.073  1.00  0.00     0.198 A 
ATOM     58  C   UNL A   1      43.525  25.237  34.445  1.00  0.00     0.198 A 
ATOM     59  F   UNL A   1      44.387  27.043  33.256  1.00  0.00    -0.203 F 
ATOM     60  F   UNL A   1      40.911  25.043  36.928  1.00  0.00    -0.200 F 
ATOM     61  C   UNL A   1      42.631  24.705  35.355  1.00  0.00     0.200 A 
ATOM     62  F   UNL A   1      44.304  24.424  33.717  1.00  0.00    -0.200 F 
ATOM     63  F   UNL A   1      42.536  23.377  35.506  1.00  0.00    -0.200 F 
ENDBRANCH  29  53
BRANCH  41  64
ATOM     64  C   UNL A   1      44.539  33.354  33.486  1.00  0.00     0.064 A 
ATOM     65  C   UNL A   1      45.930  33.549  33.519  1.00  0.00     0.173 A 
ATOM     66  C   UNL A   1      43.957  33.049  32.249  1.00  0.00     0.173 A 
ATOM     67  F   UNL A   1      46.574  33.738  34.678  1.00  0.00    -0.203 F 
ATOM     68  C   UNL A   1      46.691  33.497  32.353  1.00  0.00     0.198 A 
ATOM     69  C   UNL A   1      44.725  32.959  31.092  1.00  0.00     0.198 A 
ATOM     70  F   UNL A   1      42.641  32.795  32.168  1.00  0.00    -0.203 F 
ATOM     71  F   UNL A   1      48.015  33.708  32.404  1.00  0.00    -0.200 F 
ATOM     72  C   UNL A   1      46.089  33.198  31.143  1.00  0.00     0.200 A 
ATOM     73  F   UNL A   1      44.146  32.617  29.934  1.00  0.00    -0.200 F 
ATOM     74  F   UNL A   1      46.826  33.111  30.026  1.00  0.00    -0.200 F 
ENDBRANCH  41  64
ENDBRANCH  15  16
ENDBRANCH   8  10
ENDBRANCH   7   8
ENDBRANCH   6   7
ENDBRANCH   5   6
ENDBRANCH   4   5
ENDBRANCH   3   4
ENDBRANCH   2   3
ENDBRANCH   1   2
BRANCH   1  75
ATOM     75  C   UNL A   1      31.872  26.617  23.085  1.00  0.00     0.202 C 
BRANCH  75  76
ATOM     76  C   UNL A   1      33.136  25.825  22.704  1.00  0.00     0.261 C 
BRANCH  76  77
ATOM     77  O   UNL A   1      32.942  24.420  22.452  1.00  0.00    -0.460 OA
BRANCH  77  78
ATOM     78  C   UNL A   1      32.956  23.607  23.541  1.00  0.00     0.338 C 
ATOM     79  O   UNL A   1      32.037  22.978  24.011  1.00  0.00    -0.246 OA
BRANCH  78  80
ATOM     80  C   UNL A   1      34.342  23.505  24.055  1.00  0.00     0.060 A 
ATOM     81  C   UNL A   1      35.353  23.006  23.215  1.00  0.00     0.018 A 
ATOM     82  C   UNL A   1      34.620  23.810  25.388  1.00  0.00     0.018 A 
ATOM     83  C   UNL A   1      36.658  22.859  23.681  1.00  0.00     0.029 A 
ATOM     84  C   UNL A   1      35.902  23.565  25.889  1.00  0.00     0.029 A 
ATOM     85  C   UNL A   1      36.914  23.099  25.028  1.00  0.00     0.066 A 
BRANCH  85  86
ATOM     86  N   UNL A   1      38.113  22.597  25.564  1.00  0.00    -0.220 N 
ATOM     87  C   UNL A   1      38.906  23.289  26.433  1.00  0.00     0.141 A 
ATOM     88  N   UNL A   1      38.534  21.319  25.479  1.00  0.00    -0.062 NA
ATOM     89  C   UNL A   1      39.867  22.403  26.856  1.00  0.00     0.093 A 
ATOM     90  N   UNL A   1      39.653  21.213  26.199  1.00  0.00    -0.134 NA
BRANCH  89  91
ATOM     91  C   UNL A   1      41.102  22.681  27.627  1.00  0.00     0.138 C 
BRANCH  91  92
ATOM     92  S   UNL A   1      42.431  23.748  27.077  1.00  0.00    -0.081 SA
BRANCH  92  93
ATOM     93  C   UNL A   1      42.070  25.451  27.131  1.00  0.00     0.176 A 
ATOM     94  N   UNL A   1      41.010  25.704  27.845  1.00  0.00    -0.223 NA
ATOM     95  N   UNL A   1      42.778  26.466  26.511  1.00  0.00    -0.255 N 
ATOM     96  C   UNL A   1      40.513  27.012  27.864  1.00  0.00     0.079 A 
ATOM     97  C   UNL A   1      41.964  27.478  25.987  1.00  0.00     0.266 A 
ATOM     98  C   UNL A   1      39.602  27.431  28.834  1.00  0.00     0.029 A 
ATOM     99  C   UNL A   1      40.834  27.884  26.834  1.00  0.00     0.066 A 
ATOM    100  O   UNL A   1      42.111  28.030  24.898  1.00  0.00    -0.268 OA
ATOM    101  C   UNL A   1      38.977  28.680  28.720  1.00  0.00     0.002 A 
ATOM    102  C   UNL A   1      40.178  29.108  26.671  1.00  0.00     0.016 A 
ATOM    103  C   UNL A   1      39.235  29.500  27.618  1.00  0.00     0.001 A 
BRANCH  95 104
ATOM    104  C   UNL A   1      44.211  26.571  26.333  1.00  0.00     0.051 A 
ATOM    105  C   UNL A   1      44.839  25.868  25.281  1.00  0.00     0.028 A 
ATOM    106  C   UNL A   1      45.059  27.335  27.142  1.00  0.00     0.028 A 
ATOM    107  C   UNL A   1      46.226  25.713  25.210  1.00  0.00     0.018 A 
ATOM    108  C   UNL A   1      46.451  27.139  27.123  1.00  0.00     0.018 A 
ATOM    109  C   UNL A   1      47.022  26.287  26.185  1.00  0.00     0.018 A 
ATOM    110  Br  UNL A   1      48.860  25.874  26.264  1.00  0.00    -0.051 Br
ENDBRANCH  95 104
ENDBRANCH  92  93
ENDBRANCH  91  92
ENDBRANCH  89  91
ENDBRANCH  85  86
ENDBRANCH  78  80
ENDBRANCH  77  78
ENDBRANCH  76  77
ENDBRANCH  75  76
ENDBRANCH   1  75
TORSDOF 22
ENDMDL
MODEL 3
REMARK VINA RESULT:     -10.7      2.006      3.180
REMARK SMILES O=C(OCCOCCOCCOC(=O)c1ccc(-n2cc(CSc3nc4ccccc4c(=O)n3-c3ccc(Br)cc3)nn2)cc1)c1ccc(-c2c3nc(c(-c4c(F)c(F)c(F)c(F)c4F)c4ccc([nH]4)c(-c4c(F)c(F)c(F)c(F)c4F)c4nc(c(-c5c(F)c(F)c(F)c(F)c5F)c5ccc2[nH]5)C=C4)C=C3)cc1
REMARK SMILES IDX 9 1 8 2 7 3 6 4 5 5 4 6 3 7 2 8 1 9 46 10 47 11 108 12 48 13
REMARK SMILES IDX 107 14 49 15 50 16 51 17 101 18 52 19 106 20 100 21 102 22
REMARK SMILES IDX 53 23 105 24 99 25 98 26 54 28 86 29 66 30 85 31 67 32 70 33
REMARK SMILES IDX 84 34 103 35 68 36 69 37 83 39 104 40 71 41 55 42 56 43
REMARK SMILES IDX 64 44 57 45 58 46 62 47 65 48 59 49 60 50 63 51 61 52 87 53
REMARK SMILES IDX 88 54 96 55 89 56 90 57 94 58 97 59 91 60 92 61 95 62 93 63
REMARK SMILES IDX 72 64 73 65 81 66 74 67 75 68 79 69 82 70 76 71 77 72 80 73
REMARK SMILES IDX 78 74 10 75 11 76 12 77 13 78 14 79 15 80 16 81 45 82 17 83
REMARK SMILES IDX 44 84 18 85 19 86 20 87 43 88 21 89 42 90 22 91 23 92 24 93
REMARK SMILES IDX 25 94 34 95 26 96 32 97 27 98 31 99 33 100 28 101 30 102
REMARK SMILES IDX 29 103 35 104 36 105 41 106 37 107 40 108 38 109 39 110
REMARK H PARENT 102 27 70 38
REMARK Flexibility Score: inf
ROOT
ATOM      1  O   UNL A   1      31.023  24.829  24.965  1.00  0.00    -0.376 OA
ENDROOT
BRANCH   1   2
ATOM      2  C   UNL A   1      31.724  25.901  25.579  1.00  0.00     0.188 C 
BRANCH   2   3
ATOM      3  C   UNL A   1      30.960  26.934  26.444  1.00  0.00     0.188 C 
BRANCH   3   4
ATOM      4  O   UNL A   1      31.776  27.925  27.025  1.00  0.00    -0.376 OA
BRANCH   4   5
ATOM      5  C   UNL A   1      32.313  28.961  26.228  1.00  0.00     0.202 C 
BRANCH   5   6
ATOM      6  C   UNL A   1      32.845  30.265  26.838  1.00  0.00     0.261 C 
BRANCH   6   7
ATOM      7  O   UNL A   1      34.207  30.276  27.275  1.00  0.00    -0.460 OA
BRANCH   7   8
ATOM      8  C   UNL A   1      34.921  31.166  27.985  1.00  0.00     0.338 C 
ATOM      9  O   UNL A   1      34.562  32.343  27.986  1.00  0.00    -0.246 OA
BRANCH   8  10
ATOM     10  C   UNL A   1      36.205  30.854  28.670  1.00  0.00     0.060 A 
ATOM     11  C   UNL A   1      36.453  29.758  29.496  1.00  0.00     0.016 A 
ATOM     12  C   UNL A   1      37.216  31.821  28.493  1.00  0.00     0.016 A 
ATOM     13  C   UNL A   1      37.589  29.740  30.287  1.00  0.00     0.010 A 
ATOM     14  C   UNL A   1      38.361  31.798  29.265  1.00  0.00     0.010 A 
ATOM     15  C   UNL A   1      38.484  30.808  30.228  1.00  0.00    -0.014 A 
BRANCH  15  16
ATOM     16  C   UNL A   1      39.559  30.847  31.202  1.00  0.00     0.031 A 
ATOM     17  C   UNL A   1      39.455  31.959  32.175  1.00  0.00     0.074 A 
ATOM     18  C   UNL A   1      40.514  29.896  31.218  1.00  0.00     0.049 A 
ATOM     19  N   UNL A   1      40.282  32.937  32.349  1.00  0.00    -0.248 NA
ATOM     20  C   UNL A   1      38.208  32.082  32.946  1.00  0.00     0.031 C 
ATOM     21  C   UNL A   1      40.541  28.650  30.444  1.00  0.00     0.029 A 
ATOM     22  N   UNL A   1      41.618  29.783  32.007  1.00  0.00    -0.354 N 
ATOM     23  C   UNL A   1      39.763  33.682  33.405  1.00  0.00     0.074 A 
ATOM     24  C   UNL A   1      38.413  33.227  33.597  1.00  0.00     0.031 C 
ATOM     25  C   UNL A   1      41.459  27.814  30.976  1.00  0.00     0.029 A 
ATOM     26  C   UNL A   1      42.163  28.504  32.041  1.00  0.00     0.049 A 
ATOM     27  H   UNL A   1      41.999  30.540  32.508  1.00  0.00     0.167 HD
ATOM     28  C   UNL A   1      40.598  34.382  34.222  1.00  0.00     0.037 A 
ATOM     29  C   UNL A   1      43.060  28.031  32.942  1.00  0.00     0.037 A 
ATOM     30  C   UNL A   1      41.842  34.674  33.548  1.00  0.00     0.049 A 
ATOM     31  C   UNL A   1      43.709  29.203  33.581  1.00  0.00     0.074 A 
ATOM     32  C   UNL A   1      42.196  35.345  32.391  1.00  0.00     0.029 A 
ATOM     33  N   UNL A   1      42.950  33.944  33.900  1.00  0.00    -0.354 N 
ATOM     34  N   UNL A   1      44.529  30.006  32.963  1.00  0.00    -0.248 NA
ATOM     35  C   UNL A   1      43.096  29.744  34.785  1.00  0.00     0.031 C 
ATOM     36  C   UNL A   1      43.312  34.626  31.867  1.00  0.00     0.029 A 
ATOM     37  C   UNL A   1      43.613  33.596  32.757  1.00  0.00     0.049 A 
ATOM     38  H   UNL A   1      43.219  33.711  34.818  1.00  0.00     0.167 HD
ATOM     39  C   UNL A   1      44.191  31.270  33.422  1.00  0.00     0.074 A 
ATOM     40  C   UNL A   1      43.378  31.039  34.613  1.00  0.00     0.031 C 
ATOM     41  C   UNL A   1      44.356  32.366  32.624  1.00  0.00     0.037 A 
BRANCH  28  42
ATOM     42  C   UNL A   1      40.496  34.340  35.740  1.00  0.00     0.064 A 
ATOM     43  C   UNL A   1      40.416  35.567  36.432  1.00  0.00     0.173 A 
ATOM     44  C   UNL A   1      40.839  33.225  36.538  1.00  0.00     0.173 A 
ATOM     45  F   UNL A   1      40.068  36.693  35.790  1.00  0.00    -0.203 F 
ATOM     46  C   UNL A   1      40.821  35.694  37.762  1.00  0.00     0.198 A 
ATOM     47  C   UNL A   1      41.197  33.349  37.879  1.00  0.00     0.198 A 
ATOM     48  F   UNL A   1      40.944  31.987  36.051  1.00  0.00    -0.203 F 
ATOM     49  F   UNL A   1      40.896  36.909  38.320  1.00  0.00    -0.200 F 
ATOM     50  C   UNL A   1      41.237  34.587  38.477  1.00  0.00     0.200 A 
ATOM     51  F   UNL A   1      41.596  32.262  38.554  1.00  0.00    -0.200 F 
ATOM     52  F   UNL A   1      41.714  34.717  39.721  1.00  0.00    -0.200 F 
ENDBRANCH  28  42
BRANCH  29  53
ATOM     53  C   UNL A   1      43.148  26.663  33.514  1.00  0.00     0.064 A 
ATOM     54  C   UNL A   1      44.281  25.860  33.296  1.00  0.00     0.173 A 
ATOM     55  C   UNL A   1      42.251  26.214  34.504  1.00  0.00     0.173 A 
ATOM     56  F   UNL A   1      45.213  26.233  32.407  1.00  0.00    -0.203 F 
ATOM     57  C   UNL A   1      44.512  24.696  34.040  1.00  0.00     0.198 A 
ATOM     58  C   UNL A   1      42.476  25.049  35.236  1.00  0.00     0.198 A 
ATOM     59  F   UNL A   1      41.185  26.947  34.853  1.00  0.00    -0.203 F 
ATOM     60  F   UNL A   1      45.637  23.992  33.849  1.00  0.00    -0.200 F 
ATOM     61  C   UNL A   1      43.614  24.297  35.015  1.00  0.00     0.200 A 
ATOM     62  F   UNL A   1      41.614  24.693  36.201  1.00  0.00    -0.200 F 
ATOM     63  F   UNL A   1      43.862  23.216  35.768  1.00  0.00    -0.200 F 
ENDBRANCH  29  53
BRANCH  41  64
ATOM     64  C   UNL A   1      45.198  32.207  31.392  1.00  0.00     0.064 A 
ATOM     65  C   UNL A   1      44.690  31.872  30.125  1.00  0.00     0.173 A 
ATOM     66  C   UNL A   1      46.560  32.522  31.480  1.00  0.00     0.173 A 
ATOM     67  F   UNL A   1      43.380  31.662  29.939  1.00  0.00    -0.203 F 
ATOM     68  C   UNL A   1      45.525  31.799  29.011  1.00  0.00     0.198 A 
ATOM     69  C   UNL A   1      47.383  32.489  30.359  1.00  0.00     0.198 A 
ATOM     70  F   UNL A   1      47.087  32.907  32.654  1.00  0.00    -0.203 F 
ATOM     71  F   UNL A   1      45.023  31.455  27.816  1.00  0.00    -0.200 F 
ATOM     72  C   UNL A   1      46.869  32.112  29.129  1.00  0.00     0.200 A 
ATOM     73  F   UNL A   1      48.670  32.844  30.468  1.00  0.00    -0.200 F 
ATOM     74  F   UNL A   1      47.665  32.080  28.051  1.00  0.00    -0.200 F 
ENDBRANCH  41  64
ENDBRANCH  15  16
ENDBRANCH   8  10
ENDBRANCH   7   8
ENDBRANCH   6   7
ENDBRANCH   5   6
ENDBRANCH   4   5
ENDBRANCH   3   4
ENDBRANCH   2   3
ENDBRANCH   1   2
BRANCH   1  75
ATOM     75  C   UNL A   1      30.881  24.815  23.553  1.00  0.00     0.202 C 
BRANCH  75  76
ATOM     76  C   UNL A   1      32.105  25.093  22.661  1.00  0.00     0.261 C 
BRANCH  76  77
ATOM     77  O   UNL A   1      32.792  23.928  22.162  1.00  0.00    -0.460 OA
BRANCH  77  78
ATOM     78  C   UNL A   1      32.991  22.921  23.052  1.00  0.00     0.338 C 
ATOM     79  O   UNL A   1      32.288  21.960  23.255  1.00  0.00    -0.246 OA
BRANCH  78  80
ATOM     80  C   UNL A   1      34.303  23.109  23.714  1.00  0.00     0.060 A 
ATOM     81  C   UNL A   1      35.481  22.818  23.004  1.00  0.00     0.018 A 
ATOM     82  C   UNL A   1      34.364  23.477  25.059  1.00  0.00     0.018 A 
ATOM     83  C   UNL A   1      36.729  22.945  23.611  1.00  0.00     0.029 A 
ATOM     84  C   UNL A   1      35.605  23.505  25.701  1.00  0.00     0.029 A 
ATOM     85  C   UNL A   1      36.780  23.246  24.969  1.00  0.00     0.066 A 
BRANCH  85  86
ATOM     86  N   UNL A   1      37.988  23.005  25.646  1.00  0.00    -0.220 N 
ATOM     87  C   UNL A   1      38.537  23.865  26.553  1.00  0.00     0.141 A 
ATOM     88  N   UNL A   1      38.652  21.832  25.670  1.00  0.00    -0.062 NA
ATOM     89  C   UNL A   1      39.598  23.197  27.114  1.00  0.00     0.093 A 
ATOM     90  N   UNL A   1      39.687  21.968  26.501  1.00  0.00    -0.134 NA
BRANCH  89  91
ATOM     91  C   UNL A   1      40.668  23.735  27.989  1.00  0.00     0.138 C 
BRANCH  91  92
ATOM     92  S   UNL A   1      42.156  22.848  28.445  1.00  0.00    -0.081 SA
BRANCH  92  93
ATOM     93  C   UNL A   1      43.254  22.539  27.128  1.00  0.00     0.176 A 
ATOM     94  N   UNL A   1      43.131  21.329  26.662  1.00  0.00    -0.223 NA
ATOM     95  N   UNL A   1      44.174  23.425  26.594  1.00  0.00    -0.255 N 
ATOM     96  C   UNL A   1      44.044  20.888  25.697  1.00  0.00     0.079 A 
ATOM     97  C   UNL A   1      45.387  22.825  26.236  1.00  0.00     0.266 A 
ATOM     98  C   UNL A   1      43.796  19.753  24.924  1.00  0.00     0.029 A 
ATOM     99  C   UNL A   1      45.276  21.514  25.581  1.00  0.00     0.066 A 
ATOM    100  O   UNL A   1      46.509  23.291  26.433  1.00  0.00    -0.268 OA
ATOM    101  C   UNL A   1      44.803  19.226  24.105  1.00  0.00     0.002 A 
ATOM    102  C   UNL A   1      46.312  20.970  24.815  1.00  0.00     0.016 A 
ATOM    103  C   UNL A   1      46.072  19.810  24.082  1.00  0.00     0.001 A 
BRANCH  95 104
ATOM    104  C   UNL A   1      44.026  24.852  26.402  1.00  0.00     0.051 A 
ATOM    105  C   UNL A   1      44.400  25.740  27.435  1.00  0.00     0.028 A 
ATOM    106  C   UNL A   1      43.528  25.450  25.240  1.00  0.00     0.028 A 
ATOM    107  C   UNL A   1      44.046  27.092  27.423  1.00  0.00     0.018 A 
ATOM    108  C   UNL A   1      43.108  26.792  25.237  1.00  0.00     0.018 A 
ATOM    109  C   UNL A   1      43.326  27.593  26.353  1.00  0.00     0.018 A 
ATOM    110  Br  UNL A   1      42.608  29.335  26.432  1.00  0.00    -0.051 Br
ENDBRANCH  95 104
ENDBRANCH  92  93
ENDBRANCH  91  92
ENDBRANCH  89  91
ENDBRANCH  85  86
ENDBRANCH  78  80
ENDBRANCH  77  78
ENDBRANCH  76  77
ENDBRANCH  75  76
ENDBRANCH   1  75
TORSDOF 22
ENDMDL
