MODEL 1
REMARK VINA RESULT:     -11.0      0.000      0.000
REMARK SMILES O=C(CCc1ccc(S(=O)(=O)Nc2cccc(I)c2)cc1)OCCOCCOCCOC(=O)c1ccc(-c2c3nc(c(-c4c(F)c(F)c(F)c(F)c4F)c4ccc([nH]4)c(-c4c(F)c(F)c(F)c(F)c4F)c4nc(c(-c5c(F)c(F)c(F)c(F)c5F)c5ccc2[nH]5)C=C4)C=C3)cc1
REMARK SMILES IDX 25 1 24 2 23 3 22 4 2 5 1 6 3 7 4 8 5 9 6 10 21 11 7 12
REMARK SMILES IDX 20 13 8 14 9 15 10 16 11 17 12 18 13 20 14 21 19 22 15 23
REMARK SMILES IDX 17 24 16 25 18 26 26 27 27 28 28 29 29 30 30 31 31 32 32 33
REMARK SMILES IDX 33 34 34 35 35 36 96 37 36 38 95 39 37 40 38 41 39 42 89 43
REMARK SMILES IDX 40 44 94 45 88 46 90 47 41 48 93 49 87 50 86 51 42 53 74 54
REMARK SMILES IDX 54 55 73 56 55 57 58 58 72 59 91 60 56 61 57 62 71 64 92 65
REMARK SMILES IDX 59 66 43 67 44 68 52 69 45 70 46 71 50 72 53 73 47 74 48 75
REMARK SMILES IDX 51 76 49 77 75 78 76 79 84 80 77 81 78 82 82 83 85 84 79 85
REMARK SMILES IDX 80 86 83 87 81 88 60 89 61 90 69 91 62 92 63 93 67 94 70 95
REMARK SMILES IDX 64 96 65 97 68 98 66 99
REMARK H PARENT 12 19 90 52 58 63
REMARK Flexibility Score: inf
ROOT
ATOM      1  O   UNL A   1      33.134  37.210  30.067  1.00  0.00    -0.376 OA
ENDROOT
BRANCH   1   2
ATOM      2  C   UNL A   1      32.982  36.252  29.024  1.00  0.00     0.202 C 
BRANCH   2   3
ATOM      3  C   UNL A   1      34.237  35.564  28.488  1.00  0.00     0.261 C 
BRANCH   3   4
ATOM      4  O   UNL A   1      34.132  34.299  27.790  1.00  0.00    -0.463 OA
BRANCH   4   5
ATOM      5  C   UNL A   1      34.768  33.125  27.914  1.00  0.00     0.306 C 
ATOM      6  O   UNL A   1      35.965  33.061  27.629  1.00  0.00    -0.252 OA
BRANCH   5   7
ATOM      7  C   UNL A   1      34.042  31.881  28.344  1.00  0.00     0.127 C 
BRANCH   7   8
ATOM      8  C   UNL A   1      34.751  30.586  27.957  1.00  0.00     0.047 C 
BRANCH   8   9
ATOM      9  C   UNL A   1      33.912  29.719  27.054  1.00  0.00    -0.047 A 
ATOM     10  C   UNL A   1      34.455  29.101  25.921  1.00  0.00     0.005 A 
ATOM     11  C   UNL A   1      32.538  29.637  27.273  1.00  0.00     0.005 A 
ATOM     12  C   UNL A   1      33.610  28.631  24.908  1.00  0.00     0.022 A 
ATOM     13  C   UNL A   1      31.705  29.087  26.302  1.00  0.00     0.022 A 
ATOM     14  C   UNL A   1      32.222  28.713  25.066  1.00  0.00     0.087 A 
BRANCH  14  15
ATOM     15  S   UNL A   1      31.243  28.674  23.566  1.00  0.00     0.261 S 
ATOM     16  O   UNL A   1      30.118  29.554  23.806  1.00  0.00    -0.201 OA
ATOM     17  O   UNL A   1      32.162  28.927  22.474  1.00  0.00    -0.201 OA
BRANCH  15  18
ATOM     18  N   UNL A   1      30.651  27.128  23.284  1.00  0.00    -0.280 N 
ATOM     19  H   UNL A   1      29.689  27.028  23.101  1.00  0.00     0.180 HD
BRANCH  18  20
ATOM     20  C   UNL A   1      31.451  25.954  23.294  1.00  0.00     0.050 A 
ATOM     21  C   UNL A   1      31.941  25.529  22.052  1.00  0.00     0.027 A 
ATOM     22  C   UNL A   1      31.883  25.329  24.466  1.00  0.00     0.041 A 
ATOM     23  C   UNL A   1      32.956  24.576  21.984  1.00  0.00     0.003 A 
ATOM     24  C   UNL A   1      32.899  24.370  24.388  1.00  0.00     0.015 A 
ATOM     25  C   UNL A   1      33.454  24.013  23.157  1.00  0.00     0.015 A 
ATOM     26  I   UNL A   1      33.662  23.523  26.128  1.00  0.00    -0.044 I 
ENDBRANCH  18  20
ENDBRANCH  15  18
ENDBRANCH  14  15
ENDBRANCH   8   9
ENDBRANCH   7   8
ENDBRANCH   5   7
ENDBRANCH   4   5
ENDBRANCH   3   4
ENDBRANCH   2   3
ENDBRANCH   1   2
BRANCH   1  27
ATOM     27  C   UNL A   1      32.901  36.773  31.395  1.00  0.00     0.188 C 
BRANCH  27  28
ATOM     28  C   UNL A   1      34.016  37.019  32.409  1.00  0.00     0.188 C 
BRANCH  28  29
ATOM     29  O   UNL A   1      34.537  35.818  32.962  1.00  0.00    -0.376 OA
BRANCH  29  30
ATOM     30  C   UNL A   1      33.907  34.637  32.472  1.00  0.00     0.202 C 
BRANCH  30  31
ATOM     31  C   UNL A   1      34.713  33.792  31.468  1.00  0.00     0.261 C 
BRANCH  31  32
ATOM     32  O   UNL A   1      34.929  32.406  31.784  1.00  0.00    -0.460 OA
BRANCH  32  33
ATOM     33  C   UNL A   1      35.880  32.095  32.691  1.00  0.00     0.338 C 
ATOM     34  O   UNL A   1      35.877  32.347  33.877  1.00  0.00    -0.246 OA
BRANCH  33  35
ATOM     35  C   UNL A   1      36.934  31.320  31.996  1.00  0.00     0.060 A 
ATOM     36  C   UNL A   1      37.683  30.368  32.698  1.00  0.00     0.016 A 
ATOM     37  C   UNL A   1      37.211  31.579  30.652  1.00  0.00     0.016 A 
ATOM     38  C   UNL A   1      38.703  29.657  32.053  1.00  0.00     0.010 A 
ATOM     39  C   UNL A   1      38.255  30.898  30.017  1.00  0.00     0.010 A 
ATOM     40  C   UNL A   1      39.018  29.947  30.718  1.00  0.00    -0.014 A 
BRANCH  40  41
ATOM     41  C   UNL A   1      40.266  29.433  30.100  1.00  0.00     0.031 A 
ATOM     42  C   UNL A   1      41.396  30.398  29.886  1.00  0.00     0.074 A 
ATOM     43  C   UNL A   1      40.376  28.166  29.670  1.00  0.00     0.049 A 
ATOM     44  N   UNL A   1      42.509  30.251  29.214  1.00  0.00    -0.248 NA
ATOM     45  C   UNL A   1      41.236  31.722  30.508  1.00  0.00     0.031 C 
ATOM     46  C   UNL A   1      39.373  27.122  29.853  1.00  0.00     0.029 A 
ATOM     47  N   UNL A   1      41.377  27.554  28.953  1.00  0.00    -0.354 N 
ATOM     48  C   UNL A   1      43.171  31.467  29.314  1.00  0.00     0.074 A 
ATOM     49  C   UNL A   1      42.329  32.345  30.098  1.00  0.00     0.031 C 
ATOM     50  C   UNL A   1      39.788  26.007  29.227  1.00  0.00     0.029 A 
ATOM     51  C   UNL A   1      41.065  26.275  28.563  1.00  0.00     0.049 A 
ATOM     52  H   UNL A   1      42.233  27.990  28.740  1.00  0.00     0.167 HD
ATOM     53  C   UNL A   1      44.369  31.823  28.792  1.00  0.00     0.037 A 
ATOM     54  C   UNL A   1      41.713  25.436  27.729  1.00  0.00     0.037 A 
ATOM     55  C   UNL A   1      45.192  30.951  27.997  1.00  0.00     0.049 A 
ATOM     56  C   UNL A   1      43.013  25.870  27.097  1.00  0.00     0.074 A 
ATOM     57  C   UNL A   1      46.434  31.204  27.443  1.00  0.00     0.029 A 
ATOM     58  N   UNL A   1      44.843  29.660  27.625  1.00  0.00    -0.354 N 
ATOM     59  N   UNL A   1      43.651  27.010  27.213  1.00  0.00    -0.248 NA
ATOM     60  C   UNL A   1      43.683  24.901  26.216  1.00  0.00     0.031 C 
ATOM     61  C   UNL A   1      46.805  30.092  26.680  1.00  0.00     0.029 A 
ATOM     62  C   UNL A   1      45.831  29.117  26.819  1.00  0.00     0.049 A 
ATOM     63  H   UNL A   1      44.017  29.198  27.895  1.00  0.00     0.167 HD
ATOM     64  C   UNL A   1      44.807  26.886  26.451  1.00  0.00     0.074 A 
ATOM     65  C   UNL A   1      44.784  25.558  25.875  1.00  0.00     0.031 C 
ATOM     66  C   UNL A   1      45.801  27.788  26.258  1.00  0.00     0.037 A 
BRANCH  53  67
ATOM     67  C   UNL A   1      44.822  33.236  29.019  1.00  0.00     0.064 A 
ATOM     68  C   UNL A   1      44.434  34.287  28.173  1.00  0.00     0.173 A 
ATOM     69  C   UNL A   1      45.676  33.539  30.089  1.00  0.00     0.173 A 
ATOM     70  F   UNL A   1      43.631  34.050  27.125  1.00  0.00    -0.203 F 
ATOM     71  C   UNL A   1      44.923  35.577  28.362  1.00  0.00     0.198 A 
ATOM     72  C   UNL A   1      46.134  34.838  30.298  1.00  0.00     0.198 A 
ATOM     73  F   UNL A   1      46.075  32.576  30.932  1.00  0.00    -0.203 F 
ATOM     74  F   UNL A   1      44.598  36.549  27.498  1.00  0.00    -0.200 F 
ATOM     75  C   UNL A   1      45.769  35.852  29.426  1.00  0.00     0.200 A 
ATOM     76  F   UNL A   1      46.940  35.104  31.335  1.00  0.00    -0.200 F 
ATOM     77  F   UNL A   1      46.243  37.092  29.604  1.00  0.00    -0.200 F 
ENDBRANCH  53  67
BRANCH  54  78
ATOM     78  C   UNL A   1      41.120  24.109  27.422  1.00  0.00     0.064 A 
ATOM     79  C   UNL A   1      40.005  23.987  26.581  1.00  0.00     0.173 A 
ATOM     80  C   UNL A   1      41.673  22.930  27.945  1.00  0.00     0.173 A 
ATOM     81  F   UNL A   1      39.422  25.086  26.081  1.00  0.00    -0.203 F 
ATOM     82  C   UNL A   1      39.465  22.738  26.277  1.00  0.00     0.198 A 
ATOM     83  C   UNL A   1      41.150  21.680  27.619  1.00  0.00     0.198 A 
ATOM     84  F   UNL A   1      42.737  22.991  28.759  1.00  0.00    -0.203 F 
ATOM     85  F   UNL A   1      38.381  22.652  25.495  1.00  0.00    -0.200 F 
ATOM     86  C   UNL A   1      40.045  21.586  26.787  1.00  0.00     0.200 A 
ATOM     87  F   UNL A   1      41.720  20.569  28.104  1.00  0.00    -0.200 F 
ATOM     88  F   UNL A   1      39.536  20.384  26.480  1.00  0.00    -0.200 F 
ENDBRANCH  54  78
BRANCH  66  89
ATOM     89  C   UNL A   1      46.981  27.367  25.427  1.00  0.00     0.064 A 
ATOM     90  C   UNL A   1      47.119  27.747  24.084  1.00  0.00     0.173 A 
ATOM     91  C   UNL A   1      48.029  26.638  26.013  1.00  0.00     0.173 A 
ATOM     92  F   UNL A   1      46.143  28.433  23.472  1.00  0.00    -0.203 F 
ATOM     93  C   UNL A   1      48.259  27.403  23.357  1.00  0.00     0.198 A 
ATOM     94  C   UNL A   1      49.177  26.324  25.294  1.00  0.00     0.198 A 
ATOM     95  F   UNL A   1      47.951  26.256  27.297  1.00  0.00    -0.203 F 
ATOM     96  F   UNL A   1      48.355  27.748  22.066  1.00  0.00    -0.200 F 
ATOM     97  C   UNL A   1      49.289  26.703  23.965  1.00  0.00     0.200 A 
ATOM     98  F   UNL A   1      50.180  25.662  25.888  1.00  0.00    -0.200 F 
ATOM     99  F   UNL A   1      50.392  26.390  23.269  1.00  0.00    -0.200 F 
ENDBRANCH  66  89
ENDBRANCH  40  41
ENDBRANCH  33  35
ENDBRANCH  32  33
ENDBRANCH  31  32
ENDBRANCH  30  31
ENDBRANCH  29  30
ENDBRANCH  28  29
ENDBRANCH  27  28
ENDBRANCH   1  27
TORSDOF 22
ENDMDL
MODEL 2
REMARK VINA RESULT:     -10.8      1.640      2.589
REMARK SMILES O=C(CCc1ccc(S(=O)(=O)Nc2cccc(I)c2)cc1)OCCOCCOCCOC(=O)c1ccc(-c2c3nc(c(-c4c(F)c(F)c(F)c(F)c4F)c4ccc([nH]4)c(-c4c(F)c(F)c(F)c(F)c4F)c4nc(c(-c5c(F)c(F)c(F)c(F)c5F)c5ccc2[nH]5)C=C4)C=C3)cc1
REMARK SMILES IDX 25 1 24 2 23 3 22 4 2 5 1 6 3 7 4 8 5 9 6 10 21 11 7 12
REMARK SMILES IDX 20 13 8 14 9 15 10 16 11 17 12 18 13 20 14 21 19 22 15 23
REMARK SMILES IDX 17 24 16 25 18 26 26 27 27 28 28 29 29 30 30 31 31 32 32 33
REMARK SMILES IDX 33 34 34 35 35 36 96 37 36 38 95 39 37 40 38 41 39 42 89 43
REMARK SMILES IDX 40 44 94 45 88 46 90 47 41 48 93 49 87 50 86 51 42 53 74 54
REMARK SMILES IDX 54 55 73 56 55 57 58 58 72 59 91 60 56 61 57 62 71 64 92 65
REMARK SMILES IDX 59 66 43 67 44 68 52 69 45 70 46 71 50 72 53 73 47 74 48 75
REMARK SMILES IDX 51 76 49 77 75 78 76 79 84 80 77 81 78 82 82 83 85 84 79 85
REMARK SMILES IDX 80 86 83 87 81 88 60 89 61 90 69 91 62 92 63 93 67 94 70 95
REMARK SMILES IDX 64 96 65 97 68 98 66 99
REMARK H PARENT 12 19 90 52 58 63
REMARK Flexibility Score: inf
ROOT
ATOM      1  O   UNL A   1      33.002  37.143  30.088  1.00  0.00    -0.376 OA
ENDROOT
BRANCH   1   2
ATOM      2  C   UNL A   1      32.882  36.152  29.072  1.00  0.00     0.202 C 
BRANCH   2   3
ATOM      3  C   UNL A   1      34.146  35.418  28.628  1.00  0.00     0.261 C 
BRANCH   3   4
ATOM      4  O   UNL A   1      34.046  34.153  27.929  1.00  0.00    -0.463 OA
BRANCH   4   5
ATOM      5  C   UNL A   1      34.759  33.018  27.976  1.00  0.00     0.306 C 
ATOM      6  O   UNL A   1      35.925  33.027  27.576  1.00  0.00    -0.252 OA
BRANCH   5   7
ATOM      7  C   UNL A   1      34.152  31.730  28.458  1.00  0.00     0.127 C 
BRANCH   7   8
ATOM      8  C   UNL A   1      34.771  30.482  27.834  1.00  0.00     0.047 C 
BRANCH   8   9
ATOM      9  C   UNL A   1      33.921  29.912  26.728  1.00  0.00    -0.047 A 
ATOM     10  C   UNL A   1      32.531  30.081  26.710  1.00  0.00     0.005 A 
ATOM     11  C   UNL A   1      34.511  29.085  25.774  1.00  0.00     0.005 A 
ATOM     12  C   UNL A   1      31.735  29.247  25.916  1.00  0.00     0.022 A 
ATOM     13  C   UNL A   1      33.718  28.321  24.921  1.00  0.00     0.022 A 
ATOM     14  C   UNL A   1      32.337  28.295  25.085  1.00  0.00     0.087 A 
BRANCH  14  15
ATOM     15  S   UNL A   1      31.316  26.911  24.585  1.00  0.00     0.261 S 
ATOM     16  O   UNL A   1      32.227  25.802  24.386  1.00  0.00    -0.201 OA
ATOM     17  O   UNL A   1      30.244  26.824  25.556  1.00  0.00    -0.201 OA
BRANCH  15  18
ATOM     18  N   UNL A   1      30.553  27.233  23.124  1.00  0.00    -0.280 N 
ATOM     19  H   UNL A   1      30.879  26.767  22.321  1.00  0.00     0.180 HD
BRANCH  18  20
ATOM     20  C   UNL A   1      29.467  28.136  22.974  1.00  0.00     0.050 A 
ATOM     21  C   UNL A   1      28.193  27.621  23.248  1.00  0.00     0.027 A 
ATOM     22  C   UNL A   1      29.632  29.502  22.734  1.00  0.00     0.041 A 
ATOM     23  C   UNL A   1      27.107  28.481  23.414  1.00  0.00     0.003 A 
ATOM     24  C   UNL A   1      28.536  30.356  22.897  1.00  0.00     0.015 A 
ATOM     25  C   UNL A   1      27.284  29.854  23.262  1.00  0.00     0.015 A 
ATOM     26  I   UNL A   1      28.781  32.410  22.683  1.00  0.00    -0.044 I 
ENDBRANCH  18  20
ENDBRANCH  15  18
ENDBRANCH  14  15
ENDBRANCH   8   9
ENDBRANCH   7   8
ENDBRANCH   5   7
ENDBRANCH   4   5
ENDBRANCH   3   4
ENDBRANCH   2   3
ENDBRANCH   1   2
BRANCH   1  27
ATOM     27  C   UNL A   1      32.814  36.730  31.431  1.00  0.00     0.188 C 
BRANCH  27  28
ATOM     28  C   UNL A   1      33.985  36.938  32.388  1.00  0.00     0.188 C 
BRANCH  28  29
ATOM     29  O   UNL A   1      34.452  35.727  32.964  1.00  0.00    -0.376 OA
BRANCH  29  30
ATOM     30  C   UNL A   1      33.758  34.568  32.509  1.00  0.00     0.202 C 
BRANCH  30  31
ATOM     31  C   UNL A   1      34.514  33.653  31.527  1.00  0.00     0.261 C 
BRANCH  31  32
ATOM     32  O   UNL A   1      34.823  32.317  31.961  1.00  0.00    -0.460 OA
BRANCH  32  33
ATOM     33  C   UNL A   1      35.843  32.145  32.829  1.00  0.00     0.338 C 
ATOM     34  O   UNL A   1      35.892  32.498  33.988  1.00  0.00    -0.246 OA
BRANCH  33  35
ATOM     35  C   UNL A   1      36.904  31.377  32.136  1.00  0.00     0.060 A 
ATOM     36  C   UNL A   1      37.637  30.408  32.830  1.00  0.00     0.016 A 
ATOM     37  C   UNL A   1      37.203  31.661  30.801  1.00  0.00     0.016 A 
ATOM     38  C   UNL A   1      38.663  29.704  32.187  1.00  0.00     0.010 A 
ATOM     39  C   UNL A   1      38.253  30.987  30.170  1.00  0.00     0.010 A 
ATOM     40  C   UNL A   1      39.001  30.018  30.864  1.00  0.00    -0.014 A 
BRANCH  40  41
ATOM     41  C   UNL A   1      40.255  29.510  30.255  1.00  0.00     0.031 A 
ATOM     42  C   UNL A   1      41.392  30.475  30.070  1.00  0.00     0.074 A 
ATOM     43  C   UNL A   1      40.369  28.249  29.808  1.00  0.00     0.049 A 
ATOM     44  N   UNL A   1      42.513  30.335  29.411  1.00  0.00    -0.248 NA
ATOM     45  C   UNL A   1      41.226  31.791  30.709  1.00  0.00     0.031 C 
ATOM     46  C   UNL A   1      39.361  27.205  29.963  1.00  0.00     0.029 A 
ATOM     47  N   UNL A   1      41.378  27.644  29.096  1.00  0.00    -0.354 N 
ATOM     48  C   UNL A   1      43.176  31.548  29.538  1.00  0.00     0.074 A 
ATOM     49  C   UNL A   1      42.326  32.416  30.322  1.00  0.00     0.031 C 
ATOM     50  C   UNL A   1      39.781  26.098  29.326  1.00  0.00     0.029 A 
ATOM     51  C   UNL A   1      41.068  26.373  28.683  1.00  0.00     0.049 A 
ATOM     52  H   UNL A   1      42.238  28.081  28.901  1.00  0.00     0.167 HD
ATOM     53  C   UNL A   1      44.382  31.907  29.037  1.00  0.00     0.037 A 
ATOM     54  C   UNL A   1      41.725  25.544  27.846  1.00  0.00     0.037 A 
ATOM     55  C   UNL A   1      45.214  31.044  28.241  1.00  0.00     0.049 A 
ATOM     56  C   UNL A   1      43.034  25.983  27.238  1.00  0.00     0.074 A 
ATOM     57  C   UNL A   1      46.464  31.302  27.707  1.00  0.00     0.029 A 
ATOM     58  N   UNL A   1      44.867  29.760  27.845  1.00  0.00    -0.354 N 
ATOM     59  N   UNL A   1      43.673  27.120  27.379  1.00  0.00    -0.248 NA
ATOM     60  C   UNL A   1      43.714  25.025  26.352  1.00  0.00     0.031 C 
ATOM     61  C   UNL A   1      46.842  30.201  26.933  1.00  0.00     0.029 A 
ATOM     62  C   UNL A   1      45.864  29.226  27.045  1.00  0.00     0.049 A 
ATOM     63  H   UNL A   1      44.035  29.297  28.097  1.00  0.00     0.167 HD
ATOM     64  C   UNL A   1      44.839  27.003  26.631  1.00  0.00     0.074 A 
ATOM     65  C   UNL A   1      44.821  25.684  26.035  1.00  0.00     0.031 C 
ATOM     66  C   UNL A   1      45.838  27.906  26.464  1.00  0.00     0.037 A 
BRANCH  53  67
ATOM     67  C   UNL A   1      44.835  33.316  29.290  1.00  0.00     0.064 A 
ATOM     68  C   UNL A   1      45.599  33.663  30.415  1.00  0.00     0.173 A 
ATOM     69  C   UNL A   1      44.479  34.341  28.399  1.00  0.00     0.173 A 
ATOM     70  F   UNL A   1      45.954  32.724  31.306  1.00  0.00    -0.203 F 
ATOM     71  C   UNL A   1      45.949  34.988  30.664  1.00  0.00     0.198 A 
ATOM     72  C   UNL A   1      44.862  35.660  28.632  1.00  0.00     0.198 A 
ATOM     73  F   UNL A   1      43.754  34.067  27.306  1.00  0.00    -0.203 F 
ATOM     74  F   UNL A   1      46.615  35.305  31.782  1.00  0.00    -0.200 F 
ATOM     75  C   UNL A   1      45.583  35.984  29.770  1.00  0.00     0.200 A 
ATOM     76  F   UNL A   1      44.519  36.618  27.760  1.00  0.00    -0.200 F 
ATOM     77  F   UNL A   1      45.914  37.259  30.014  1.00  0.00    -0.200 F 
ENDBRANCH  53  67
BRANCH  54  78
ATOM     78  C   UNL A   1      41.132  24.223  27.512  1.00  0.00     0.064 A 
ATOM     79  C   UNL A   1      40.017  24.118  26.670  1.00  0.00     0.173 A 
ATOM     80  C   UNL A   1      41.687  23.033  28.011  1.00  0.00     0.173 A 
ATOM     81  F   UNL A   1      39.433  25.226  26.192  1.00  0.00    -0.203 F 
ATOM     82  C   UNL A   1      39.478  22.875  26.340  1.00  0.00     0.198 A 
ATOM     83  C   UNL A   1      41.164  21.791  27.659  1.00  0.00     0.198 A 
ATOM     84  F   UNL A   1      42.751  23.079  28.825  1.00  0.00    -0.203 F 
ATOM     85  F   UNL A   1      38.393  22.804  25.557  1.00  0.00    -0.200 F 
ATOM     86  C   UNL A   1      40.059  21.712  26.826  1.00  0.00     0.200 A 
ATOM     87  F   UNL A   1      41.736  20.671  28.120  1.00  0.00    -0.200 F 
ATOM     88  F   UNL A   1      39.551  20.517  26.494  1.00  0.00    -0.200 F 
ENDBRANCH  54  78
BRANCH  66  89
ATOM     89  C   UNL A   1      47.028  27.493  25.643  1.00  0.00     0.064 A 
ATOM     90  C   UNL A   1      48.075  26.732  26.181  1.00  0.00     0.173 A 
ATOM     91  C   UNL A   1      47.078  27.800  24.273  1.00  0.00     0.173 A 
ATOM     92  F   UNL A   1      48.084  26.422  27.486  1.00  0.00    -0.203 F 
ATOM     93  C   UNL A   1      49.132  26.302  25.380  1.00  0.00     0.198 A 
ATOM     94  C   UNL A   1      48.118  27.344  23.471  1.00  0.00     0.198 A 
ATOM     95  F   UNL A   1      46.098  28.521  23.706  1.00  0.00    -0.203 F 
ATOM     96  F   UNL A   1      50.139  25.603  25.922  1.00  0.00    -0.200 F 
ATOM     97  C   UNL A   1      49.147  26.599  24.026  1.00  0.00     0.200 A 
ATOM     98  F   UNL A   1      48.121  27.616  22.158  1.00  0.00    -0.200 F 
ATOM     99  F   UNL A   1      50.155  26.167  23.253  1.00  0.00    -0.200 F 
ENDBRANCH  66  89
ENDBRANCH  40  41
ENDBRANCH  33  35
ENDBRANCH  32  33
ENDBRANCH  31  32
ENDBRANCH  30  31
ENDBRANCH  29  30
ENDBRANCH  28  29
ENDBRANCH  27  28
ENDBRANCH   1  27
TORSDOF 22
ENDMDL
MODEL 3
REMARK VINA RESULT:     -10.1      1.503      2.072
REMARK SMILES O=C(CCc1ccc(S(=O)(=O)Nc2cccc(I)c2)cc1)OCCOCCOCCOC(=O)c1ccc(-c2c3nc(c(-c4c(F)c(F)c(F)c(F)c4F)c4ccc([nH]4)c(-c4c(F)c(F)c(F)c(F)c4F)c4nc(c(-c5c(F)c(F)c(F)c(F)c5F)c5ccc2[nH]5)C=C4)C=C3)cc1
REMARK SMILES IDX 25 1 24 2 23 3 22 4 2 5 1 6 3 7 4 8 5 9 6 10 21 11 7 12
REMARK SMILES IDX 20 13 8 14 9 15 10 16 11 17 12 18 13 20 14 21 19 22 15 23
REMARK SMILES IDX 17 24 16 25 18 26 26 27 27 28 28 29 29 30 30 31 31 32 32 33
REMARK SMILES IDX 33 34 34 35 35 36 96 37 36 38 95 39 37 40 38 41 39 42 89 43
REMARK SMILES IDX 40 44 94 45 88 46 90 47 41 48 93 49 87 50 86 51 42 53 74 54
REMARK SMILES IDX 54 55 73 56 55 57 58 58 72 59 91 60 56 61 57 62 71 64 92 65
REMARK SMILES IDX 59 66 43 67 44 68 52 69 45 70 46 71 50 72 53 73 47 74 48 75
REMARK SMILES IDX 51 76 49 77 75 78 76 79 84 80 77 81 78 82 82 83 85 84 79 85
REMARK SMILES IDX 80 86 83 87 81 88 60 89 61 90 69 91 62 92 63 93 67 94 70 95
REMARK SMILES IDX 64 96 65 97 68 98 66 99
REMARK H PARENT 12 19 90 52 58 63
REMARK Flexibility Score: inf
ROOT
ATOM      1  O   UNL A   1      32.944  36.358  29.822  1.00  0.00    -0.376 OA
ENDROOT
BRANCH   1   2
ATOM      2  C   UNL A   1      32.965  35.047  29.266  1.00  0.00     0.202 C 
BRANCH   2   3
ATOM      3  C   UNL A   1      34.087  34.694  28.291  1.00  0.00     0.261 C 
BRANCH   3   4
ATOM      4  O   UNL A   1      34.165  33.365  27.720  1.00  0.00    -0.463 OA
BRANCH   4   5
ATOM      5  C   UNL A   1      34.874  32.270  28.032  1.00  0.00     0.306 C 
ATOM      6  O   UNL A   1      36.091  32.373  28.198  1.00  0.00    -0.252 OA
BRANCH   5   7
ATOM      7  C   UNL A   1      34.224  30.918  28.136  1.00  0.00     0.127 C 
BRANCH   7   8
ATOM      8  C   UNL A   1      34.670  29.933  27.060  1.00  0.00     0.047 C 
BRANCH   8   9
ATOM      9  C   UNL A   1      33.531  29.093  26.542  1.00  0.00    -0.047 A 
ATOM     10  C   UNL A   1      32.364  28.899  27.292  1.00  0.00     0.005 A 
ATOM     11  C   UNL A   1      33.693  28.383  25.354  1.00  0.00     0.005 A 
ATOM     12  C   UNL A   1      31.503  27.839  26.985  1.00  0.00     0.022 A 
ATOM     13  C   UNL A   1      32.785  27.388  25.002  1.00  0.00     0.022 A 
ATOM     14  C   UNL A   1      31.772  27.020  25.882  1.00  0.00     0.087 A 
BRANCH  14  15
ATOM     15  S   UNL A   1      31.028  25.391  25.896  1.00  0.00     0.261 S 
ATOM     16  O   UNL A   1      29.717  25.562  26.487  1.00  0.00    -0.201 OA
ATOM     17  O   UNL A   1      31.173  24.867  24.553  1.00  0.00    -0.201 OA
BRANCH  15  18
ATOM     18  N   UNL A   1      31.911  24.344  26.867  1.00  0.00    -0.280 N 
ATOM     19  H   UNL A   1      31.789  24.405  27.842  1.00  0.00     0.180 HD
BRANCH  18  20
ATOM     20  C   UNL A   1      32.823  23.374  26.371  1.00  0.00     0.050 A 
ATOM     21  C   UNL A   1      32.441  22.034  26.516  1.00  0.00     0.027 A 
ATOM     22  C   UNL A   1      33.960  23.699  25.629  1.00  0.00     0.041 A 
ATOM     23  C   UNL A   1      33.110  21.031  25.816  1.00  0.00     0.003 A 
ATOM     24  C   UNL A   1      34.629  22.686  24.933  1.00  0.00     0.015 A 
ATOM     25  C   UNL A   1      34.192  21.361  25.003  1.00  0.00     0.015 A 
ATOM     26  I   UNL A   1      36.242  23.159  23.708  1.00  0.00    -0.044 I 
ENDBRANCH  18  20
ENDBRANCH  15  18
ENDBRANCH  14  15
ENDBRANCH   8   9
ENDBRANCH   7   8
ENDBRANCH   5   7
ENDBRANCH   4   5
ENDBRANCH   3   4
ENDBRANCH   2   3
ENDBRANCH   1   2
BRANCH   1  27
ATOM     27  C   UNL A   1      32.780  36.471  31.225  1.00  0.00     0.188 C 
BRANCH  27  28
ATOM     28  C   UNL A   1      33.956  37.042  32.014  1.00  0.00     0.188 C 
BRANCH  28  29
ATOM     29  O   UNL A   1      34.600  36.072  32.828  1.00  0.00    -0.376 OA
BRANCH  29  30
ATOM     30  C   UNL A   1      34.108  34.747  32.643  1.00  0.00     0.202 C 
BRANCH  30  31
ATOM     31  C   UNL A   1      34.952  33.817  31.752  1.00  0.00     0.261 C 
BRANCH  31  32
ATOM     32  O   UNL A   1      35.647  32.731  32.389  1.00  0.00    -0.460 OA
BRANCH  32  33
ATOM     33  C   UNL A   1      36.851  32.981  32.949  1.00  0.00     0.338 C 
ATOM     34  O   UNL A   1      37.090  33.712  33.886  1.00  0.00    -0.246 OA
BRANCH  33  35
ATOM     35  C   UNL A   1      37.857  32.146  32.251  1.00  0.00     0.060 A 
ATOM     36  C   UNL A   1      38.738  31.346  32.989  1.00  0.00     0.016 A 
ATOM     37  C   UNL A   1      37.955  32.199  30.859  1.00  0.00     0.016 A 
ATOM     38  C   UNL A   1      39.712  30.581  32.335  1.00  0.00     0.010 A 
ATOM     39  C   UNL A   1      38.953  31.467  30.208  1.00  0.00     0.010 A 
ATOM     40  C   UNL A   1      39.849  30.669  30.942  1.00  0.00    -0.014 A 
BRANCH  40  41
ATOM     41  C   UNL A   1      41.040  30.112  30.256  1.00  0.00     0.031 A 
ATOM     42  C   UNL A   1      42.176  31.044  29.946  1.00  0.00     0.074 A 
ATOM     43  C   UNL A   1      41.093  28.833  29.848  1.00  0.00     0.049 A 
ATOM     44  N   UNL A   1      43.239  30.856  29.207  1.00  0.00    -0.248 NA
ATOM     45  C   UNL A   1      42.088  32.385  30.547  1.00  0.00     0.031 C 
ATOM     46  C   UNL A   1      40.081  27.818  30.121  1.00  0.00     0.029 A 
ATOM     47  N   UNL A   1      42.031  28.182  29.082  1.00  0.00    -0.354 N 
ATOM     48  C   UNL A   1      43.934  32.057  29.235  1.00  0.00     0.074 A 
ATOM     49  C   UNL A   1      43.165  32.972  30.052  1.00  0.00     0.031 C 
ATOM     50  C   UNL A   1      40.428  26.681  29.494  1.00  0.00     0.029 A 
ATOM     51  C   UNL A   1      41.665  26.904  28.742  1.00  0.00     0.049 A 
ATOM     52  H   UNL A   1      42.881  28.592  28.803  1.00  0.00     0.167 HD
ATOM     53  C   UNL A   1      45.102  32.372  28.628  1.00  0.00     0.037 A 
ATOM     54  C   UNL A   1      42.237  26.031  27.886  1.00  0.00     0.037 A 
ATOM     55  C   UNL A   1      45.851  31.464  27.801  1.00  0.00     0.049 A 
ATOM     56  C   UNL A   1      43.502  26.420  27.161  1.00  0.00     0.074 A 
ATOM     57  C   UNL A   1      47.059  31.675  27.161  1.00  0.00     0.029 A 
ATOM     58  N   UNL A   1      45.449  30.174  27.482  1.00  0.00    -0.354 N 
ATOM     59  N   UNL A   1      44.171  27.546  27.210  1.00  0.00    -0.248 NA
ATOM     60  C   UNL A   1      44.089  25.417  26.261  1.00  0.00     0.031 C 
ATOM     61  C   UNL A   1      47.354  30.539  26.401  1.00  0.00     0.029 A 
ATOM     62  C   UNL A   1      46.369  29.590  26.626  1.00  0.00     0.049 A 
ATOM     63  H   UNL A   1      44.632  29.739  27.816  1.00  0.00     0.167 HD
ATOM     64  C   UNL A   1      45.272  27.377  26.376  1.00  0.00     0.074 A 
ATOM     65  C   UNL A   1      45.181  26.039  25.833  1.00  0.00     0.031 C 
ATOM     66  C   UNL A   1      46.271  28.251  26.098  1.00  0.00     0.037 A 
BRANCH  53  67
ATOM     67  C   UNL A   1      45.601  33.779  28.792  1.00  0.00     0.064 A 
ATOM     68  C   UNL A   1      45.245  34.804  27.902  1.00  0.00     0.173 A 
ATOM     69  C   UNL A   1      46.469  34.100  29.847  1.00  0.00     0.173 A 
ATOM     70  F   UNL A   1      44.431  34.548  26.867  1.00  0.00    -0.203 F 
ATOM     71  C   UNL A   1      45.776  36.085  28.035  1.00  0.00     0.198 A 
ATOM     72  C   UNL A   1      46.969  35.391  29.998  1.00  0.00     0.198 A 
ATOM     73  F   UNL A   1      46.839  33.161  30.730  1.00  0.00    -0.203 F 
ATOM     74  F   UNL A   1      45.480  37.028  27.130  1.00  0.00    -0.200 F 
ATOM     75  C   UNL A   1      46.634  36.378  29.085  1.00  0.00     0.200 A 
ATOM     76  F   UNL A   1      47.786  35.675  31.022  1.00  0.00    -0.200 F 
ATOM     77  F   UNL A   1      47.149  37.609  29.207  1.00  0.00    -0.200 F 
ENDBRANCH  53  67
BRANCH  54  78
ATOM     78  C   UNL A   1      41.594  24.712  27.649  1.00  0.00     0.064 A 
ATOM     79  C   UNL A   1      42.129  23.535  28.189  1.00  0.00     0.173 A 
ATOM     80  C   UNL A   1      40.414  24.607  26.895  1.00  0.00     0.173 A 
ATOM     81  F   UNL A   1      43.270  23.579  28.891  1.00  0.00    -0.203 F 
ATOM     82  C   UNL A   1      41.510  22.303  27.984  1.00  0.00     0.198 A 
ATOM     83  C   UNL A   1      39.782  23.379  26.714  1.00  0.00     0.198 A 
ATOM     84  F   UNL A   1      39.864  25.703  26.352  1.00  0.00    -0.203 F 
ATOM     85  F   UNL A   1      42.058  21.188  28.486  1.00  0.00    -0.200 F 
ATOM     86  C   UNL A   1      40.331  22.228  27.256  1.00  0.00     0.200 A 
ATOM     87  F   UNL A   1      38.637  23.313  26.020  1.00  0.00    -0.200 F 
ATOM     88  F   UNL A   1      39.728  21.045  27.074  1.00  0.00    -0.200 F 
ENDBRANCH  54  78
BRANCH  66  89
ATOM     89  C   UNL A   1      47.384  27.784  25.201  1.00  0.00     0.064 A 
ATOM     90  C   UNL A   1      47.286  27.837  23.804  1.00  0.00     0.173 A 
ATOM     91  C   UNL A   1      48.599  27.352  25.758  1.00  0.00     0.173 A 
ATOM     92  F   UNL A   1      46.144  28.230  23.221  1.00  0.00    -0.203 F 
ATOM     93  C   UNL A   1      48.360  27.465  22.997  1.00  0.00     0.198 A 
ATOM     94  C   UNL A   1      49.679  27.011  24.949  1.00  0.00     0.198 A 
ATOM     95  F   UNL A   1      48.749  27.289  27.090  1.00  0.00    -0.203 F 
ATOM     96  F   UNL A   1      48.233  27.492  21.663  1.00  0.00    -0.200 F 
ATOM     97  C   UNL A   1      49.557  27.063  23.570  1.00  0.00     0.200 A 
ATOM     98  F   UNL A   1      50.841  26.640  25.505  1.00  0.00    -0.200 F 
ATOM     99  F   UNL A   1      50.595  26.724  22.791  1.00  0.00    -0.200 F 
ENDBRANCH  66  89
ENDBRANCH  40  41
ENDBRANCH  33  35
ENDBRANCH  32  33
ENDBRANCH  31  32
ENDBRANCH  30  31
ENDBRANCH  29  30
ENDBRANCH  28  29
ENDBRANCH  27  28
ENDBRANCH   1  27
TORSDOF 22
ENDMDL
