MODEL 1
REMARK VINA RESULT:      -7.3      0.000      0.000
REMARK SMILES CC/C=C/C/C=C/C/C=C/C/C=C/CC/C=C/COCC(=O)OCCOCCOCCOC(=O)c1ccc(-c2c3nc(c(-c4c(F)c(F)c(F)c(F)c4F)c4ccc([nH]4)c(-c4c(F)c(F)c(F)c(F)c4F)c4nc(c(-c5c(F)c(F)c(F)c(F)c5F)c5ccc2[nH]5)C=C4)C=C3)cc1
REMARK SMILES IDX 21 1 22 2 20 3 19 4 18 5 17 6 16 7 15 8 14 9 13 10 12 11
REMARK SMILES IDX 11 12 10 13 9 14 8 15 7 16 6 17 5 18 4 19 3 20 2 21 1 22
REMARK SMILES IDX 23 23 24 24 25 25 26 26 27 27 28 28 29 29 30 30 31 31 32 32
REMARK SMILES IDX 33 33 34 34 35 35 36 36 97 37 37 38 96 39 38 40 39 41 40 42
REMARK SMILES IDX 90 43 41 44 95 45 89 46 91 47 42 48 94 49 88 50 87 51 43 53
REMARK SMILES IDX 75 54 55 55 74 56 56 57 59 58 73 59 92 60 57 61 58 62 72 64
REMARK SMILES IDX 93 65 60 66 44 67 45 68 53 69 46 70 47 71 51 72 54 73 48 74
REMARK SMILES IDX 49 75 52 76 50 77 76 78 77 79 85 80 78 81 79 82 83 83 86 84
REMARK SMILES IDX 80 85 81 86 84 87 82 88 61 89 62 90 70 91 63 92 64 93 68 94
REMARK SMILES IDX 71 95 65 96 66 97 69 98 67 99
REMARK H PARENT 91 52 59 63
REMARK Flexibility Score: inf
ROOT
ATOM      1  C   UNL A   1      45.301  21.498  24.923  1.00  0.00     0.332 C 
ATOM      2  O   UNL A   1      44.896  21.676  23.778  1.00  0.00    -0.250 OA
ENDROOT
BRANCH   1   3
ATOM      3  C   UNL A   1      44.707  22.254  26.118  1.00  0.00     0.283 C 
BRANCH   3   4
ATOM      4  O   UNL A   1      43.344  22.613  26.242  1.00  0.00    -0.366 OA
BRANCH   4   5
ATOM      5  C   UNL A   1      43.036  23.599  27.224  1.00  0.00     0.188 C 
BRANCH   5   6
ATOM      6  C   UNL A   1      44.272  24.145  27.880  1.00  0.00    -0.003 C 
ATOM      7  C   UNL A   1      44.359  24.387  29.197  1.00  0.00    -0.029 C 
BRANCH   7   8
ATOM      8  C   UNL A   1      45.509  25.066  29.877  1.00  0.00     0.031 C 
BRANCH   8   9
ATOM      9  C   UNL A   1      45.620  24.785  31.401  1.00  0.00     0.031 C 
BRANCH   9  10
ATOM     10  C   UNL A   1      44.376  25.031  32.232  1.00  0.00    -0.031 C 
ATOM     11  C   UNL A   1      44.278  25.227  33.562  1.00  0.00    -0.027 C 
BRANCH  11  12
ATOM     12  C   UNL A   1      42.997  25.420  34.338  1.00  0.00     0.054 C 
BRANCH  12  13
ATOM     13  C   UNL A   1      42.877  26.804  34.941  1.00  0.00    -0.027 C 
ATOM     14  C   UNL A   1      42.618  27.930  34.245  1.00  0.00    -0.027 C 
BRANCH  14  15
ATOM     15  C   UNL A   1      42.339  29.284  34.852  1.00  0.00     0.054 C 
BRANCH  15  16
ATOM     16  C   UNL A   1      40.990  29.834  34.475  1.00  0.00    -0.027 C 
ATOM     17  C   UNL A   1      40.082  30.297  35.356  1.00  0.00    -0.027 C 
BRANCH  17  18
ATOM     18  C   UNL A   1      38.764  30.921  34.980  1.00  0.00     0.054 C 
BRANCH  18  19
ATOM     19  C   UNL A   1      38.379  32.021  35.929  1.00  0.00    -0.027 C 
ATOM     20  C   UNL A   1      39.036  33.187  36.055  1.00  0.00    -0.031 C 
BRANCH  20  21
ATOM     21  C   UNL A   1      38.611  34.292  36.983  1.00  0.00     0.023 C 
ATOM     22  C   UNL A   1      38.831  33.919  38.441  1.00  0.00     0.008 C 
ENDBRANCH  20  21
ENDBRANCH  18  19
ENDBRANCH  17  18
ENDBRANCH  15  16
ENDBRANCH  14  15
ENDBRANCH  12  13
ENDBRANCH  11  12
ENDBRANCH   9  10
ENDBRANCH   8   9
ENDBRANCH   7   8
ENDBRANCH   5   6
ENDBRANCH   4   5
ENDBRANCH   3   4
ENDBRANCH   1   3
BRANCH   1  23
ATOM     23  O   UNL A   1      46.362  20.708  25.257  1.00  0.00    -0.462 OA
BRANCH  23  24
ATOM     24  C   UNL A   1      46.109  19.287  25.232  1.00  0.00     0.261 C 
BRANCH  24  25
ATOM     25  C   UNL A   1      44.663  18.881  24.923  1.00  0.00     0.202 C 
BRANCH  25  26
ATOM     26  O   UNL A   1      44.018  18.076  25.903  1.00  0.00    -0.376 OA
BRANCH  26  27
ATOM     27  C   UNL A   1      42.682  18.436  26.207  1.00  0.00     0.188 C 
BRANCH  27  28
ATOM     28  C   UNL A   1      42.428  18.980  27.603  1.00  0.00     0.188 C 
BRANCH  28  29
ATOM     29  O   UNL A   1      41.486  20.036  27.629  1.00  0.00    -0.376 OA
BRANCH  29  30
ATOM     30  C   UNL A   1      40.996  20.492  26.364  1.00  0.00     0.202 C 
BRANCH  30  31
ATOM     31  C   UNL A   1      39.707  21.341  26.327  1.00  0.00     0.261 C 
BRANCH  31  32
ATOM     32  O   UNL A   1      39.785  22.602  27.034  1.00  0.00    -0.460 OA
BRANCH  32  33
ATOM     33  C   UNL A   1      39.052  23.632  26.549  1.00  0.00     0.338 C 
ATOM     34  O   UNL A   1      38.178  23.549  25.701  1.00  0.00    -0.246 OA
BRANCH  33  35
ATOM     35  C   UNL A   1      39.343  24.878  27.322  1.00  0.00     0.060 A 
ATOM     36  C   UNL A   1      40.059  25.896  26.679  1.00  0.00     0.016 A 
ATOM     37  C   UNL A   1      38.913  25.081  28.642  1.00  0.00     0.016 A 
ATOM     38  C   UNL A   1      40.375  27.082  27.356  1.00  0.00     0.010 A 
ATOM     39  C   UNL A   1      39.242  26.268  29.324  1.00  0.00     0.010 A 
ATOM     40  C   UNL A   1      39.995  27.273  28.694  1.00  0.00    -0.014 A 
BRANCH  40  41
ATOM     41  C   UNL A   1      40.500  28.470  29.433  1.00  0.00     0.031 A 
ATOM     42  C   UNL A   1      39.554  29.562  29.802  1.00  0.00     0.074 A 
ATOM     43  C   UNL A   1      41.776  28.592  29.843  1.00  0.00     0.049 A 
ATOM     44  N   UNL A   1      39.763  30.608  30.558  1.00  0.00    -0.248 NA
ATOM     45  C   UNL A   1      38.209  29.479  29.223  1.00  0.00     0.031 C 
ATOM     46  C   UNL A   1      42.814  27.649  29.506  1.00  0.00     0.029 A 
ATOM     47  N   UNL A   1      42.416  29.514  30.641  1.00  0.00    -0.354 N 
ATOM     48  C   UNL A   1      38.576  31.313  30.553  1.00  0.00     0.074 A 
ATOM     49  C   UNL A   1      37.657  30.585  29.699  1.00  0.00     0.031 C 
ATOM     50  C   UNL A   1      43.936  27.966  30.167  1.00  0.00     0.029 A 
ATOM     51  C   UNL A   1      43.728  29.195  30.908  1.00  0.00     0.049 A 
ATOM     52  H   UNL A   1      41.977  30.325  30.986  1.00  0.00     0.167 HD
ATOM     53  C   UNL A   1      38.284  32.468  31.193  1.00  0.00     0.037 A 
ATOM     54  C   UNL A   1      44.676  29.800  31.650  1.00  0.00     0.037 A 
ATOM     55  C   UNL A   1      39.205  33.229  31.998  1.00  0.00     0.049 A 
ATOM     56  C   UNL A   1      44.330  31.082  32.343  1.00  0.00     0.074 A 
ATOM     57  C   UNL A   1      38.979  34.417  32.671  1.00  0.00     0.029 A 
ATOM     58  N   UNL A   1      40.535  32.896  32.219  1.00  0.00    -0.354 N 
ATOM     59  N   UNL A   1      43.183  31.709  32.376  1.00  0.00    -0.248 NA
ATOM     60  C   UNL A   1      45.408  31.750  33.086  1.00  0.00     0.031 C 
ATOM     61  C   UNL A   1      40.181  34.827  33.260  1.00  0.00     0.029 A 
ATOM     62  C   UNL A   1      41.146  33.868  33.001  1.00  0.00     0.049 A 
ATOM     63  H   UNL A   1      40.979  32.088  31.874  1.00  0.00     0.167 HD
ATOM     64  C   UNL A   1      43.393  32.842  33.143  1.00  0.00     0.074 A 
ATOM     65  C   UNL A   1      44.772  32.798  33.589  1.00  0.00     0.031 C 
ATOM     66  C   UNL A   1      42.519  33.835  33.436  1.00  0.00     0.037 A 
BRANCH  53  67
ATOM     67  C   UNL A   1      36.900  32.997  30.987  1.00  0.00     0.064 A 
ATOM     68  C   UNL A   1      36.537  33.659  29.804  1.00  0.00     0.173 A 
ATOM     69  C   UNL A   1      35.941  32.879  32.002  1.00  0.00     0.173 A 
ATOM     70  F   UNL A   1      37.434  33.821  28.819  1.00  0.00    -0.203 F 
ATOM     71  C   UNL A   1      35.270  34.214  29.659  1.00  0.00     0.198 A 
ATOM     72  C   UNL A   1      34.666  33.412  31.841  1.00  0.00     0.198 A 
ATOM     73  F   UNL A   1      36.246  32.263  33.153  1.00  0.00    -0.203 F 
ATOM     74  F   UNL A   1      34.964  34.899  28.548  1.00  0.00    -0.200 F 
ATOM     75  C   UNL A   1      34.336  34.087  30.676  1.00  0.00     0.200 A 
ATOM     76  F   UNL A   1      33.763  33.288  32.823  1.00  0.00    -0.200 F 
ATOM     77  F   UNL A   1      33.119  34.633  30.539  1.00  0.00    -0.200 F 
ENDBRANCH  53  67
BRANCH  54  78
ATOM     78  C   UNL A   1      46.047  29.220  31.771  1.00  0.00     0.064 A 
ATOM     79  C   UNL A   1      46.406  28.433  32.876  1.00  0.00     0.173 A 
ATOM     80  C   UNL A   1      47.034  29.466  30.806  1.00  0.00     0.173 A 
ATOM     81  F   UNL A   1      45.509  28.188  33.844  1.00  0.00    -0.203 F 
ATOM     82  C   UNL A   1      47.702  27.938  33.022  1.00  0.00     0.198 A 
ATOM     83  C   UNL A   1      48.320  28.942  30.935  1.00  0.00     0.198 A 
ATOM     84  F   UNL A   1      46.749  30.212  29.729  1.00  0.00    -0.203 F 
ATOM     85  F   UNL A   1      48.030  27.237  34.116  1.00  0.00    -0.200 F 
ATOM     86  C   UNL A   1      48.656  28.187  32.047  1.00  0.00     0.200 A 
ATOM     87  F   UNL A   1      49.235  29.177  29.984  1.00  0.00    -0.200 F 
ATOM     88  F   UNL A   1      49.901  27.712  32.188  1.00  0.00    -0.200 F 
ENDBRANCH  54  78
BRANCH  66  89
ATOM     89  C   UNL A   1      43.030  34.949  34.300  1.00  0.00     0.064 A 
ATOM     90  C   UNL A   1      42.888  34.925  35.696  1.00  0.00     0.173 A 
ATOM     91  C   UNL A   1      43.660  36.061  33.722  1.00  0.00     0.173 A 
ATOM     92  F   UNL A   1      42.270  33.897  36.295  1.00  0.00    -0.203 F 
ATOM     93  C   UNL A   1      43.329  35.990  36.478  1.00  0.00     0.198 A 
ATOM     94  C   UNL A   1      44.128  37.110  34.510  1.00  0.00     0.198 A 
ATOM     95  F   UNL A   1      43.819  36.134  32.392  1.00  0.00    -0.203 F 
ATOM     96  F   UNL A   1      43.128  35.974  37.803  1.00  0.00    -0.200 F 
ATOM     97  C   UNL A   1      43.953  37.078  35.885  1.00  0.00     0.200 A 
ATOM     98  F   UNL A   1      44.737  38.155  33.937  1.00  0.00    -0.200 F 
ATOM     99  F   UNL A   1      44.374  38.103  36.639  1.00  0.00    -0.200 F 
ENDBRANCH  66  89
ENDBRANCH  40  41
ENDBRANCH  33  35
ENDBRANCH  32  33
ENDBRANCH  31  32
ENDBRANCH  30  31
ENDBRANCH  29  30
ENDBRANCH  28  29
ENDBRANCH  27  28
ENDBRANCH  26  27
ENDBRANCH  25  26
ENDBRANCH  24  25
ENDBRANCH  23  24
ENDBRANCH   1  23
TORSDOF 30
ENDMDL
MODEL 2
REMARK VINA RESULT:      -6.7      4.639     10.944
REMARK SMILES CC/C=C/C/C=C/C/C=C/C/C=C/CC/C=C/COCC(=O)OCCOCCOCCOC(=O)c1ccc(-c2c3nc(c(-c4c(F)c(F)c(F)c(F)c4F)c4ccc([nH]4)c(-c4c(F)c(F)c(F)c(F)c4F)c4nc(c(-c5c(F)c(F)c(F)c(F)c5F)c5ccc2[nH]5)C=C4)C=C3)cc1
REMARK SMILES IDX 21 1 22 2 20 3 19 4 18 5 17 6 16 7 15 8 14 9 13 10 12 11
REMARK SMILES IDX 11 12 10 13 9 14 8 15 7 16 6 17 5 18 4 19 3 20 2 21 1 22
REMARK SMILES IDX 23 23 24 24 25 25 26 26 27 27 28 28 29 29 30 30 31 31 32 32
REMARK SMILES IDX 33 33 34 34 35 35 36 36 97 37 37 38 96 39 38 40 39 41 40 42
REMARK SMILES IDX 90 43 41 44 95 45 89 46 91 47 42 48 94 49 88 50 87 51 43 53
REMARK SMILES IDX 75 54 55 55 74 56 56 57 59 58 73 59 92 60 57 61 58 62 72 64
REMARK SMILES IDX 93 65 60 66 44 67 45 68 53 69 46 70 47 71 51 72 54 73 48 74
REMARK SMILES IDX 49 75 52 76 50 77 76 78 77 79 85 80 78 81 79 82 83 83 86 84
REMARK SMILES IDX 80 85 81 86 84 87 82 88 61 89 62 90 70 91 63 92 64 93 68 94
REMARK SMILES IDX 71 95 65 96 66 97 69 98 67 99
REMARK H PARENT 91 52 59 63
REMARK Flexibility Score: inf
ROOT
ATOM      1  C   UNL A   1      32.341  27.918  25.090  1.00  0.00     0.332 C 
ATOM      2  O   UNL A   1      33.489  28.019  24.667  1.00  0.00    -0.250 OA
ENDROOT
BRANCH   1   3
ATOM      3  C   UNL A   1      31.431  26.749  24.689  1.00  0.00     0.283 C 
BRANCH   3   4
ATOM      4  O   UNL A   1      31.198  25.605  25.488  1.00  0.00    -0.366 OA
BRANCH   4   5
ATOM      5  C   UNL A   1      32.347  24.994  26.069  1.00  0.00     0.188 C 
BRANCH   5   6
ATOM      6  C   UNL A   1      33.012  24.034  25.125  1.00  0.00    -0.003 C 
ATOM      7  C   UNL A   1      33.987  24.397  24.277  1.00  0.00    -0.029 C 
BRANCH   7   8
ATOM      8  C   UNL A   1      34.580  23.519  23.216  1.00  0.00     0.031 C 
BRANCH   8   9
ATOM      9  C   UNL A   1      35.906  22.818  23.619  1.00  0.00     0.031 C 
BRANCH   9  10
ATOM     10  C   UNL A   1      36.733  23.491  24.697  1.00  0.00    -0.031 C 
ATOM     11  C   UNL A   1      37.781  22.997  25.384  1.00  0.00    -0.027 C 
BRANCH  11  12
ATOM     12  C   UNL A   1      38.535  23.705  26.484  1.00  0.00     0.054 C 
BRANCH  12  13
ATOM     13  C   UNL A   1      39.622  22.849  27.100  1.00  0.00    -0.027 C 
ATOM     14  C   UNL A   1      40.147  21.743  26.534  1.00  0.00    -0.027 C 
BRANCH  14  15
ATOM     15  C   UNL A   1      41.336  20.976  27.062  1.00  0.00     0.054 C 
BRANCH  15  16
ATOM     16  C   UNL A   1      42.183  21.780  28.011  1.00  0.00    -0.027 C 
ATOM     17  C   UNL A   1      43.126  22.663  27.629  1.00  0.00    -0.027 C 
BRANCH  17  18
ATOM     18  C   UNL A   1      43.922  23.528  28.572  1.00  0.00     0.054 C 
BRANCH  18  19
ATOM     19  C   UNL A   1      44.276  24.849  27.949  1.00  0.00    -0.027 C 
ATOM     20  C   UNL A   1      43.388  25.708  27.420  1.00  0.00    -0.031 C 
BRANCH  20  21
ATOM     21  C   UNL A   1      43.758  27.044  26.837  1.00  0.00     0.023 C 
ATOM     22  C   UNL A   1      43.599  27.062  25.325  1.00  0.00     0.008 C 
ENDBRANCH  20  21
ENDBRANCH  18  19
ENDBRANCH  17  18
ENDBRANCH  15  16
ENDBRANCH  14  15
ENDBRANCH  12  13
ENDBRANCH  11  12
ENDBRANCH   9  10
ENDBRANCH   8   9
ENDBRANCH   7   8
ENDBRANCH   5   6
ENDBRANCH   4   5
ENDBRANCH   3   4
ENDBRANCH   1   3
BRANCH   1  23
ATOM     23  O   UNL A   1      31.712  28.851  25.861  1.00  0.00    -0.462 OA
BRANCH  23  24
ATOM     24  C   UNL A   1      32.472  30.051  26.125  1.00  0.00     0.261 C 
BRANCH  24  25
ATOM     25  C   UNL A   1      31.643  31.284  26.505  1.00  0.00     0.202 C 
BRANCH  25  26
ATOM     26  O   UNL A   1      32.231  32.158  27.463  1.00  0.00    -0.376 OA
BRANCH  26  27
ATOM     27  C   UNL A   1      33.631  32.025  27.632  1.00  0.00     0.188 C 
BRANCH  27  28
ATOM     28  C   UNL A   1      34.395  33.291  27.982  1.00  0.00     0.188 C 
BRANCH  28  29
ATOM     29  O   UNL A   1      33.556  34.415  28.173  1.00  0.00    -0.376 OA
BRANCH  29  30
ATOM     30  C   UNL A   1      33.618  35.054  29.452  1.00  0.00     0.202 C 
BRANCH  30  31
ATOM     31  C   UNL A   1      32.531  36.086  29.822  1.00  0.00     0.261 C 
BRANCH  31  32
ATOM     32  O   UNL A   1      32.638  36.632  31.158  1.00  0.00    -0.460 OA
BRANCH  32  33
ATOM     33  C   UNL A   1      32.457  35.779  32.195  1.00  0.00     0.338 C 
ATOM     34  O   UNL A   1      31.388  35.515  32.724  1.00  0.00    -0.246 OA
BRANCH  33  35
ATOM     35  C   UNL A   1      33.733  35.067  32.503  1.00  0.00     0.060 A 
ATOM     36  C   UNL A   1      33.658  33.720  32.880  1.00  0.00     0.016 A 
ATOM     37  C   UNL A   1      34.995  35.674  32.410  1.00  0.00     0.016 A 
ATOM     38  C   UNL A   1      34.821  33.001  33.196  1.00  0.00     0.010 A 
ATOM     39  C   UNL A   1      36.159  34.955  32.738  1.00  0.00     0.010 A 
ATOM     40  C   UNL A   1      36.082  33.616  33.156  1.00  0.00    -0.014 A 
BRANCH  40  41
ATOM     41  C   UNL A   1      37.273  32.872  33.667  1.00  0.00     0.031 A 
ATOM     42  C   UNL A   1      37.947  31.869  32.792  1.00  0.00     0.074 A 
ATOM     43  C   UNL A   1      37.817  33.103  34.875  1.00  0.00     0.049 A 
ATOM     44  N   UNL A   1      39.067  31.226  32.995  1.00  0.00    -0.248 NA
ATOM     45  C   UNL A   1      37.257  31.528  31.544  1.00  0.00     0.031 C 
ATOM     46  C   UNL A   1      37.239  33.994  35.851  1.00  0.00     0.029 A 
ATOM     47  N   UNL A   1      38.967  32.652  35.483  1.00  0.00    -0.354 N 
ATOM     48  C   UNL A   1      39.224  30.402  31.898  1.00  0.00     0.074 A 
ATOM     49  C   UNL A   1      38.071  30.612  31.043  1.00  0.00     0.031 C 
ATOM     50  C   UNL A   1      38.074  34.118  36.892  1.00  0.00     0.029 A 
ATOM     51  C   UNL A   1      39.212  33.240  36.704  1.00  0.00     0.049 A 
ATOM     52  H   UNL A   1      39.559  31.974  35.083  1.00  0.00     0.167 HD
ATOM     53  C   UNL A   1      40.234  29.540  31.634  1.00  0.00     0.037 A 
ATOM     54  C   UNL A   1      40.217  33.104  37.591  1.00  0.00     0.037 A 
ATOM     55  C   UNL A   1      41.354  29.281  32.502  1.00  0.00     0.049 A 
ATOM     56  C   UNL A   1      41.319  32.138  37.280  1.00  0.00     0.074 A 
ATOM     57  C   UNL A   1      42.412  28.412  32.302  1.00  0.00     0.029 A 
ATOM     58  N   UNL A   1      41.553  29.867  33.745  1.00  0.00    -0.354 N 
ATOM     59  N   UNL A   1      41.485  31.406  36.209  1.00  0.00    -0.248 NA
ATOM     60  C   UNL A   1      42.362  31.965  38.300  1.00  0.00     0.031 C 
ATOM     61  C   UNL A   1      43.225  28.436  33.441  1.00  0.00     0.029 A 
ATOM     62  C   UNL A   1      42.706  29.360  34.331  1.00  0.00     0.049 A 
ATOM     63  H   UNL A   1      40.964  30.544  34.151  1.00  0.00     0.167 HD
ATOM     64  C   UNL A   1      42.649  30.687  36.420  1.00  0.00     0.074 A 
ATOM     65  C   UNL A   1      43.171  31.100  37.707  1.00  0.00     0.031 C 
ATOM     66  C   UNL A   1      43.221  29.758  35.617  1.00  0.00     0.037 A 
BRANCH  53  67
ATOM     67  C   UNL A   1      40.120  28.773  30.355  1.00  0.00     0.064 A 
ATOM     68  C   UNL A   1      39.483  27.523  30.304  1.00  0.00     0.173 A 
ATOM     69  C   UNL A   1      40.692  29.274  29.178  1.00  0.00     0.173 A 
ATOM     70  F   UNL A   1      38.948  26.993  31.415  1.00  0.00    -0.203 F 
ATOM     71  C   UNL A   1      39.455  26.787  29.125  1.00  0.00     0.198 A 
ATOM     72  C   UNL A   1      40.637  28.546  27.995  1.00  0.00     0.198 A 
ATOM     73  F   UNL A   1      41.319  30.459  29.183  1.00  0.00    -0.203 F 
ATOM     74  F   UNL A   1      38.900  25.567  29.113  1.00  0.00    -0.200 F 
ATOM     75  C   UNL A   1      40.029  27.299  27.971  1.00  0.00     0.200 A 
ATOM     76  F   UNL A   1      41.190  29.042  26.880  1.00  0.00    -0.200 F 
ATOM     77  F   UNL A   1      40.010  26.584  26.839  1.00  0.00    -0.200 F 
ENDBRANCH  53  67
BRANCH  54  78
ATOM     78  C   UNL A   1      40.232  33.885  38.864  1.00  0.00     0.064 A 
ATOM     79  C   UNL A   1      39.562  33.421  40.007  1.00  0.00     0.173 A 
ATOM     80  C   UNL A   1      40.886  35.123  38.956  1.00  0.00     0.173 A 
ATOM     81  F   UNL A   1      38.898  32.256  39.967  1.00  0.00    -0.203 F 
ATOM     82  C   UNL A   1      39.526  34.175  41.180  1.00  0.00     0.198 A 
ATOM     83  C   UNL A   1      40.876  35.860  40.141  1.00  0.00     0.198 A 
ATOM     84  F   UNL A   1      41.541  35.616  37.896  1.00  0.00    -0.203 F 
ATOM     85  F   UNL A   1      38.830  33.732  42.237  1.00  0.00    -0.200 F 
ATOM     86  C   UNL A   1      40.188  35.391  41.248  1.00  0.00     0.200 A 
ATOM     87  F   UNL A   1      41.529  37.029  40.204  1.00  0.00    -0.200 F 
ATOM     88  F   UNL A   1      40.152  36.115  42.375  1.00  0.00    -0.200 F 
ENDBRANCH  54  78
BRANCH  66  89
ATOM     89  C   UNL A   1      44.495  29.137  36.108  1.00  0.00     0.064 A 
ATOM     90  C   UNL A   1      45.742  29.745  35.897  1.00  0.00     0.173 A 
ATOM     91  C   UNL A   1      44.469  27.910  36.788  1.00  0.00     0.173 A 
ATOM     92  F   UNL A   1      45.823  30.906  35.229  1.00  0.00    -0.203 F 
ATOM     93  C   UNL A   1      46.918  29.132  36.320  1.00  0.00     0.198 A 
ATOM     94  C   UNL A   1      45.645  27.315  37.238  1.00  0.00     0.198 A 
ATOM     95  F   UNL A   1      43.304  27.286  37.013  1.00  0.00    -0.203 F 
ATOM     96  F   UNL A   1      48.102  29.700  36.054  1.00  0.00    -0.200 F 
ATOM     97  C   UNL A   1      46.868  27.921  36.994  1.00  0.00     0.200 A 
ATOM     98  F   UNL A   1      45.593  26.150  37.896  1.00  0.00    -0.200 F 
ATOM     99  F   UNL A   1      48.001  27.330  37.399  1.00  0.00    -0.200 F 
ENDBRANCH  66  89
ENDBRANCH  40  41
ENDBRANCH  33  35
ENDBRANCH  32  33
ENDBRANCH  31  32
ENDBRANCH  30  31
ENDBRANCH  29  30
ENDBRANCH  28  29
ENDBRANCH  27  28
ENDBRANCH  26  27
ENDBRANCH  25  26
ENDBRANCH  24  25
ENDBRANCH  23  24
ENDBRANCH   1  23
TORSDOF 30
ENDMDL
MODEL 3
REMARK VINA RESULT:      -6.7      4.664      7.835
REMARK SMILES CC/C=C/C/C=C/C/C=C/C/C=C/CC/C=C/COCC(=O)OCCOCCOCCOC(=O)c1ccc(-c2c3nc(c(-c4c(F)c(F)c(F)c(F)c4F)c4ccc([nH]4)c(-c4c(F)c(F)c(F)c(F)c4F)c4nc(c(-c5c(F)c(F)c(F)c(F)c5F)c5ccc2[nH]5)C=C4)C=C3)cc1
REMARK SMILES IDX 21 1 22 2 20 3 19 4 18 5 17 6 16 7 15 8 14 9 13 10 12 11
REMARK SMILES IDX 11 12 10 13 9 14 8 15 7 16 6 17 5 18 4 19 3 20 2 21 1 22
REMARK SMILES IDX 23 23 24 24 25 25 26 26 27 27 28 28 29 29 30 30 31 31 32 32
REMARK SMILES IDX 33 33 34 34 35 35 36 36 97 37 37 38 96 39 38 40 39 41 40 42
REMARK SMILES IDX 90 43 41 44 95 45 89 46 91 47 42 48 94 49 88 50 87 51 43 53
REMARK SMILES IDX 75 54 55 55 74 56 56 57 59 58 73 59 92 60 57 61 58 62 72 64
REMARK SMILES IDX 93 65 60 66 44 67 45 68 53 69 46 70 47 71 51 72 54 73 48 74
REMARK SMILES IDX 49 75 52 76 50 77 76 78 77 79 85 80 78 81 79 82 83 83 86 84
REMARK SMILES IDX 80 85 81 86 84 87 82 88 61 89 62 90 70 91 63 92 64 93 68 94
REMARK SMILES IDX 71 95 65 96 66 97 69 98 67 99
REMARK H PARENT 91 52 59 63
REMARK Flexibility Score: inf
ROOT
ATOM      1  C   UNL A   1      41.609  23.774  27.101  1.00  0.00     0.332 C 
ATOM      2  O   UNL A   1      41.694  23.240  28.203  1.00  0.00    -0.250 OA
ENDROOT
BRANCH   1   3
ATOM      3  C   UNL A   1      40.290  24.367  26.590  1.00  0.00     0.283 C 
BRANCH   3   4
ATOM      4  O   UNL A   1      39.559  25.384  27.249  1.00  0.00    -0.366 OA
BRANCH   4   5
ATOM      5  C   UNL A   1      40.308  26.260  28.087  1.00  0.00     0.188 C 
BRANCH   5   6
ATOM      6  C   UNL A   1      39.933  27.699  27.874  1.00  0.00    -0.003 C 
ATOM      7  C   UNL A   1      39.507  28.500  28.863  1.00  0.00    -0.029 C 
BRANCH   7   8
ATOM      8  C   UNL A   1      38.982  29.892  28.681  1.00  0.00     0.031 C 
BRANCH   8   9
ATOM      9  C   UNL A   1      38.591  30.617  29.999  1.00  0.00     0.031 C 
BRANCH   9  10
ATOM     10  C   UNL A   1      39.215  31.978  30.238  1.00  0.00    -0.031 C 
ATOM     11  C   UNL A   1      38.699  33.196  29.978  1.00  0.00    -0.027 C 
BRANCH  11  12
ATOM     12  C   UNL A   1      39.393  34.519  30.197  1.00  0.00     0.054 C 
BRANCH  12  13
ATOM     13  C   UNL A   1      40.646  34.672  29.360  1.00  0.00    -0.027 C 
ATOM     14  C   UNL A   1      40.847  35.637  28.440  1.00  0.00    -0.027 C 
BRANCH  14  15
ATOM     15  C   UNL A   1      42.148  35.894  27.718  1.00  0.00     0.054 C 
BRANCH  15  16
ATOM     16  C   UNL A   1      42.593  37.330  27.795  1.00  0.00    -0.027 C 
ATOM     17  C   UNL A   1      42.037  38.258  28.598  1.00  0.00    -0.027 C 
BRANCH  17  18
ATOM     18  C   UNL A   1      42.528  39.675  28.738  1.00  0.00     0.054 C 
BRANCH  18  19
ATOM     19  C   UNL A   1      43.095  40.198  27.448  1.00  0.00    -0.027 C 
ATOM     20  C   UNL A   1      42.384  40.837  26.503  1.00  0.00    -0.031 C 
BRANCH  20  21
ATOM     21  C   UNL A   1      42.978  41.387  25.236  1.00  0.00     0.023 C 
ATOM     22  C   UNL A   1      41.904  41.763  24.227  1.00  0.00     0.008 C 
ENDBRANCH  20  21
ENDBRANCH  18  19
ENDBRANCH  17  18
ENDBRANCH  15  16
ENDBRANCH  14  15
ENDBRANCH  12  13
ENDBRANCH  11  12
ENDBRANCH   9  10
ENDBRANCH   8   9
ENDBRANCH   7   8
ENDBRANCH   5   6
ENDBRANCH   4   5
ENDBRANCH   3   4
ENDBRANCH   1   3
BRANCH   1  23
ATOM     23  O   UNL A   1      42.614  23.818  26.180  1.00  0.00    -0.462 OA
BRANCH  23  24
ATOM     24  C   UNL A   1      42.773  22.628  25.378  1.00  0.00     0.261 C 
BRANCH  24  25
ATOM     25  C   UNL A   1      44.011  22.604  24.473  1.00  0.00     0.202 C 
BRANCH  25  26
ATOM     26  O   UNL A   1      44.732  23.828  24.372  1.00  0.00    -0.376 OA
BRANCH  26  27
ATOM     27  C   UNL A   1      46.124  23.737  24.615  1.00  0.00     0.188 C 
BRANCH  27  28
ATOM     28  C   UNL A   1      46.806  24.996  25.124  1.00  0.00     0.188 C 
BRANCH  28  29
ATOM     29  O   UNL A   1      46.594  26.121  24.293  1.00  0.00    -0.376 OA
BRANCH  29  30
ATOM     30  C   UNL A   1      46.193  27.333  24.942  1.00  0.00     0.202 C 
BRANCH  30  31
ATOM     31  C   UNL A   1      45.786  27.282  26.429  1.00  0.00     0.261 C 
BRANCH  31  32
ATOM     32  O   UNL A   1      44.396  26.958  26.671  1.00  0.00    -0.460 OA
BRANCH  32  33
ATOM     33  C   UNL A   1      43.994  26.868  27.962  1.00  0.00     0.338 C 
ATOM     34  O   UNL A   1      43.826  25.832  28.586  1.00  0.00    -0.246 OA
BRANCH  33  35
ATOM     35  C   UNL A   1      43.943  28.227  28.581  1.00  0.00     0.060 A 
ATOM     36  C   UNL A   1      43.029  29.151  28.060  1.00  0.00     0.016 A 
ATOM     37  C   UNL A   1      44.747  28.607  29.667  1.00  0.00     0.016 A 
ATOM     38  C   UNL A   1      42.945  30.447  28.591  1.00  0.00     0.010 A 
ATOM     39  C   UNL A   1      44.670  29.911  30.189  1.00  0.00     0.010 A 
ATOM     40  C   UNL A   1      43.782  30.853  29.642  1.00  0.00    -0.014 A 
BRANCH  40  41
ATOM     41  C   UNL A   1      43.787  32.288  30.060  1.00  0.00     0.031 A 
ATOM     42  C   UNL A   1      43.078  32.694  31.307  1.00  0.00     0.074 A 
ATOM     43  C   UNL A   1      44.457  33.242  29.390  1.00  0.00     0.049 A 
ATOM     44  N   UNL A   1      43.081  33.854  31.911  1.00  0.00    -0.248 NA
ATOM     45  C   UNL A   1      42.237  31.672  31.939  1.00  0.00     0.031 C 
ATOM     46  C   UNL A   1      45.133  33.011  28.137  1.00  0.00     0.029 A 
ATOM     47  N   UNL A   1      44.714  34.568  29.661  1.00  0.00    -0.354 N 
ATOM     48  C   UNL A   1      42.245  33.707  33.000  1.00  0.00     0.074 A 
ATOM     49  C   UNL A   1      41.735  32.349  32.961  1.00  0.00     0.031 C 
ATOM     50  C   UNL A   1      45.816  34.110  27.789  1.00  0.00     0.029 A 
ATOM     51  C   UNL A   1      45.555  35.164  28.749  1.00  0.00     0.049 A 
ATOM     52  H   UNL A   1      44.331  35.044  30.434  1.00  0.00     0.167 HD
ATOM     53  C   UNL A   1      41.924  34.624  33.942  1.00  0.00     0.037 A 
ATOM     54  C   UNL A   1      46.066  36.408  28.664  1.00  0.00     0.037 A 
ATOM     55  C   UNL A   1      42.380  35.990  33.960  1.00  0.00     0.049 A 
ATOM     56  C   UNL A   1      45.690  37.408  29.714  1.00  0.00     0.074 A 
ATOM     57  C   UNL A   1      42.087  36.981  34.881  1.00  0.00     0.029 A 
ATOM     58  N   UNL A   1      43.202  36.570  33.003  1.00  0.00    -0.354 N 
ATOM     59  N   UNL A   1      44.942  37.238  30.774  1.00  0.00    -0.248 NA
ATOM     60  C   UNL A   1      46.210  38.773  29.552  1.00  0.00     0.031 C 
ATOM     61  C   UNL A   1      42.691  38.171  34.458  1.00  0.00     0.029 A 
ATOM     62  C   UNL A   1      43.407  37.912  33.302  1.00  0.00     0.049 A 
ATOM     63  H   UNL A   1      43.584  36.100  32.228  1.00  0.00     0.167 HD
ATOM     64  C   UNL A   1      44.902  38.467  31.409  1.00  0.00     0.074 A 
ATOM     65  C   UNL A   1      45.733  39.368  30.635  1.00  0.00     0.031 C 
ATOM     66  C   UNL A   1      44.222  38.814  32.528  1.00  0.00     0.037 A 
BRANCH  53  67
ATOM     67  C   UNL A   1      40.979  34.165  35.006  1.00  0.00     0.064 A 
ATOM     68  C   UNL A   1      39.592  34.141  34.793  1.00  0.00     0.173 A 
ATOM     69  C   UNL A   1      41.463  33.786  36.265  1.00  0.00     0.173 A 
ATOM     70  F   UNL A   1      39.084  34.525  33.612  1.00  0.00    -0.203 F 
ATOM     71  C   UNL A   1      38.721  33.787  35.818  1.00  0.00     0.198 A 
ATOM     72  C   UNL A   1      40.590  33.407  37.279  1.00  0.00     0.198 A 
ATOM     73  F   UNL A   1      42.780  33.803  36.516  1.00  0.00    -0.203 F 
ATOM     74  F   UNL A   1      37.397  33.834  35.615  1.00  0.00    -0.200 F 
ATOM     75  C   UNL A   1      39.220  33.418  37.058  1.00  0.00     0.200 A 
ATOM     76  F   UNL A   1      41.072  33.048  38.476  1.00  0.00    -0.200 F 
ATOM     77  F   UNL A   1      38.379  33.088  38.047  1.00  0.00    -0.200 F 
ENDBRANCH  53  67
BRANCH  54  78
ATOM     78  C   UNL A   1      46.976  36.792  27.544  1.00  0.00     0.064 A 
ATOM     79  C   UNL A   1      46.533  37.622  26.503  1.00  0.00     0.173 A 
ATOM     80  C   UNL A   1      48.292  36.313  27.473  1.00  0.00     0.173 A 
ATOM     81  F   UNL A   1      45.275  38.088  26.506  1.00  0.00    -0.203 F 
ATOM     82  C   UNL A   1      47.362  37.937  25.426  1.00  0.00     0.198 A 
ATOM     83  C   UNL A   1      49.131  36.655  26.412  1.00  0.00     0.198 A 
ATOM     84  F   UNL A   1      48.770  35.515  28.439  1.00  0.00    -0.203 F 
ATOM     85  F   UNL A   1      46.893  38.686  24.418  1.00  0.00    -0.200 F 
ATOM     86  C   UNL A   1      48.663  37.458  25.385  1.00  0.00     0.200 A 
ATOM     87  F   UNL A   1      50.391  36.199  26.384  1.00  0.00    -0.200 F 
ATOM     88  F   UNL A   1      49.459  37.759  24.350  1.00  0.00    -0.200 F 
ENDBRANCH  54  78
BRANCH  66  89
ATOM     89  C   UNL A   1      44.368  40.233  32.992  1.00  0.00     0.064 A 
ATOM     90  C   UNL A   1      43.443  41.226  32.633  1.00  0.00     0.173 A 
ATOM     91  C   UNL A   1      45.454  40.607  33.797  1.00  0.00     0.173 A 
ATOM     92  F   UNL A   1      42.402  40.926  31.843  1.00  0.00    -0.203 F 
ATOM     93  C   UNL A   1      43.620  42.547  33.035  1.00  0.00     0.198 A 
ATOM     94  C   UNL A   1      45.610  41.922  34.224  1.00  0.00     0.198 A 
ATOM     95  F   UNL A   1      46.367  39.696  34.166  1.00  0.00    -0.203 F 
ATOM     96  F   UNL A   1      42.759  43.491  32.629  1.00  0.00    -0.200 F 
ATOM     97  C   UNL A   1      44.700  42.893  33.835  1.00  0.00     0.200 A 
ATOM     98  F   UNL A   1      46.649  42.253  35.003  1.00  0.00    -0.200 F 
ATOM     99  F   UNL A   1      44.870  44.165  34.219  1.00  0.00    -0.200 F 
ENDBRANCH  66  89
ENDBRANCH  40  41
ENDBRANCH  33  35
ENDBRANCH  32  33
ENDBRANCH  31  32
ENDBRANCH  30  31
ENDBRANCH  29  30
ENDBRANCH  28  29
ENDBRANCH  27  28
ENDBRANCH  26  27
ENDBRANCH  25  26
ENDBRANCH  24  25
ENDBRANCH  23  24
ENDBRANCH   1  23
TORSDOF 30
ENDMDL
