MODEL 1
REMARK VINA RESULT:     -11.5      0.000      0.000
REMARK SMILES CCc1nc2sc(C(=O)NCC(=O)OCCOCCOCCOC(=O)c3ccc(-c4c5nc(c(-c6c(F)c(F)c(F)c(F)c6F)c6ccc([nH]6)c(-c6c(F)c(F)c(F)c(F)c6F)c6nc(c(-c7c(F)c(F)c(F)c(F)c7F)c7ccc4[nH]7)C=C6)C=C5)cc3)c(N)c2c(C(F)(F)F)c1C
REMARK SMILES IDX 18 1 17 2 16 3 15 4 14 5 12 6 13 7 11 8 10 9 8 10 9 11 7 13
REMARK SMILES IDX 3 14 4 15 97 16 5 17 92 18 98 19 6 20 91 21 89 22 2 23 1 24
REMARK SMILES IDX 93 25 94 26 95 27 96 28 90 29 19 32 20 33 21 34 22 35 23 36
REMARK SMILES IDX 24 37 25 38 26 39 27 40 88 41 28 42 87 43 29 44 30 45 31 46
REMARK SMILES IDX 81 47 32 48 86 49 80 50 82 51 33 52 85 53 79 54 78 55 34 57
REMARK SMILES IDX 66 58 46 59 65 60 47 61 50 62 64 63 83 64 48 65 49 66 63 68
REMARK SMILES IDX 84 69 51 70 35 71 36 72 44 73 37 74 38 75 42 76 45 77 39 78
REMARK SMILES IDX 40 79 43 80 41 81 67 82 68 83 76 84 69 85 70 86 74 87 77 88
REMARK SMILES IDX 71 89 72 90 75 91 73 92 52 93 53 94 61 95 54 96 55 97 59 98
REMARK SMILES IDX 62 99 56 100 57 101 60 102 58 103
REMARK H PARENT 10 12 90 30 90 31 82 56 50 67
REMARK Flexibility Score: inf
ROOT
ATOM      1  C   UNL A   1      39.580  21.214  26.118  1.00  0.00     0.188 C 
ENDROOT
BRANCH   1   2
ATOM      2  O   UNL A   1      38.526  22.065  25.750  1.00  0.00    -0.376 OA
BRANCH   2   3
ATOM      3  C   UNL A   1      37.288  21.514  25.327  1.00  0.00     0.202 C 
BRANCH   3   4
ATOM      4  C   UNL A   1      36.050  22.346  24.917  1.00  0.00     0.261 C 
BRANCH   4   5
ATOM      5  O   UNL A   1      35.630  22.257  23.543  1.00  0.00    -0.462 OA
BRANCH   5   6
ATOM      6  C   UNL A   1      34.635  23.111  23.163  1.00  0.00     0.325 C 
ATOM      7  O   UNL A   1      34.830  24.292  22.877  1.00  0.00    -0.250 OA
BRANCH   6   8
ATOM      8  C   UNL A   1      33.284  22.413  22.896  1.00  0.00     0.239 C 
BRANCH   8   9
ATOM      9  N   UNL A   1      32.610  21.819  24.026  1.00  0.00    -0.340 N 
ATOM     10  C   UNL A   1      31.826  22.409  24.989  1.00  0.00     0.264 C 
ATOM     11  O   UNL A   1      31.205  21.607  25.696  1.00  0.00    -0.268 OA
ATOM     12  H   UNL A   1      32.729  20.847  24.122  1.00  0.00     0.164 HD
BRANCH  10  13
ATOM     13  C   UNL A   1      31.762  23.862  25.189  1.00  0.00     0.118 A 
ATOM     14  C   UNL A   1      32.559  28.392  26.257  1.00  0.00     0.045 A 
ATOM     15  N   UNL A   1      33.021  27.167  26.597  1.00  0.00    -0.242 NA
ATOM     16  C   UNL A   1      31.580  28.621  25.271  1.00  0.00    -0.017 A 
ATOM     17  C   UNL A   1      32.436  26.130  25.984  1.00  0.00     0.127 A 
ATOM     18  C   UNL A   1      30.955  27.502  24.668  1.00  0.00     0.073 A 
ATOM     19  C   UNL A   1      31.160  29.998  24.834  1.00  0.00     0.047 C 
ATOM     20  S   UNL A   1      32.915  24.534  26.303  1.00  0.00    -0.108 S 
ATOM     21  C   UNL A   1      31.417  26.213  25.064  1.00  0.00     0.048 A 
ATOM     22  C   UNL A   1      31.000  24.903  24.682  1.00  0.00     0.066 A 
BRANCH  14  23
ATOM     23  C   UNL A   1      33.224  29.508  27.029  1.00  0.00     0.053 C 
ATOM     24  C   UNL A   1      34.622  29.120  27.500  1.00  0.00     0.011 C 
ENDBRANCH  14  23
BRANCH  18  25
ATOM     25  C   UNL A   1      29.849  27.614  23.636  1.00  0.00     0.417 C 
ATOM     26  F   UNL A   1      28.675  27.063  24.072  1.00  0.00    -0.166 F 
ATOM     27  F   UNL A   1      29.554  28.915  23.331  1.00  0.00    -0.166 F 
ATOM     28  F   UNL A   1      30.077  27.027  22.431  1.00  0.00    -0.166 F 
ENDBRANCH  18  25
BRANCH  22  29
ATOM     29  N   UNL A   1      29.942  24.804  23.864  1.00  0.00    -0.397 N 
ATOM     30  H   UNL A   1      29.307  25.552  23.789  1.00  0.00     0.156 HD
ATOM     31  H   UNL A   1      29.801  23.984  23.338  1.00  0.00     0.156 HD
ENDBRANCH  22  29
ENDBRANCH  10  13
ENDBRANCH   8   9
ENDBRANCH   6   8
ENDBRANCH   5   6
ENDBRANCH   4   5
ENDBRANCH   3   4
ENDBRANCH   2   3
ENDBRANCH   1   2
BRANCH   1  32
ATOM     32  C   UNL A   1      40.464  21.614  27.308  1.00  0.00     0.188 C 
BRANCH  32  33
ATOM     33  O   UNL A   1      41.866  21.452  27.383  1.00  0.00    -0.376 OA
BRANCH  33  34
ATOM     34  C   UNL A   1      42.682  21.068  26.284  1.00  0.00     0.202 C 
BRANCH  34  35
ATOM     35  C   UNL A   1      43.458  22.067  25.422  1.00  0.00     0.261 C 
BRANCH  35  36
ATOM     36  O   UNL A   1      42.691  23.166  24.998  1.00  0.00    -0.460 OA
BRANCH  36  37
ATOM     37  C   UNL A   1      43.187  24.343  25.429  1.00  0.00     0.338 C 
ATOM     38  O   UNL A   1      44.184  24.931  25.035  1.00  0.00    -0.246 OA
BRANCH  37  39
ATOM     39  C   UNL A   1      42.255  24.881  26.422  1.00  0.00     0.060 A 
ATOM     40  C   UNL A   1      41.147  25.561  25.921  1.00  0.00     0.016 A 
ATOM     41  C   UNL A   1      42.625  24.911  27.773  1.00  0.00     0.016 A 
ATOM     42  C   UNL A   1      40.674  26.595  26.674  1.00  0.00     0.010 A 
ATOM     43  C   UNL A   1      42.163  25.953  28.522  1.00  0.00     0.010 A 
ATOM     44  C   UNL A   1      41.320  26.855  27.886  1.00  0.00    -0.014 A 
BRANCH  44  45
ATOM     45  C   UNL A   1      41.163  28.173  28.431  1.00  0.00     0.031 A 
ATOM     46  C   UNL A   1      42.227  29.083  28.002  1.00  0.00     0.074 A 
ATOM     47  C   UNL A   1      40.132  28.461  29.247  1.00  0.00     0.049 A 
ATOM     48  N   UNL A   1      43.182  29.558  28.724  1.00  0.00    -0.248 NA
ATOM     49  C   UNL A   1      42.366  29.321  26.558  1.00  0.00     0.031 C 
ATOM     50  C   UNL A   1      38.931  27.666  29.527  1.00  0.00     0.029 A 
ATOM     51  N   UNL A   1      39.913  29.598  29.951  1.00  0.00    -0.354 N 
ATOM     52  C   UNL A   1      43.932  30.335  27.857  1.00  0.00     0.074 A 
ATOM     53  C   UNL A   1      43.514  29.995  26.521  1.00  0.00     0.031 C 
ATOM     54  C   UNL A   1      38.016  28.446  30.149  1.00  0.00     0.029 A 
ATOM     55  C   UNL A   1      38.618  29.737  30.430  1.00  0.00     0.049 A 
ATOM     56  H   UNL A   1      40.615  30.271  30.110  1.00  0.00     0.167 HD
ATOM     57  C   UNL A   1      44.619  31.407  28.323  1.00  0.00     0.037 A 
ATOM     58  C   UNL A   1      38.092  30.888  30.917  1.00  0.00     0.037 A 
ATOM     59  C   UNL A   1      44.854  31.304  29.741  1.00  0.00     0.049 A 
ATOM     60  C   UNL A   1      39.241  31.745  31.320  1.00  0.00     0.074 A 
ATOM     61  C   UNL A   1      45.546  30.422  30.547  1.00  0.00     0.029 A 
ATOM     62  N   UNL A   1      44.010  31.995  30.575  1.00  0.00    -0.354 N 
ATOM     63  N   UNL A   1      40.042  31.473  32.313  1.00  0.00    -0.248 NA
ATOM     64  C   UNL A   1      39.765  32.683  30.337  1.00  0.00     0.031 C 
ATOM     65  C   UNL A   1      44.782  30.324  31.747  1.00  0.00     0.029 A 
ATOM     66  C   UNL A   1      43.689  31.184  31.634  1.00  0.00     0.049 A 
ATOM     67  H   UNL A   1      43.690  32.915  30.437  1.00  0.00     0.167 HD
ATOM     68  C   UNL A   1      41.299  31.860  31.871  1.00  0.00     0.074 A 
ATOM     69  C   UNL A   1      41.051  32.686  30.693  1.00  0.00     0.031 C 
ATOM     70  C   UNL A   1      42.422  31.233  32.329  1.00  0.00     0.037 A 
BRANCH  57  71
ATOM     71  C   UNL A   1      44.698  32.704  27.567  1.00  0.00     0.064 A 
ATOM     72  C   UNL A   1      45.838  32.976  26.794  1.00  0.00     0.173 A 
ATOM     73  C   UNL A   1      43.838  33.804  27.797  1.00  0.00     0.173 A 
ATOM     74  F   UNL A   1      46.742  32.014  26.552  1.00  0.00    -0.203 F 
ATOM     75  C   UNL A   1      46.121  34.263  26.330  1.00  0.00     0.198 A 
ATOM     76  C   UNL A   1      44.089  35.070  27.282  1.00  0.00     0.198 A 
ATOM     77  F   UNL A   1      42.786  33.733  28.622  1.00  0.00    -0.203 F 
ATOM     78  F   UNL A   1      47.279  34.501  25.702  1.00  0.00    -0.200 F 
ATOM     79  C   UNL A   1      45.246  35.308  26.573  1.00  0.00     0.200 A 
ATOM     80  F   UNL A   1      43.241  36.071  27.552  1.00  0.00    -0.200 F 
ATOM     81  F   UNL A   1      45.541  36.551  26.174  1.00  0.00    -0.200 F 
ENDBRANCH  57  71
BRANCH  58  82
ATOM     82  C   UNL A   1      36.748  31.461  30.638  1.00  0.00     0.064 A 
ATOM     83  C   UNL A   1      35.928  31.873  31.703  1.00  0.00     0.173 A 
ATOM     84  C   UNL A   1      36.374  31.907  29.355  1.00  0.00     0.173 A 
ATOM     85  F   UNL A   1      36.227  31.516  32.961  1.00  0.00    -0.203 F 
ATOM     86  C   UNL A   1      34.843  32.733  31.506  1.00  0.00     0.198 A 
ATOM     87  C   UNL A   1      35.284  32.757  29.159  1.00  0.00     0.198 A 
ATOM     88  F   UNL A   1      37.112  31.618  28.275  1.00  0.00    -0.203 F 
ATOM     89  F   UNL A   1      34.142  33.175  32.560  1.00  0.00    -0.200 F 
ATOM     90  C   UNL A   1      34.533  33.188  30.237  1.00  0.00     0.200 A 
ATOM     91  F   UNL A   1      35.013  33.215  27.929  1.00  0.00    -0.200 F 
ATOM     92  F   UNL A   1      33.544  34.074  30.057  1.00  0.00    -0.200 F 
ENDBRANCH  58  82
BRANCH  70  93
ATOM     93  C   UNL A   1      42.274  30.342  33.532  1.00  0.00     0.064 A 
ATOM     94  C   UNL A   1      42.349  30.792  34.863  1.00  0.00     0.173 A 
ATOM     95  C   UNL A   1      41.903  29.007  33.324  1.00  0.00     0.173 A 
ATOM     96  F   UNL A   1      42.606  32.076  35.141  1.00  0.00    -0.203 F 
ATOM     97  C   UNL A   1      42.098  29.932  35.931  1.00  0.00     0.198 A 
ATOM     98  C   UNL A   1      41.617  28.161  34.392  1.00  0.00     0.198 A 
ATOM     99  F   UNL A   1      41.769  28.535  32.075  1.00  0.00    -0.203 F 
ATOM    100  F   UNL A   1      42.186  30.381  37.192  1.00  0.00    -0.200 F 
ATOM    101  C   UNL A   1      41.723  28.620  35.694  1.00  0.00     0.200 A 
ATOM    102  F   UNL A   1      41.210  26.906  34.154  1.00  0.00    -0.200 F 
ATOM    103  F   UNL A   1      41.438  27.804  36.719  1.00  0.00    -0.200 F 
ENDBRANCH  70  93
ENDBRANCH  44  45
ENDBRANCH  37  39
ENDBRANCH  36  37
ENDBRANCH  35  36
ENDBRANCH  34  35
ENDBRANCH  33  34
ENDBRANCH  32  33
ENDBRANCH   1  32
TORSDOF 22
ENDMDL
MODEL 2
REMARK VINA RESULT:     -11.4      2.624      3.861
REMARK SMILES CCc1nc2sc(C(=O)NCC(=O)OCCOCCOCCOC(=O)c3ccc(-c4c5nc(c(-c6c(F)c(F)c(F)c(F)c6F)c6ccc([nH]6)c(-c6c(F)c(F)c(F)c(F)c6F)c6nc(c(-c7c(F)c(F)c(F)c(F)c7F)c7ccc4[nH]7)C=C6)C=C5)cc3)c(N)c2c(C(F)(F)F)c1C
REMARK SMILES IDX 18 1 17 2 16 3 15 4 14 5 12 6 13 7 11 8 10 9 8 10 9 11 7 13
REMARK SMILES IDX 3 14 4 15 97 16 5 17 92 18 98 19 6 20 91 21 89 22 2 23 1 24
REMARK SMILES IDX 93 25 94 26 95 27 96 28 90 29 19 32 20 33 21 34 22 35 23 36
REMARK SMILES IDX 24 37 25 38 26 39 27 40 88 41 28 42 87 43 29 44 30 45 31 46
REMARK SMILES IDX 81 47 32 48 86 49 80 50 82 51 33 52 85 53 79 54 78 55 34 57
REMARK SMILES IDX 66 58 46 59 65 60 47 61 50 62 64 63 83 64 48 65 49 66 63 68
REMARK SMILES IDX 84 69 51 70 35 71 36 72 44 73 37 74 38 75 42 76 45 77 39 78
REMARK SMILES IDX 40 79 43 80 41 81 67 82 68 83 76 84 69 85 70 86 74 87 77 88
REMARK SMILES IDX 71 89 72 90 75 91 73 92 52 93 53 94 61 95 54 96 55 97 59 98
REMARK SMILES IDX 62 99 56 100 57 101 60 102 58 103
REMARK H PARENT 10 12 90 30 90 31 82 56 50 67
REMARK Flexibility Score: inf
ROOT
ATOM      1  C   UNL A   1      38.456  22.473  25.758  1.00  0.00     0.188 C 
ENDROOT
BRANCH   1   2
ATOM      2  O   UNL A   1      37.497  21.460  25.602  1.00  0.00    -0.376 OA
BRANCH   2   3
ATOM      3  C   UNL A   1      36.120  21.797  25.527  1.00  0.00     0.202 C 
BRANCH   3   4
ATOM      4  C   UNL A   1      35.093  21.096  24.606  1.00  0.00     0.261 C 
BRANCH   4   5
ATOM      5  O   UNL A   1      34.685  19.767  24.977  1.00  0.00    -0.462 OA
BRANCH   5   6
ATOM      6  C   UNL A   1      33.342  19.521  24.950  1.00  0.00     0.325 C 
ATOM      7  O   UNL A   1      32.843  18.452  25.302  1.00  0.00    -0.250 OA
BRANCH   6   8
ATOM      8  C   UNL A   1      32.485  20.772  24.661  1.00  0.00     0.239 C 
BRANCH   8   9
ATOM      9  N   UNL A   1      31.404  21.060  25.574  1.00  0.00    -0.340 N 
ATOM     10  C   UNL A   1      30.759  22.248  25.824  1.00  0.00     0.264 C 
ATOM     11  O   UNL A   1      29.726  22.132  26.491  1.00  0.00    -0.268 OA
ATOM     12  H   UNL A   1      31.080  20.290  26.094  1.00  0.00     0.164 HD
BRANCH  10  13
ATOM     13  C   UNL A   1      31.274  23.548  25.374  1.00  0.00     0.118 A 
ATOM     14  C   UNL A   1      33.260  27.812  24.969  1.00  0.00     0.045 A 
ATOM     15  N   UNL A   1      32.788  26.994  25.937  1.00  0.00    -0.242 NA
ATOM     16  C   UNL A   1      33.321  27.467  23.605  1.00  0.00    -0.017 A 
ATOM     17  C   UNL A   1      32.292  25.822  25.522  1.00  0.00     0.127 A 
ATOM     18  C   UNL A   1      32.755  26.236  23.194  1.00  0.00     0.073 A 
ATOM     19  C   UNL A   1      33.950  28.350  22.562  1.00  0.00     0.047 C 
ATOM     20  S   UNL A   1      31.670  24.690  26.623  1.00  0.00    -0.108 S 
ATOM     21  C   UNL A   1      32.219  25.399  24.215  1.00  0.00     0.048 A 
ATOM     22  C   UNL A   1      31.567  24.131  24.152  1.00  0.00     0.066 A 
BRANCH  14  23
ATOM     23  C   UNL A   1      33.751  29.137  25.504  1.00  0.00     0.053 C 
ATOM     24  C   UNL A   1      33.902  29.119  27.021  1.00  0.00     0.011 C 
ENDBRANCH  14  23
BRANCH  18  25
ATOM     25  C   UNL A   1      32.707  25.775  21.749  1.00  0.00     0.417 C 
ATOM     26  F   UNL A   1      33.251  24.531  21.584  1.00  0.00    -0.166 F 
ATOM     27  F   UNL A   1      31.427  25.683  21.276  1.00  0.00    -0.166 F 
ATOM     28  F   UNL A   1      33.350  26.554  20.839  1.00  0.00    -0.166 F 
ENDBRANCH  18  25
BRANCH  22  29
ATOM     29  N   UNL A   1      31.323  23.622  22.935  1.00  0.00    -0.397 N 
ATOM     30  H   UNL A   1      32.065  23.281  22.386  1.00  0.00     0.156 HD
ATOM     31  H   UNL A   1      30.401  23.589  22.591  1.00  0.00     0.156 HD
ENDBRANCH  22  29
ENDBRANCH  10  13
ENDBRANCH   8   9
ENDBRANCH   6   8
ENDBRANCH   5   6
ENDBRANCH   4   5
ENDBRANCH   3   4
ENDBRANCH   2   3
ENDBRANCH   1   2
BRANCH   1  32
ATOM     32  C   UNL A   1      39.749  22.147  26.520  1.00  0.00     0.188 C 
BRANCH  32  33
ATOM     33  O   UNL A   1      40.095  20.885  27.052  1.00  0.00    -0.376 OA
BRANCH  33  34
ATOM     34  C   UNL A   1      40.720  19.851  26.302  1.00  0.00     0.202 C 
BRANCH  34  35
ATOM     35  C   UNL A   1      42.235  19.642  26.257  1.00  0.00     0.261 C 
BRANCH  35  36
ATOM     36  O   UNL A   1      42.975  20.834  26.333  1.00  0.00    -0.460 OA
BRANCH  36  37
ATOM     37  C   UNL A   1      43.846  20.971  25.314  1.00  0.00     0.338 C 
ATOM     38  O   UNL A   1      44.173  20.135  24.484  1.00  0.00    -0.246 OA
BRANCH  37  39
ATOM     39  C   UNL A   1      44.292  22.366  25.294  1.00  0.00     0.060 A 
ATOM     40  C   UNL A   1      45.299  22.703  26.196  1.00  0.00     0.016 A 
ATOM     41  C   UNL A   1      43.549  23.319  24.584  1.00  0.00     0.016 A 
ATOM     42  C   UNL A   1      45.269  23.971  26.698  1.00  0.00     0.010 A 
ATOM     43  C   UNL A   1      43.508  24.583  25.094  1.00  0.00     0.010 A 
ATOM     44  C   UNL A   1      44.256  24.818  26.240  1.00  0.00    -0.014 A 
BRANCH  44  45
ATOM     45  C   UNL A   1      43.924  25.937  27.077  1.00  0.00     0.031 A 
ATOM     46  C   UNL A   1      44.914  27.012  26.985  1.00  0.00     0.074 A 
ATOM     47  C   UNL A   1      42.815  25.920  27.840  1.00  0.00     0.049 A 
ATOM     48  N   UNL A   1      45.763  27.367  27.888  1.00  0.00    -0.248 NA
ATOM     49  C   UNL A   1      45.126  27.620  25.664  1.00  0.00     0.031 C 
ATOM     50  C   UNL A   1      41.688  24.982  27.803  1.00  0.00     0.029 A 
ATOM     51  N   UNL A   1      42.431  26.818  28.779  1.00  0.00    -0.354 N 
ATOM     52  C   UNL A   1      46.485  28.399  27.312  1.00  0.00     0.074 A 
ATOM     53  C   UNL A   1      46.197  28.376  25.901  1.00  0.00     0.031 C 
ATOM     54  C   UNL A   1      40.656  25.498  28.511  1.00  0.00     0.029 A 
ATOM     55  C   UNL A   1      41.099  26.721  29.156  1.00  0.00     0.049 A 
ATOM     56  H   UNL A   1      43.046  27.485  29.163  1.00  0.00     0.167 HD
ATOM     57  C   UNL A   1      47.022  29.371  28.089  1.00  0.00     0.037 A 
ATOM     58  C   UNL A   1      40.423  27.662  29.861  1.00  0.00     0.037 A 
ATOM     59  C   UNL A   1      47.169  28.931  29.454  1.00  0.00     0.049 A 
ATOM     60  C   UNL A   1      41.446  28.482  30.567  1.00  0.00     0.074 A 
ATOM     61  C   UNL A   1      47.893  27.934  30.078  1.00  0.00     0.029 A 
ATOM     62  N   UNL A   1      46.202  29.313  30.351  1.00  0.00    -0.354 N 
ATOM     63  N   UNL A   1      42.202  28.035  31.532  1.00  0.00    -0.248 NA
ATOM     64  C   UNL A   1      41.935  29.680  29.898  1.00  0.00     0.031 C 
ATOM     65  C   UNL A   1      47.063  27.471  31.140  1.00  0.00     0.029 A 
ATOM     66  C   UNL A   1      45.897  28.237  31.142  1.00  0.00     0.049 A 
ATOM     67  H   UNL A   1      45.798  30.208  30.414  1.00  0.00     0.167 HD
ATOM     68  C   UNL A   1      43.439  28.626  31.317  1.00  0.00     0.074 A 
ATOM     69  C   UNL A   1      43.187  29.701  30.361  1.00  0.00     0.031 C 
ATOM     70  C   UNL A   1      44.587  28.000  31.708  1.00  0.00     0.037 A 
BRANCH  57  71
ATOM     71  C   UNL A   1      47.016  30.820  27.687  1.00  0.00     0.064 A 
ATOM     72  C   UNL A   1      45.789  31.452  27.432  1.00  0.00     0.173 A 
ATOM     73  C   UNL A   1      48.168  31.526  27.268  1.00  0.00     0.173 A 
ATOM     74  F   UNL A   1      44.633  30.849  27.750  1.00  0.00    -0.203 F 
ATOM     75  C   UNL A   1      45.719  32.675  26.761  1.00  0.00     0.198 A 
ATOM     76  C   UNL A   1      48.099  32.773  26.656  1.00  0.00     0.198 A 
ATOM     77  F   UNL A   1      49.396  30.996  27.322  1.00  0.00    -0.203 F 
ATOM     78  F   UNL A   1      44.525  33.182  26.430  1.00  0.00    -0.200 F 
ATOM     79  C   UNL A   1      46.873  33.334  26.375  1.00  0.00     0.200 A 
ATOM     80  F   UNL A   1      49.229  33.379  26.268  1.00  0.00    -0.200 F 
ATOM     81  F   UNL A   1      46.806  34.481  25.687  1.00  0.00    -0.200 F 
ENDBRANCH  57  71
BRANCH  58  82
ATOM     82  C   UNL A   1      39.049  28.172  29.609  1.00  0.00     0.064 A 
ATOM     83  C   UNL A   1      38.190  28.433  30.690  1.00  0.00     0.173 A 
ATOM     84  C   UNL A   1      38.664  28.708  28.364  1.00  0.00     0.173 A 
ATOM     85  F   UNL A   1      38.494  27.983  31.917  1.00  0.00    -0.203 F 
ATOM     86  C   UNL A   1      37.054  29.237  30.551  1.00  0.00     0.198 A 
ATOM     87  C   UNL A   1      37.524  29.502  28.224  1.00  0.00     0.198 A 
ATOM     88  F   UNL A   1      39.433  28.564  27.276  1.00  0.00    -0.203 F 
ATOM     89  F   UNL A   1      36.312  29.537  31.626  1.00  0.00    -0.200 F 
ATOM     90  C   UNL A   1      36.732  29.785  29.322  1.00  0.00     0.200 A 
ATOM     91  F   UNL A   1      37.240  30.050  27.035  1.00  0.00    -0.200 F 
ATOM     92  F   UNL A   1      35.690  30.619  29.202  1.00  0.00    -0.200 F 
ENDBRANCH  58  82
BRANCH  70  93
ATOM     93  C   UNL A   1      44.452  26.823  32.635  1.00  0.00     0.064 A 
ATOM     94  C   UNL A   1      44.341  25.488  32.206  1.00  0.00     0.173 A 
ATOM     95  C   UNL A   1      44.581  27.048  34.012  1.00  0.00     0.173 A 
ATOM     96  F   UNL A   1      44.306  25.185  30.902  1.00  0.00    -0.203 F 
ATOM     97  C   UNL A   1      44.325  24.435  33.119  1.00  0.00     0.198 A 
ATOM     98  C   UNL A   1      44.601  25.992  34.919  1.00  0.00     0.198 A 
ATOM     99  F   UNL A   1      44.738  28.297  34.475  1.00  0.00    -0.203 F 
ATOM    100  F   UNL A   1      44.208  23.170  32.688  1.00  0.00    -0.200 F 
ATOM    101  C   UNL A   1      44.465  24.688  34.474  1.00  0.00     0.200 A 
ATOM    102  F   UNL A   1      44.785  26.240  36.223  1.00  0.00    -0.200 F 
ATOM    103  F   UNL A   1      44.495  23.673  35.350  1.00  0.00    -0.200 F 
ENDBRANCH  70  93
ENDBRANCH  44  45
ENDBRANCH  37  39
ENDBRANCH  36  37
ENDBRANCH  35  36
ENDBRANCH  34  35
ENDBRANCH  33  34
ENDBRANCH  32  33
ENDBRANCH   1  32
TORSDOF 22
ENDMDL
MODEL 3
REMARK VINA RESULT:     -11.2      1.222      2.096
REMARK SMILES CCc1nc2sc(C(=O)NCC(=O)OCCOCCOCCOC(=O)c3ccc(-c4c5nc(c(-c6c(F)c(F)c(F)c(F)c6F)c6ccc([nH]6)c(-c6c(F)c(F)c(F)c(F)c6F)c6nc(c(-c7c(F)c(F)c(F)c(F)c7F)c7ccc4[nH]7)C=C6)C=C5)cc3)c(N)c2c(C(F)(F)F)c1C
REMARK SMILES IDX 18 1 17 2 16 3 15 4 14 5 12 6 13 7 11 8 10 9 8 10 9 11 7 13
REMARK SMILES IDX 3 14 4 15 97 16 5 17 92 18 98 19 6 20 91 21 89 22 2 23 1 24
REMARK SMILES IDX 93 25 94 26 95 27 96 28 90 29 19 32 20 33 21 34 22 35 23 36
REMARK SMILES IDX 24 37 25 38 26 39 27 40 88 41 28 42 87 43 29 44 30 45 31 46
REMARK SMILES IDX 81 47 32 48 86 49 80 50 82 51 33 52 85 53 79 54 78 55 34 57
REMARK SMILES IDX 66 58 46 59 65 60 47 61 50 62 64 63 83 64 48 65 49 66 63 68
REMARK SMILES IDX 84 69 51 70 35 71 36 72 44 73 37 74 38 75 42 76 45 77 39 78
REMARK SMILES IDX 40 79 43 80 41 81 67 82 68 83 76 84 69 85 70 86 74 87 77 88
REMARK SMILES IDX 71 89 72 90 75 91 73 92 52 93 53 94 61 95 54 96 55 97 59 98
REMARK SMILES IDX 62 99 56 100 57 101 60 102 58 103
REMARK H PARENT 10 12 90 30 90 31 82 56 50 67
REMARK Flexibility Score: inf
ROOT
ATOM      1  C   UNL A   1      39.943  20.717  26.123  1.00  0.00     0.188 C 
ENDROOT
BRANCH   1   2
ATOM      2  O   UNL A   1      38.816  21.481  25.782  1.00  0.00    -0.376 OA
BRANCH   2   3
ATOM      3  C   UNL A   1      37.778  20.901  25.006  1.00  0.00     0.202 C 
BRANCH   3   4
ATOM      4  C   UNL A   1      36.421  21.580  24.706  1.00  0.00     0.261 C 
BRANCH   4   5
ATOM      5  O   UNL A   1      36.458  22.959  24.296  1.00  0.00    -0.462 OA
BRANCH   5   6
ATOM      6  C   UNL A   1      35.336  23.693  24.553  1.00  0.00     0.325 C 
ATOM      7  O   UNL A   1      35.345  24.735  25.207  1.00  0.00    -0.250 OA
BRANCH   6   8
ATOM      8  C   UNL A   1      34.095  23.233  23.759  1.00  0.00     0.239 C 
BRANCH   8   9
ATOM      9  N   UNL A   1      32.962  22.757  24.517  1.00  0.00    -0.340 N 
ATOM     10  C   UNL A   1      31.810  23.416  24.880  1.00  0.00     0.264 C 
ATOM     11  O   UNL A   1      30.928  22.679  25.332  1.00  0.00    -0.268 OA
ATOM     12  H   UNL A   1      33.022  21.823  24.819  1.00  0.00     0.164 HD
BRANCH  10  13
ATOM     13  C   UNL A   1      31.657  24.873  24.779  1.00  0.00     0.118 A 
ATOM     14  C   UNL A   1      30.297  29.295  23.837  1.00  0.00     0.045 A 
ATOM     15  N   UNL A   1      30.124  28.047  23.344  1.00  0.00    -0.242 NA
ATOM     16  C   UNL A   1      31.024  29.588  25.007  1.00  0.00    -0.017 A 
ATOM     17  C   UNL A   1      30.758  27.067  23.999  1.00  0.00     0.127 A 
ATOM     18  C   UNL A   1      31.712  28.533  25.655  1.00  0.00     0.073 A 
ATOM     19  C   UNL A   1      31.112  30.970  25.595  1.00  0.00     0.047 C 
ATOM     20  S   UNL A   1      30.629  25.449  23.501  1.00  0.00    -0.108 S 
ATOM     21  C   UNL A   1      31.561  27.228  25.104  1.00  0.00     0.048 A 
ATOM     22  C   UNL A   1      32.121  25.972  25.485  1.00  0.00     0.066 A 
BRANCH  14  23
ATOM     23  C   UNL A   1      29.601  30.355  23.015  1.00  0.00     0.053 C 
ATOM     24  C   UNL A   1      28.607  29.751  22.029  1.00  0.00     0.011 C 
ENDBRANCH  14  23
BRANCH  18  25
ATOM     25  C   UNL A   1      32.573  28.728  26.889  1.00  0.00     0.417 C 
ATOM     26  F   UNL A   1      32.701  30.047  27.229  1.00  0.00    -0.166 F 
ATOM     27  F   UNL A   1      32.047  28.113  27.992  1.00  0.00    -0.166 F 
ATOM     28  F   UNL A   1      33.850  28.266  26.821  1.00  0.00    -0.166 F 
ENDBRANCH  18  25
BRANCH  22  29
ATOM     29  N   UNL A   1      33.012  25.971  26.487  1.00  0.00    -0.397 N 
ATOM     30  H   UNL A   1      33.681  25.251  26.550  1.00  0.00     0.156 HD
ATOM     31  H   UNL A   1      32.998  26.690  27.159  1.00  0.00     0.156 HD
ENDBRANCH  22  29
ENDBRANCH  10  13
ENDBRANCH   8   9
ENDBRANCH   6   8
ENDBRANCH   5   6
ENDBRANCH   4   5
ENDBRANCH   3   4
ENDBRANCH   2   3
ENDBRANCH   1   2
BRANCH   1  32
ATOM     32  C   UNL A   1      40.775  21.141  27.341  1.00  0.00     0.188 C 
BRANCH  32  33
ATOM     33  O   UNL A   1      42.163  21.410  27.337  1.00  0.00    -0.376 OA
BRANCH  33  34
ATOM     34  C   UNL A   1      43.030  21.098  26.254  1.00  0.00     0.202 C 
BRANCH  34  35
ATOM     35  C   UNL A   1      43.609  22.153  25.309  1.00  0.00     0.261 C 
BRANCH  35  36
ATOM     36  O   UNL A   1      42.709  23.184  24.991  1.00  0.00    -0.460 OA
BRANCH  36  37
ATOM     37  C   UNL A   1      43.147  24.396  25.387  1.00  0.00     0.338 C 
ATOM     38  O   UNL A   1      44.135  25.003  25.001  1.00  0.00    -0.246 OA
BRANCH  37  39
ATOM     39  C   UNL A   1      42.161  24.941  26.323  1.00  0.00     0.060 A 
ATOM     40  C   UNL A   1      41.111  25.664  25.760  1.00  0.00     0.016 A 
ATOM     41  C   UNL A   1      42.435  24.932  27.697  1.00  0.00     0.016 A 
ATOM     42  C   UNL A   1      40.615  26.695  26.501  1.00  0.00     0.010 A 
ATOM     43  C   UNL A   1      41.949  25.971  28.435  1.00  0.00     0.010 A 
ATOM     44  C   UNL A   1      41.180  26.911  27.761  1.00  0.00    -0.014 A 
BRANCH  44  45
ATOM     45  C   UNL A   1      41.021  28.222  28.324  1.00  0.00     0.031 A 
ATOM     46  C   UNL A   1      42.110  29.125  27.946  1.00  0.00     0.074 A 
ATOM     47  C   UNL A   1      39.967  28.509  29.110  1.00  0.00     0.049 A 
ATOM     48  N   UNL A   1      43.047  29.575  28.707  1.00  0.00    -0.248 NA
ATOM     49  C   UNL A   1      42.300  29.385  26.512  1.00  0.00     0.031 C 
ATOM     50  C   UNL A   1      38.748  27.725  29.337  1.00  0.00     0.029 A 
ATOM     51  N   UNL A   1      39.740  29.637  29.827  1.00  0.00    -0.354 N 
ATOM     52  C   UNL A   1      43.835  30.357  27.878  1.00  0.00     0.074 A 
ATOM     53  C   UNL A   1      43.457  30.045  26.524  1.00  0.00     0.031 C 
ATOM     54  C   UNL A   1      37.823  28.506  29.943  1.00  0.00     0.029 A 
ATOM     55  C   UNL A   1      38.431  29.785  30.265  1.00  0.00     0.049 A 
ATOM     56  H   UNL A   1      40.444  30.297  30.020  1.00  0.00     0.167 HD
ATOM     57  C   UNL A   1      44.520  31.412  28.386  1.00  0.00     0.037 A 
ATOM     58  C   UNL A   1      37.904  30.933  30.755  1.00  0.00     0.037 A 
ATOM     59  C   UNL A   1      44.706  31.282  29.809  1.00  0.00     0.049 A 
ATOM     60  C   UNL A   1      39.050  31.769  31.210  1.00  0.00     0.074 A 
ATOM     61  C   UNL A   1      45.360  30.377  30.621  1.00  0.00     0.029 A 
ATOM     62  N   UNL A   1      43.843  31.969  30.627  1.00  0.00    -0.354 N 
ATOM     63  N   UNL A   1      39.814  31.469  32.224  1.00  0.00    -0.248 NA
ATOM     64  C   UNL A   1      39.617  32.717  30.261  1.00  0.00     0.031 C 
ATOM     65  C   UNL A   1      44.556  30.269  31.793  1.00  0.00     0.029 A 
ATOM     66  C   UNL A   1      43.478  31.145  31.660  1.00  0.00     0.049 A 
ATOM     67  H   UNL A   1      43.539  32.895  30.494  1.00  0.00     0.167 HD
ATOM     68  C   UNL A   1      41.090  31.847  31.830  1.00  0.00     0.074 A 
ATOM     69  C   UNL A   1      40.891  32.697  30.660  1.00  0.00     0.031 C 
ATOM     70  C   UNL A   1      42.189  31.198  32.314  1.00  0.00     0.037 A 
BRANCH  57  71
ATOM     71  C   UNL A   1      44.639  32.720  27.656  1.00  0.00     0.064 A 
ATOM     72  C   UNL A   1      45.798  32.981  26.906  1.00  0.00     0.173 A 
ATOM     73  C   UNL A   1      43.800  33.834  27.893  1.00  0.00     0.173 A 
ATOM     74  F   UNL A   1      46.684  32.003  26.661  1.00  0.00    -0.203 F 
ATOM     75  C   UNL A   1      46.117  34.269  26.471  1.00  0.00     0.198 A 
ATOM     76  C   UNL A   1      44.088  35.104  27.404  1.00  0.00     0.198 A 
ATOM     77  F   UNL A   1      42.733  33.772  28.699  1.00  0.00    -0.203 F 
ATOM     78  F   UNL A   1      47.289  34.492  25.866  1.00  0.00    -0.200 F 
ATOM     79  C   UNL A   1      45.261  35.329  26.719  1.00  0.00     0.200 A 
ATOM     80  F   UNL A   1      43.258  36.119  27.680  1.00  0.00    -0.200 F 
ATOM     81  F   UNL A   1      45.590  36.572  26.348  1.00  0.00    -0.200 F 
ENDBRANCH  57  71
BRANCH  58  82
ATOM     82  C   UNL A   1      36.577  31.529  30.442  1.00  0.00     0.064 A 
ATOM     83  C   UNL A   1      35.774  32.034  31.479  1.00  0.00     0.173 A 
ATOM     84  C   UNL A   1      36.212  31.903  29.134  1.00  0.00     0.173 A 
ATOM     85  F   UNL A   1      36.066  31.749  32.757  1.00  0.00    -0.203 F 
ATOM     86  C   UNL A   1      34.715  32.912  31.230  1.00  0.00     0.198 A 
ATOM     87  C   UNL A   1      35.148  32.772  28.885  1.00  0.00     0.198 A 
ATOM     88  F   UNL A   1      36.937  31.522  28.073  1.00  0.00    -0.203 F 
ATOM     89  F   UNL A   1      34.032  33.442  32.254  1.00  0.00    -0.200 F 
ATOM     90  C   UNL A   1      34.414  33.294  29.935  1.00  0.00     0.200 A 
ATOM     91  F   UNL A   1      34.886  33.157  27.629  1.00  0.00    -0.200 F 
ATOM     92  F   UNL A   1      33.452  34.197  29.699  1.00  0.00    -0.200 F 
ENDBRANCH  58  82
BRANCH  70  93
ATOM     93  C   UNL A   1      41.991  30.289  33.495  1.00  0.00     0.064 A 
ATOM     94  C   UNL A   1      41.634  28.931  33.396  1.00  0.00     0.173 A 
ATOM     95  C   UNL A   1      42.312  30.778  34.768  1.00  0.00     0.173 A 
ATOM     96  F   UNL A   1      41.402  28.365  32.205  1.00  0.00    -0.203 F 
ATOM     97  C   UNL A   1      41.569  28.117  34.527  1.00  0.00     0.198 A 
ATOM     98  C   UNL A   1      42.283  29.954  35.889  1.00  0.00     0.198 A 
ATOM     99  F   UNL A   1      42.706  32.052  34.916  1.00  0.00    -0.203 F 
ATOM    100  F   UNL A   1      41.216  26.828  34.410  1.00  0.00    -0.200 F 
ATOM    101  C   UNL A   1      41.903  28.628  35.771  1.00  0.00     0.200 A 
ATOM    102  F   UNL A   1      42.652  30.441  37.082  1.00  0.00    -0.200 F 
ATOM    103  F   UNL A   1      41.885  27.835  36.852  1.00  0.00    -0.200 F 
ENDBRANCH  70  93
ENDBRANCH  44  45
ENDBRANCH  37  39
ENDBRANCH  36  37
ENDBRANCH  35  36
ENDBRANCH  34  35
ENDBRANCH  33  34
ENDBRANCH  32  33
ENDBRANCH   1  32
TORSDOF 22
ENDMDL
