MODEL 1
REMARK VINA RESULT:     -11.2      0.000      0.000
REMARK SMILES O=C(OCCOCCOCCOC(=O)[C@@H]1[C@H](C(=O)Nc2ccccc2Cc2ccccc2)[C@H]2C=C[C@@H]1O2)c1ccc(-c2c3nc(c(-c4c(F)c(F)c(F)c(F)c4F)c4ccc([nH]4)c(-c4c(F)c(F)c(F)c(F)c4F)c4nc(c(-c5c(F)c(F)c(F)c(F)c5F)c5ccc2[nH]5)C=C4)C=C3)cc1
REMARK SMILES IDX 8 1 7 2 6 3 5 4 4 5 3 6 2 7 1 8 38 9 39 10 100 11 40 12
REMARK SMILES IDX 99 13 41 14 42 15 43 16 93 17 44 18 98 19 92 20 94 21 45 22
REMARK SMILES IDX 97 23 91 24 90 25 46 27 78 28 58 29 77 30 59 31 62 32 76 33
REMARK SMILES IDX 95 34 60 35 61 36 75 38 96 39 63 40 47 41 48 42 56 43 49 44
REMARK SMILES IDX 50 45 54 46 57 47 51 48 52 49 55 50 53 51 79 52 80 53 88 54
REMARK SMILES IDX 81 55 82 56 86 57 89 58 83 59 84 60 87 61 85 62 64 63 65 64
REMARK SMILES IDX 73 65 66 66 67 67 71 68 74 69 68 70 69 71 72 72 70 73 9 74
REMARK SMILES IDX 10 75 11 76 12 77 13 78 14 79 15 80 16 81 36 82 33 83 35 84
REMARK SMILES IDX 37 85 34 86 17 87 18 88 19 89 20 91 21 92 25 93 22 94 24 95
REMARK SMILES IDX 23 96 26 97 27 98 28 99 32 100 29 101 31 102 30 103
REMARK H PARENT 94 26 62 37 19 90
REMARK Flexibility Score: inf
ROOT
ATOM      1  C   UNL A   1      35.482  32.647  28.038  1.00  0.00     0.188 C 
ENDROOT
BRANCH   1   2
ATOM      2  C   UNL A   1      35.092  33.508  29.218  1.00  0.00     0.188 C 
BRANCH   2   3
ATOM      3  O   UNL A   1      35.027  34.883  28.811  1.00  0.00    -0.376 OA
BRANCH   3   4
ATOM      4  C   UNL A   1      33.704  35.287  28.466  1.00  0.00     0.202 C 
BRANCH   4   5
ATOM      5  C   UNL A   1      33.132  36.371  29.387  1.00  0.00     0.261 C 
BRANCH   5   6
ATOM      6  O   UNL A   1      32.325  35.826  30.447  1.00  0.00    -0.460 OA
BRANCH   6   7
ATOM      7  C   UNL A   1      32.611  35.687  31.760  1.00  0.00     0.338 C 
ATOM      8  O   UNL A   1      31.767  36.094  32.575  1.00  0.00    -0.246 OA
BRANCH   7   9
ATOM      9  C   UNL A   1      33.861  35.082  32.328  1.00  0.00     0.060 A 
ATOM     10  C   UNL A   1      35.130  35.668  32.360  1.00  0.00     0.016 A 
ATOM     11  C   UNL A   1      33.721  33.814  32.927  1.00  0.00     0.016 A 
ATOM     12  C   UNL A   1      36.239  34.980  32.870  1.00  0.00     0.010 A 
ATOM     13  C   UNL A   1      34.818  33.131  33.464  1.00  0.00     0.010 A 
ATOM     14  C   UNL A   1      36.095  33.695  33.391  1.00  0.00    -0.014 A 
BRANCH  14  15
ATOM     15  C   UNL A   1      37.295  32.871  33.666  1.00  0.00     0.031 A 
ATOM     16  C   UNL A   1      38.044  33.128  34.940  1.00  0.00     0.074 A 
ATOM     17  C   UNL A   1      37.682  31.888  32.835  1.00  0.00     0.049 A 
ATOM     18  N   UNL A   1      39.154  32.595  35.375  1.00  0.00    -0.248 NA
ATOM     19  C   UNL A   1      37.447  34.115  35.857  1.00  0.00     0.031 C 
ATOM     20  C   UNL A   1      36.975  31.491  31.623  1.00  0.00     0.029 A 
ATOM     21  N   UNL A   1      38.765  31.046  32.879  1.00  0.00    -0.354 N 
ATOM     22  C   UNL A   1      39.392  33.188  36.609  1.00  0.00     0.074 A 
ATOM     23  C   UNL A   1      38.325  34.132  36.846  1.00  0.00     0.031 C 
ATOM     24  C   UNL A   1      37.650  30.496  31.022  1.00  0.00     0.029 A 
ATOM     25  C   UNL A   1      38.859  30.212  31.791  1.00  0.00     0.049 A 
ATOM     26  H   UNL A   1      39.412  31.040  33.621  1.00  0.00     0.167 HD
ATOM     27  C   UNL A   1      40.414  32.959  37.465  1.00  0.00     0.037 A 
ATOM     28  C   UNL A   1      39.832  29.345  31.447  1.00  0.00     0.037 A 
ATOM     29  C   UNL A   1      41.478  32.027  37.209  1.00  0.00     0.049 A 
ATOM     30  C   UNL A   1      41.019  29.193  32.368  1.00  0.00     0.074 A 
ATOM     31  C   UNL A   1      42.580  31.740  37.992  1.00  0.00     0.029 A 
ATOM     32  N   UNL A   1      41.570  31.235  36.073  1.00  0.00    -0.354 N 
ATOM     33  N   UNL A   1      41.246  29.761  33.529  1.00  0.00    -0.248 NA
ATOM     34  C   UNL A   1      42.086  28.281  31.933  1.00  0.00     0.031 C 
ATOM     35  C   UNL A   1      43.371  30.815  37.302  1.00  0.00     0.029 A 
ATOM     36  C   UNL A   1      42.728  30.478  36.121  1.00  0.00     0.049 A 
ATOM     37  H   UNL A   1      40.911  31.215  35.342  1.00  0.00     0.167 HD
ATOM     38  C   UNL A   1      42.461  29.255  33.974  1.00  0.00     0.074 A 
ATOM     39  C   UNL A   1      42.915  28.318  32.966  1.00  0.00     0.031 C 
ATOM     40  C   UNL A   1      43.144  29.538  35.110  1.00  0.00     0.037 A 
BRANCH  27  41
ATOM     41  C   UNL A   1      40.453  33.773  38.723  1.00  0.00     0.064 A 
ATOM     42  C   UNL A   1      39.719  33.413  39.863  1.00  0.00     0.173 A 
ATOM     43  C   UNL A   1      41.243  34.932  38.788  1.00  0.00     0.173 A 
ATOM     44  F   UNL A   1      38.928  32.330  39.843  1.00  0.00    -0.203 F 
ATOM     45  C   UNL A   1      39.758  34.196  41.014  1.00  0.00     0.198 A 
ATOM     46  C   UNL A   1      41.301  35.695  39.949  1.00  0.00     0.198 A 
ATOM     47  F   UNL A   1      41.958  35.322  37.722  1.00  0.00    -0.203 F 
ATOM     48  F   UNL A   1      39.009  33.862  42.075  1.00  0.00    -0.200 F 
ATOM     49  C   UNL A   1      40.554  35.332  41.059  1.00  0.00     0.200 A 
ATOM     50  F   UNL A   1      42.075  36.788  39.992  1.00  0.00    -0.200 F 
ATOM     51  F   UNL A   1      40.592  36.082  42.169  1.00  0.00    -0.200 F 
ENDBRANCH  27  41
BRANCH  28  52
ATOM     52  C   UNL A   1      39.765  28.590  30.163  1.00  0.00     0.064 A 
ATOM     53  C   UNL A   1      39.221  27.300  30.102  1.00  0.00     0.173 A 
ATOM     54  C   UNL A   1      40.305  29.121  28.980  1.00  0.00     0.173 A 
ATOM     55  F   UNL A   1      38.714  26.733  31.206  1.00  0.00    -0.203 F 
ATOM     56  C   UNL A   1      39.256  26.556  28.921  1.00  0.00     0.198 A 
ATOM     57  C   UNL A   1      40.308  28.391  27.793  1.00  0.00     0.198 A 
ATOM     58  F   UNL A   1      40.844  30.349  28.981  1.00  0.00    -0.203 F 
ATOM     59  F   UNL A   1      38.796  25.297  28.913  1.00  0.00    -0.200 F 
ATOM     60  C   UNL A   1      39.797  27.103  27.768  1.00  0.00     0.200 A 
ATOM     61  F   UNL A   1      40.828  28.927  26.680  1.00  0.00    -0.200 F 
ATOM     62  F   UNL A   1      39.844  26.382  26.640  1.00  0.00    -0.200 F 
ENDBRANCH  28  52
BRANCH  40  63
ATOM     63  C   UNL A   1      44.425  28.793  35.351  1.00  0.00     0.064 A 
ATOM     64  C   UNL A   1      44.444  27.542  35.986  1.00  0.00     0.173 A 
ATOM     65  C   UNL A   1      45.643  29.315  34.889  1.00  0.00     0.173 A 
ATOM     66  F   UNL A   1      43.309  27.007  36.458  1.00  0.00    -0.203 F 
ATOM     67  C   UNL A   1      45.640  26.854  36.173  1.00  0.00     0.198 A 
ATOM     68  C   UNL A   1      46.832  28.608  35.045  1.00  0.00     0.198 A 
ATOM     69  F   UNL A   1      45.677  30.503  34.266  1.00  0.00    -0.203 F 
ATOM     70  F   UNL A   1      45.643  25.684  36.825  1.00  0.00    -0.200 F 
ATOM     71  C   UNL A   1      46.830  27.383  35.694  1.00  0.00     0.200 A 
ATOM     72  F   UNL A   1      47.976  29.112  34.565  1.00  0.00    -0.200 F 
ATOM     73  F   UNL A   1      47.978  26.713  35.863  1.00  0.00    -0.200 F 
ENDBRANCH  40  63
ENDBRANCH  14  15
ENDBRANCH   7   9
ENDBRANCH   6   7
ENDBRANCH   5   6
ENDBRANCH   4   5
ENDBRANCH   3   4
ENDBRANCH   2   3
ENDBRANCH   1   2
BRANCH   1  74
ATOM     74  O   UNL A   1      34.632  31.527  27.829  1.00  0.00    -0.376 OA
BRANCH  74  75
ATOM     75  C   UNL A   1      35.318  30.291  27.635  1.00  0.00     0.202 C 
BRANCH  75  76
ATOM     76  C   UNL A   1      34.410  29.100  27.267  1.00  0.00     0.261 C 
BRANCH  76  77
ATOM     77  O   UNL A   1      33.832  29.132  25.923  1.00  0.00    -0.463 OA
BRANCH  77  78
ATOM     78  C   UNL A   1      33.552  27.971  25.310  1.00  0.00     0.312 C 
ATOM     79  O   UNL A   1      34.217  26.957  25.535  1.00  0.00    -0.252 OA
BRANCH  78  80
ATOM     80  C   UNL A   1      32.395  27.890  24.284  1.00  0.00     0.147 C 
ATOM     81  C   UNL A   1      31.180  27.817  25.217  1.00  0.00     0.129 C 
ATOM     82  C   UNL A   1      31.833  26.922  23.199  1.00  0.00     0.157 C 
ATOM     83  C   UNL A   1      30.074  27.150  24.428  1.00  0.00     0.155 C 
ATOM     84  C   UNL A   1      30.828  27.670  22.360  1.00  0.00     0.004 C 
ATOM     85  O   UNL A   1      30.876  26.072  23.886  1.00  0.00    -0.365 OA
ATOM     86  C   UNL A   1      29.763  27.866  23.147  1.00  0.00     0.004 C 
BRANCH  81  87
ATOM     87  C   UNL A   1      31.456  26.951  26.425  1.00  0.00     0.231 C 
ATOM     88  O   UNL A   1      31.317  27.503  27.534  1.00  0.00    -0.274 OA
ATOM     89  N   UNL A   1      31.774  25.638  26.520  1.00  0.00    -0.325 N 
ATOM     90  H   UNL A   1      31.901  25.512  27.488  1.00  0.00     0.169 HD
BRANCH  89  91
ATOM     91  C   UNL A   1      32.031  24.316  25.987  1.00  0.00     0.044 A 
ATOM     92  C   UNL A   1      30.979  23.501  26.529  1.00  0.00     0.026 A 
ATOM     93  C   UNL A   1      32.942  23.621  25.104  1.00  0.00    -0.020 A 
ATOM     94  C   UNL A   1      30.709  22.186  26.169  1.00  0.00     0.002 A 
ATOM     95  C   UNL A   1      32.593  22.280  24.736  1.00  0.00     0.006 A 
ATOM     96  C   UNL A   1      31.504  21.583  25.234  1.00  0.00     0.000 A 
BRANCH  93  97
ATOM     97  C   UNL A   1      34.237  24.000  24.359  1.00  0.00     0.073 C 
BRANCH  97  98
ATOM     98  C   UNL A   1      35.638  23.454  24.749  1.00  0.00    -0.044 A 
ATOM     99  C   UNL A   1      36.110  22.223  24.267  1.00  0.00     0.004 A 
ATOM    100  C   UNL A   1      36.429  24.070  25.731  1.00  0.00     0.004 A 
ATOM    101  C   UNL A   1      37.349  21.683  24.637  1.00  0.00     0.000 A 
ATOM    102  C   UNL A   1      37.658  23.518  26.138  1.00  0.00     0.000 A 
ATOM    103  C   UNL A   1      38.130  22.336  25.574  1.00  0.00     0.000 A 
ENDBRANCH  97  98
ENDBRANCH  93  97
ENDBRANCH  89  91
ENDBRANCH  81  87
ENDBRANCH  78  80
ENDBRANCH  77  78
ENDBRANCH  76  77
ENDBRANCH  75  76
ENDBRANCH  74  75
ENDBRANCH   1  74
TORSDOF 21
ENDMDL
MODEL 2
REMARK VINA RESULT:     -11.1      5.017      7.354
REMARK SMILES O=C(OCCOCCOCCOC(=O)[C@@H]1[C@H](C(=O)Nc2ccccc2Cc2ccccc2)[C@H]2C=C[C@@H]1O2)c1ccc(-c2c3nc(c(-c4c(F)c(F)c(F)c(F)c4F)c4ccc([nH]4)c(-c4c(F)c(F)c(F)c(F)c4F)c4nc(c(-c5c(F)c(F)c(F)c(F)c5F)c5ccc2[nH]5)C=C4)C=C3)cc1
REMARK SMILES IDX 8 1 7 2 6 3 5 4 4 5 3 6 2 7 1 8 38 9 39 10 100 11 40 12
REMARK SMILES IDX 99 13 41 14 42 15 43 16 93 17 44 18 98 19 92 20 94 21 45 22
REMARK SMILES IDX 97 23 91 24 90 25 46 27 78 28 58 29 77 30 59 31 62 32 76 33
REMARK SMILES IDX 95 34 60 35 61 36 75 38 96 39 63 40 47 41 48 42 56 43 49 44
REMARK SMILES IDX 50 45 54 46 57 47 51 48 52 49 55 50 53 51 79 52 80 53 88 54
REMARK SMILES IDX 81 55 82 56 86 57 89 58 83 59 84 60 87 61 85 62 64 63 65 64
REMARK SMILES IDX 73 65 66 66 67 67 71 68 74 69 68 70 69 71 72 72 70 73 9 74
REMARK SMILES IDX 10 75 11 76 12 77 13 78 14 79 15 80 16 81 36 82 33 83 35 84
REMARK SMILES IDX 37 85 34 86 17 87 18 88 19 89 20 91 21 92 25 93 22 94 24 95
REMARK SMILES IDX 23 96 26 97 27 98 28 99 32 100 29 101 31 102 30 103
REMARK H PARENT 94 26 62 37 19 90
REMARK Flexibility Score: inf
ROOT
ATOM      1  C   UNL A   1      32.835  30.866  27.203  1.00  0.00     0.188 C 
ENDROOT
BRANCH   1   2
ATOM      2  C   UNL A   1      33.183  32.304  27.511  1.00  0.00     0.188 C 
BRANCH   2   3
ATOM      3  O   UNL A   1      34.022  32.359  28.675  1.00  0.00    -0.376 OA
BRANCH   3   4
ATOM      4  C   UNL A   1      34.234  33.692  29.132  1.00  0.00     0.202 C 
BRANCH   4   5
ATOM      5  C   UNL A   1      34.329  33.813  30.657  1.00  0.00     0.261 C 
BRANCH   5   6
ATOM      6  O   UNL A   1      34.475  32.536  31.304  1.00  0.00    -0.460 OA
BRANCH   6   7
ATOM      7  C   UNL A   1      35.497  32.063  32.050  1.00  0.00     0.338 C 
ATOM      8  O   UNL A   1      35.479  32.309  33.267  1.00  0.00    -0.246 OA
BRANCH   7   9
ATOM      9  C   UNL A   1      36.658  31.261  31.540  1.00  0.00     0.060 A 
ATOM     10  C   UNL A   1      37.624  30.609  32.314  1.00  0.00     0.016 A 
ATOM     11  C   UNL A   1      36.751  31.120  30.141  1.00  0.00     0.016 A 
ATOM     12  C   UNL A   1      38.698  29.933  31.722  1.00  0.00     0.010 A 
ATOM     13  C   UNL A   1      37.805  30.423  29.542  1.00  0.00     0.010 A 
ATOM     14  C   UNL A   1      38.814  29.867  30.334  1.00  0.00    -0.014 A 
BRANCH  14  15
ATOM     15  C   UNL A   1      40.080  29.404  29.720  1.00  0.00     0.031 A 
ATOM     16  C   UNL A   1      41.211  30.385  29.622  1.00  0.00     0.074 A 
ATOM     17  C   UNL A   1      40.241  28.136  29.306  1.00  0.00     0.049 A 
ATOM     18  N   UNL A   1      42.387  30.248  29.069  1.00  0.00    -0.248 NA
ATOM     19  C   UNL A   1      40.987  31.700  30.249  1.00  0.00     0.031 C 
ATOM     20  C   UNL A   1      39.244  27.080  29.440  1.00  0.00     0.029 A 
ATOM     21  N   UNL A   1      41.298  27.519  28.685  1.00  0.00    -0.354 N 
ATOM     22  C   UNL A   1      43.037  31.459  29.274  1.00  0.00     0.074 A 
ATOM     23  C   UNL A   1      42.123  32.324  29.984  1.00  0.00     0.031 C 
ATOM     24  C   UNL A   1      39.725  25.947  28.899  1.00  0.00     0.029 A 
ATOM     25  C   UNL A   1      41.051  26.211  28.346  1.00  0.00     0.049 A 
ATOM     26  H   UNL A   1      42.153  27.972  28.500  1.00  0.00     0.167 HD
ATOM     27  C   UNL A   1      44.288  31.811  28.901  1.00  0.00     0.037 A 
ATOM     28  C   UNL A   1      41.802  25.342  27.641  1.00  0.00     0.037 A 
ATOM     29  C   UNL A   1      45.182  30.945  28.182  1.00  0.00     0.049 A 
ATOM     30  C   UNL A   1      43.151  25.800  27.139  1.00  0.00     0.074 A 
ATOM     31  C   UNL A   1      46.459  31.210  27.726  1.00  0.00     0.029 A 
ATOM     32  N   UNL A   1      44.881  29.642  27.810  1.00  0.00    -0.354 N 
ATOM     33  N   UNL A   1      43.759  26.948  27.325  1.00  0.00    -0.248 NA
ATOM     34  C   UNL A   1      43.918  24.846  26.326  1.00  0.00     0.031 C 
ATOM     35  C   UNL A   1      46.909  30.086  27.025  1.00  0.00     0.029 A 
ATOM     36  C   UNL A   1      45.940  29.099  27.103  1.00  0.00     0.049 A 
ATOM     37  H   UNL A   1      44.040  29.175  28.017  1.00  0.00     0.167 HD
ATOM     38  C   UNL A   1      44.986  26.842  26.683  1.00  0.00     0.074 A 
ATOM     39  C   UNL A   1      45.045  25.510  26.116  1.00  0.00     0.031 C 
ATOM     40  C   UNL A   1      45.977  27.761  26.567  1.00  0.00     0.037 A 
BRANCH  27  41
ATOM     41  C   UNL A   1      44.732  33.208  29.214  1.00  0.00     0.064 A 
ATOM     42  C   UNL A   1      45.417  33.520  30.398  1.00  0.00     0.173 A 
ATOM     43  C   UNL A   1      44.469  34.250  28.312  1.00  0.00     0.173 A 
ATOM     44  F   UNL A   1      45.668  32.565  31.306  1.00  0.00    -0.203 F 
ATOM     45  C   UNL A   1      45.804  34.829  30.676  1.00  0.00     0.198 A 
ATOM     46  C   UNL A   1      44.882  35.551  28.580  1.00  0.00     0.198 A 
ATOM     47  F   UNL A   1      43.811  34.004  27.169  1.00  0.00    -0.203 F 
ATOM     48  F   UNL A   1      46.411  35.115  31.835  1.00  0.00    -0.200 F 
ATOM     49  C   UNL A   1      45.542  35.842  29.763  1.00  0.00     0.200 A 
ATOM     50  F   UNL A   1      44.634  36.526  27.694  1.00  0.00    -0.200 F 
ATOM     51  F   UNL A   1      45.918  37.100  30.031  1.00  0.00    -0.200 F 
ENDBRANCH  27  41
BRANCH  28  52
ATOM     52  C   UNL A   1      41.296  23.977  27.321  1.00  0.00     0.064 A 
ATOM     53  C   UNL A   1      40.194  23.785  26.476  1.00  0.00     0.173 A 
ATOM     54  C   UNL A   1      41.867  22.835  27.908  1.00  0.00     0.173 A 
ATOM     55  F   UNL A   1      39.594  24.842  25.908  1.00  0.00    -0.203 F 
ATOM     56  C   UNL A   1      39.658  22.514  26.262  1.00  0.00     0.198 A 
ATOM     57  C   UNL A   1      41.353  21.562  27.666  1.00  0.00     0.198 A 
ATOM     58  F   UNL A   1      42.919  22.958  28.729  1.00  0.00    -0.203 F 
ATOM     59  F   UNL A   1      38.558  22.372  25.510  1.00  0.00    -0.200 F 
ATOM     60  C   UNL A   1      40.240  21.404  26.855  1.00  0.00     0.200 A 
ATOM     61  F   UNL A   1      41.922  20.492  28.238  1.00  0.00    -0.200 F 
ATOM     62  F   UNL A   1      39.715  20.187  26.662  1.00  0.00    -0.200 F 
ENDBRANCH  28  52
BRANCH  40  63
ATOM     63  C   UNL A   1      47.226  27.345  25.846  1.00  0.00     0.064 A 
ATOM     64  C   UNL A   1      47.415  27.609  24.481  1.00  0.00     0.173 A 
ATOM     65  C   UNL A   1      48.270  26.720  26.546  1.00  0.00     0.173 A 
ATOM     66  F   UNL A   1      46.442  28.191  23.765  1.00  0.00    -0.203 F 
ATOM     67  C   UNL A   1      48.594  27.239  23.839  1.00  0.00     0.198 A 
ATOM     68  C   UNL A   1      49.461  26.385  25.910  1.00  0.00     0.198 A 
ATOM     69  F   UNL A   1      48.142  26.455  27.855  1.00  0.00    -0.203 F 
ATOM     70  F   UNL A   1      48.735  27.457  22.525  1.00  0.00    -0.200 F 
ATOM     71  C   UNL A   1      49.619  26.638  24.556  1.00  0.00     0.200 A 
ATOM     72  F   UNL A   1      50.455  25.821  26.608  1.00  0.00    -0.200 F 
ATOM     73  F   UNL A   1      50.758  26.295  23.939  1.00  0.00    -0.200 F 
ENDBRANCH  40  63
ENDBRANCH  14  15
ENDBRANCH   7   9
ENDBRANCH   6   7
ENDBRANCH   5   6
ENDBRANCH   4   5
ENDBRANCH   3   4
ENDBRANCH   2   3
ENDBRANCH   1   2
BRANCH   1  74
ATOM     74  O   UNL A   1      33.959  30.046  26.910  1.00  0.00    -0.376 OA
BRANCH  74  75
ATOM     75  C   UNL A   1      33.705  28.643  26.989  1.00  0.00     0.202 C 
BRANCH  75  76
ATOM     76  C   UNL A   1      33.332  27.979  25.648  1.00  0.00     0.261 C 
BRANCH  76  77
ATOM     77  O   UNL A   1      31.973  28.232  25.169  1.00  0.00    -0.463 OA
BRANCH  77  78
ATOM     78  C   UNL A   1      31.806  28.912  24.023  1.00  0.00     0.312 C 
ATOM     79  O   UNL A   1      32.733  29.043  23.220  1.00  0.00    -0.252 OA
BRANCH  78  80
ATOM     80  C   UNL A   1      30.441  29.569  23.698  1.00  0.00     0.147 C 
ATOM     81  C   UNL A   1      29.552  28.331  23.529  1.00  0.00     0.129 C 
ATOM     82  C   UNL A   1      29.766  30.416  22.578  1.00  0.00     0.157 C 
ATOM     83  C   UNL A   1      28.393  28.754  22.652  1.00  0.00     0.155 C 
ATOM     84  C   UNL A   1      28.467  30.968  23.107  1.00  0.00     0.004 C 
ATOM     85  O   UNL A   1      29.177  29.458  21.658  1.00  0.00    -0.365 OA
ATOM     86  C   UNL A   1      27.638  29.922  23.213  1.00  0.00     0.004 C 
BRANCH  81  87
ATOM     87  C   UNL A   1      30.279  27.217  22.809  1.00  0.00     0.231 C 
ATOM     88  O   UNL A   1      30.643  27.468  21.644  1.00  0.00    -0.274 OA
ATOM     89  N   UNL A   1      30.668  25.993  23.238  1.00  0.00    -0.325 N 
ATOM     90  H   UNL A   1      31.068  25.595  22.432  1.00  0.00     0.169 HD
BRANCH  89  91
ATOM     91  C   UNL A   1      30.823  24.944  24.225  1.00  0.00     0.044 A 
ATOM     92  C   UNL A   1      30.132  25.437  25.383  1.00  0.00     0.026 A 
ATOM     93  C   UNL A   1      31.393  23.623  24.377  1.00  0.00    -0.020 A 
ATOM     94  C   UNL A   1      29.865  24.709  26.537  1.00  0.00     0.002 A 
ATOM     95  C   UNL A   1      31.052  22.902  25.568  1.00  0.00     0.006 A 
ATOM     96  C   UNL A   1      30.299  23.415  26.613  1.00  0.00     0.000 A 
BRANCH  93  97
ATOM     97  C   UNL A   1      32.271  22.709  23.499  1.00  0.00     0.073 C 
BRANCH  97  98
ATOM     98  C   UNL A   1      33.297  21.698  24.079  1.00  0.00    -0.044 A 
ATOM     99  C   UNL A   1      34.618  22.074  24.374  1.00  0.00     0.004 A 
ATOM    100  C   UNL A   1      33.018  20.326  24.174  1.00  0.00     0.004 A 
ATOM    101  C   UNL A   1      35.579  21.175  24.854  1.00  0.00     0.000 A 
ATOM    102  C   UNL A   1      33.986  19.407  24.620  1.00  0.00     0.000 A 
ATOM    103  C   UNL A   1      35.260  19.834  24.982  1.00  0.00     0.000 A 
ENDBRANCH  97  98
ENDBRANCH  93  97
ENDBRANCH  89  91
ENDBRANCH  81  87
ENDBRANCH  78  80
ENDBRANCH  77  78
ENDBRANCH  76  77
ENDBRANCH  75  76
ENDBRANCH  74  75
ENDBRANCH   1  74
TORSDOF 21
ENDMDL
MODEL 3
REMARK VINA RESULT:     -10.8      3.896      6.360
REMARK SMILES O=C(OCCOCCOCCOC(=O)[C@@H]1[C@H](C(=O)Nc2ccccc2Cc2ccccc2)[C@H]2C=C[C@@H]1O2)c1ccc(-c2c3nc(c(-c4c(F)c(F)c(F)c(F)c4F)c4ccc([nH]4)c(-c4c(F)c(F)c(F)c(F)c4F)c4nc(c(-c5c(F)c(F)c(F)c(F)c5F)c5ccc2[nH]5)C=C4)C=C3)cc1
REMARK SMILES IDX 8 1 7 2 6 3 5 4 4 5 3 6 2 7 1 8 38 9 39 10 100 11 40 12
REMARK SMILES IDX 99 13 41 14 42 15 43 16 93 17 44 18 98 19 92 20 94 21 45 22
REMARK SMILES IDX 97 23 91 24 90 25 46 27 78 28 58 29 77 30 59 31 62 32 76 33
REMARK SMILES IDX 95 34 60 35 61 36 75 38 96 39 63 40 47 41 48 42 56 43 49 44
REMARK SMILES IDX 50 45 54 46 57 47 51 48 52 49 55 50 53 51 79 52 80 53 88 54
REMARK SMILES IDX 81 55 82 56 86 57 89 58 83 59 84 60 87 61 85 62 64 63 65 64
REMARK SMILES IDX 73 65 66 66 67 67 71 68 74 69 68 70 69 71 72 72 70 73 9 74
REMARK SMILES IDX 10 75 11 76 12 77 13 78 14 79 15 80 16 81 36 82 33 83 35 84
REMARK SMILES IDX 37 85 34 86 17 87 18 88 19 89 20 91 21 92 25 93 22 94 24 95
REMARK SMILES IDX 23 96 26 97 27 98 28 99 32 100 29 101 31 102 30 103
REMARK H PARENT 94 26 62 37 19 90
REMARK Flexibility Score: inf
ROOT
ATOM      1  C   UNL A   1      33.047  27.754  22.380  1.00  0.00     0.188 C 
ENDROOT
BRANCH   1   2
ATOM      2  C   UNL A   1      34.095  28.607  23.058  1.00  0.00     0.188 C 
BRANCH   2   3
ATOM      3  O   UNL A   1      33.987  28.462  24.482  1.00  0.00    -0.376 OA
BRANCH   3   4
ATOM      4  C   UNL A   1      33.377  29.591  25.101  1.00  0.00     0.202 C 
BRANCH   4   5
ATOM      5  C   UNL A   1      33.474  29.584  26.631  1.00  0.00     0.261 C 
BRANCH   5   6
ATOM      6  O   UNL A   1      33.978  30.824  27.158  1.00  0.00    -0.460 OA
BRANCH   6   7
ATOM      7  C   UNL A   1      34.796  31.041  28.211  1.00  0.00     0.338 C 
ATOM      8  O   UNL A   1      34.483  31.945  29.002  1.00  0.00    -0.246 OA
BRANCH   7   9
ATOM      9  C   UNL A   1      36.056  30.284  28.515  1.00  0.00     0.060 A 
ATOM     10  C   UNL A   1      36.332  29.559  29.677  1.00  0.00     0.016 A 
ATOM     11  C   UNL A   1      37.035  30.274  27.501  1.00  0.00     0.016 A 
ATOM     12  C   UNL A   1      37.572  28.935  29.872  1.00  0.00     0.010 A 
ATOM     13  C   UNL A   1      38.265  29.631  27.675  1.00  0.00     0.010 A 
ATOM     14  C   UNL A   1      38.557  28.999  28.887  1.00  0.00    -0.014 A 
BRANCH  14  15
ATOM     15  C   UNL A   1      39.945  28.589  29.204  1.00  0.00     0.031 A 
ATOM     16  C   UNL A   1      40.772  29.514  30.048  1.00  0.00     0.074 A 
ATOM     17  C   UNL A   1      40.442  27.409  28.798  1.00  0.00     0.049 A 
ATOM     18  N   UNL A   1      42.026  29.418  30.404  1.00  0.00    -0.248 NA
ATOM     19  C   UNL A   1      40.083  30.705  30.575  1.00  0.00     0.031 C 
ATOM     20  C   UNL A   1      39.696  26.398  28.058  1.00  0.00     0.029 A 
ATOM     21  N   UNL A   1      41.691  26.860  28.946  1.00  0.00    -0.354 N 
ATOM     22  C   UNL A   1      42.276  30.538  31.186  1.00  0.00     0.074 A 
ATOM     23  C   UNL A   1      41.055  31.308  31.240  1.00  0.00     0.031 C 
ATOM     24  C   UNL A   1      40.505  25.356  27.795  1.00  0.00     0.029 A 
ATOM     25  C   UNL A   1      41.838  25.647  28.317  1.00  0.00     0.049 A 
ATOM     26  H   UNL A   1      42.414  27.294  29.454  1.00  0.00     0.167 HD
ATOM     27  C   UNL A   1      43.427  30.887  31.804  1.00  0.00     0.037 A 
ATOM     28  C   UNL A   1      42.935  24.880  28.158  1.00  0.00     0.037 A 
ATOM     29  C   UNL A   1      44.640  30.119  31.731  1.00  0.00     0.049 A 
ATOM     30  C   UNL A   1      44.235  25.352  28.765  1.00  0.00     0.074 A 
ATOM     31  C   UNL A   1      45.872  30.396  32.291  1.00  0.00     0.029 A 
ATOM     32  N   UNL A   1      44.768  28.920  31.042  1.00  0.00    -0.354 N 
ATOM     33  N   UNL A   1      44.472  26.416  29.496  1.00  0.00    -0.248 NA
ATOM     34  C   UNL A   1      45.423  24.520  28.524  1.00  0.00     0.031 C 
ATOM     35  C   UNL A   1      46.763  29.393  31.893  1.00  0.00     0.029 A 
ATOM     36  C   UNL A   1      46.069  28.458  31.141  1.00  0.00     0.049 A 
ATOM     37  H   UNL A   1      44.042  28.466  30.557  1.00  0.00     0.167 HD
ATOM     38  C   UNL A   1      45.820  26.364  29.826  1.00  0.00     0.074 A 
ATOM     39  C   UNL A   1      46.347  25.154  29.230  1.00  0.00     0.031 C 
ATOM     40  C   UNL A   1      46.560  27.238  30.552  1.00  0.00     0.037 A 
BRANCH  27  41
ATOM     41  C   UNL A   1      43.437  32.181  32.560  1.00  0.00     0.064 A 
ATOM     42  C   UNL A   1      43.774  33.397  31.946  1.00  0.00     0.173 A 
ATOM     43  C   UNL A   1      43.100  32.204  33.922  1.00  0.00     0.173 A 
ATOM     44  F   UNL A   1      44.130  33.425  30.653  1.00  0.00    -0.203 F 
ATOM     45  C   UNL A   1      43.793  34.584  32.674  1.00  0.00     0.198 A 
ATOM     46  C   UNL A   1      43.093  33.396  34.639  1.00  0.00     0.198 A 
ATOM     47  F   UNL A   1      42.777  31.067  34.557  1.00  0.00    -0.203 F 
ATOM     48  F   UNL A   1      44.167  35.726  32.080  1.00  0.00    -0.200 F 
ATOM     49  C   UNL A   1      43.446  34.584  34.018  1.00  0.00     0.200 A 
ATOM     50  F   UNL A   1      42.752  33.395  35.935  1.00  0.00    -0.200 F 
ATOM     51  F   UNL A   1      43.463  35.728  34.715  1.00  0.00    -0.200 F 
ENDBRANCH  27  41
BRANCH  28  52
ATOM     52  C   UNL A   1      42.881  23.622  27.361  1.00  0.00     0.064 A 
ATOM     53  C   UNL A   1      42.416  22.423  27.918  1.00  0.00     0.173 A 
ATOM     54  C   UNL A   1      43.358  23.579  26.040  1.00  0.00     0.173 A 
ATOM     55  F   UNL A   1      41.973  22.400  29.184  1.00  0.00    -0.203 F 
ATOM     56  C   UNL A   1      42.466  21.225  27.203  1.00  0.00     0.198 A 
ATOM     57  C   UNL A   1      43.374  22.389  25.314  1.00  0.00     0.198 A 
ATOM     58  F   UNL A   1      43.820  24.694  25.457  1.00  0.00    -0.203 F 
ATOM     59  F   UNL A   1      42.084  20.082  27.789  1.00  0.00    -0.200 F 
ATOM     60  C   UNL A   1      42.942  21.210  25.901  1.00  0.00     0.200 A 
ATOM     61  F   UNL A   1      43.832  22.382  24.055  1.00  0.00    -0.200 F 
ATOM     62  F   UNL A   1      43.004  20.058  25.221  1.00  0.00    -0.200 F 
ENDBRANCH  28  52
BRANCH  40  63
ATOM     63  C   UNL A   1      48.002  26.893  30.788  1.00  0.00     0.064 A 
ATOM     64  C   UNL A   1      48.399  26.043  31.831  1.00  0.00     0.173 A 
ATOM     65  C   UNL A   1      48.995  27.379  29.922  1.00  0.00     0.173 A 
ATOM     66  F   UNL A   1      47.491  25.563  32.693  1.00  0.00    -0.203 F 
ATOM     67  C   UNL A   1      49.739  25.713  32.013  1.00  0.00     0.198 A 
ATOM     68  C   UNL A   1      50.329  27.018  30.086  1.00  0.00     0.198 A 
ATOM     69  F   UNL A   1      48.666  28.188  28.903  1.00  0.00    -0.203 F 
ATOM     70  F   UNL A   1      50.102  24.939  33.044  1.00  0.00    -0.200 F 
ATOM     71  C   UNL A   1      50.700  26.192  31.135  1.00  0.00     0.200 A 
ATOM     72  F   UNL A   1      51.252  27.468  29.226  1.00  0.00    -0.200 F 
ATOM     73  F   UNL A   1      51.988  25.863  31.305  1.00  0.00    -0.200 F 
ENDBRANCH  40  63
ENDBRANCH  14  15
ENDBRANCH   7   9
ENDBRANCH   6   7
ENDBRANCH   5   6
ENDBRANCH   4   5
ENDBRANCH   3   4
ENDBRANCH   2   3
ENDBRANCH   1   2
BRANCH   1  74
ATOM     74  O   UNL A   1      33.574  26.635  21.678  1.00  0.00    -0.376 OA
BRANCH  74  75
ATOM     75  C   UNL A   1      33.804  25.483  22.489  1.00  0.00     0.202 C 
BRANCH  75  76
ATOM     76  C   UNL A   1      32.897  24.277  22.169  1.00  0.00     0.261 C 
BRANCH  76  77
ATOM     77  O   UNL A   1      32.658  23.350  23.276  1.00  0.00    -0.463 OA
BRANCH  77  78
ATOM     78  C   UNL A   1      31.575  23.531  24.049  1.00  0.00     0.312 C 
ATOM     79  O   UNL A   1      31.030  22.579  24.612  1.00  0.00    -0.252 OA
BRANCH  78  80
ATOM     80  C   UNL A   1      30.974  24.947  24.229  1.00  0.00     0.147 C 
ATOM     81  C   UNL A   1      31.883  25.516  25.324  1.00  0.00     0.129 C 
ATOM     82  C   UNL A   1      29.663  25.627  24.727  1.00  0.00     0.157 C 
ATOM     83  C   UNL A   1      31.092  26.606  26.013  1.00  0.00     0.155 C 
ATOM     84  C   UNL A   1      29.682  27.075  24.308  1.00  0.00     0.004 C 
ATOM     85  O   UNL A   1      29.856  25.863  26.148  1.00  0.00    -0.365 OA
ATOM     86  C   UNL A   1      30.616  27.666  25.064  1.00  0.00     0.004 C 
BRANCH  81  87
ATOM     87  C   UNL A   1      32.219  24.474  26.367  1.00  0.00     0.231 C 
ATOM     88  O   UNL A   1      31.411  24.368  27.310  1.00  0.00    -0.274 OA
ATOM     89  N   UNL A   1      33.229  23.574  26.426  1.00  0.00    -0.325 N 
ATOM     90  H   UNL A   1      33.079  23.132  27.292  1.00  0.00     0.169 HD
BRANCH  89  91
ATOM     91  C   UNL A   1      34.408  22.901  25.922  1.00  0.00     0.044 A 
ATOM     92  C   UNL A   1      35.307  23.966  25.572  1.00  0.00     0.026 A 
ATOM     93  C   UNL A   1      34.936  21.571  25.711  1.00  0.00    -0.020 A 
ATOM     94  C   UNL A   1      36.636  23.812  25.196  1.00  0.00     0.002 A 
ATOM     95  C   UNL A   1      36.323  21.470  25.363  1.00  0.00     0.006 A 
ATOM     96  C   UNL A   1      37.158  22.551  25.127  1.00  0.00     0.000 A 
BRANCH  93  97
ATOM     97  C   UNL A   1      34.370  20.143  25.840  1.00  0.00     0.073 C 
BRANCH  97  98
ATOM     98  C   UNL A   1      33.853  19.316  24.631  1.00  0.00    -0.044 A 
ATOM     99  C   UNL A   1      32.743  19.729  23.876  1.00  0.00     0.004 A 
ATOM    100  C   UNL A   1      34.350  18.037  24.337  1.00  0.00     0.004 A 
ATOM    101  C   UNL A   1      32.224  18.982  22.810  1.00  0.00     0.000 A 
ATOM    102  C   UNL A   1      33.814  17.261  23.292  1.00  0.00     0.000 A 
ATOM    103  C   UNL A   1      32.766  17.743  22.513  1.00  0.00     0.000 A 
ENDBRANCH  97  98
ENDBRANCH  93  97
ENDBRANCH  89  91
ENDBRANCH  81  87
ENDBRANCH  78  80
ENDBRANCH  77  78
ENDBRANCH  76  77
ENDBRANCH  75  76
ENDBRANCH  74  75
ENDBRANCH   1  74
TORSDOF 21
ENDMDL
