MODEL 1
REMARK VINA RESULT:     -12.1      0.000      0.000
REMARK SMILES COc1cccc(C(=O)/C=C(/Nc2cc(C)c(C)cc2[N+](=O)[O-])C(=O)OCCOCCOCCOC(=O)c2ccc(-c3c4nc(c(-c5c(F)c(F)c(F)c(F)c5F)c5ccc([nH]5)c(-c5c(F)c(F)c(F)c(F)c5F)c5nc(c(-c6c(F)c(F)c(F)c(F)c6F)c6ccc3[nH]6)C=C5)C=C4)cc2)c1
REMARK SMILES IDX 30 1 29 2 28 3 27 4 26 5 24 6 25 7 11 8 10 9 8 10 9 11 7 12
REMARK SMILES IDX 3 13 4 14 101 15 5 16 6 17 2 18 1 19 12 20 13 22 14 23 20 24
REMARK SMILES IDX 15 25 19 26 16 27 17 28 18 29 21 30 22 31 23 32 31 33 32 34
REMARK SMILES IDX 33 35 34 36 35 37 36 38 37 39 38 40 39 41 100 42 40 43 99 44
REMARK SMILES IDX 41 45 42 46 43 47 93 48 44 49 98 50 92 51 94 52 45 53 97 54
REMARK SMILES IDX 91 55 90 56 46 58 78 59 58 60 77 61 59 62 62 63 76 64 95 65
REMARK SMILES IDX 60 66 61 67 75 69 96 70 63 71 47 72 48 73 56 74 49 75 50 76
REMARK SMILES IDX 54 77 57 78 51 79 52 80 55 81 53 82 79 83 80 84 88 85 81 86
REMARK SMILES IDX 82 87 86 88 89 89 83 90 84 91 87 92 85 93 64 94 65 95 73 96
REMARK SMILES IDX 66 97 67 98 71 99 74 100 68 101 69 102 72 103 70 104
REMARK H PARENT 12 21 94 57 62 68
REMARK Flexibility Score: inf
ROOT
ATOM      1  C   UNL A   1      39.366  20.675  25.740  1.00  0.00     0.188 C 
ENDROOT
BRANCH   1   2
ATOM      2  O   UNL A   1      38.818  21.865  26.307  1.00  0.00    -0.376 OA
BRANCH   2   3
ATOM      3  C   UNL A   1      37.647  22.424  25.714  1.00  0.00     0.202 C 
BRANCH   3   4
ATOM      4  C   UNL A   1      37.044  21.566  24.622  1.00  0.00     0.261 C 
BRANCH   4   5
ATOM      5  O   UNL A   1      35.818  21.103  25.147  1.00  0.00    -0.459 OA
BRANCH   5   6
ATOM      6  C   UNL A   1      34.958  22.047  25.563  1.00  0.00     0.354 C 
ATOM      7  O   UNL A   1      34.679  22.387  26.692  1.00  0.00    -0.244 OA
BRANCH   6   8
ATOM      8  C   UNL A   1      34.260  22.479  24.350  1.00  0.00     0.129 C 
ATOM      9  C   UNL A   1      33.206  21.703  24.022  1.00  0.00     0.086 C 
BRANCH   9  10
ATOM     10  C   UNL A   1      32.491  20.460  24.570  1.00  0.00     0.188 C 
ATOM     11  O   UNL A   1      31.623  20.695  25.421  1.00  0.00    -0.289 OA
BRANCH  10  12
ATOM     12  C   UNL A   1      32.838  18.998  24.382  1.00  0.00     0.026 A 
ATOM     13  C   UNL A   1      33.139  16.658  25.060  1.00  0.00     0.119 A 
ATOM     14  C   UNL A   1      33.516  16.288  23.778  1.00  0.00     0.046 A 
ATOM     15  C   UNL A   1      32.904  18.012  25.365  1.00  0.00     0.058 A 
ATOM     16  C   UNL A   1      33.626  17.275  22.805  1.00  0.00     0.005 A 
ATOM     17  C   UNL A   1      33.271  18.603  23.101  1.00  0.00     0.012 A 
BRANCH  13  18
ATOM     18  O   UNL A   1      33.134  15.761  26.095  1.00  0.00    -0.497 OA
ATOM     19  C   UNL A   1      32.098  14.777  26.016  1.00  0.00     0.278 C 
ENDBRANCH  13  18
ENDBRANCH  10  12
ENDBRANCH   9  10
BRANCH   8  20
ATOM     20  N   UNL A   1      34.711  23.692  23.776  1.00  0.00    -0.344 N 
ATOM     21  H   UNL A   1      35.571  23.671  23.298  1.00  0.00     0.167 HD
BRANCH  20  22
ATOM     22  C   UNL A   1      34.018  24.953  23.833  1.00  0.00     0.118 A 
ATOM     23  C   UNL A   1      34.068  25.684  25.038  1.00  0.00     0.037 A 
ATOM     24  C   UNL A   1      33.519  25.666  22.719  1.00  0.00     0.292 A 
ATOM     25  C   UNL A   1      33.787  27.078  25.095  1.00  0.00    -0.046 A 
ATOM     26  C   UNL A   1      33.382  27.068  22.732  1.00  0.00     0.091 A 
ATOM     27  C   UNL A   1      33.708  27.754  26.440  1.00  0.00     0.045 C 
ATOM     28  C   UNL A   1      33.586  27.795  23.904  1.00  0.00    -0.041 A 
ATOM     29  C   UNL A   1      33.514  29.298  23.841  1.00  0.00     0.045 C 
BRANCH  24  30
ATOM     30  N   UNL A   1      33.024  24.981  21.521  1.00  0.00     0.064 N 
ATOM     31  O   UNL A   1      33.512  23.870  21.260  1.00  0.00    -0.258 OA
ATOM     32  O   UNL A   1      32.210  25.585  20.810  1.00  0.00    -0.258 OA
ENDBRANCH  24  30
ENDBRANCH  20  22
ENDBRANCH   8  20
ENDBRANCH   6   8
ENDBRANCH   5   6
ENDBRANCH   4   5
ENDBRANCH   3   4
ENDBRANCH   2   3
ENDBRANCH   1   2
BRANCH   1  33
ATOM     33  C   UNL A   1      40.692  20.105  26.274  1.00  0.00     0.188 C 
BRANCH  33  34
ATOM     34  O   UNL A   1      41.762  19.814  25.384  1.00  0.00    -0.376 OA
BRANCH  34  35
ATOM     35  C   UNL A   1      43.082  20.236  25.696  1.00  0.00     0.202 C 
BRANCH  35  36
ATOM     36  C   UNL A   1      43.238  21.693  26.112  1.00  0.00     0.261 C 
BRANCH  36  37
ATOM     37  O   UNL A   1      42.732  22.586  25.108  1.00  0.00    -0.460 OA
BRANCH  37  38
ATOM     38  C   UNL A   1      43.415  23.744  24.979  1.00  0.00     0.338 C 
ATOM     39  O   UNL A   1      44.396  23.956  24.286  1.00  0.00    -0.246 OA
BRANCH  38  40
ATOM     40  C   UNL A   1      42.725  24.815  25.717  1.00  0.00     0.060 A 
ATOM     41  C   UNL A   1      43.445  25.985  25.984  1.00  0.00     0.016 A 
ATOM     42  C   UNL A   1      41.437  24.633  26.227  1.00  0.00     0.016 A 
ATOM     43  C   UNL A   1      42.918  26.939  26.846  1.00  0.00     0.010 A 
ATOM     44  C   UNL A   1      40.911  25.587  27.099  1.00  0.00     0.010 A 
ATOM     45  C   UNL A   1      41.679  26.710  27.459  1.00  0.00    -0.014 A 
BRANCH  45  46
ATOM     46  C   UNL A   1      41.305  27.523  28.638  1.00  0.00     0.031 A 
ATOM     47  C   UNL A   1      42.131  27.387  29.887  1.00  0.00     0.074 A 
ATOM     48  C   UNL A   1      40.290  28.398  28.580  1.00  0.00     0.049 A 
ATOM     49  N   UNL A   1      42.005  27.998  31.037  1.00  0.00    -0.248 NA
ATOM     50  C   UNL A   1      43.256  26.439  29.831  1.00  0.00     0.031 C 
ATOM     51  C   UNL A   1      39.472  28.652  27.400  1.00  0.00     0.029 A 
ATOM     52  N   UNL A   1      39.776  29.238  29.533  1.00  0.00    -0.354 N 
ATOM     53  C   UNL A   1      43.028  27.508  31.837  1.00  0.00     0.074 A 
ATOM     54  C   UNL A   1      43.745  26.523  31.059  1.00  0.00     0.031 C 
ATOM     55  C   UNL A   1      38.544  29.576  27.698  1.00  0.00     0.029 A 
ATOM     56  C   UNL A   1      38.693  29.960  29.098  1.00  0.00     0.049 A 
ATOM     57  H   UNL A   1      40.148  29.315  30.441  1.00  0.00     0.167 HD
ATOM     58  C   UNL A   1      43.344  27.859  33.106  1.00  0.00     0.037 A 
ATOM     59  C   UNL A   1      37.911  30.828  29.765  1.00  0.00     0.037 A 
ATOM     60  C   UNL A   1      42.620  28.841  33.869  1.00  0.00     0.049 A 
ATOM     61  C   UNL A   1      38.242  31.141  31.202  1.00  0.00     0.074 A 
ATOM     62  C   UNL A   1      42.864  29.287  35.156  1.00  0.00     0.029 A 
ATOM     63  N   UNL A   1      41.500  29.523  33.415  1.00  0.00    -0.354 N 
ATOM     64  N   UNL A   1      39.230  30.699  31.943  1.00  0.00    -0.248 NA
ATOM     65  C   UNL A   1      37.356  32.090  31.888  1.00  0.00     0.031 C 
ATOM     66  C   UNL A   1      41.853  30.187  35.503  1.00  0.00     0.029 A 
ATOM     67  C   UNL A   1      41.023  30.363  34.409  1.00  0.00     0.049 A 
ATOM     68  H   UNL A   1      41.104  29.426  32.518  1.00  0.00     0.167 HD
ATOM     69  C   UNL A   1      39.112  31.348  33.165  1.00  0.00     0.074 A 
ATOM     70  C   UNL A   1      37.964  32.226  33.058  1.00  0.00     0.031 C 
ATOM     71  C   UNL A   1      39.881  31.234  34.277  1.00  0.00     0.037 A 
BRANCH  58  72
ATOM     72  C   UNL A   1      44.496  27.151  33.759  1.00  0.00     0.064 A 
ATOM     73  C   UNL A   1      44.332  25.942  34.453  1.00  0.00     0.173 A 
ATOM     74  C   UNL A   1      45.794  27.675  33.657  1.00  0.00     0.173 A 
ATOM     75  F   UNL A   1      43.110  25.407  34.596  1.00  0.00    -0.203 F 
ATOM     76  C   UNL A   1      45.419  25.298  35.039  1.00  0.00     0.198 A 
ATOM     77  C   UNL A   1      46.883  27.012  34.215  1.00  0.00     0.198 A 
ATOM     78  F   UNL A   1      46.009  28.829  33.007  1.00  0.00    -0.203 F 
ATOM     79  F   UNL A   1      45.231  24.170  35.737  1.00  0.00    -0.200 F 
ATOM     80  C   UNL A   1      46.694  25.828  34.911  1.00  0.00     0.200 A 
ATOM     81  F   UNL A   1      48.116  27.520  34.081  1.00  0.00    -0.200 F 
ATOM     82  F   UNL A   1      47.741  25.201  35.465  1.00  0.00    -0.200 F 
ENDBRANCH  58  72
BRANCH  59  83
ATOM     83  C   UNL A   1      36.748  31.466  29.092  1.00  0.00     0.064 A 
ATOM     84  C   UNL A   1      36.746  32.836  28.793  1.00  0.00     0.173 A 
ATOM     85  C   UNL A   1      35.598  30.728  28.774  1.00  0.00     0.173 A 
ATOM     86  F   UNL A   1      37.812  33.590  29.100  1.00  0.00    -0.203 F 
ATOM     87  C   UNL A   1      35.625  33.450  28.237  1.00  0.00     0.198 A 
ATOM     88  C   UNL A   1      34.492  31.337  28.186  1.00  0.00     0.198 A 
ATOM     89  F   UNL A   1      35.547  29.415  29.040  1.00  0.00    -0.203 F 
ATOM     90  F   UNL A   1      35.625  34.773  28.029  1.00  0.00    -0.200 F 
ATOM     91  C   UNL A   1      34.500  32.700  27.931  1.00  0.00     0.200 A 
ATOM     92  F   UNL A   1      33.409  30.606  27.885  1.00  0.00    -0.200 F 
ATOM     93  F   UNL A   1      33.419  33.292  27.408  1.00  0.00    -0.200 F 
ENDBRANCH  59  83
BRANCH  71  94
ATOM     94  C   UNL A   1      39.537  32.123  35.440  1.00  0.00     0.064 A 
ATOM     95  C   UNL A   1      38.637  31.723  36.440  1.00  0.00     0.173 A 
ATOM     96  C   UNL A   1      40.124  33.393  35.556  1.00  0.00     0.173 A 
ATOM     97  F   UNL A   1      38.040  30.523  36.372  1.00  0.00    -0.203 F 
ATOM     98  C   UNL A   1      38.297  32.583  37.481  1.00  0.00     0.198 A 
ATOM     99  C   UNL A   1      39.814  34.232  36.622  1.00  0.00     0.198 A 
ATOM    100  F   UNL A   1      41.003  33.820  34.638  1.00  0.00    -0.203 F 
ATOM    101  F   UNL A   1      37.375  32.210  38.380  1.00  0.00    -0.200 F 
ATOM    102  C   UNL A   1      38.888  33.833  37.574  1.00  0.00     0.200 A 
ATOM    103  F   UNL A   1      40.403  35.432  36.721  1.00  0.00    -0.200 F 
ATOM    104  F   UNL A   1      38.558  34.659  38.576  1.00  0.00    -0.200 F 
ENDBRANCH  71  94
ENDBRANCH  45  46
ENDBRANCH  38  40
ENDBRANCH  37  38
ENDBRANCH  36  37
ENDBRANCH  35  36
ENDBRANCH  34  35
ENDBRANCH  33  34
ENDBRANCH   1  33
TORSDOF 23
ENDMDL
MODEL 2
REMARK VINA RESULT:     -11.4      3.681      9.351
REMARK SMILES COc1cccc(C(=O)/C=C(/Nc2cc(C)c(C)cc2[N+](=O)[O-])C(=O)OCCOCCOCCOC(=O)c2ccc(-c3c4nc(c(-c5c(F)c(F)c(F)c(F)c5F)c5ccc([nH]5)c(-c5c(F)c(F)c(F)c(F)c5F)c5nc(c(-c6c(F)c(F)c(F)c(F)c6F)c6ccc3[nH]6)C=C5)C=C4)cc2)c1
REMARK SMILES IDX 30 1 29 2 28 3 27 4 26 5 24 6 25 7 11 8 10 9 8 10 9 11 7 12
REMARK SMILES IDX 3 13 4 14 101 15 5 16 6 17 2 18 1 19 12 20 13 22 14 23 20 24
REMARK SMILES IDX 15 25 19 26 16 27 17 28 18 29 21 30 22 31 23 32 31 33 32 34
REMARK SMILES IDX 33 35 34 36 35 37 36 38 37 39 38 40 39 41 100 42 40 43 99 44
REMARK SMILES IDX 41 45 42 46 43 47 93 48 44 49 98 50 92 51 94 52 45 53 97 54
REMARK SMILES IDX 91 55 90 56 46 58 78 59 58 60 77 61 59 62 62 63 76 64 95 65
REMARK SMILES IDX 60 66 61 67 75 69 96 70 63 71 47 72 48 73 56 74 49 75 50 76
REMARK SMILES IDX 54 77 57 78 51 79 52 80 55 81 53 82 79 83 80 84 88 85 81 86
REMARK SMILES IDX 82 87 86 88 89 89 83 90 84 91 87 92 85 93 64 94 65 95 73 96
REMARK SMILES IDX 66 97 67 98 71 99 74 100 68 101 69 102 72 103 70 104
REMARK H PARENT 12 21 94 57 62 68
REMARK Flexibility Score: inf
ROOT
ATOM      1  C   UNL A   1      34.583  29.938  26.907  1.00  0.00     0.188 C 
ENDROOT
BRANCH   1   2
ATOM      2  O   UNL A   1      33.603  28.902  26.984  1.00  0.00    -0.376 OA
BRANCH   2   3
ATOM      3  C   UNL A   1      32.251  29.264  27.266  1.00  0.00     0.202 C 
BRANCH   3   4
ATOM      4  C   UNL A   1      31.340  28.082  27.513  1.00  0.00     0.261 C 
BRANCH   4   5
ATOM      5  O   UNL A   1      31.911  27.014  26.787  1.00  0.00    -0.459 OA
BRANCH   5   6
ATOM      6  C   UNL A   1      31.068  26.296  26.028  1.00  0.00     0.354 C 
ATOM      7  O   UNL A   1      29.932  25.945  26.264  1.00  0.00    -0.244 OA
BRANCH   6   8
ATOM      8  C   UNL A   1      31.875  25.846  24.892  1.00  0.00     0.129 C 
ATOM      9  C   UNL A   1      32.050  26.787  23.941  1.00  0.00     0.086 C 
BRANCH   9  10
ATOM     10  C   UNL A   1      31.644  28.247  23.693  1.00  0.00     0.188 C 
ATOM     11  O   UNL A   1      32.555  29.071  23.851  1.00  0.00    -0.289 OA
BRANCH  10  12
ATOM     12  C   UNL A   1      30.262  28.834  23.498  1.00  0.00     0.026 A 
ATOM     13  C   UNL A   1      28.580  30.617  23.366  1.00  0.00     0.119 A 
ATOM     14  C   UNL A   1      27.576  29.710  23.064  1.00  0.00     0.046 A 
ATOM     15  C   UNL A   1      29.876  30.162  23.674  1.00  0.00     0.058 A 
ATOM     16  C   UNL A   1      27.887  28.355  23.046  1.00  0.00     0.005 A 
ATOM     17  C   UNL A   1      29.213  27.931  23.239  1.00  0.00     0.012 A 
BRANCH  13  18
ATOM     18  O   UNL A   1      28.318  31.952  23.526  1.00  0.00    -0.497 OA
ATOM     19  C   UNL A   1      28.715  32.767  22.420  1.00  0.00     0.278 C 
ENDBRANCH  13  18
ENDBRANCH  10  12
ENDBRANCH   9  10
BRANCH   8  20
ATOM     20  N   UNL A   1      32.442  24.555  25.009  1.00  0.00    -0.344 N 
ATOM     21  H   UNL A   1      31.883  23.852  25.413  1.00  0.00     0.167 HD
BRANCH  20  22
ATOM     22  C   UNL A   1      33.768  24.182  24.590  1.00  0.00     0.118 A 
ATOM     23  C   UNL A   1      34.832  24.382  25.494  1.00  0.00     0.037 A 
ATOM     24  C   UNL A   1      34.079  23.381  23.467  1.00  0.00     0.292 A 
ATOM     25  C   UNL A   1      36.077  23.703  25.368  1.00  0.00    -0.046 A 
ATOM     26  C   UNL A   1      35.246  22.594  23.412  1.00  0.00     0.091 A 
ATOM     27  C   UNL A   1      37.214  24.087  26.279  1.00  0.00     0.045 C 
ATOM     28  C   UNL A   1      36.223  22.695  24.402  1.00  0.00    -0.041 A 
ATOM     29  C   UNL A   1      37.407  21.767  24.342  1.00  0.00     0.045 C 
BRANCH  24  30
ATOM     30  N   UNL A   1      33.256  23.398  22.254  1.00  0.00     0.064 N 
ATOM     31  O   UNL A   1      33.097  24.493  21.690  1.00  0.00    -0.258 OA
ATOM     32  O   UNL A   1      32.714  22.338  21.913  1.00  0.00    -0.258 OA
ENDBRANCH  24  30
ENDBRANCH  20  22
ENDBRANCH   8  20
ENDBRANCH   6   8
ENDBRANCH   5   6
ENDBRANCH   4   5
ENDBRANCH   3   4
ENDBRANCH   2   3
ENDBRANCH   1   2
BRANCH   1  33
ATOM     33  C   UNL A   1      34.518  31.135  27.872  1.00  0.00     0.188 C 
BRANCH  33  34
ATOM     34  O   UNL A   1      34.168  32.428  27.393  1.00  0.00    -0.376 OA
BRANCH  34  35
ATOM     35  C   UNL A   1      32.916  33.001  27.745  1.00  0.00     0.202 C 
BRANCH  35  36
ATOM     36  C   UNL A   1      32.936  34.480  28.110  1.00  0.00     0.261 C 
BRANCH  36  37
ATOM     37  O   UNL A   1      32.595  34.688  29.488  1.00  0.00    -0.460 OA
BRANCH  37  38
ATOM     38  C   UNL A   1      33.601  35.155  30.260  1.00  0.00     0.338 C 
ATOM     39  O   UNL A   1      33.607  36.165  30.942  1.00  0.00    -0.246 OA
BRANCH  38  40
ATOM     40  C   UNL A   1      34.706  34.181  30.282  1.00  0.00     0.060 A 
ATOM     41  C   UNL A   1      34.521  33.009  31.025  1.00  0.00     0.016 A 
ATOM     42  C   UNL A   1      35.933  34.461  29.676  1.00  0.00     0.016 A 
ATOM     43  C   UNL A   1      35.595  32.156  31.247  1.00  0.00     0.010 A 
ATOM     44  C   UNL A   1      37.013  33.608  29.906  1.00  0.00     0.010 A 
ATOM     45  C   UNL A   1      36.860  32.489  30.745  1.00  0.00    -0.014 A 
BRANCH  45  46
ATOM     46  C   UNL A   1      38.050  31.798  31.291  1.00  0.00     0.031 A 
ATOM     47  C   UNL A   1      38.494  32.140  32.686  1.00  0.00     0.074 A 
ATOM     48  C   UNL A   1      38.684  30.851  30.583  1.00  0.00     0.049 A 
ATOM     49  N   UNL A   1      39.495  31.662  33.381  1.00  0.00    -0.248 NA
ATOM     50  C   UNL A   1      37.698  33.153  33.400  1.00  0.00     0.031 C 
ATOM     51  C   UNL A   1      38.294  30.401  29.253  1.00  0.00     0.029 A 
ATOM     52  N   UNL A   1      39.787  30.096  30.885  1.00  0.00    -0.354 N 
ATOM     53  C   UNL A   1      39.449  32.316  34.604  1.00  0.00     0.074 A 
ATOM     54  C   UNL A   1      38.347  33.251  34.550  1.00  0.00     0.031 C 
ATOM     55  C   UNL A   1      39.153  29.456  28.838  1.00  0.00     0.029 A 
ATOM     56  C   UNL A   1      40.165  29.252  29.870  1.00  0.00     0.049 A 
ATOM     57  H   UNL A   1      40.262  30.155  31.745  1.00  0.00     0.167 HD
ATOM     58  C   UNL A   1      40.252  32.143  35.680  1.00  0.00     0.037 A 
ATOM     59  C   UNL A   1      41.216  28.416  29.791  1.00  0.00     0.037 A 
ATOM     60  C   UNL A   1      41.347  31.209  35.719  1.00  0.00     0.049 A 
ATOM     61  C   UNL A   1      42.138  28.301  30.977  1.00  0.00     0.074 A 
ATOM     62  C   UNL A   1      42.214  30.938  36.763  1.00  0.00     0.029 A 
ATOM     63  N   UNL A   1      41.731  30.399  34.659  1.00  0.00    -0.354 N 
ATOM     64  N   UNL A   1      42.071  28.897  32.144  1.00  0.00    -0.248 NA
ATOM     65  C   UNL A   1      43.273  27.379  30.839  1.00  0.00     0.031 C 
ATOM     66  C   UNL A   1      43.162  30.015  36.313  1.00  0.00     0.029 A 
ATOM     67  C   UNL A   1      42.843  29.652  35.014  1.00  0.00     0.049 A 
ATOM     68  H   UNL A   1      41.279  30.360  33.785  1.00  0.00     0.167 HD
ATOM     69  C   UNL A   1      43.126  28.391  32.893  1.00  0.00     0.074 A 
ATOM     70  C   UNL A   1      43.806  27.426  32.052  1.00  0.00     0.031 C 
ATOM     71  C   UNL A   1      43.499  28.692  34.162  1.00  0.00     0.037 A 
BRANCH  58  72
ATOM     72  C   UNL A   1      40.002  33.003  36.884  1.00  0.00     0.064 A 
ATOM     73  C   UNL A   1      40.746  34.166  37.137  1.00  0.00     0.173 A 
ATOM     74  C   UNL A   1      38.974  32.676  37.782  1.00  0.00     0.173 A 
ATOM     75  F   UNL A   1      41.752  34.515  36.322  1.00  0.00    -0.203 F 
ATOM     76  C   UNL A   1      40.484  34.955  38.255  1.00  0.00     0.198 A 
ATOM     77  C   UNL A   1      38.694  33.486  38.879  1.00  0.00     0.198 A 
ATOM     78  F   UNL A   1      38.232  31.575  37.590  1.00  0.00    -0.203 F 
ATOM     79  F   UNL A   1      41.239  36.035  38.502  1.00  0.00    -0.200 F 
ATOM     80  C   UNL A   1      39.453  34.620  39.119  1.00  0.00     0.200 A 
ATOM     81  F   UNL A   1      37.689  33.166  39.707  1.00  0.00    -0.200 F 
ATOM     82  F   UNL A   1      39.195  35.388  40.187  1.00  0.00    -0.200 F 
ENDBRANCH  58  72
BRANCH  59  83
ATOM     83  C   UNL A   1      41.454  27.621  28.556  1.00  0.00     0.064 A 
ATOM     84  C   UNL A   1      42.328  28.077  27.559  1.00  0.00     0.173 A 
ATOM     85  C   UNL A   1      40.778  26.413  28.328  1.00  0.00     0.173 A 
ATOM     86  F   UNL A   1      42.980  29.239  27.719  1.00  0.00    -0.203 F 
ATOM     87  C   UNL A   1      42.489  27.374  26.367  1.00  0.00     0.198 A 
ATOM     88  C   UNL A   1      40.967  25.695  27.149  1.00  0.00     0.198 A 
ATOM     89  F   UNL A   1      39.929  25.934  29.248  1.00  0.00    -0.203 F 
ATOM     90  F   UNL A   1      43.277  27.869  25.402  1.00  0.00    -0.200 F 
ATOM     91  C   UNL A   1      41.811  26.182  26.164  1.00  0.00     0.200 A 
ATOM     92  F   UNL A   1      40.315  24.538  26.961  1.00  0.00    -0.200 F 
ATOM     93  F   UNL A   1      41.957  25.513  25.013  1.00  0.00    -0.200 F 
ENDBRANCH  59  83
BRANCH  71  94
ATOM     94  C   UNL A   1      44.661  27.925  34.732  1.00  0.00     0.064 A 
ATOM     95  C   UNL A   1      45.979  28.399  34.644  1.00  0.00     0.173 A 
ATOM     96  C   UNL A   1      44.448  26.698  35.380  1.00  0.00     0.173 A 
ATOM     97  F   UNL A   1      46.239  29.561  34.026  1.00  0.00    -0.203 F 
ATOM     98  C   UNL A   1      47.043  27.648  35.135  1.00  0.00     0.198 A 
ATOM     99  C   UNL A   1      45.511  25.971  35.908  1.00  0.00     0.198 A 
ATOM    100  F   UNL A   1      43.208  26.205  35.506  1.00  0.00    -0.203 F 
ATOM    101  F   UNL A   1      48.300  28.084  34.969  1.00  0.00    -0.200 F 
ATOM    102  C   UNL A   1      46.809  26.439  35.770  1.00  0.00     0.200 A 
ATOM    103  F   UNL A   1      45.280  24.813  36.541  1.00  0.00    -0.200 F 
ATOM    104  F   UNL A   1      47.835  25.718  36.241  1.00  0.00    -0.200 F 
ENDBRANCH  71  94
ENDBRANCH  45  46
ENDBRANCH  38  40
ENDBRANCH  37  38
ENDBRANCH  36  37
ENDBRANCH  35  36
ENDBRANCH  34  35
ENDBRANCH  33  34
ENDBRANCH   1  33
TORSDOF 23
ENDMDL
MODEL 3
REMARK VINA RESULT:     -11.2      4.008      9.560
REMARK SMILES COc1cccc(C(=O)/C=C(/Nc2cc(C)c(C)cc2[N+](=O)[O-])C(=O)OCCOCCOCCOC(=O)c2ccc(-c3c4nc(c(-c5c(F)c(F)c(F)c(F)c5F)c5ccc([nH]5)c(-c5c(F)c(F)c(F)c(F)c5F)c5nc(c(-c6c(F)c(F)c(F)c(F)c6F)c6ccc3[nH]6)C=C5)C=C4)cc2)c1
REMARK SMILES IDX 30 1 29 2 28 3 27 4 26 5 24 6 25 7 11 8 10 9 8 10 9 11 7 12
REMARK SMILES IDX 3 13 4 14 101 15 5 16 6 17 2 18 1 19 12 20 13 22 14 23 20 24
REMARK SMILES IDX 15 25 19 26 16 27 17 28 18 29 21 30 22 31 23 32 31 33 32 34
REMARK SMILES IDX 33 35 34 36 35 37 36 38 37 39 38 40 39 41 100 42 40 43 99 44
REMARK SMILES IDX 41 45 42 46 43 47 93 48 44 49 98 50 92 51 94 52 45 53 97 54
REMARK SMILES IDX 91 55 90 56 46 58 78 59 58 60 77 61 59 62 62 63 76 64 95 65
REMARK SMILES IDX 60 66 61 67 75 69 96 70 63 71 47 72 48 73 56 74 49 75 50 76
REMARK SMILES IDX 54 77 57 78 51 79 52 80 55 81 53 82 79 83 80 84 88 85 81 86
REMARK SMILES IDX 82 87 86 88 89 89 83 90 84 91 87 92 85 93 64 94 65 95 73 96
REMARK SMILES IDX 66 97 67 98 71 99 74 100 68 101 69 102 72 103 70 104
REMARK H PARENT 12 21 94 57 62 68
REMARK Flexibility Score: inf
ROOT
ATOM      1  C   UNL A   1      34.039  28.379  23.270  1.00  0.00     0.188 C 
ENDROOT
BRANCH   1   2
ATOM      2  O   UNL A   1      33.709  26.999  23.110  1.00  0.00    -0.376 OA
BRANCH   2   3
ATOM      3  C   UNL A   1      33.148  26.573  21.868  1.00  0.00     0.202 C 
BRANCH   3   4
ATOM      4  C   UNL A   1      32.716  25.123  21.857  1.00  0.00     0.261 C 
BRANCH   4   5
ATOM      5  O   UNL A   1      32.625  24.751  23.216  1.00  0.00    -0.459 OA
BRANCH   5   6
ATOM      6  C   UNL A   1      31.623  23.916  23.536  1.00  0.00     0.354 C 
ATOM      7  O   UNL A   1      30.597  23.684  22.935  1.00  0.00    -0.244 OA
BRANCH   6   8
ATOM      8  C   UNL A   1      31.936  23.456  24.890  1.00  0.00     0.129 C 
ATOM      9  C   UNL A   1      31.679  24.370  25.849  1.00  0.00     0.086 C 
BRANCH   9  10
ATOM     10  C   UNL A   1      31.129  25.799  25.944  1.00  0.00     0.188 C 
ATOM     11  O   UNL A   1      31.254  26.330  27.056  1.00  0.00    -0.289 OA
BRANCH  10  12
ATOM     12  C   UNL A   1      30.275  26.562  24.952  1.00  0.00     0.026 A 
ATOM     13  C   UNL A   1      29.763  28.324  23.321  1.00  0.00     0.119 A 
ATOM     14  C   UNL A   1      28.490  27.818  23.108  1.00  0.00     0.046 A 
ATOM     15  C   UNL A   1      30.595  27.754  24.304  1.00  0.00     0.058 A 
ATOM     16  C   UNL A   1      28.071  26.728  23.861  1.00  0.00     0.005 A 
ATOM     17  C   UNL A   1      28.960  26.100  24.752  1.00  0.00     0.012 A 
BRANCH  13  18
ATOM     18  O   UNL A   1      30.194  29.471  22.708  1.00  0.00    -0.497 OA
ATOM     19  C   UNL A   1      29.187  30.145  21.947  1.00  0.00     0.278 C 
ENDBRANCH  13  18
ENDBRANCH  10  12
ENDBRANCH   9  10
BRANCH   8  20
ATOM     20  N   UNL A   1      32.342  22.105  25.006  1.00  0.00    -0.344 N 
ATOM     21  H   UNL A   1      31.690  21.469  25.381  1.00  0.00     0.167 HD
BRANCH  20  22
ATOM     22  C   UNL A   1      33.628  21.581  24.624  1.00  0.00     0.118 A 
ATOM     23  C   UNL A   1      34.668  22.498  24.365  1.00  0.00     0.037 A 
ATOM     24  C   UNL A   1      34.033  20.232  24.744  1.00  0.00     0.292 A 
ATOM     25  C   UNL A   1      36.040  22.117  24.381  1.00  0.00    -0.046 A 
ATOM     26  C   UNL A   1      35.385  19.872  24.908  1.00  0.00     0.091 A 
ATOM     27  C   UNL A   1      37.081  23.115  23.943  1.00  0.00     0.045 C 
ATOM     28  C   UNL A   1      36.396  20.825  24.800  1.00  0.00    -0.041 A 
ATOM     29  C   UNL A   1      37.816  20.403  25.073  1.00  0.00     0.045 C 
BRANCH  24  30
ATOM     30  N   UNL A   1      33.082  19.124  24.608  1.00  0.00     0.064 N 
ATOM     31  O   UNL A   1      33.415  18.176  23.879  1.00  0.00    -0.258 OA
ATOM     32  O   UNL A   1      31.983  19.239  25.167  1.00  0.00    -0.258 OA
ENDBRANCH  24  30
ENDBRANCH  20  22
ENDBRANCH   8  20
ENDBRANCH   6   8
ENDBRANCH   5   6
ENDBRANCH   4   5
ENDBRANCH   3   4
ENDBRANCH   2   3
ENDBRANCH   1   2
BRANCH   1  33
ATOM     33  C   UNL A   1      33.423  29.190  24.424  1.00  0.00     0.188 C 
BRANCH  33  34
ATOM     34  O   UNL A   1      33.887  29.014  25.757  1.00  0.00    -0.376 OA
BRANCH  34  35
ATOM     35  C   UNL A   1      33.049  29.355  26.852  1.00  0.00     0.202 C 
BRANCH  35  36
ATOM     36  C   UNL A   1      33.105  30.806  27.312  1.00  0.00     0.261 C 
BRANCH  36  37
ATOM     37  O   UNL A   1      34.452  31.300  27.339  1.00  0.00    -0.460 OA
BRANCH  37  38
ATOM     38  C   UNL A   1      35.024  31.329  28.562  1.00  0.00     0.338 C 
ATOM     39  O   UNL A   1      34.615  31.895  29.562  1.00  0.00    -0.246 OA
BRANCH  38  40
ATOM     40  C   UNL A   1      36.202  30.444  28.583  1.00  0.00     0.060 A 
ATOM     41  C   UNL A   1      36.490  29.780  29.781  1.00  0.00     0.016 A 
ATOM     42  C   UNL A   1      37.062  30.353  27.487  1.00  0.00     0.016 A 
ATOM     43  C   UNL A   1      37.693  29.098  29.920  1.00  0.00     0.010 A 
ATOM     44  C   UNL A   1      38.273  29.676  27.629  1.00  0.00     0.010 A 
ATOM     45  C   UNL A   1      38.617  29.102  28.867  1.00  0.00    -0.014 A 
BRANCH  45  46
ATOM     46  C   UNL A   1      40.018  28.713  29.145  1.00  0.00     0.031 A 
ATOM     47  C   UNL A   1      40.863  29.641  29.974  1.00  0.00     0.074 A 
ATOM     48  C   UNL A   1      40.507  27.539  28.718  1.00  0.00     0.049 A 
ATOM     49  N   UNL A   1      42.108  29.512  30.356  1.00  0.00    -0.248 NA
ATOM     50  C   UNL A   1      40.217  30.879  30.441  1.00  0.00     0.031 C 
ATOM     51  C   UNL A   1      39.752  26.544  27.967  1.00  0.00     0.029 A 
ATOM     52  N   UNL A   1      41.753  26.985  28.856  1.00  0.00    -0.354 N 
ATOM     53  C   UNL A   1      42.391  30.649  31.102  1.00  0.00     0.074 A 
ATOM     54  C   UNL A   1      41.205  31.475  31.091  1.00  0.00     0.031 C 
ATOM     55  C   UNL A   1      40.551  25.500  27.692  1.00  0.00     0.029 A 
ATOM     56  C   UNL A   1      41.880  25.768  28.233  1.00  0.00     0.049 A 
ATOM     57  H   UNL A   1      42.484  27.417  29.353  1.00  0.00     0.167 HD
ATOM     58  C   UNL A   1      43.538  30.966  31.747  1.00  0.00     0.037 A 
ATOM     59  C   UNL A   1      42.957  24.970  28.114  1.00  0.00     0.037 A 
ATOM     60  C   UNL A   1      44.712  30.134  31.748  1.00  0.00     0.049 A 
ATOM     61  C   UNL A   1      44.243  25.388  28.778  1.00  0.00     0.074 A 
ATOM     62  C   UNL A   1      45.923  30.349  32.383  1.00  0.00     0.029 A 
ATOM     63  N   UNL A   1      44.825  28.927  31.072  1.00  0.00    -0.354 N 
ATOM     64  N   UNL A   1      44.496  26.447  29.509  1.00  0.00    -0.248 NA
ATOM     65  C   UNL A   1      45.390  24.485  28.614  1.00  0.00     0.031 C 
ATOM     66  C   UNL A   1      46.788  29.308  32.035  1.00  0.00     0.029 A 
ATOM     67  C   UNL A   1      46.095  28.403  31.247  1.00  0.00     0.049 A 
ATOM     68  H   UNL A   1      44.106  28.505  30.546  1.00  0.00     0.167 HD
ATOM     69  C   UNL A   1      45.814  26.317  29.929  1.00  0.00     0.074 A 
ATOM     70  C   UNL A   1      46.300  25.066  29.381  1.00  0.00     0.031 C 
ATOM     71  C   UNL A   1      46.556  27.152  30.698  1.00  0.00     0.037 A 
BRANCH  58  72
ATOM     72  C   UNL A   1      43.591  32.281  32.469  1.00  0.00     0.064 A 
ATOM     73  C   UNL A   1      44.001  33.464  31.834  1.00  0.00     0.173 A 
ATOM     74  C   UNL A   1      43.191  32.364  33.812  1.00  0.00     0.173 A 
ATOM     75  F   UNL A   1      44.411  33.438  30.557  1.00  0.00    -0.203 F 
ATOM     76  C   UNL A   1      44.029  34.675  32.523  1.00  0.00     0.198 A 
ATOM     77  C   UNL A   1      43.189  33.582  34.487  1.00  0.00     0.198 A 
ATOM     78  F   UNL A   1      42.793  31.265  34.468  1.00  0.00    -0.203 F 
ATOM     79  F   UNL A   1      44.469  35.783  31.910  1.00  0.00    -0.200 F 
ATOM     80  C   UNL A   1      43.613  34.734  33.845  1.00  0.00     0.200 A 
ATOM     81  F   UNL A   1      42.776  33.638  35.761  1.00  0.00    -0.200 F 
ATOM     82  F   UNL A   1      43.629  35.902  34.502  1.00  0.00    -0.200 F 
ENDBRANCH  58  72
BRANCH  59  83
ATOM     83  C   UNL A   1      42.871  23.700  27.344  1.00  0.00     0.064 A 
ATOM     84  C   UNL A   1      42.419  22.517  27.945  1.00  0.00     0.173 A 
ATOM     85  C   UNL A   1      43.281  23.633  26.004  1.00  0.00     0.173 A 
ATOM     86  F   UNL A   1      42.038  22.523  29.232  1.00  0.00    -0.203 F 
ATOM     87  C   UNL A   1      42.415  21.310  27.249  1.00  0.00     0.198 A 
ATOM     88  C   UNL A   1      43.245  22.432  25.298  1.00  0.00     0.198 A 
ATOM     89  F   UNL A   1      43.724  24.735  25.381  1.00  0.00    -0.203 F 
ATOM     90  F   UNL A   1      42.045  20.183  27.871  1.00  0.00    -0.200 F 
ATOM     91  C   UNL A   1      42.825  21.269  25.925  1.00  0.00     0.200 A 
ATOM     92  F   UNL A   1      43.634  22.399  24.016  1.00  0.00    -0.200 F 
ATOM     93  F   UNL A   1      42.833  20.107  25.259  1.00  0.00    -0.200 F 
ENDBRANCH  59  83
BRANCH  71  94
ATOM     94  C   UNL A   1      47.952  26.707  31.038  1.00  0.00     0.064 A 
ATOM     95  C   UNL A   1      49.064  27.106  30.282  1.00  0.00     0.173 A 
ATOM     96  C   UNL A   1      48.177  25.870  32.143  1.00  0.00     0.173 A 
ATOM     97  F   UNL A   1      48.904  27.897  29.210  1.00  0.00    -0.203 F 
ATOM     98  C   UNL A   1      50.341  26.641  30.587  1.00  0.00     0.198 A 
ATOM     99  C   UNL A   1      49.461  25.443  32.470  1.00  0.00     0.198 A 
ATOM    100  F   UNL A   1      47.153  25.471  32.910  1.00  0.00    -0.203 F 
ATOM    101  F   UNL A   1      51.376  26.973  29.803  1.00  0.00    -0.200 F 
ATOM    102  C   UNL A   1      50.539  25.815  31.682  1.00  0.00     0.200 A 
ATOM    103  F   UNL A   1      49.652  24.662  33.542  1.00  0.00    -0.200 F 
ATOM    104  F   UNL A   1      51.768  25.369  31.973  1.00  0.00    -0.200 F 
ENDBRANCH  71  94
ENDBRANCH  45  46
ENDBRANCH  38  40
ENDBRANCH  37  38
ENDBRANCH  36  37
ENDBRANCH  35  36
ENDBRANCH  34  35
ENDBRANCH  33  34
ENDBRANCH   1  33
TORSDOF 23
ENDMDL
