MODEL 1
REMARK VINA RESULT:      -9.8      0.000      0.000
REMARK SMILES Cc1ccc(C(=O)OCCOCCOCCOC(=O)c2ccc(-c3c4nc(c(-c5c(F)c(F)c(F)c(F)c5F)c5ccc([nH]5)c(-c5c(F)c(F)c(F)c(F)c5F)c5nc(c(-c6c(F)c(F)c(F)c(F)c6F)c6ccc3[nH]6)C=C5)C=C4)cc2)cc1N1C(=O)/C(=C\c2nc3ccccc3n2C)SC1=S
REMARK SMILES IDX 12 1 11 2 10 3 9 4 8 5 6 6 7 7 5 8 1 9 2 10 3 11 84 12 4 13
REMARK SMILES IDX 83 14 85 15 86 16 101 17 87 18 88 19 100 20 102 21 89 22
REMARK SMILES IDX 90 23 91 24 98 25 92 26 97 27 99 28 93 29 96 30 94 31 95 32
REMARK SMILES IDX 13 33 14 34 15 35 16 36 17 37 18 38 19 39 20 40 21 41 82 42
REMARK SMILES IDX 22 43 81 44 23 45 24 46 25 47 75 48 26 49 80 50 74 51 76 52
REMARK SMILES IDX 27 53 79 54 73 55 72 56 28 58 60 59 40 60 59 61 41 62 44 63
REMARK SMILES IDX 58 64 77 65 42 66 43 67 57 69 78 70 45 71 29 72 30 73 38 74
REMARK SMILES IDX 31 75 32 76 36 77 39 78 33 79 34 80 37 81 35 82 61 83 62 84
REMARK SMILES IDX 70 85 63 86 64 87 68 88 71 89 65 90 66 91 69 92 67 93 46 94
REMARK SMILES IDX 47 95 55 96 48 97 49 98 53 99 56 100 50 101 51 102 54 103
REMARK SMILES IDX 52 104
REMARK H PARENT 76 57 44 68
REMARK Flexibility Score: inf
ROOT
ATOM      1  C   UNL A   1      41.149  33.267  38.431  1.00  0.00     0.188 C 
ENDROOT
BRANCH   1   2
ATOM      2  O   UNL A   1      40.074  32.339  38.364  1.00  0.00    -0.376 OA
BRANCH   2   3
ATOM      3  C   UNL A   1      38.748  32.692  37.998  1.00  0.00     0.202 C 
BRANCH   3   4
ATOM      4  C   UNL A   1      38.561  34.203  37.618  1.00  0.00     0.261 C 
BRANCH   4   5
ATOM      5  O   UNL A   1      38.573  34.561  36.175  1.00  0.00    -0.460 OA
BRANCH   5   6
ATOM      6  C   UNL A   1      39.502  35.252  35.431  1.00  0.00     0.338 C 
ATOM      7  O   UNL A   1      39.776  36.421  35.660  1.00  0.00    -0.246 OA
BRANCH   6   8
ATOM      8  C   UNL A   1      40.201  34.423  34.187  1.00  0.00     0.062 A 
ATOM      9  C   UNL A   1      41.280  32.144  30.553  1.00  0.00     0.046 C 
ATOM     10  C   UNL A   1      40.912  32.889  31.801  1.00  0.00    -0.027 A 
ATOM     11  C   UNL A   1      41.274  34.199  31.882  1.00  0.00     0.006 A 
ATOM     12  C   UNL A   1      40.139  32.383  32.869  1.00  0.00     0.054 A 
ATOM     13  C   UNL A   1      40.849  34.913  33.001  1.00  0.00     0.016 A 
ATOM     14  C   UNL A   1      39.903  33.086  34.096  1.00  0.00     0.042 A 
BRANCH  12  15
ATOM     15  N   UNL A   1      39.059  31.552  32.507  1.00  0.00    -0.261 N 
ATOM     16  C   UNL A   1      37.918  32.218  32.046  1.00  0.00     0.270 C 
ATOM     17  C   UNL A   1      38.941  30.247  32.906  1.00  0.00     0.152 C 
ATOM     18  O   UNL A   1      37.838  33.423  31.856  1.00  0.00    -0.268 OA
ATOM     19  C   UNL A   1      36.771  31.273  32.018  1.00  0.00     0.084 C 
ATOM     20  S   UNL A   1      37.298  29.713  32.578  1.00  0.00    -0.054 SA
ATOM     21  S   UNL A   1      40.116  29.279  33.590  1.00  0.00    -0.051 S 
ATOM     22  C   UNL A   1      35.487  31.542  31.731  1.00  0.00     0.068 C 
BRANCH  22  23
ATOM     23  C   UNL A   1      35.020  32.816  31.306  1.00  0.00     0.134 A 
ATOM     24  N   UNL A   1      34.653  33.859  32.025  1.00  0.00    -0.229 NA
ATOM     25  N   UNL A   1      34.893  33.115  29.959  1.00  0.00    -0.328 N 
ATOM     26  C   UNL A   1      34.072  34.743  31.155  1.00  0.00     0.089 A 
ATOM     27  C   UNL A   1      34.195  34.300  29.843  1.00  0.00     0.068 A 
ATOM     28  C   UNL A   1      35.377  32.322  28.854  1.00  0.00     0.152 C 
ATOM     29  C   UNL A   1      33.395  35.944  31.421  1.00  0.00     0.030 A 
ATOM     30  C   UNL A   1      33.672  35.015  28.757  1.00  0.00     0.028 A 
ATOM     31  C   UNL A   1      32.846  36.663  30.353  1.00  0.00     0.002 A 
ATOM     32  C   UNL A   1      32.991  36.206  29.041  1.00  0.00     0.002 A 
ENDBRANCH  22  23
ENDBRANCH  12  15
ENDBRANCH   6   8
ENDBRANCH   5   6
ENDBRANCH   4   5
ENDBRANCH   3   4
ENDBRANCH   2   3
ENDBRANCH   1   2
BRANCH   1  33
ATOM     33  C   UNL A   1      42.369  33.149  39.334  1.00  0.00     0.188 C 
BRANCH  33  34
ATOM     34  O   UNL A   1      42.986  31.878  39.259  1.00  0.00    -0.376 OA
BRANCH  34  35
ATOM     35  C   UNL A   1      44.004  31.799  38.264  1.00  0.00     0.202 C 
BRANCH  35  36
ATOM     36  C   UNL A   1      44.600  30.384  38.129  1.00  0.00     0.261 C 
BRANCH  36  37
ATOM     37  O   UNL A   1      44.489  29.928  36.763  1.00  0.00    -0.460 OA
BRANCH  37  38
ATOM     38  C   UNL A   1      43.416  29.126  36.433  1.00  0.00     0.338 C 
ATOM     39  O   UNL A   1      42.346  29.134  36.972  1.00  0.00    -0.246 OA
BRANCH  38  40
ATOM     40  C   UNL A   1      43.917  28.022  35.523  1.00  0.00     0.060 A 
ATOM     41  C   UNL A   1      45.100  28.122  34.785  1.00  0.00     0.016 A 
ATOM     42  C   UNL A   1      42.973  27.178  35.035  1.00  0.00     0.016 A 
ATOM     43  C   UNL A   1      45.201  27.530  33.473  1.00  0.00     0.010 A 
ATOM     44  C   UNL A   1      42.978  27.053  33.645  1.00  0.00     0.010 A 
ATOM     45  C   UNL A   1      44.080  27.063  32.768  1.00  0.00    -0.014 A 
BRANCH  45  46
ATOM     46  C   UNL A   1      44.030  26.796  31.154  1.00  0.00     0.031 A 
ATOM     47  C   UNL A   1      44.311  25.469  30.116  1.00  0.00     0.074 A 
ATOM     48  C   UNL A   1      43.638  27.887  30.460  1.00  0.00     0.049 A 
ATOM     49  N   UNL A   1      44.375  25.599  28.801  1.00  0.00    -0.248 NA
ATOM     50  C   UNL A   1      44.568  24.009  30.351  1.00  0.00     0.031 C 
ATOM     51  C   UNL A   1      43.099  27.954  29.109  1.00  0.00     0.029 A 
ATOM     52  N   UNL A   1      43.756  29.234  30.834  1.00  0.00    -0.354 N 
ATOM     53  C   UNL A   1      44.287  24.337  28.209  1.00  0.00     0.074 A 
ATOM     54  C   UNL A   1      44.655  23.406  29.178  1.00  0.00     0.031 C 
ATOM     55  C   UNL A   1      43.231  29.205  28.654  1.00  0.00     0.029 A 
ATOM     56  C   UNL A   1      43.981  29.943  29.649  1.00  0.00     0.049 A 
ATOM     57  H   UNL A   1      43.694  29.604  31.743  1.00  0.00     0.167 HD
ATOM     58  C   UNL A   1      43.733  24.115  26.991  1.00  0.00     0.037 A 
ATOM     59  C   UNL A   1      45.124  30.656  29.466  1.00  0.00     0.037 A 
ATOM     60  C   UNL A   1      43.840  25.313  26.211  1.00  0.00     0.049 A 
ATOM     61  C   UNL A   1      45.856  30.233  28.220  1.00  0.00     0.074 A 
ATOM     62  C   UNL A   1      42.960  26.264  25.752  1.00  0.00     0.029 A 
ATOM     63  N   UNL A   1      45.118  25.835  26.075  1.00  0.00    -0.354 N 
ATOM     64  N   UNL A   1      45.554  29.154  27.552  1.00  0.00    -0.248 NA
ATOM     65  C   UNL A   1      46.958  30.963  27.604  1.00  0.00     0.031 C 
ATOM     66  C   UNL A   1      43.727  27.440  25.493  1.00  0.00     0.029 A 
ATOM     67  C   UNL A   1      45.067  27.164  25.732  1.00  0.00     0.049 A 
ATOM     68  H   UNL A   1      45.949  25.323  26.208  1.00  0.00     0.167 HD
ATOM     69  C   UNL A   1      46.387  29.009  26.484  1.00  0.00     0.074 A 
ATOM     70  C   UNL A   1      47.246  30.174  26.551  1.00  0.00     0.031 C 
ATOM     71  C   UNL A   1      46.310  27.919  25.667  1.00  0.00     0.037 A 
BRANCH  58  72
ATOM     72  C   UNL A   1      43.038  22.822  26.581  1.00  0.00     0.064 A 
ATOM     73  C   UNL A   1      41.663  22.645  26.832  1.00  0.00     0.173 A 
ATOM     74  C   UNL A   1      43.684  21.669  26.058  1.00  0.00     0.173 A 
ATOM     75  F   UNL A   1      40.931  23.633  27.366  1.00  0.00    -0.203 F 
ATOM     76  C   UNL A   1      40.996  21.438  26.566  1.00  0.00     0.198 A 
ATOM     77  C   UNL A   1      43.002  20.492  25.725  1.00  0.00     0.198 A 
ATOM     78  F   UNL A   1      45.014  21.593  25.916  1.00  0.00    -0.203 F 
ATOM     79  F   UNL A   1      39.699  21.310  26.882  1.00  0.00    -0.200 F 
ATOM     80  C   UNL A   1      41.659  20.371  25.992  1.00  0.00     0.200 A 
ATOM     81  F   UNL A   1      43.668  19.466  25.172  1.00  0.00    -0.200 F 
ATOM     82  F   UNL A   1      41.015  19.227  25.722  1.00  0.00    -0.200 F 
ENDBRANCH  58  72
BRANCH  59  83
ATOM     83  C   UNL A   1      45.647  31.235  30.742  1.00  0.00     0.064 A 
ATOM     84  C   UNL A   1      44.970  32.378  31.236  1.00  0.00     0.173 A 
ATOM     85  C   UNL A   1      46.443  30.532  31.657  1.00  0.00     0.173 A 
ATOM     86  F   UNL A   1      44.169  33.082  30.418  1.00  0.00    -0.203 F 
ATOM     87  C   UNL A   1      44.975  32.718  32.588  1.00  0.00     0.198 A 
ATOM     88  C   UNL A   1      46.480  30.905  33.013  1.00  0.00     0.198 A 
ATOM     89  F   UNL A   1      47.071  29.409  31.286  1.00  0.00    -0.203 F 
ATOM     90  F   UNL A   1      44.178  33.699  33.033  1.00  0.00    -0.200 F 
ATOM     91  C   UNL A   1      45.721  31.971  33.479  1.00  0.00     0.200 A 
ATOM     92  F   UNL A   1      47.143  30.144  33.897  1.00  0.00    -0.200 F 
ATOM     93  F   UNL A   1      45.640  32.224  34.794  1.00  0.00    -0.200 F 
ENDBRANCH  59  83
BRANCH  71  94
ATOM     94  C   UNL A   1      47.419  27.431  24.763  1.00  0.00     0.064 A 
ATOM     95  C   UNL A   1      47.538  27.799  23.413  1.00  0.00     0.173 A 
ATOM     96  C   UNL A   1      48.530  26.738  25.305  1.00  0.00     0.173 A 
ATOM     97  F   UNL A   1      46.614  28.559  22.810  1.00  0.00    -0.203 F 
ATOM     98  C   UNL A   1      48.655  27.456  22.648  1.00  0.00     0.198 A 
ATOM     99  C   UNL A   1      49.675  26.462  24.558  1.00  0.00     0.198 A 
ATOM    100  F   UNL A   1      48.557  26.353  26.590  1.00  0.00    -0.203 F 
ATOM    101  F   UNL A   1      48.701  27.798  21.354  1.00  0.00    -0.200 F 
ATOM    102  C   UNL A   1      49.729  26.804  23.225  1.00  0.00     0.200 A 
ATOM    103  F   UNL A   1      50.734  25.892  25.150  1.00  0.00    -0.200 F 
ATOM    104  F   UNL A   1      50.822  26.529  22.501  1.00  0.00    -0.200 F 
ENDBRANCH  71  94
ENDBRANCH  45  46
ENDBRANCH  38  40
ENDBRANCH  37  38
ENDBRANCH  36  37
ENDBRANCH  35  36
ENDBRANCH  34  35
ENDBRANCH  33  34
ENDBRANCH   1  33
TORSDOF 19
ENDMDL
MODEL 2
REMARK VINA RESULT:      -9.4      6.707     13.496
REMARK SMILES Cc1ccc(C(=O)OCCOCCOCCOC(=O)c2ccc(-c3c4nc(c(-c5c(F)c(F)c(F)c(F)c5F)c5ccc([nH]5)c(-c5c(F)c(F)c(F)c(F)c5F)c5nc(c(-c6c(F)c(F)c(F)c(F)c6F)c6ccc3[nH]6)C=C5)C=C4)cc2)cc1N1C(=O)/C(=C\c2nc3ccccc3n2C)SC1=S
REMARK SMILES IDX 12 1 11 2 10 3 9 4 8 5 6 6 7 7 5 8 1 9 2 10 3 11 84 12 4 13
REMARK SMILES IDX 83 14 85 15 86 16 101 17 87 18 88 19 100 20 102 21 89 22
REMARK SMILES IDX 90 23 91 24 98 25 92 26 97 27 99 28 93 29 96 30 94 31 95 32
REMARK SMILES IDX 13 33 14 34 15 35 16 36 17 37 18 38 19 39 20 40 21 41 82 42
REMARK SMILES IDX 22 43 81 44 23 45 24 46 25 47 75 48 26 49 80 50 74 51 76 52
REMARK SMILES IDX 27 53 79 54 73 55 72 56 28 58 60 59 40 60 59 61 41 62 44 63
REMARK SMILES IDX 58 64 77 65 42 66 43 67 57 69 78 70 45 71 29 72 30 73 38 74
REMARK SMILES IDX 31 75 32 76 36 77 39 78 33 79 34 80 37 81 35 82 61 83 62 84
REMARK SMILES IDX 70 85 63 86 64 87 68 88 71 89 65 90 66 91 69 92 67 93 46 94
REMARK SMILES IDX 47 95 55 96 48 97 49 98 53 99 56 100 50 101 51 102 54 103
REMARK SMILES IDX 52 104
REMARK H PARENT 76 57 44 68
REMARK Flexibility Score: inf
ROOT
ATOM      1  C   UNL A   1      44.200  23.326  32.481  1.00  0.00     0.188 C 
ENDROOT
BRANCH   1   2
ATOM      2  O   UNL A   1      44.672  24.068  33.600  1.00  0.00    -0.376 OA
BRANCH   2   3
ATOM      3  C   UNL A   1      45.797  24.932  33.556  1.00  0.00     0.202 C 
BRANCH   3   4
ATOM      4  C   UNL A   1      47.047  24.410  34.348  1.00  0.00     0.261 C 
BRANCH   4   5
ATOM      5  O   UNL A   1      46.925  23.108  35.054  1.00  0.00    -0.460 OA
BRANCH   5   6
ATOM      6  C   UNL A   1      47.132  21.823  34.606  1.00  0.00     0.338 C 
ATOM      7  O   UNL A   1      46.208  21.098  34.266  1.00  0.00    -0.246 OA
BRANCH   6   8
ATOM      8  C   UNL A   1      48.697  21.301  34.589  1.00  0.00     0.062 A 
ATOM      9  C   UNL A   1      52.735  19.660  35.343  1.00  0.00     0.046 C 
ATOM     10  C   UNL A   1      51.376  20.244  35.097  1.00  0.00    -0.027 A 
ATOM     11  C   UNL A   1      50.548  19.578  34.246  1.00  0.00     0.006 A 
ATOM     12  C   UNL A   1      50.836  21.381  35.738  1.00  0.00     0.054 A 
ATOM     13  C   UNL A   1      49.255  20.073  34.092  1.00  0.00     0.016 A 
ATOM     14  C   UNL A   1      49.579  21.978  35.395  1.00  0.00     0.042 A 
BRANCH  12  15
ATOM     15  N   UNL A   1      51.142  21.517  37.108  1.00  0.00    -0.261 N 
ATOM     16  C   UNL A   1      50.284  20.843  37.985  1.00  0.00     0.270 C 
ATOM     17  C   UNL A   1      51.948  22.503  37.609  1.00  0.00     0.152 C 
ATOM     18  O   UNL A   1      49.379  20.095  37.643  1.00  0.00    -0.268 OA
ATOM     19  C   UNL A   1      50.511  21.328  39.370  1.00  0.00     0.084 C 
ATOM     20  S   UNL A   1      51.748  22.552  39.356  1.00  0.00    -0.054 SA
ATOM     21  S   UNL A   1      52.968  23.518  36.761  1.00  0.00    -0.051 S 
ATOM     22  C   UNL A   1      49.828  21.006  40.481  1.00  0.00     0.068 C 
BRANCH  22  23
ATOM     23  C   UNL A   1      48.786  20.038  40.517  1.00  0.00     0.134 A 
ATOM     24  N   UNL A   1      47.486  20.196  40.371  1.00  0.00    -0.229 NA
ATOM     25  N   UNL A   1      49.067  18.698  40.730  1.00  0.00    -0.328 N 
ATOM     26  C   UNL A   1      46.908  19.005  40.719  1.00  0.00     0.089 A 
ATOM     27  C   UNL A   1      47.878  18.039  40.964  1.00  0.00     0.068 A 
ATOM     28  C   UNL A   1      50.374  18.085  40.738  1.00  0.00     0.152 C 
ATOM     29  C   UNL A   1      45.551  18.679  40.871  1.00  0.00     0.030 A 
ATOM     30  C   UNL A   1      47.554  16.732  41.354  1.00  0.00     0.028 A 
ATOM     31  C   UNL A   1      45.206  17.385  41.279  1.00  0.00     0.002 A 
ATOM     32  C   UNL A   1      46.195  16.427  41.509  1.00  0.00     0.002 A 
ENDBRANCH  22  23
ENDBRANCH  12  15
ENDBRANCH   6   8
ENDBRANCH   5   6
ENDBRANCH   4   5
ENDBRANCH   3   4
ENDBRANCH   2   3
ENDBRANCH   1   2
BRANCH   1  33
ATOM     33  C   UNL A   1      44.146  23.825  31.044  1.00  0.00     0.188 C 
BRANCH  33  34
ATOM     34  O   UNL A   1      43.244  23.086  30.240  1.00  0.00    -0.376 OA
BRANCH  34  35
ATOM     35  C   UNL A   1      43.499  23.207  28.843  1.00  0.00     0.202 C 
BRANCH  35  36
ATOM     36  C   UNL A   1      42.709  22.186  28.002  1.00  0.00     0.261 C 
BRANCH  36  37
ATOM     37  O   UNL A   1      41.290  22.389  28.181  1.00  0.00    -0.460 OA
BRANCH  37  38
ATOM     38  C   UNL A   1      40.484  22.347  27.062  1.00  0.00     0.338 C 
ATOM     39  O   UNL A   1      40.418  21.440  26.282  1.00  0.00    -0.246 OA
BRANCH  38  40
ATOM     40  C   UNL A   1      39.963  23.747  26.806  1.00  0.00     0.060 A 
ATOM     41  C   UNL A   1      40.760  24.775  26.292  1.00  0.00     0.016 A 
ATOM     42  C   UNL A   1      38.895  24.130  27.551  1.00  0.00     0.016 A 
ATOM     43  C   UNL A   1      40.572  26.138  26.724  1.00  0.00     0.010 A 
ATOM     44  C   UNL A   1      39.076  25.328  28.243  1.00  0.00     0.010 A 
ATOM     45  C   UNL A   1      39.787  26.475  27.839  1.00  0.00    -0.014 A 
BRANCH  45  46
ATOM     46  C   UNL A   1      39.868  27.895  28.649  1.00  0.00     0.031 A 
ATOM     47  C   UNL A   1      39.003  29.367  28.644  1.00  0.00     0.074 A 
ATOM     48  C   UNL A   1      40.844  27.902  29.585  1.00  0.00     0.049 A 
ATOM     49  N   UNL A   1      39.422  30.437  29.299  1.00  0.00    -0.248 NA
ATOM     50  C   UNL A   1      37.741  29.822  27.971  1.00  0.00     0.031 C 
ATOM     51  C   UNL A   1      40.981  28.776  30.741  1.00  0.00     0.029 A 
ATOM     52  N   UNL A   1      42.020  27.139  29.608  1.00  0.00    -0.354 N 
ATOM     53  C   UNL A   1      38.379  31.363  29.383  1.00  0.00     0.074 A 
ATOM     54  C   UNL A   1      37.480  31.057  28.363  1.00  0.00     0.031 C 
ATOM     55  C   UNL A   1      42.252  28.744  31.157  1.00  0.00     0.029 A 
ATOM     56  C   UNL A   1      42.994  27.953  30.198  1.00  0.00     0.049 A 
ATOM     57  H   UNL A   1      42.137  26.220  29.277  1.00  0.00     0.167 HD
ATOM     58  C   UNL A   1      38.223  32.228  30.416  1.00  0.00     0.037 A 
ATOM     59  C   UNL A   1      44.113  28.312  29.515  1.00  0.00     0.037 A 
ATOM     60  C   UNL A   1      39.505  32.474  31.008  1.00  0.00     0.049 A 
ATOM     61  C   UNL A   1      44.278  29.808  29.455  1.00  0.00     0.074 A 
ATOM     62  C   UNL A   1      40.117  32.137  32.192  1.00  0.00     0.029 A 
ATOM     63  N   UNL A   1      40.495  32.921  30.146  1.00  0.00    -0.354 N 
ATOM     64  N   UNL A   1      43.333  30.640  29.798  1.00  0.00    -0.248 NA
ATOM     65  C   UNL A   1      45.488  30.503  29.033  1.00  0.00     0.031 C 
ATOM     66  C   UNL A   1      41.524  32.232  31.966  1.00  0.00     0.029 A 
ATOM     67  C   UNL A   1      41.741  32.691  30.674  1.00  0.00     0.049 A 
ATOM     68  H   UNL A   1      40.327  33.346  29.273  1.00  0.00     0.167 HD
ATOM     69  C   UNL A   1      43.749  31.925  29.627  1.00  0.00     0.074 A 
ATOM     70  C   UNL A   1      45.112  31.791  29.155  1.00  0.00     0.031 C 
ATOM     71  C   UNL A   1      42.913  32.978  29.858  1.00  0.00     0.037 A 
BRANCH  58  72
ATOM     72  C   UNL A   1      36.880  32.763  30.900  1.00  0.00     0.064 A 
ATOM     73  C   UNL A   1      36.165  33.695  30.122  1.00  0.00     0.173 A 
ATOM     74  C   UNL A   1      36.301  32.504  32.172  1.00  0.00     0.173 A 
ATOM     75  F   UNL A   1      36.615  34.070  28.917  1.00  0.00    -0.203 F 
ATOM     76  C   UNL A   1      34.974  34.293  30.566  1.00  0.00     0.198 A 
ATOM     77  C   UNL A   1      35.075  33.046  32.582  1.00  0.00     0.198 A 
ATOM     78  F   UNL A   1      36.923  31.780  33.111  1.00  0.00    -0.203 F 
ATOM     79  F   UNL A   1      34.370  35.219  29.806  1.00  0.00    -0.200 F 
ATOM     80  C   UNL A   1      34.419  33.953  31.784  1.00  0.00     0.200 A 
ATOM     81  F   UNL A   1      34.557  32.703  33.771  1.00  0.00    -0.200 F 
ATOM     82  F   UNL A   1      33.273  34.512  32.197  1.00  0.00    -0.200 F 
ENDBRANCH  58  72
BRANCH  59  83
ATOM     83  C   UNL A   1      44.566  27.253  28.562  1.00  0.00     0.064 A 
ATOM     84  C   UNL A   1      44.167  27.411  27.212  1.00  0.00     0.173 A 
ATOM     85  C   UNL A   1      45.643  26.388  28.801  1.00  0.00     0.173 A 
ATOM     86  F   UNL A   1      43.158  28.247  26.910  1.00  0.00    -0.203 F 
ATOM     87  C   UNL A   1      44.884  26.854  26.155  1.00  0.00     0.198 A 
ATOM     88  C   UNL A   1      46.338  25.792  27.733  1.00  0.00     0.198 A 
ATOM     89  F   UNL A   1      46.120  26.226  30.042  1.00  0.00    -0.203 F 
ATOM     90  F   UNL A   1      44.573  27.179  24.892  1.00  0.00    -0.200 F 
ATOM     91  C   UNL A   1      45.979  26.053  26.416  1.00  0.00     0.200 A 
ATOM     92  F   UNL A   1      47.444  25.073  27.973  1.00  0.00    -0.200 F 
ATOM     93  F   UNL A   1      46.738  25.608  25.404  1.00  0.00    -0.200 F 
ENDBRANCH  59  83
BRANCH  71  94
ATOM     94  C   UNL A   1      43.091  34.370  29.295  1.00  0.00     0.064 A 
ATOM     95  C   UNL A   1      43.168  35.524  30.092  1.00  0.00     0.173 A 
ATOM     96  C   UNL A   1      43.411  34.552  27.927  1.00  0.00     0.173 A 
ATOM     97  F   UNL A   1      43.008  35.470  31.421  1.00  0.00    -0.203 F 
ATOM     98  C   UNL A   1      43.487  36.773  29.554  1.00  0.00     0.198 A 
ATOM     99  C   UNL A   1      43.800  35.786  27.409  1.00  0.00     0.198 A 
ATOM    100  F   UNL A   1      43.403  33.525  27.062  1.00  0.00    -0.203 F 
ATOM    101  F   UNL A   1      43.509  37.850  30.352  1.00  0.00    -0.200 F 
ATOM    102  C   UNL A   1      43.820  36.901  28.218  1.00  0.00     0.200 A 
ATOM    103  F   UNL A   1      44.187  35.879  26.128  1.00  0.00    -0.200 F 
ATOM    104  F   UNL A   1      44.181  38.091  27.721  1.00  0.00    -0.200 F 
ENDBRANCH  71  94
ENDBRANCH  45  46
ENDBRANCH  38  40
ENDBRANCH  37  38
ENDBRANCH  36  37
ENDBRANCH  35  36
ENDBRANCH  34  35
ENDBRANCH  33  34
ENDBRANCH   1  33
TORSDOF 19
ENDMDL
MODEL 3
REMARK VINA RESULT:      -9.3      6.136     12.321
REMARK SMILES Cc1ccc(C(=O)OCCOCCOCCOC(=O)c2ccc(-c3c4nc(c(-c5c(F)c(F)c(F)c(F)c5F)c5ccc([nH]5)c(-c5c(F)c(F)c(F)c(F)c5F)c5nc(c(-c6c(F)c(F)c(F)c(F)c6F)c6ccc3[nH]6)C=C5)C=C4)cc2)cc1N1C(=O)/C(=C\c2nc3ccccc3n2C)SC1=S
REMARK SMILES IDX 12 1 11 2 10 3 9 4 8 5 6 6 7 7 5 8 1 9 2 10 3 11 84 12 4 13
REMARK SMILES IDX 83 14 85 15 86 16 101 17 87 18 88 19 100 20 102 21 89 22
REMARK SMILES IDX 90 23 91 24 98 25 92 26 97 27 99 28 93 29 96 30 94 31 95 32
REMARK SMILES IDX 13 33 14 34 15 35 16 36 17 37 18 38 19 39 20 40 21 41 82 42
REMARK SMILES IDX 22 43 81 44 23 45 24 46 25 47 75 48 26 49 80 50 74 51 76 52
REMARK SMILES IDX 27 53 79 54 73 55 72 56 28 58 60 59 40 60 59 61 41 62 44 63
REMARK SMILES IDX 58 64 77 65 42 66 43 67 57 69 78 70 45 71 29 72 30 73 38 74
REMARK SMILES IDX 31 75 32 76 36 77 39 78 33 79 34 80 37 81 35 82 61 83 62 84
REMARK SMILES IDX 70 85 63 86 64 87 68 88 71 89 65 90 66 91 69 92 67 93 46 94
REMARK SMILES IDX 47 95 55 96 48 97 49 98 53 99 56 100 50 101 51 102 54 103
REMARK SMILES IDX 52 104
REMARK H PARENT 76 57 44 68
REMARK Flexibility Score: inf
ROOT
ATOM      1  C   UNL A   1      43.403  22.445  28.832  1.00  0.00     0.188 C 
ENDROOT
BRANCH   1   2
ATOM      2  O   UNL A   1      43.153  23.068  30.087  1.00  0.00    -0.376 OA
BRANCH   2   3
ATOM      3  C   UNL A   1      44.175  23.572  30.934  1.00  0.00     0.202 C 
BRANCH   3   4
ATOM      4  C   UNL A   1      43.930  23.324  32.464  1.00  0.00     0.261 C 
BRANCH   4   5
ATOM      5  O   UNL A   1      44.279  24.418  33.407  1.00  0.00    -0.460 OA
BRANCH   5   6
ATOM      6  C   UNL A   1      43.709  24.784  34.606  1.00  0.00     0.338 C 
ATOM      7  O   UNL A   1      42.549  25.161  34.685  1.00  0.00    -0.246 OA
BRANCH   6   8
ATOM      8  C   UNL A   1      44.693  24.717  35.929  1.00  0.00     0.062 A 
ATOM      9  C   UNL A   1      47.854  24.111  38.963  1.00  0.00     0.046 C 
ATOM     10  C   UNL A   1      46.769  24.290  37.944  1.00  0.00    -0.027 A 
ATOM     11  C   UNL A   1      46.569  25.543  37.450  1.00  0.00     0.006 A 
ATOM     12  C   UNL A   1      45.988  23.259  37.378  1.00  0.00     0.054 A 
ATOM     13  C   UNL A   1      45.623  25.688  36.437  1.00  0.00     0.016 A 
ATOM     14  C   UNL A   1      44.882  23.480  36.491  1.00  0.00     0.042 A 
BRANCH  12  15
ATOM     15  N   UNL A   1      46.666  22.054  37.103  1.00  0.00    -0.261 N 
ATOM     16  C   UNL A   1      46.517  21.048  38.065  1.00  0.00     0.270 C 
ATOM     17  C   UNL A   1      47.690  21.949  36.200  1.00  0.00     0.152 C 
ATOM     18  O   UNL A   1      45.785  21.116  39.043  1.00  0.00    -0.268 OA
ATOM     19  C   UNL A   1      47.524  19.982  37.827  1.00  0.00     0.084 C 
ATOM     20  S   UNL A   1      48.499  20.408  36.451  1.00  0.00    -0.054 SA
ATOM     21  S   UNL A   1      48.142  23.059  35.038  1.00  0.00    -0.051 S 
ATOM     22  C   UNL A   1      47.773  18.898  38.581  1.00  0.00     0.068 C 
BRANCH  22  23
ATOM     23  C   UNL A   1      47.018  18.543  39.733  1.00  0.00     0.134 A 
ATOM     24  N   UNL A   1      45.870  17.900  39.819  1.00  0.00    -0.229 NA
ATOM     25  N   UNL A   1      47.460  18.872  41.004  1.00  0.00    -0.328 N 
ATOM     26  C   UNL A   1      45.458  18.016  41.120  1.00  0.00     0.089 A 
ATOM     27  C   UNL A   1      46.433  18.636  41.894  1.00  0.00     0.068 A 
ATOM     28  C   UNL A   1      48.759  19.398  41.352  1.00  0.00     0.152 C 
ATOM     29  C   UNL A   1      44.243  17.633  41.710  1.00  0.00     0.030 A 
ATOM     30  C   UNL A   1      46.255  18.891  43.261  1.00  0.00     0.028 A 
ATOM     31  C   UNL A   1      44.038  17.898  43.070  1.00  0.00     0.002 A 
ATOM     32  C   UNL A   1      45.034  18.511  43.832  1.00  0.00     0.002 A 
ENDBRANCH  22  23
ENDBRANCH  12  15
ENDBRANCH   6   8
ENDBRANCH   5   6
ENDBRANCH   4   5
ENDBRANCH   3   4
ENDBRANCH   2   3
ENDBRANCH   1   2
BRANCH   1  33
ATOM     33  C   UNL A   1      42.343  22.031  27.820  1.00  0.00     0.188 C 
BRANCH  33  34
ATOM     34  O   UNL A   1      42.259  20.628  27.658  1.00  0.00    -0.376 OA
BRANCH  34  35
ATOM     35  C   UNL A   1      42.001  20.226  26.315  1.00  0.00     0.202 C 
BRANCH  35  36
ATOM     36  C   UNL A   1      43.169  19.436  25.693  1.00  0.00     0.261 C 
BRANCH  36  37
ATOM     37  O   UNL A   1      43.749  20.185  24.602  1.00  0.00    -0.460 OA
BRANCH  37  38
ATOM     38  C   UNL A   1      45.069  20.572  24.713  1.00  0.00     0.338 C 
ATOM     39  O   UNL A   1      45.961  19.897  25.141  1.00  0.00    -0.246 OA
BRANCH  38  40
ATOM     40  C   UNL A   1      45.134  22.074  24.524  1.00  0.00     0.060 A 
ATOM     41  C   UNL A   1      46.154  22.865  25.061  1.00  0.00     0.016 A 
ATOM     42  C   UNL A   1      43.952  22.697  24.287  1.00  0.00     0.016 A 
ATOM     43  C   UNL A   1      45.879  24.199  25.535  1.00  0.00     0.010 A 
ATOM     44  C   UNL A   1      43.675  23.753  25.155  1.00  0.00     0.010 A 
ATOM     45  C   UNL A   1      44.572  24.677  25.726  1.00  0.00    -0.014 A 
BRANCH  45  46
ATOM     46  C   UNL A   1      44.170  25.968  26.649  1.00  0.00     0.031 A 
ATOM     47  C   UNL A   1      42.799  26.969  26.837  1.00  0.00     0.074 A 
ATOM     48  C   UNL A   1      45.154  26.319  27.506  1.00  0.00     0.049 A 
ATOM     49  N   UNL A   1      42.827  28.083  27.549  1.00  0.00    -0.248 NA
ATOM     50  C   UNL A   1      41.398  26.914  26.301  1.00  0.00     0.031 C 
ATOM     51  C   UNL A   1      45.054  27.115  28.721  1.00  0.00     0.029 A 
ATOM     52  N   UNL A   1      46.532  26.090  27.376  1.00  0.00    -0.354 N 
ATOM     53  C   UNL A   1      41.518  28.508  27.790  1.00  0.00     0.074 A 
ATOM     54  C   UNL A   1      40.713  27.919  26.818  1.00  0.00     0.031 C 
ATOM     55  C   UNL A   1      46.271  27.573  29.037  1.00  0.00     0.029 A 
ATOM     56  C   UNL A   1      47.161  27.195  27.961  1.00  0.00     0.049 A 
ATOM     57  H   UNL A   1      46.967  25.313  26.958  1.00  0.00     0.167 HD
ATOM     58  C   UNL A   1      41.141  29.185  28.904  1.00  0.00     0.037 A 
ATOM     59  C   UNL A   1      47.971  28.006  27.230  1.00  0.00     0.037 A 
ATOM     60  C   UNL A   1      42.276  29.893  29.419  1.00  0.00     0.049 A 
ATOM     61  C   UNL A   1      47.526  29.444  27.289  1.00  0.00     0.074 A 
ATOM     62  C   UNL A   1      43.090  29.770  30.520  1.00  0.00     0.029 A 
ATOM     63  N   UNL A   1      42.915  30.742  28.527  1.00  0.00    -0.354 N 
ATOM     64  N   UNL A   1      46.371  29.809  27.772  1.00  0.00    -0.248 NA
ATOM     65  C   UNL A   1      48.314  30.586  26.841  1.00  0.00     0.031 C 
ATOM     66  C   UNL A   1      44.314  30.432  30.199  1.00  0.00     0.029 A 
ATOM     67  C   UNL A   1      44.199  31.004  28.940  1.00  0.00     0.049 A 
ATOM     68  H   UNL A   1      42.505  31.107  27.710  1.00  0.00     0.167 HD
ATOM     69  C   UNL A   1      46.227  31.160  27.683  1.00  0.00     0.074 A 
ATOM     70  C   UNL A   1      47.476  31.608  27.102  1.00  0.00     0.031 C 
ATOM     71  C   UNL A   1      45.071  31.777  28.067  1.00  0.00     0.037 A 
BRANCH  58  72
ATOM     72  C   UNL A   1      39.754  29.112  29.531  1.00  0.00     0.064 A 
ATOM     73  C   UNL A   1      38.659  29.743  28.908  1.00  0.00     0.173 A 
ATOM     74  C   UNL A   1      39.453  28.553  30.803  1.00  0.00     0.173 A 
ATOM     75  F   UNL A   1      38.803  30.353  27.724  1.00  0.00    -0.203 F 
ATOM     76  C   UNL A   1      37.383  29.791  29.492  1.00  0.00     0.198 A 
ATOM     77  C   UNL A   1      38.163  28.538  31.349  1.00  0.00     0.198 A 
ATOM     78  F   UNL A   1      40.400  28.064  31.615  1.00  0.00    -0.203 F 
ATOM     79  F   UNL A   1      36.394  30.458  28.879  1.00  0.00    -0.200 F 
ATOM     80  C   UNL A   1      37.130  29.170  30.700  1.00  0.00     0.200 A 
ATOM     81  F   UNL A   1      37.942  27.932  32.527  1.00  0.00    -0.200 F 
ATOM     82  F   UNL A   1      35.906  29.203  31.246  1.00  0.00    -0.200 F 
ENDBRANCH  58  72
BRANCH  59  83
ATOM     83  C   UNL A   1      48.704  27.267  26.157  1.00  0.00     0.064 A 
ATOM     84  C   UNL A   1      48.171  27.369  24.848  1.00  0.00     0.173 A 
ATOM     85  C   UNL A   1      50.038  26.847  26.261  1.00  0.00     0.173 A 
ATOM     86  F   UNL A   1      46.908  27.791  24.676  1.00  0.00    -0.203 F 
ATOM     87  C   UNL A   1      48.958  27.199  23.710  1.00  0.00     0.198 A 
ATOM     88  C   UNL A   1      50.817  26.634  25.110  1.00  0.00     0.198 A 
ATOM     89  F   UNL A   1      50.636  26.778  27.458  1.00  0.00    -0.203 F 
ATOM     90  F   UNL A   1      48.454  27.481  22.501  1.00  0.00    -0.200 F 
ATOM     91  C   UNL A   1      50.287  26.844  23.842  1.00  0.00     0.200 A 
ATOM     92  F   UNL A   1      52.125  26.360  25.228  1.00  0.00    -0.200 F 
ATOM     93  F   UNL A   1      51.075  26.790  22.759  1.00  0.00    -0.200 F 
ENDBRANCH  59  83
BRANCH  71  94
ATOM     94  C   UNL A   1      44.628  33.150  27.616  1.00  0.00     0.064 A 
ATOM     95  C   UNL A   1      44.043  33.404  26.364  1.00  0.00     0.173 A 
ATOM     96  C   UNL A   1      44.585  34.226  28.537  1.00  0.00     0.173 A 
ATOM     97  F   UNL A   1      43.911  32.439  25.445  1.00  0.00    -0.203 F 
ATOM     98  C   UNL A   1      43.505  34.651  26.039  1.00  0.00     0.198 A 
ATOM     99  C   UNL A   1      43.982  35.445  28.234  1.00  0.00     0.198 A 
ATOM    100  F   UNL A   1      45.084  34.107  29.778  1.00  0.00    -0.203 F 
ATOM    101  F   UNL A   1      42.994  34.853  24.817  1.00  0.00    -0.200 F 
ATOM    102  C   UNL A   1      43.459  35.665  26.978  1.00  0.00     0.200 A 
ATOM    103  F   UNL A   1      43.882  36.392  29.179  1.00  0.00    -0.200 F 
ATOM    104  F   UNL A   1      42.889  36.839  26.680  1.00  0.00    -0.200 F 
ENDBRANCH  71  94
ENDBRANCH  45  46
ENDBRANCH  38  40
ENDBRANCH  37  38
ENDBRANCH  36  37
ENDBRANCH  35  36
ENDBRANCH  34  35
ENDBRANCH  33  34
ENDBRANCH   1  33
TORSDOF 19
ENDMDL
