MODEL 1
REMARK VINA RESULT:     -10.6      0.000      0.000
REMARK SMILES C[C@H]1OCC[C@H]1c1nnnn1CC(=O)OCCOCCOCCOC(=O)c1ccc(-c2c3nc(c(-c4c(F)c(F)c(F)c(F)c4F)c4ccc([nH]4)c(-c4c(F)c(F)c(F)c(F)c4F)c4nc(c(-c5c(F)c(F)c(F)c(F)c5F)c5ccc2[nH]5)C=C4)C=C3)cc1
REMARK SMILES IDX 19 1 18 2 17 3 16 4 15 5 13 6 14 7 12 8 11 9 7 10 8 11 9 12
REMARK SMILES IDX 10 13 6 14 1 15 2 16 3 17 4 18 5 19 20 20 21 21 22 22 23 23
REMARK SMILES IDX 24 24 25 25 26 26 27 27 28 28 89 29 29 30 88 31 30 32 31 33
REMARK SMILES IDX 32 34 82 35 33 36 87 37 81 38 83 39 34 40 86 41 80 42 79 43
REMARK SMILES IDX 35 45 67 46 47 47 66 48 48 49 51 50 65 51 84 52 49 53 50 54
REMARK SMILES IDX 64 56 85 57 52 58 36 59 37 60 45 61 38 62 39 63 43 64 46 65
REMARK SMILES IDX 40 66 41 67 44 68 42 69 68 70 69 71 77 72 70 73 71 74 75 75
REMARK SMILES IDX 78 76 72 77 73 78 76 79 74 80 53 81 54 82 62 83 55 84 56 85
REMARK SMILES IDX 60 86 63 87 57 88 58 89 61 90 59 91
REMARK H PARENT 83 44 51 55
REMARK Flexibility Score: inf
ROOT
ATOM      1  C   UNL A   1      38.372  21.111  25.372  1.00  0.00     0.188 C 
ENDROOT
BRANCH   1   2
ATOM      2  O   UNL A   1      37.051  21.525  25.739  1.00  0.00    -0.376 OA
BRANCH   2   3
ATOM      3  C   UNL A   1      36.334  22.314  24.788  1.00  0.00     0.202 C 
BRANCH   3   4
ATOM      4  C   UNL A   1      35.278  23.279  25.359  1.00  0.00     0.261 C 
BRANCH   4   5
ATOM      5  O   UNL A   1      35.176  24.539  24.659  1.00  0.00    -0.462 OA
BRANCH   5   6
ATOM      6  C   UNL A   1      34.327  24.568  23.611  1.00  0.00     0.327 C 
ATOM      7  O   UNL A   1      34.587  24.100  22.505  1.00  0.00    -0.250 OA
BRANCH   6   8
ATOM      8  C   UNL A   1      32.978  25.159  23.866  1.00  0.00     0.270 C 
BRANCH   8   9
ATOM      9  N   UNL A   1      32.532  25.401  25.222  1.00  0.00    -0.218 N 
ATOM     10  C   UNL A   1      32.656  26.573  25.946  1.00  0.00     0.157 A 
ATOM     11  N   UNL A   1      31.804  26.521  26.950  1.00  0.00    -0.113 NA
ATOM     12  N   UNL A   1      31.099  25.359  26.800  1.00  0.00    -0.024 NA
ATOM     13  N   UNL A   1      31.488  24.706  25.715  1.00  0.00    -0.044 NA
BRANCH  10  14
ATOM     14  C   UNL A   1      33.557  27.704  25.581  1.00  0.00     0.090 C 
ATOM     15  C   UNL A   1      31.429  28.712  24.360  1.00  0.00     0.039 C 
ATOM     16  C   UNL A   1      32.889  28.855  24.788  1.00  0.00     0.126 C 
ATOM     17  O   UNL A   1      32.963  30.039  25.607  1.00  0.00    -0.378 OA
ATOM     18  C   UNL A   1      33.217  29.618  26.948  1.00  0.00     0.161 C 
ATOM     19  C   UNL A   1      34.125  28.421  26.802  1.00  0.00     0.043 C 
ENDBRANCH  10  14
ENDBRANCH   8   9
ENDBRANCH   6   8
ENDBRANCH   5   6
ENDBRANCH   4   5
ENDBRANCH   3   4
ENDBRANCH   2   3
ENDBRANCH   1   2
BRANCH   1  20
ATOM     20  C   UNL A   1      38.579  19.597  25.259  1.00  0.00     0.188 C 
BRANCH  20  21
ATOM     21  O   UNL A   1      39.905  19.231  25.613  1.00  0.00    -0.376 OA
BRANCH  21  22
ATOM     22  C   UNL A   1      40.701  20.003  26.501  1.00  0.00     0.202 C 
BRANCH  22  23
ATOM     23  C   UNL A   1      42.226  19.905  26.459  1.00  0.00     0.261 C 
BRANCH  23  24
ATOM     24  O   UNL A   1      42.824  20.403  25.276  1.00  0.00    -0.460 OA
BRANCH  24  25
ATOM     25  C   UNL A   1      44.172  20.442  25.212  1.00  0.00     0.338 C 
ATOM     26  O   UNL A   1      44.943  19.510  25.175  1.00  0.00    -0.246 OA
BRANCH  25  27
ATOM     27  C   UNL A   1      44.524  21.873  25.216  1.00  0.00     0.060 A 
ATOM     28  C   UNL A   1      45.486  22.284  26.131  1.00  0.00     0.016 A 
ATOM     29  C   UNL A   1      43.748  22.794  24.482  1.00  0.00     0.016 A 
ATOM     30  C   UNL A   1      45.433  23.591  26.552  1.00  0.00     0.010 A 
ATOM     31  C   UNL A   1      43.689  24.093  24.903  1.00  0.00     0.010 A 
ATOM     32  C   UNL A   1      44.437  24.422  26.021  1.00  0.00    -0.014 A 
BRANCH  32  33
ATOM     33  C   UNL A   1      44.127  25.630  26.738  1.00  0.00     0.031 A 
ATOM     34  C   UNL A   1      45.098  26.709  26.529  1.00  0.00     0.074 A 
ATOM     35  C   UNL A   1      43.027  25.727  27.506  1.00  0.00     0.049 A 
ATOM     36  N   UNL A   1      45.977  27.136  27.368  1.00  0.00    -0.248 NA
ATOM     37  C   UNL A   1      45.214  27.267  25.176  1.00  0.00     0.031 C 
ATOM     38  C   UNL A   1      41.863  24.838  27.564  1.00  0.00     0.029 A 
ATOM     39  N   UNL A   1      42.700  26.720  28.369  1.00  0.00    -0.354 N 
ATOM     40  C   UNL A   1      46.643  28.158  26.711  1.00  0.00     0.074 A 
ATOM     41  C   UNL A   1      46.267  28.070  25.324  1.00  0.00     0.031 C 
ATOM     42  C   UNL A   1      40.873  25.449  28.259  1.00  0.00     0.029 A 
ATOM     43  C   UNL A   1      41.385  26.697  28.801  1.00  0.00     0.049 A 
ATOM     44  H   UNL A   1      43.345  27.403  28.665  1.00  0.00     0.167 HD
ATOM     45  C   UNL A   1      47.243  29.155  27.414  1.00  0.00     0.037 A 
ATOM     46  C   UNL A   1      40.767  27.688  29.489  1.00  0.00     0.037 A 
ATOM     47  C   UNL A   1      47.472  28.767  28.784  1.00  0.00     0.049 A 
ATOM     48  C   UNL A   1      41.828  28.531  30.104  1.00  0.00     0.074 A 
ATOM     49  C   UNL A   1      48.192  27.757  29.394  1.00  0.00     0.029 A 
ATOM     50  N   UNL A   1      46.611  29.238  29.744  1.00  0.00    -0.354 N 
ATOM     51  N   UNL A   1      42.600  28.134  31.078  1.00  0.00    -0.248 NA
ATOM     52  C   UNL A   1      42.337  29.656  29.329  1.00  0.00     0.031 C 
ATOM     53  C   UNL A   1      47.411  27.366  30.521  1.00  0.00     0.029 A 
ATOM     54  C   UNL A   1      46.284  28.186  30.560  1.00  0.00     0.049 A 
ATOM     55  H   UNL A   1      46.289  30.164  29.832  1.00  0.00     0.167 HD
ATOM     56  C   UNL A   1      43.849  28.656  30.778  1.00  0.00     0.074 A 
ATOM     57  C   UNL A   1      43.606  29.658  29.744  1.00  0.00     0.031 C 
ATOM     58  C   UNL A   1      44.991  28.028  31.186  1.00  0.00     0.037 A 
BRANCH  45  59
ATOM     59  C   UNL A   1      47.258  30.588  26.958  1.00  0.00     0.064 A 
ATOM     60  C   UNL A   1      48.470  31.300  26.999  1.00  0.00     0.173 A 
ATOM     61  C   UNL A   1      46.096  31.369  26.766  1.00  0.00     0.173 A 
ATOM     62  F   UNL A   1      49.632  30.660  27.199  1.00  0.00    -0.203 F 
ATOM     63  C   UNL A   1      48.505  32.694  26.935  1.00  0.00     0.198 A 
ATOM     64  C   UNL A   1      46.141  32.754  26.642  1.00  0.00     0.198 A 
ATOM     65  F   UNL A   1      44.864  30.849  26.810  1.00  0.00    -0.203 F 
ATOM     66  F   UNL A   1      49.666  33.338  27.113  1.00  0.00    -0.200 F 
ATOM     67  C   UNL A   1      47.341  33.421  26.761  1.00  0.00     0.200 A 
ATOM     68  F   UNL A   1      44.998  33.439  26.494  1.00  0.00    -0.200 F 
ATOM     69  F   UNL A   1      47.365  34.760  26.762  1.00  0.00    -0.200 F 
ENDBRANCH  45  59
BRANCH  46  70
ATOM     70  C   UNL A   1      39.363  28.143  29.365  1.00  0.00     0.064 A 
ATOM     71  C   UNL A   1      38.543  28.272  30.497  1.00  0.00     0.173 A 
ATOM     72  C   UNL A   1      38.885  28.728  28.175  1.00  0.00     0.173 A 
ATOM     73  F   UNL A   1      38.945  27.783  31.679  1.00  0.00    -0.203 F 
ATOM     74  C   UNL A   1      37.330  28.968  30.448  1.00  0.00     0.198 A 
ATOM     75  C   UNL A   1      37.672  29.415  28.126  1.00  0.00     0.198 A 
ATOM     76  F   UNL A   1      39.630  28.732  27.061  1.00  0.00    -0.203 F 
ATOM     77  F   UNL A   1      36.606  29.126  31.564  1.00  0.00    -0.200 F 
ATOM     78  C   UNL A   1      36.901  29.547  29.265  1.00  0.00     0.200 A 
ATOM     79  F   UNL A   1      37.288  30.003  26.984  1.00  0.00    -0.200 F 
ATOM     80  F   UNL A   1      35.772  30.267  29.233  1.00  0.00    -0.200 F 
ENDBRANCH  46  70
BRANCH  58  81
ATOM     81  C   UNL A   1      44.852  26.918  32.190  1.00  0.00     0.064 A 
ATOM     82  C   UNL A   1      44.776  27.123  33.579  1.00  0.00     0.173 A 
ATOM     83  C   UNL A   1      44.654  25.614  31.720  1.00  0.00     0.173 A 
ATOM     84  F   UNL A   1      44.852  28.355  34.099  1.00  0.00    -0.203 F 
ATOM     85  C   UNL A   1      44.561  26.061  34.455  1.00  0.00     0.198 A 
ATOM     86  C   UNL A   1      44.401  24.561  32.594  1.00  0.00     0.198 A 
ATOM     87  F   UNL A   1      44.659  25.367  30.399  1.00  0.00    -0.203 F 
ATOM     88  F   UNL A   1      44.509  26.280  35.778  1.00  0.00    -0.200 F 
ATOM     89  C   UNL A   1      44.367  24.782  33.961  1.00  0.00     0.200 A 
ATOM     90  F   UNL A   1      44.165  23.334  32.109  1.00  0.00    -0.200 F 
ATOM     91  F   UNL A   1      44.120  23.766  34.801  1.00  0.00    -0.200 F 
ENDBRANCH  58  81
ENDBRANCH  32  33
ENDBRANCH  25  27
ENDBRANCH  24  25
ENDBRANCH  23  24
ENDBRANCH  22  23
ENDBRANCH  21  22
ENDBRANCH  20  21
ENDBRANCH   1  20
TORSDOF 19
ENDMDL
MODEL 2
REMARK VINA RESULT:     -10.2      1.314      2.324
REMARK SMILES C[C@H]1OCC[C@H]1c1nnnn1CC(=O)OCCOCCOCCOC(=O)c1ccc(-c2c3nc(c(-c4c(F)c(F)c(F)c(F)c4F)c4ccc([nH]4)c(-c4c(F)c(F)c(F)c(F)c4F)c4nc(c(-c5c(F)c(F)c(F)c(F)c5F)c5ccc2[nH]5)C=C4)C=C3)cc1
REMARK SMILES IDX 19 1 18 2 17 3 16 4 15 5 13 6 14 7 12 8 11 9 7 10 8 11 9 12
REMARK SMILES IDX 10 13 6 14 1 15 2 16 3 17 4 18 5 19 20 20 21 21 22 22 23 23
REMARK SMILES IDX 24 24 25 25 26 26 27 27 28 28 89 29 29 30 88 31 30 32 31 33
REMARK SMILES IDX 32 34 82 35 33 36 87 37 81 38 83 39 34 40 86 41 80 42 79 43
REMARK SMILES IDX 35 45 67 46 47 47 66 48 48 49 51 50 65 51 84 52 49 53 50 54
REMARK SMILES IDX 64 56 85 57 52 58 36 59 37 60 45 61 38 62 39 63 43 64 46 65
REMARK SMILES IDX 40 66 41 67 44 68 42 69 68 70 69 71 77 72 70 73 71 74 75 75
REMARK SMILES IDX 78 76 72 77 73 78 76 79 74 80 53 81 54 82 62 83 55 84 56 85
REMARK SMILES IDX 60 86 63 87 57 88 58 89 61 90 59 91
REMARK H PARENT 83 44 51 55
REMARK Flexibility Score: inf
ROOT
ATOM      1  C   UNL A   1      38.475  21.354  25.369  1.00  0.00     0.188 C 
ENDROOT
BRANCH   1   2
ATOM      2  O   UNL A   1      37.300  22.132  25.111  1.00  0.00    -0.376 OA
BRANCH   2   3
ATOM      3  C   UNL A   1      37.133  23.323  25.883  1.00  0.00     0.202 C 
BRANCH   3   4
ATOM      4  C   UNL A   1      35.809  24.086  25.682  1.00  0.00     0.261 C 
BRANCH   4   5
ATOM      5  O   UNL A   1      34.841  23.402  24.856  1.00  0.00    -0.462 OA
BRANCH   5   6
ATOM      6  C   UNL A   1      33.545  23.628  25.150  1.00  0.00     0.327 C 
ATOM      7  O   UNL A   1      33.126  23.843  26.285  1.00  0.00    -0.250 OA
BRANCH   6   8
ATOM      8  C   UNL A   1      32.600  23.674  23.993  1.00  0.00     0.270 C 
BRANCH   8   9
ATOM      9  N   UNL A   1      32.667  24.763  23.039  1.00  0.00    -0.218 N 
ATOM     10  C   UNL A   1      32.246  26.066  23.229  1.00  0.00     0.157 A 
ATOM     11  N   UNL A   1      32.821  26.815  22.309  1.00  0.00    -0.113 NA
ATOM     12  N   UNL A   1      33.657  25.992  21.607  1.00  0.00    -0.024 NA
ATOM     13  N   UNL A   1      33.620  24.758  22.087  1.00  0.00    -0.044 NA
BRANCH  10  14
ATOM     14  C   UNL A   1      31.353  26.517  24.335  1.00  0.00     0.090 C 
ATOM     15  C   UNL A   1      33.593  27.277  25.535  1.00  0.00     0.039 C 
ATOM     16  C   UNL A   1      32.067  27.203  25.526  1.00  0.00     0.126 C 
ATOM     17  O   UNL A   1      31.589  28.561  25.588  1.00  0.00    -0.378 OA
ATOM     18  C   UNL A   1      31.001  28.867  24.322  1.00  0.00     0.161 C 
ATOM     19  C   UNL A   1      30.351  27.577  23.887  1.00  0.00     0.043 C 
ENDBRANCH  10  14
ENDBRANCH   8   9
ENDBRANCH   6   8
ENDBRANCH   5   6
ENDBRANCH   4   5
ENDBRANCH   3   4
ENDBRANCH   2   3
ENDBRANCH   1   2
BRANCH   1  20
ATOM     20  C   UNL A   1      38.347  19.854  25.079  1.00  0.00     0.188 C 
BRANCH  20  21
ATOM     21  O   UNL A   1      39.527  19.156  25.450  1.00  0.00    -0.376 OA
BRANCH  21  22
ATOM     22  C   UNL A   1      40.518  19.723  26.295  1.00  0.00     0.202 C 
BRANCH  22  23
ATOM     23  C   UNL A   1      41.982  19.303  26.162  1.00  0.00     0.261 C 
BRANCH  23  24
ATOM     24  O   UNL A   1      42.700  19.960  25.134  1.00  0.00    -0.460 OA
BRANCH  24  25
ATOM     25  C   UNL A   1      44.046  20.000  25.224  1.00  0.00     0.338 C 
ATOM     26  O   UNL A   1      44.812  19.074  25.372  1.00  0.00    -0.246 OA
BRANCH  25  27
ATOM     27  C   UNL A   1      44.405  21.426  25.122  1.00  0.00     0.060 A 
ATOM     28  C   UNL A   1      45.575  21.830  25.754  1.00  0.00     0.016 A 
ATOM     29  C   UNL A   1      43.477  22.353  24.604  1.00  0.00     0.016 A 
ATOM     30  C   UNL A   1      45.647  23.140  26.162  1.00  0.00     0.010 A 
ATOM     31  C   UNL A   1      43.544  23.656  25.013  1.00  0.00     0.010 A 
ATOM     32  C   UNL A   1      44.558  23.981  25.897  1.00  0.00    -0.014 A 
BRANCH  32  33
ATOM     33  C   UNL A   1      44.457  25.199  26.657  1.00  0.00     0.031 A 
ATOM     34  C   UNL A   1      45.603  26.098  26.491  1.00  0.00     0.074 A 
ATOM     35  C   UNL A   1      43.384  25.458  27.426  1.00  0.00     0.049 A 
ATOM     36  N   UNL A   1      46.536  26.334  27.348  1.00  0.00    -0.248 NA
ATOM     37  C   UNL A   1      45.827  26.675  25.160  1.00  0.00     0.031 C 
ATOM     38  C   UNL A   1      42.082  24.786  27.447  1.00  0.00     0.029 A 
ATOM     39  N   UNL A   1      43.228  26.462  28.324  1.00  0.00    -0.354 N 
ATOM     40  C   UNL A   1      47.376  27.247  26.730  1.00  0.00     0.074 A 
ATOM     41  C   UNL A   1      47.004  27.276  25.340  1.00  0.00     0.031 C 
ATOM     42  C   UNL A   1      41.209  25.535  28.162  1.00  0.00     0.029 A 
ATOM     43  C   UNL A   1      41.925  26.653  28.752  1.00  0.00     0.049 A 
ATOM     44  H   UNL A   1      43.980  27.010  28.646  1.00  0.00     0.167 HD
ATOM     45  C   UNL A   1      48.135  28.097  27.471  1.00  0.00     0.037 A 
ATOM     46  C   UNL A   1      41.484  27.712  29.474  1.00  0.00     0.037 A 
ATOM     47  C   UNL A   1      48.280  27.626  28.826  1.00  0.00     0.049 A 
ATOM     48  C   UNL A   1      42.670  28.334  30.123  1.00  0.00     0.074 A 
ATOM     49  C   UNL A   1      48.808  26.484  29.401  1.00  0.00     0.029 A 
ATOM     50  N   UNL A   1      47.506  28.206  29.802  1.00  0.00    -0.354 N 
ATOM     51  N   UNL A   1      43.352  27.773  31.083  1.00  0.00    -0.248 NA
ATOM     52  C   UNL A   1      43.374  29.379  29.391  1.00  0.00     0.031 C 
ATOM     53  C   UNL A   1      47.960  26.196  30.510  1.00  0.00     0.029 A 
ATOM     54  C   UNL A   1      46.992  27.198  30.577  1.00  0.00     0.049 A 
ATOM     55  H   UNL A   1      47.350  29.170  29.922  1.00  0.00     0.167 HD
ATOM     56  C   UNL A   1      44.676  28.079  30.806  1.00  0.00     0.074 A 
ATOM     57  C   UNL A   1      44.621  29.144  29.809  1.00  0.00     0.031 C 
ATOM     58  C   UNL A   1      45.687  27.247  31.194  1.00  0.00     0.037 A 
BRANCH  45  59
ATOM     59  C   UNL A   1      48.404  29.522  27.069  1.00  0.00     0.064 A 
ATOM     60  C   UNL A   1      49.730  29.991  27.083  1.00  0.00     0.173 A 
ATOM     61  C   UNL A   1      47.404  30.514  26.957  1.00  0.00     0.173 A 
ATOM     62  F   UNL A   1      50.756  29.136  27.209  1.00  0.00    -0.203 F 
ATOM     63  C   UNL A   1      50.025  31.356  27.070  1.00  0.00     0.198 A 
ATOM     64  C   UNL A   1      47.706  31.870  26.883  1.00  0.00     0.198 A 
ATOM     65  F   UNL A   1      46.098  30.232  27.035  1.00  0.00    -0.203 F 
ATOM     66  F   UNL A   1      51.292  31.761  27.221  1.00  0.00    -0.200 F 
ATOM     67  C   UNL A   1      49.014  32.295  26.974  1.00  0.00     0.200 A 
ATOM     68  F   UNL A   1      46.708  32.763  26.810  1.00  0.00    -0.200 F 
ATOM     69  F   UNL A   1      49.291  33.603  27.024  1.00  0.00    -0.200 F 
ENDBRANCH  45  59
BRANCH  46  70
ATOM     70  C   UNL A   1      40.182  28.410  29.363  1.00  0.00     0.064 A 
ATOM     71  C   UNL A   1      39.731  28.903  28.129  1.00  0.00     0.173 A 
ATOM     72  C   UNL A   1      39.232  28.358  30.403  1.00  0.00     0.173 A 
ATOM     73  F   UNL A   1      40.560  28.943  27.075  1.00  0.00    -0.203 F 
ATOM     74  C   UNL A   1      38.401  29.295  27.938  1.00  0.00     0.198 A 
ATOM     75  C   UNL A   1      37.909  28.757  30.212  1.00  0.00     0.198 A 
ATOM     76  F   UNL A   1      39.541  27.827  31.594  1.00  0.00    -0.203 F 
ATOM     77  F   UNL A   1      37.992  29.699  26.727  1.00  0.00    -0.200 F 
ATOM     78  C   UNL A   1      37.489  29.212  28.977  1.00  0.00     0.200 A 
ATOM     79  F   UNL A   1      37.028  28.635  31.217  1.00  0.00    -0.200 F 
ATOM     80  F   UNL A   1      36.202  29.527  28.777  1.00  0.00    -0.200 F 
ENDBRANCH  46  70
BRANCH  58  81
ATOM     81  C   UNL A   1      45.347  26.143  32.155  1.00  0.00     0.064 A 
ATOM     82  C   UNL A   1      44.767  24.921  31.771  1.00  0.00     0.173 A 
ATOM     83  C   UNL A   1      45.747  26.275  33.491  1.00  0.00     0.173 A 
ATOM     84  F   UNL A   1      44.451  24.679  30.493  1.00  0.00    -0.203 F 
ATOM     85  C   UNL A   1      44.553  23.900  32.697  1.00  0.00     0.198 A 
ATOM     86  C   UNL A   1      45.568  25.239  34.404  1.00  0.00     0.198 A 
ATOM     87  F   UNL A   1      46.358  27.398  33.902  1.00  0.00    -0.203 F 
ATOM     88  F   UNL A   1      43.983  22.749  32.309  1.00  0.00    -0.200 F 
ATOM     89  C   UNL A   1      44.961  24.058  34.011  1.00  0.00     0.200 A 
ATOM     90  F   UNL A   1      46.008  25.378  35.662  1.00  0.00    -0.200 F 
ATOM     91  F   UNL A   1      44.793  23.061  34.892  1.00  0.00    -0.200 F 
ENDBRANCH  58  81
ENDBRANCH  32  33
ENDBRANCH  25  27
ENDBRANCH  24  25
ENDBRANCH  23  24
ENDBRANCH  22  23
ENDBRANCH  21  22
ENDBRANCH  20  21
ENDBRANCH   1  20
TORSDOF 19
ENDMDL
MODEL 3
REMARK VINA RESULT:     -10.1      2.702      8.717
REMARK SMILES C[C@H]1OCC[C@H]1c1nnnn1CC(=O)OCCOCCOCCOC(=O)c1ccc(-c2c3nc(c(-c4c(F)c(F)c(F)c(F)c4F)c4ccc([nH]4)c(-c4c(F)c(F)c(F)c(F)c4F)c4nc(c(-c5c(F)c(F)c(F)c(F)c5F)c5ccc2[nH]5)C=C4)C=C3)cc1
REMARK SMILES IDX 19 1 18 2 17 3 16 4 15 5 13 6 14 7 12 8 11 9 7 10 8 11 9 12
REMARK SMILES IDX 10 13 6 14 1 15 2 16 3 17 4 18 5 19 20 20 21 21 22 22 23 23
REMARK SMILES IDX 24 24 25 25 26 26 27 27 28 28 89 29 29 30 88 31 30 32 31 33
REMARK SMILES IDX 32 34 82 35 33 36 87 37 81 38 83 39 34 40 86 41 80 42 79 43
REMARK SMILES IDX 35 45 67 46 47 47 66 48 48 49 51 50 65 51 84 52 49 53 50 54
REMARK SMILES IDX 64 56 85 57 52 58 36 59 37 60 45 61 38 62 39 63 43 64 46 65
REMARK SMILES IDX 40 66 41 67 44 68 42 69 68 70 69 71 77 72 70 73 71 74 75 75
REMARK SMILES IDX 78 76 72 77 73 78 76 79 74 80 53 81 54 82 62 83 55 84 56 85
REMARK SMILES IDX 60 86 63 87 57 88 58 89 61 90 59 91
REMARK H PARENT 83 44 51 55
REMARK Flexibility Score: inf
ROOT
ATOM      1  C   UNL A   1      32.230  28.704  23.113  1.00  0.00     0.188 C 
ENDROOT
BRANCH   1   2
ATOM      2  O   UNL A   1      31.773  27.410  22.703  1.00  0.00    -0.376 OA
BRANCH   2   3
ATOM      3  C   UNL A   1      30.368  27.165  22.787  1.00  0.00     0.202 C 
BRANCH   3   4
ATOM      4  C   UNL A   1      29.931  26.003  23.700  1.00  0.00     0.261 C 
BRANCH   4   5
ATOM      5  O   UNL A   1      30.338  26.138  25.080  1.00  0.00    -0.462 OA
BRANCH   5   6
ATOM      6  C   UNL A   1      31.522  25.582  25.406  1.00  0.00     0.327 C 
ATOM      7  O   UNL A   1      32.413  26.173  26.013  1.00  0.00    -0.250 OA
BRANCH   6   8
ATOM      8  C   UNL A   1      31.703  24.143  25.046  1.00  0.00     0.270 C 
BRANCH   8   9
ATOM      9  N   UNL A   1      32.056  23.176  26.065  1.00  0.00    -0.218 N 
ATOM     10  C   UNL A   1      33.083  22.251  26.018  1.00  0.00     0.157 A 
ATOM     11  N   UNL A   1      33.320  21.845  27.249  1.00  0.00    -0.113 NA
ATOM     12  N   UNL A   1      32.499  22.577  28.062  1.00  0.00    -0.024 NA
ATOM     13  N   UNL A   1      31.777  23.435  27.357  1.00  0.00    -0.044 NA
BRANCH  10  14
ATOM     14  C   UNL A   1      33.817  21.860  24.779  1.00  0.00     0.090 C 
ATOM     15  C   UNL A   1      35.362  23.951  25.301  1.00  0.00     0.039 C 
ATOM     16  C   UNL A   1      35.051  22.731  24.436  1.00  0.00     0.126 C 
ATOM     17  O   UNL A   1      36.210  21.876  24.498  1.00  0.00    -0.378 OA
ATOM     18  C   UNL A   1      35.846  20.715  25.245  1.00  0.00     0.161 C 
ATOM     19  C   UNL A   1      34.409  20.456  24.865  1.00  0.00     0.043 C 
ENDBRANCH  10  14
ENDBRANCH   8   9
ENDBRANCH   6   8
ENDBRANCH   5   6
ENDBRANCH   4   5
ENDBRANCH   3   4
ENDBRANCH   2   3
ENDBRANCH   1   2
BRANCH   1  20
ATOM     20  C   UNL A   1      31.578  29.260  24.384  1.00  0.00     0.188 C 
BRANCH  20  21
ATOM     21  O   UNL A   1      32.480  30.087  25.105  1.00  0.00    -0.376 OA
BRANCH  21  22
ATOM     22  C   UNL A   1      33.130  29.658  26.293  1.00  0.00     0.202 C 
BRANCH  22  23
ATOM     23  C   UNL A   1      33.689  30.679  27.282  1.00  0.00     0.261 C 
BRANCH  23  24
ATOM     24  O   UNL A   1      35.009  30.422  27.725  1.00  0.00    -0.460 OA
BRANCH  24  25
ATOM     25  C   UNL A   1      35.789  31.475  28.048  1.00  0.00     0.338 C 
ATOM     26  O   UNL A   1      35.727  32.607  27.624  1.00  0.00    -0.246 OA
BRANCH  25  27
ATOM     27  C   UNL A   1      36.763  30.957  29.026  1.00  0.00     0.060 A 
ATOM     28  C   UNL A   1      37.941  31.677  29.187  1.00  0.00     0.016 A 
ATOM     29  C   UNL A   1      36.589  29.674  29.587  1.00  0.00     0.016 A 
ATOM     30  C   UNL A   1      39.047  30.983  29.612  1.00  0.00     0.010 A 
ATOM     31  C   UNL A   1      37.689  28.980  30.005  1.00  0.00     0.010 A 
ATOM     32  C   UNL A   1      38.913  29.612  29.875  1.00  0.00    -0.014 A 
BRANCH  32  33
ATOM     33  C   UNL A   1      40.116  28.823  29.920  1.00  0.00     0.031 A 
ATOM     34  C   UNL A   1      40.686  28.687  31.264  1.00  0.00     0.074 A 
ATOM     35  C   UNL A   1      40.628  28.263  28.809  1.00  0.00     0.049 A 
ATOM     36  N   UNL A   1      41.748  29.259  31.718  1.00  0.00    -0.248 NA
ATOM     37  C   UNL A   1      39.897  27.963  32.268  1.00  0.00     0.031 C 
ATOM     38  C   UNL A   1      40.007  28.094  27.493  1.00  0.00     0.029 A 
ATOM     39  N   UNL A   1      41.830  27.653  28.665  1.00  0.00    -0.354 N 
ATOM     40  C   UNL A   1      41.871  28.814  33.025  1.00  0.00     0.074 A 
ATOM     41  C   UNL A   1      40.623  28.181  33.364  1.00  0.00     0.031 C 
ATOM     42  C   UNL A   1      40.758  27.241  26.756  1.00  0.00     0.029 A 
ATOM     43  C   UNL A   1      41.967  26.922  27.497  1.00  0.00     0.049 A 
ATOM     44  H   UNL A   1      42.548  27.724  29.335  1.00  0.00     0.167 HD
ATOM     45  C   UNL A   1      43.088  28.774  33.628  1.00  0.00     0.037 A 
ATOM     46  C   UNL A   1      42.978  26.062  27.223  1.00  0.00     0.037 A 
ATOM     47  C   UNL A   1      44.038  29.622  32.951  1.00  0.00     0.049 A 
ATOM     48  C   UNL A   1      44.111  26.406  28.124  1.00  0.00     0.074 A 
ATOM     49  C   UNL A   1      44.100  30.976  32.676  1.00  0.00     0.029 A 
ATOM     50  N   UNL A   1      44.951  29.033  32.111  1.00  0.00    -0.354 N 
ATOM     51  N   UNL A   1      44.815  27.500  28.023  1.00  0.00    -0.248 NA
ATOM     52  C   UNL A   1      44.169  25.749  29.424  1.00  0.00     0.031 C 
ATOM     53  C   UNL A   1      44.690  31.070  31.382  1.00  0.00     0.029 A 
ATOM     54  C   UNL A   1      44.995  29.776  30.959  1.00  0.00     0.049 A 
ATOM     55  H   UNL A   1      45.479  28.225  32.302  1.00  0.00     0.167 HD
ATOM     56  C   UNL A   1      45.050  27.895  29.331  1.00  0.00     0.074 A 
ATOM     57  C   UNL A   1      44.710  26.733  30.147  1.00  0.00     0.031 C 
ATOM     58  C   UNL A   1      45.220  29.212  29.649  1.00  0.00     0.037 A 
BRANCH  45  59
ATOM     59  C   UNL A   1      43.501  27.681  34.575  1.00  0.00     0.064 A 
ATOM     60  C   UNL A   1      43.488  26.350  34.122  1.00  0.00     0.173 A 
ATOM     61  C   UNL A   1      43.623  27.850  35.973  1.00  0.00     0.173 A 
ATOM     62  F   UNL A   1      43.354  26.074  32.816  1.00  0.00    -0.203 F 
ATOM     63  C   UNL A   1      43.512  25.272  35.009  1.00  0.00     0.198 A 
ATOM     64  C   UNL A   1      43.708  26.773  36.849  1.00  0.00     0.198 A 
ATOM     65  F   UNL A   1      43.545  29.049  36.562  1.00  0.00    -0.203 F 
ATOM     66  F   UNL A   1      43.362  24.026  34.542  1.00  0.00    -0.200 F 
ATOM     67  C   UNL A   1      43.617  25.483  36.372  1.00  0.00     0.200 A 
ATOM     68  F   UNL A   1      43.790  27.002  38.168  1.00  0.00    -0.200 F 
ATOM     69  F   UNL A   1      43.577  24.454  37.227  1.00  0.00    -0.200 F 
ENDBRANCH  45  59
BRANCH  46  70
ATOM     70  C   UNL A   1      42.905  24.774  26.494  1.00  0.00     0.064 A 
ATOM     71  C   UNL A   1      43.726  24.526  25.384  1.00  0.00     0.173 A 
ATOM     72  C   UNL A   1      42.235  23.661  27.040  1.00  0.00     0.173 A 
ATOM     73  F   UNL A   1      44.434  25.523  24.833  1.00  0.00    -0.203 F 
ATOM     74  C   UNL A   1      43.889  23.236  24.866  1.00  0.00     0.198 A 
ATOM     75  C   UNL A   1      42.392  22.377  26.518  1.00  0.00     0.198 A 
ATOM     76  F   UNL A   1      41.492  23.778  28.149  1.00  0.00    -0.203 F 
ATOM     77  F   UNL A   1      44.733  23.028  23.846  1.00  0.00    -0.200 F 
ATOM     78  C   UNL A   1      43.230  22.162  25.440  1.00  0.00     0.200 A 
ATOM     79  F   UNL A   1      41.778  21.341  27.107  1.00  0.00    -0.200 F 
ATOM     80  F   UNL A   1      43.435  20.918  24.985  1.00  0.00    -0.200 F 
ENDBRANCH  46  70
BRANCH  58  81
ATOM     81  C   UNL A   1      45.416  30.179  28.516  1.00  0.00     0.064 A 
ATOM     82  C   UNL A   1      44.361  30.777  27.804  1.00  0.00     0.173 A 
ATOM     83  C   UNL A   1      46.715  30.619  28.231  1.00  0.00     0.173 A 
ATOM     84  F   UNL A   1      43.085  30.486  28.090  1.00  0.00    -0.203 F 
ATOM     85  C   UNL A   1      44.603  31.733  26.820  1.00  0.00     0.198 A 
ATOM     86  C   UNL A   1      46.952  31.603  27.274  1.00  0.00     0.198 A 
ATOM     87  F   UNL A   1      47.758  30.126  28.918  1.00  0.00    -0.203 F 
ATOM     88  F   UNL A   1      43.579  32.276  26.144  1.00  0.00    -0.200 F 
ATOM     89  C   UNL A   1      45.898  32.150  26.560  1.00  0.00     0.200 A 
ATOM     90  F   UNL A   1      48.201  32.038  27.061  1.00  0.00    -0.200 F 
ATOM     91  F   UNL A   1      46.129  33.100  25.642  1.00  0.00    -0.200 F 
ENDBRANCH  58  81
ENDBRANCH  32  33
ENDBRANCH  25  27
ENDBRANCH  24  25
ENDBRANCH  23  24
ENDBRANCH  22  23
ENDBRANCH  21  22
ENDBRANCH  20  21
ENDBRANCH   1  20
TORSDOF 19
ENDMDL
