MODEL 1
REMARK VINA RESULT:     -12.4      0.000      0.000
REMARK SMILES Cc1ccc(OC(F)(F)F)cc1C(=O)OCCOCCOCCOC(=O)c1ccc(-c2c3nc(c(-c4c(F)c(F)c(F)c(F)c4F)c4ccc([nH]4)c(-c4c(F)c(F)c(F)c(F)c4F)c4nc(c(-c5c(F)c(F)c(F)c(F)c5F)c5ccc2[nH]5)C=C4)C=C3)cc1
REMARK SMILES IDX 19 1 18 2 17 3 16 4 15 5 13 6 14 7 12 8 1 9 2 10 3 11 4 12
REMARK SMILES IDX 11 13 5 14 6 15 7 16 8 17 9 18 10 19 20 20 21 21 22 22 23 23
REMARK SMILES IDX 24 24 25 25 26 26 27 27 28 28 89 29 29 30 88 31 30 32 31 33
REMARK SMILES IDX 32 34 82 35 33 36 87 37 81 38 83 39 34 40 86 41 80 42 79 43
REMARK SMILES IDX 35 45 67 46 47 47 66 48 48 49 51 50 65 51 84 52 49 53 50 54
REMARK SMILES IDX 64 56 85 57 52 58 36 59 37 60 45 61 38 62 39 63 43 64 46 65
REMARK SMILES IDX 40 66 41 67 44 68 42 69 68 70 69 71 77 72 70 73 71 74 75 75
REMARK SMILES IDX 78 76 72 77 73 78 76 79 74 80 53 81 54 82 62 83 55 84 56 85
REMARK SMILES IDX 60 86 63 87 57 88 58 89 61 90 59 91
REMARK H PARENT 83 44 51 55
REMARK Flexibility Score: inf
ROOT
ATOM      1  C   UNL A   1      40.261  21.147  26.078  1.00  0.00     0.188 C 
ENDROOT
BRANCH   1   2
ATOM      2  O   UNL A   1      38.874  21.568  26.023  1.00  0.00    -0.376 OA
BRANCH   2   3
ATOM      3  C   UNL A   1      37.869  21.042  25.124  1.00  0.00     0.202 C 
BRANCH   3   4
ATOM      4  C   UNL A   1      36.854  22.015  24.156  1.00  0.00     0.261 C 
BRANCH   4   5
ATOM      5  O   UNL A   1      35.401  22.777  24.539  1.00  0.00    -0.460 OA
BRANCH   5   6
ATOM      6  C   UNL A   1      34.147  22.396  25.107  1.00  0.00     0.338 C 
ATOM      7  O   UNL A   1      33.538  22.929  26.034  1.00  0.00    -0.246 OA
BRANCH   6   8
ATOM      8  C   UNL A   1      33.237  21.296  24.714  1.00  0.00     0.066 A 
ATOM      9  C   UNL A   1      32.607  22.593  22.664  1.00  0.00     0.045 C 
ATOM     10  C   UNL A   1      32.629  21.332  23.469  1.00  0.00    -0.036 A 
ATOM     11  C   UNL A   1      32.256  20.109  22.883  1.00  0.00     0.008 A 
ATOM     12  C   UNL A   1      32.511  18.871  23.503  1.00  0.00     0.047 A 
ATOM     13  C   UNL A   1      33.497  20.008  25.330  1.00  0.00     0.062 A 
ATOM     14  C   UNL A   1      33.143  18.803  24.736  1.00  0.00     0.130 A 
BRANCH  14  15
ATOM     15  O   UNL A   1      33.447  17.543  25.168  1.00  0.00    -0.406 OA
BRANCH  15  16
ATOM     16  C   UNL A   1      34.464  16.803  24.505  1.00  0.00     0.573 C 
ATOM     17  F   UNL A   1      34.992  15.859  25.311  1.00  0.00    -0.132 F 
ATOM     18  F   UNL A   1      33.997  16.229  23.377  1.00  0.00    -0.132 F 
ATOM     19  F   UNL A   1      35.458  17.656  24.158  1.00  0.00    -0.132 F 
ENDBRANCH  15  16
ENDBRANCH  14  15
ENDBRANCH   6   8
ENDBRANCH   5   6
ENDBRANCH   4   5
ENDBRANCH   3   4
ENDBRANCH   2   3
ENDBRANCH   1   2
BRANCH   1  20
ATOM     20  C   UNL A   1      40.734  19.719  26.379  1.00  0.00     0.188 C 
BRANCH  20  21
ATOM     21  O   UNL A   1      41.710  19.305  25.441  1.00  0.00    -0.376 OA
BRANCH  21  22
ATOM     22  C   UNL A   1      43.006  19.061  25.971  1.00  0.00     0.202 C 
BRANCH  22  23
ATOM     23  C   UNL A   1      44.146  19.275  24.946  1.00  0.00     0.261 C 
BRANCH  23  24
ATOM     24  O   UNL A   1      44.119  20.620  24.404  1.00  0.00    -0.460 OA
BRANCH  24  25
ATOM     25  C   UNL A   1      44.995  21.545  24.923  1.00  0.00     0.338 C 
ATOM     26  O   UNL A   1      46.117  21.285  25.330  1.00  0.00    -0.246 OA
BRANCH  25  27
ATOM     27  C   UNL A   1      44.288  22.855  25.151  1.00  0.00     0.060 A 
ATOM     28  C   UNL A   1      44.635  24.133  24.674  1.00  0.00     0.016 A 
ATOM     29  C   UNL A   1      43.441  22.858  26.198  1.00  0.00     0.016 A 
ATOM     30  C   UNL A   1      44.243  25.366  25.382  1.00  0.00     0.010 A 
ATOM     31  C   UNL A   1      43.394  24.029  26.944  1.00  0.00     0.010 A 
ATOM     32  C   UNL A   1      43.632  25.360  26.638  1.00  0.00    -0.014 A 
BRANCH  32  33
ATOM     33  C   UNL A   1      43.424  26.532  27.723  1.00  0.00     0.031 A 
ATOM     34  C   UNL A   1      42.163  27.551  28.161  1.00  0.00     0.074 A 
ATOM     35  C   UNL A   1      44.529  26.734  28.479  1.00  0.00     0.049 A 
ATOM     36  N   UNL A   1      42.351  28.744  28.706  1.00  0.00    -0.248 NA
ATOM     37  C   UNL A   1      40.661  27.435  28.009  1.00  0.00     0.031 C 
ATOM     38  C   UNL A   1      44.676  27.544  29.685  1.00  0.00     0.029 A 
ATOM     39  N   UNL A   1      45.844  26.328  28.189  1.00  0.00    -0.354 N 
ATOM     40  C   UNL A   1      41.107  29.281  29.057  1.00  0.00     0.074 A 
ATOM     41  C   UNL A   1      40.139  28.606  28.308  1.00  0.00     0.031 C 
ATOM     42  C   UNL A   1      45.970  27.871  29.820  1.00  0.00     0.029 A 
ATOM     43  C   UNL A   1      46.666  27.367  28.654  1.00  0.00     0.049 A 
ATOM     44  H   UNL A   1      46.127  25.493  27.751  1.00  0.00     0.167 HD
ATOM     45  C   UNL A   1      40.884  30.151  30.073  1.00  0.00     0.037 A 
ATOM     46  C   UNL A   1      47.432  28.078  27.783  1.00  0.00     0.037 A 
ATOM     47  C   UNL A   1      42.118  30.811  30.391  1.00  0.00     0.049 A 
ATOM     48  C   UNL A   1      47.103  29.552  27.793  1.00  0.00     0.074 A 
ATOM     49  C   UNL A   1      43.059  30.664  31.384  1.00  0.00     0.029 A 
ATOM     50  N   UNL A   1      42.723  31.511  29.355  1.00  0.00    -0.354 N 
ATOM     51  N   UNL A   1      46.082  30.074  28.421  1.00  0.00    -0.248 NA
ATOM     52  C   UNL A   1      47.890  30.559  27.090  1.00  0.00     0.031 C 
ATOM     53  C   UNL A   1      44.298  31.125  30.843  1.00  0.00     0.029 A 
ATOM     54  C   UNL A   1      44.080  31.617  29.563  1.00  0.00     0.049 A 
ATOM     55  H   UNL A   1      42.246  31.882  28.578  1.00  0.00     0.167 HD
ATOM     56  C   UNL A   1      45.996  31.409  28.134  1.00  0.00     0.074 A 
ATOM     57  C   UNL A   1      47.186  31.674  27.349  1.00  0.00     0.031 C 
ATOM     58  C   UNL A   1      44.928  32.174  28.511  1.00  0.00     0.037 A 
BRANCH  45  59
ATOM     59  C   UNL A   1      39.526  30.330  30.763  1.00  0.00     0.064 A 
ATOM     60  C   UNL A   1      39.000  29.327  31.596  1.00  0.00     0.173 A 
ATOM     61  C   UNL A   1      38.648  31.436  30.574  1.00  0.00     0.173 A 
ATOM     62  F   UNL A   1      39.675  28.187  31.798  1.00  0.00    -0.203 F 
ATOM     63  C   UNL A   1      37.749  29.450  32.230  1.00  0.00     0.198 A 
ATOM     64  C   UNL A   1      37.445  31.597  31.273  1.00  0.00     0.198 A 
ATOM     65  F   UNL A   1      38.868  32.378  29.647  1.00  0.00    -0.203 F 
ATOM     66  F   UNL A   1      37.273  28.437  32.968  1.00  0.00    -0.200 F 
ATOM     67  C   UNL A   1      36.989  30.599  32.097  1.00  0.00     0.200 A 
ATOM     68  F   UNL A   1      36.723  32.717  31.108  1.00  0.00    -0.200 F 
ATOM     69  F   UNL A   1      35.811  30.725  32.724  1.00  0.00    -0.200 F 
ENDBRANCH  45  59
BRANCH  46  70
ATOM     70  C   UNL A   1      47.945  27.245  26.649  1.00  0.00     0.064 A 
ATOM     71  C   UNL A   1      47.357  27.456  25.379  1.00  0.00     0.173 A 
ATOM     72  C   UNL A   1      49.167  26.564  26.670  1.00  0.00     0.173 A 
ATOM     73  F   UNL A   1      46.182  28.100  25.286  1.00  0.00    -0.203 F 
ATOM     74  C   UNL A   1      48.019  27.136  24.194  1.00  0.00     0.198 A 
ATOM     75  C   UNL A   1      49.813  26.207  25.474  1.00  0.00     0.198 A 
ATOM     76  F   UNL A   1      49.817  26.369  27.825  1.00  0.00    -0.203 F 
ATOM     77  F   UNL A   1      47.489  27.495  23.015  1.00  0.00    -0.200 F 
ATOM     78  C   UNL A   1      49.258  26.531  24.242  1.00  0.00     0.200 A 
ATOM     79  F   UNL A   1      51.047  25.683  25.513  1.00  0.00    -0.200 F 
ATOM     80  F   UNL A   1      49.948  26.323  23.111  1.00  0.00    -0.200 F 
ENDBRANCH  46  70
BRANCH  58  81
ATOM     81  C   UNL A   1      44.584  33.519  27.898  1.00  0.00     0.064 A 
ATOM     82  C   UNL A   1      44.031  33.674  26.613  1.00  0.00     0.173 A 
ATOM     83  C   UNL A   1      44.655  34.705  28.669  1.00  0.00     0.173 A 
ATOM     84  F   UNL A   1      43.765  32.622  25.830  1.00  0.00    -0.203 F 
ATOM     85  C   UNL A   1      43.667  34.925  26.105  1.00  0.00     0.198 A 
ATOM     86  C   UNL A   1      44.214  35.938  28.188  1.00  0.00     0.198 A 
ATOM     87  F   UNL A   1      45.123  34.695  29.925  1.00  0.00    -0.203 F 
ATOM     88  F   UNL A   1      43.210  35.020  24.849  1.00  0.00    -0.200 F 
ATOM     89  C   UNL A   1      43.744  36.053  26.897  1.00  0.00     0.200 A 
ATOM     90  F   UNL A   1      44.225  37.009  28.994  1.00  0.00    -0.200 F 
ATOM     91  F   UNL A   1      43.347  37.241  26.423  1.00  0.00    -0.200 F 
ENDBRANCH  58  81
ENDBRANCH  32  33
ENDBRANCH  25  27
ENDBRANCH  24  25
ENDBRANCH  23  24
ENDBRANCH  22  23
ENDBRANCH  21  22
ENDBRANCH  20  21
ENDBRANCH   1  20
TORSDOF 19
ENDMDL
MODEL 2
REMARK VINA RESULT:     -12.4      4.050     10.127
REMARK SMILES Cc1ccc(OC(F)(F)F)cc1C(=O)OCCOCCOCCOC(=O)c1ccc(-c2c3nc(c(-c4c(F)c(F)c(F)c(F)c4F)c4ccc([nH]4)c(-c4c(F)c(F)c(F)c(F)c4F)c4nc(c(-c5c(F)c(F)c(F)c(F)c5F)c5ccc2[nH]5)C=C4)C=C3)cc1
REMARK SMILES IDX 19 1 18 2 17 3 16 4 15 5 13 6 14 7 12 8 1 9 2 10 3 11 4 12
REMARK SMILES IDX 11 13 5 14 6 15 7 16 8 17 9 18 10 19 20 20 21 21 22 22 23 23
REMARK SMILES IDX 24 24 25 25 26 26 27 27 28 28 89 29 29 30 88 31 30 32 31 33
REMARK SMILES IDX 32 34 82 35 33 36 87 37 81 38 83 39 34 40 86 41 80 42 79 43
REMARK SMILES IDX 35 45 67 46 47 47 66 48 48 49 51 50 65 51 84 52 49 53 50 54
REMARK SMILES IDX 64 56 85 57 52 58 36 59 37 60 45 61 38 62 39 63 43 64 46 65
REMARK SMILES IDX 40 66 41 67 44 68 42 69 68 70 69 71 77 72 70 73 71 74 75 75
REMARK SMILES IDX 78 76 72 77 73 78 76 79 74 80 53 81 54 82 62 83 55 84 56 85
REMARK SMILES IDX 60 86 63 87 57 88 58 89 61 90 59 91
REMARK H PARENT 83 44 51 55
REMARK Flexibility Score: inf
ROOT
ATOM      1  C   UNL A   1      31.402  28.914  24.031  1.00  0.00     0.188 C 
ENDROOT
BRANCH   1   2
ATOM      2  O   UNL A   1      30.241  28.195  23.542  1.00  0.00    -0.376 OA
BRANCH   2   3
ATOM      3  C   UNL A   1      29.873  26.843  23.904  1.00  0.00     0.202 C 
BRANCH   3   4
ATOM      4  C   UNL A   1      30.677  25.451  23.328  1.00  0.00     0.261 C 
BRANCH   4   5
ATOM      5  O   UNL A   1      32.285  25.245  22.866  1.00  0.00    -0.460 OA
BRANCH   5   6
ATOM      6  C   UNL A   1      33.248  24.191  22.900  1.00  0.00     0.338 C 
ATOM      7  O   UNL A   1      34.058  23.872  22.030  1.00  0.00    -0.246 OA
BRANCH   6   8
ATOM      8  C   UNL A   1      33.553  23.237  23.990  1.00  0.00     0.066 A 
ATOM      9  C   UNL A   1      34.264  25.159  25.431  1.00  0.00     0.045 C 
ATOM     10  C   UNL A   1      33.886  23.724  25.243  1.00  0.00    -0.036 A 
ATOM     11  C   UNL A   1      33.625  22.907  26.358  1.00  0.00     0.008 A 
ATOM     12  C   UNL A   1      33.013  21.645  26.237  1.00  0.00     0.047 A 
ATOM     13  C   UNL A   1      32.916  21.937  23.890  1.00  0.00     0.062 A 
ATOM     14  C   UNL A   1      32.643  21.144  24.997  1.00  0.00     0.130 A 
BRANCH  14  15
ATOM     15  O   UNL A   1      31.945  19.970  25.028  1.00  0.00    -0.406 OA
BRANCH  15  16
ATOM     16  C   UNL A   1      32.651  18.736  25.075  1.00  0.00     0.573 C 
ATOM     17  F   UNL A   1      33.834  18.818  24.433  1.00  0.00    -0.132 F 
ATOM     18  F   UNL A   1      32.851  18.336  26.348  1.00  0.00    -0.132 F 
ATOM     19  F   UNL A   1      31.905  17.792  24.454  1.00  0.00    -0.132 F 
ENDBRANCH  15  16
ENDBRANCH  14  15
ENDBRANCH   6   8
ENDBRANCH   5   6
ENDBRANCH   4   5
ENDBRANCH   3   4
ENDBRANCH   2   3
ENDBRANCH   1   2
BRANCH   1  20
ATOM     20  C   UNL A   1      31.395  29.894  25.211  1.00  0.00     0.188 C 
BRANCH  20  21
ATOM     21  O   UNL A   1      31.615  29.213  26.432  1.00  0.00    -0.376 OA
BRANCH  21  22
ATOM     22  C   UNL A   1      32.712  29.679  27.206  1.00  0.00     0.202 C 
BRANCH  22  23
ATOM     23  C   UNL A   1      32.953  31.203  27.085  1.00  0.00     0.261 C 
BRANCH  23  24
ATOM     24  O   UNL A   1      33.666  31.716  28.239  1.00  0.00    -0.460 OA
BRANCH  24  25
ATOM     25  C   UNL A   1      35.013  31.963  28.111  1.00  0.00     0.338 C 
ATOM     26  O   UNL A   1      35.489  32.961  27.590  1.00  0.00    -0.246 OA
BRANCH  25  27
ATOM     27  C   UNL A   1      35.801  30.730  28.467  1.00  0.00     0.060 A 
ATOM     28  C   UNL A   1      36.287  30.333  29.727  1.00  0.00     0.016 A 
ATOM     29  C   UNL A   1      36.397  30.127  27.420  1.00  0.00     0.016 A 
ATOM     30  C   UNL A   1      37.471  29.466  29.872  1.00  0.00     0.010 A 
ATOM     31  C   UNL A   1      37.657  29.591  27.659  1.00  0.00     0.010 A 
ATOM     32  C   UNL A   1      38.278  29.094  28.795  1.00  0.00    -0.014 A 
BRANCH  32  33
ATOM     33  C   UNL A   1      39.758  28.461  28.746  1.00  0.00     0.031 A 
ATOM     34  C   UNL A   1      40.402  26.941  28.438  1.00  0.00     0.074 A 
ATOM     35  C   UNL A   1      40.719  29.381  28.998  1.00  0.00     0.049 A 
ATOM     36  N   UNL A   1      41.561  26.531  28.932  1.00  0.00    -0.248 NA
ATOM     37  C   UNL A   1      39.874  25.749  27.668  1.00  0.00     0.031 C 
ATOM     38  C   UNL A   1      42.165  29.257  28.844  1.00  0.00     0.029 A 
ATOM     39  N   UNL A   1      40.556  30.633  29.617  1.00  0.00    -0.354 N 
ATOM     40  C   UNL A   1      41.863  25.275  28.394  1.00  0.00     0.074 A 
ATOM     41  C   UNL A   1      40.666  24.728  27.923  1.00  0.00     0.031 C 
ATOM     42  C   UNL A   1      42.755  30.160  29.642  1.00  0.00     0.029 A 
ATOM     43  C   UNL A   1      41.707  30.814  30.401  1.00  0.00     0.049 A 
ATOM     44  H   UNL A   1      39.796  31.251  29.523  1.00  0.00     0.167 HD
ATOM     45  C   UNL A   1      43.111  24.783  28.195  1.00  0.00     0.037 A 
ATOM     46  C   UNL A   1      41.609  30.907  31.754  1.00  0.00     0.037 A 
ATOM     47  C   UNL A   1      44.022  25.485  29.054  1.00  0.00     0.049 A 
ATOM     48  C   UNL A   1      42.393  29.830  32.467  1.00  0.00     0.074 A 
ATOM     49  C   UNL A   1      44.931  26.502  28.866  1.00  0.00     0.029 A 
ATOM     50  N   UNL A   1      43.751  25.424  30.415  1.00  0.00    -0.354 N 
ATOM     51  N   UNL A   1      42.954  28.811  31.871  1.00  0.00    -0.248 NA
ATOM     52  C   UNL A   1      42.601  29.805  33.911  1.00  0.00     0.031 C 
ATOM     53  C   UNL A   1      45.054  27.175  30.120  1.00  0.00     0.029 A 
ATOM     54  C   UNL A   1      44.284  26.514  31.068  1.00  0.00     0.049 A 
ATOM     55  H   UNL A   1      43.247  24.702  30.852  1.00  0.00     0.167 HD
ATOM     56  C   UNL A   1      43.479  27.961  32.804  1.00  0.00     0.074 A 
ATOM     57  C   UNL A   1      43.287  28.660  34.060  1.00  0.00     0.031 C 
ATOM     58  C   UNL A   1      43.973  26.728  32.479  1.00  0.00     0.037 A 
BRANCH  45  59
ATOM     59  C   UNL A   1      43.447  23.687  27.176  1.00  0.00     0.064 A 
ATOM     60  C   UNL A   1      44.156  23.986  26.000  1.00  0.00     0.173 A 
ATOM     61  C   UNL A   1      43.019  22.330  27.259  1.00  0.00     0.173 A 
ATOM     62  F   UNL A   1      44.548  25.241  25.741  1.00  0.00    -0.203 F 
ATOM     63  C   UNL A   1      44.464  23.008  25.034  1.00  0.00     0.198 A 
ATOM     64  C   UNL A   1      43.401  21.342  26.344  1.00  0.00     0.198 A 
ATOM     65  F   UNL A   1      42.147  21.907  28.183  1.00  0.00    -0.203 F 
ATOM     66  F   UNL A   1      45.093  23.361  23.905  1.00  0.00    -0.200 F 
ATOM     67  C   UNL A   1      44.118  21.681  25.224  1.00  0.00     0.200 A 
ATOM     68  F   UNL A   1      43.034  20.067  26.548  1.00  0.00    -0.200 F 
ATOM     69  F   UNL A   1      44.437  20.748  24.317  1.00  0.00    -0.200 F 
ENDBRANCH  45  59
BRANCH  46  70
ATOM     70  C   UNL A   1      40.355  31.596  32.197  1.00  0.00     0.064 A 
ATOM     71  C   UNL A   1      40.174  32.935  31.777  1.00  0.00     0.173 A 
ATOM     72  C   UNL A   1      39.219  30.926  32.665  1.00  0.00     0.173 A 
ATOM     73  F   UNL A   1      41.223  33.638  31.319  1.00  0.00    -0.203 F 
ATOM     74  C   UNL A   1      38.912  33.521  31.694  1.00  0.00     0.198 A 
ATOM     75  C   UNL A   1      37.953  31.534  32.617  1.00  0.00     0.198 A 
ATOM     76  F   UNL A   1      39.292  29.639  33.033  1.00  0.00    -0.203 F 
ATOM     77  F   UNL A   1      38.775  34.738  31.145  1.00  0.00    -0.200 F 
ATOM     78  C   UNL A   1      37.798  32.812  32.093  1.00  0.00     0.200 A 
ATOM     79  F   UNL A   1      36.861  30.826  32.938  1.00  0.00    -0.200 F 
ATOM     80  F   UNL A   1      36.573  33.326  31.911  1.00  0.00    -0.200 F 
ENDBRANCH  46  70
BRANCH  58  81
ATOM     81  C   UNL A   1      44.190  25.607  33.479  1.00  0.00     0.064 A 
ATOM     82  C   UNL A   1      43.196  25.142  34.361  1.00  0.00     0.173 A 
ATOM     83  C   UNL A   1      45.384  24.845  33.464  1.00  0.00     0.173 A 
ATOM     84  F   UNL A   1      41.967  25.670  34.376  1.00  0.00    -0.203 F 
ATOM     85  C   UNL A   1      43.412  24.064  35.224  1.00  0.00     0.198 A 
ATOM     86  C   UNL A   1      45.564  23.719  34.268  1.00  0.00     0.198 A 
ATOM     87  F   UNL A   1      46.398  25.150  32.642  1.00  0.00    -0.203 F 
ATOM     88  F   UNL A   1      42.453  23.709  36.091  1.00  0.00    -0.200 F 
ATOM     89  C   UNL A   1      44.588  23.343  35.167  1.00  0.00     0.200 A 
ATOM     90  F   UNL A   1      46.680  22.986  34.147  1.00  0.00    -0.200 F 
ATOM     91  F   UNL A   1      44.770  22.280  35.961  1.00  0.00    -0.200 F 
ENDBRANCH  58  81
ENDBRANCH  32  33
ENDBRANCH  25  27
ENDBRANCH  24  25
ENDBRANCH  23  24
ENDBRANCH  22  23
ENDBRANCH  21  22
ENDBRANCH  20  21
ENDBRANCH   1  20
TORSDOF 19
ENDMDL
MODEL 3
REMARK VINA RESULT:     -12.1      4.057     10.127
REMARK SMILES Cc1ccc(OC(F)(F)F)cc1C(=O)OCCOCCOCCOC(=O)c1ccc(-c2c3nc(c(-c4c(F)c(F)c(F)c(F)c4F)c4ccc([nH]4)c(-c4c(F)c(F)c(F)c(F)c4F)c4nc(c(-c5c(F)c(F)c(F)c(F)c5F)c5ccc2[nH]5)C=C4)C=C3)cc1
REMARK SMILES IDX 19 1 18 2 17 3 16 4 15 5 13 6 14 7 12 8 1 9 2 10 3 11 4 12
REMARK SMILES IDX 11 13 5 14 6 15 7 16 8 17 9 18 10 19 20 20 21 21 22 22 23 23
REMARK SMILES IDX 24 24 25 25 26 26 27 27 28 28 89 29 29 30 88 31 30 32 31 33
REMARK SMILES IDX 32 34 82 35 33 36 87 37 81 38 83 39 34 40 86 41 80 42 79 43
REMARK SMILES IDX 35 45 67 46 47 47 66 48 48 49 51 50 65 51 84 52 49 53 50 54
REMARK SMILES IDX 64 56 85 57 52 58 36 59 37 60 45 61 38 62 39 63 43 64 46 65
REMARK SMILES IDX 40 66 41 67 44 68 42 69 68 70 69 71 77 72 70 73 71 74 75 75
REMARK SMILES IDX 78 76 72 77 73 78 76 79 74 80 53 81 54 82 62 83 55 84 56 85
REMARK SMILES IDX 60 86 63 87 57 88 58 89 61 90 59 91
REMARK H PARENT 83 44 51 55
REMARK Flexibility Score: inf
ROOT
ATOM      1  C   UNL A   1      31.549  27.487  26.113  1.00  0.00     0.188 C 
ENDROOT
BRANCH   1   2
ATOM      2  O   UNL A   1      32.358  27.731  24.934  1.00  0.00    -0.376 OA
BRANCH   2   3
ATOM      3  C   UNL A   1      31.859  27.873  23.584  1.00  0.00     0.202 C 
BRANCH   3   4
ATOM      4  C   UNL A   1      31.690  26.574  22.489  1.00  0.00     0.261 C 
BRANCH   4   5
ATOM      5  O   UNL A   1      31.874  24.918  22.740  1.00  0.00    -0.460 OA
BRANCH   5   6
ATOM      6  C   UNL A   1      32.962  23.999  22.849  1.00  0.00     0.338 C 
ATOM      7  O   UNL A   1      33.927  23.868  22.096  1.00  0.00    -0.246 OA
BRANCH   6   8
ATOM      8  C   UNL A   1      33.239  22.998  23.904  1.00  0.00     0.066 A 
ATOM      9  C   UNL A   1      31.914  21.312  22.607  1.00  0.00     0.045 C 
ATOM     10  C   UNL A   1      32.868  21.678  23.700  1.00  0.00    -0.036 A 
ATOM     11  C   UNL A   1      33.590  20.679  24.377  1.00  0.00     0.008 A 
ATOM     12  C   UNL A   1      34.682  20.978  25.213  1.00  0.00     0.047 A 
ATOM     13  C   UNL A   1      34.373  23.282  24.764  1.00  0.00     0.062 A 
ATOM     14  C   UNL A   1      35.093  22.288  25.415  1.00  0.00     0.130 A 
BRANCH  14  15
ATOM     15  O   UNL A   1      36.239  22.434  26.143  1.00  0.00    -0.406 OA
BRANCH  15  16
ATOM     16  C   UNL A   1      37.466  22.698  25.473  1.00  0.00     0.573 C 
ATOM     17  F   UNL A   1      37.469  22.184  24.226  1.00  0.00    -0.132 F 
ATOM     18  F   UNL A   1      37.720  24.022  25.420  1.00  0.00    -0.132 F 
ATOM     19  F   UNL A   1      38.469  22.109  26.168  1.00  0.00    -0.132 F 
ENDBRANCH  15  16
ENDBRANCH  14  15
ENDBRANCH   6   8
ENDBRANCH   5   6
ENDBRANCH   4   5
ENDBRANCH   3   4
ENDBRANCH   2   3
ENDBRANCH   1   2
BRANCH   1  20
ATOM     20  C   UNL A   1      31.848  28.038  27.513  1.00  0.00     0.188 C 
BRANCH  20  21
ATOM     21  O   UNL A   1      32.636  29.212  27.433  1.00  0.00    -0.376 OA
BRANCH  21  22
ATOM     22  C   UNL A   1      32.024  30.320  26.787  1.00  0.00     0.202 C 
BRANCH  22  23
ATOM     23  C   UNL A   1      32.567  31.690  27.257  1.00  0.00     0.261 C 
BRANCH  23  24
ATOM     24  O   UNL A   1      34.018  31.709  27.256  1.00  0.00    -0.460 OA
BRANCH  24  25
ATOM     25  C   UNL A   1      34.665  31.803  28.467  1.00  0.00     0.338 C 
ATOM     26  O   UNL A   1      34.729  32.820  29.141  1.00  0.00    -0.246 OA
BRANCH  25  27
ATOM     27  C   UNL A   1      35.486  30.565  28.712  1.00  0.00     0.060 A 
ATOM     28  C   UNL A   1      36.001  30.081  29.929  1.00  0.00     0.016 A 
ATOM     29  C   UNL A   1      36.080  30.062  27.612  1.00  0.00     0.016 A 
ATOM     30  C   UNL A   1      37.207  29.235  29.989  1.00  0.00     0.010 A 
ATOM     31  C   UNL A   1      37.355  29.540  27.790  1.00  0.00     0.010 A 
ATOM     32  C   UNL A   1      38.005  28.970  28.874  1.00  0.00    -0.014 A 
BRANCH  32  33
ATOM     33  C   UNL A   1      39.498  28.378  28.754  1.00  0.00     0.031 A 
ATOM     34  C   UNL A   1      40.170  26.867  28.463  1.00  0.00     0.074 A 
ATOM     35  C   UNL A   1      40.444  29.335  28.909  1.00  0.00     0.049 A 
ATOM     36  N   UNL A   1      41.370  26.511  28.897  1.00  0.00    -0.248 NA
ATOM     37  C   UNL A   1      39.633  25.630  27.775  1.00  0.00     0.031 C 
ATOM     38  C   UNL A   1      41.881  29.248  28.668  1.00  0.00     0.029 A 
ATOM     39  N   UNL A   1      40.281  30.605  29.490  1.00  0.00    -0.354 N 
ATOM     40  C   UNL A   1      41.677  25.244  28.389  1.00  0.00     0.074 A 
ATOM     41  C   UNL A   1      40.471  24.643  28.016  1.00  0.00     0.031 C 
ATOM     42  C   UNL A   1      42.491  30.198  29.392  1.00  0.00     0.029 A 
ATOM     43  C   UNL A   1      41.473  30.851  30.190  1.00  0.00     0.049 A 
ATOM     44  H   UNL A   1      39.497  31.197  29.421  1.00  0.00     0.167 HD
ATOM     45  C   UNL A   1      42.925  24.781  28.129  1.00  0.00     0.037 A 
ATOM     46  C   UNL A   1      41.457  30.995  31.543  1.00  0.00     0.037 A 
ATOM     47  C   UNL A   1      43.866  25.543  28.900  1.00  0.00     0.049 A 
ATOM     48  C   UNL A   1      42.318  29.971  32.244  1.00  0.00     0.074 A 
ATOM     49  C   UNL A   1      44.728  26.577  28.617  1.00  0.00     0.029 A 
ATOM     50  N   UNL A   1      43.683  25.528  30.277  1.00  0.00    -0.354 N 
ATOM     51  N   UNL A   1      42.872  28.946  31.652  1.00  0.00    -0.248 NA
ATOM     52  C   UNL A   1      42.617  30.010  33.672  1.00  0.00     0.031 C 
ATOM     53  C   UNL A   1      44.909  27.303  29.833  1.00  0.00     0.029 A 
ATOM     54  C   UNL A   1      44.221  26.658  30.853  1.00  0.00     0.049 A 
ATOM     55  H   UNL A   1      43.230  24.809  30.773  1.00  0.00     0.167 HD
ATOM     56  C   UNL A   1      43.482  28.149  32.582  1.00  0.00     0.074 A 
ATOM     57  C   UNL A   1      43.347  28.892  33.820  1.00  0.00     0.031 C 
ATOM     58  C   UNL A   1      43.993  26.919  32.273  1.00  0.00     0.037 A 
BRANCH  45  59
ATOM     59  C   UNL A   1      43.231  23.655  27.133  1.00  0.00     0.064 A 
ATOM     60  C   UNL A   1      43.848  23.928  25.900  1.00  0.00     0.173 A 
ATOM     61  C   UNL A   1      42.858  22.290  27.298  1.00  0.00     0.173 A 
ATOM     62  F   UNL A   1      44.177  25.184  25.566  1.00  0.00    -0.203 F 
ATOM     63  C   UNL A   1      44.125  22.922  24.954  1.00  0.00     0.198 A 
ATOM     64  C   UNL A   1      43.213  21.278  26.398  1.00  0.00     0.198 A 
ATOM     65  F   UNL A   1      42.065  21.877  28.295  1.00  0.00    -0.203 F 
ATOM     66  F   UNL A   1      44.664  23.249  23.772  1.00  0.00    -0.200 F 
ATOM     67  C   UNL A   1      43.840  21.594  25.219  1.00  0.00     0.200 A 
ATOM     68  F   UNL A   1      42.906  20.000  26.676  1.00  0.00    -0.200 F 
ATOM     69  F   UNL A   1      44.131  20.635  24.329  1.00  0.00    -0.200 F 
ENDBRANCH  45  59
BRANCH  46  70
ATOM     70  C   UNL A   1      40.212  31.664  32.039  1.00  0.00     0.064 A 
ATOM     71  C   UNL A   1      39.968  32.984  31.590  1.00  0.00     0.173 A 
ATOM     72  C   UNL A   1      39.126  30.980  32.595  1.00  0.00     0.173 A 
ATOM     73  F   UNL A   1      40.968  33.700  31.048  1.00  0.00    -0.203 F 
ATOM     74  C   UNL A   1      38.687  33.533  31.564  1.00  0.00     0.198 A 
ATOM     75  C   UNL A   1      37.842  31.552  32.604  1.00  0.00     0.198 A 
ATOM     76  F   UNL A   1      39.257  29.708  32.996  1.00  0.00    -0.203 F 
ATOM     77  F   UNL A   1      38.484  34.727  30.988  1.00  0.00    -0.200 F 
ATOM     78  C   UNL A   1      37.619  32.807  32.051  1.00  0.00     0.200 A 
ATOM     79  F   UNL A   1      36.791  30.825  33.012  1.00  0.00    -0.200 F 
ATOM     80  F   UNL A   1      36.372  33.283  31.928  1.00  0.00    -0.200 F 
ENDBRANCH  46  70
BRANCH  58  81
ATOM     81  C   UNL A   1      44.308  25.845  33.298  1.00  0.00     0.064 A 
ATOM     82  C   UNL A   1      43.347  25.278  34.157  1.00  0.00     0.173 A 
ATOM     83  C   UNL A   1      45.583  25.230  33.333  1.00  0.00     0.173 A 
ATOM     84  F   UNL A   1      42.064  25.658  34.125  1.00  0.00    -0.203 F 
ATOM     85  C   UNL A   1      43.660  24.246  35.045  1.00  0.00     0.198 A 
ATOM     86  C   UNL A   1      45.868  24.144  34.162  1.00  0.00     0.198 A 
ATOM     87  F   UNL A   1      46.580  25.642  32.537  1.00  0.00    -0.203 F 
ATOM     88  F   UNL A   1      42.722  23.792  35.888  1.00  0.00    -0.200 F 
ATOM     89  C   UNL A   1      44.914  23.669  35.037  1.00  0.00     0.200 A 
ATOM     90  F   UNL A   1      47.066  23.547  34.089  1.00  0.00    -0.200 F 
ATOM     91  F   UNL A   1      45.194  22.645  35.855  1.00  0.00    -0.200 F 
ENDBRANCH  58  81
ENDBRANCH  32  33
ENDBRANCH  25  27
ENDBRANCH  24  25
ENDBRANCH  23  24
ENDBRANCH  22  23
ENDBRANCH  21  22
ENDBRANCH  20  21
ENDBRANCH   1  20
TORSDOF 19
ENDMDL
