MODEL 1
REMARK VINA RESULT:     -10.4      0.000      0.000
REMARK SMILES COc1cc(CC(=O)OCCOCCOCCOC(=O)c2ccc(-c3c4nc(c(-c5c(F)c(F)c(F)c(F)c5F)c5ccc([nH]5)c(-c5c(F)c(F)c(F)c(F)c5F)c5nc(c(-c6c(F)c(F)c(F)c(F)c6F)c6ccc3[nH]6)C=C5)C=C4)cc2)cc(Br)c1O
REMARK SMILES IDX 13 1 12 2 11 3 10 4 9 5 7 6 8 7 6 8 5 9 3 10 4 11 87 12
REMARK SMILES IDX 85 13 84 14 86 15 2 16 1 17 88 18 14 20 15 21 16 22 17 23
REMARK SMILES IDX 18 24 19 25 20 26 21 27 22 28 83 29 23 30 82 31 24 32 25 33
REMARK SMILES IDX 26 34 76 35 27 36 81 37 75 38 77 39 28 40 80 41 74 42 73 43
REMARK SMILES IDX 29 45 61 46 41 47 60 48 42 49 45 50 59 51 78 52 43 53 44 54
REMARK SMILES IDX 58 56 79 57 46 58 30 59 31 60 39 61 32 62 33 63 37 64 40 65
REMARK SMILES IDX 34 66 35 67 38 68 36 69 62 70 63 71 71 72 64 73 65 74 69 75
REMARK SMILES IDX 72 76 66 77 67 78 70 79 68 80 47 81 48 82 56 83 49 84 50 85
REMARK SMILES IDX 54 86 57 87 51 88 52 89 55 90 53 91
REMARK H PARENT 88 19 77 44 45 55
REMARK Flexibility Score: inf
ROOT
ATOM      1  C   UNL A   1      31.587  28.888  23.214  1.00  0.00     0.188 C 
ENDROOT
BRANCH   1   2
ATOM      2  O   UNL A   1      32.913  29.344  22.963  1.00  0.00    -0.376 OA
BRANCH   2   3
ATOM      3  C   UNL A   1      33.905  28.388  22.615  1.00  0.00     0.202 C 
BRANCH   3   4
ATOM      4  C   UNL A   1      33.533  26.930  22.894  1.00  0.00     0.261 C 
BRANCH   4   5
ATOM      5  O   UNL A   1      34.128  25.995  21.965  1.00  0.00    -0.463 OA
BRANCH   5   6
ATOM      6  C   UNL A   1      33.283  25.087  21.423  1.00  0.00     0.310 C 
ATOM      7  O   UNL A   1      32.985  25.057  20.230  1.00  0.00    -0.252 OA
BRANCH   6   8
ATOM      8  C   UNL A   1      32.728  24.042  22.361  1.00  0.00     0.158 C 
BRANCH   8   9
ATOM      9  C   UNL A   1      33.580  22.968  23.012  1.00  0.00    -0.032 A 
ATOM     10  C   UNL A   1      35.664  22.320  24.110  1.00  0.00     0.161 A 
ATOM     11  C   UNL A   1      34.942  23.189  23.277  1.00  0.00     0.054 A 
ATOM     12  C   UNL A   1      35.036  21.212  24.685  1.00  0.00     0.172 A 
ATOM     13  C   UNL A   1      33.701  20.947  24.388  1.00  0.00     0.063 A 
ATOM     14  C   UNL A   1      32.975  21.826  23.570  1.00  0.00     0.024 A 
ATOM     15  Br  UNL A   1      32.809  19.482  25.200  1.00  0.00    -0.047 Br
BRANCH  10  16
ATOM     16  O   UNL A   1      36.928  22.702  24.481  1.00  0.00    -0.493 OA
ATOM     17  C   UNL A   1      36.929  23.687  25.516  1.00  0.00     0.278 C 
ENDBRANCH  10  16
BRANCH  12  18
ATOM     18  O   UNL A   1      35.689  20.443  25.610  1.00  0.00    -0.503 OA
ATOM     19  H   UNL A   1      35.515  19.524  25.662  1.00  0.00     0.293 HD
ENDBRANCH  12  18
ENDBRANCH   8   9
ENDBRANCH   6   8
ENDBRANCH   5   6
ENDBRANCH   4   5
ENDBRANCH   3   4
ENDBRANCH   2   3
ENDBRANCH   1   2
BRANCH   1  20
ATOM     20  C   UNL A   1      30.959  29.114  24.597  1.00  0.00     0.188 C 
BRANCH  20  21
ATOM     21  O   UNL A   1      31.456  28.201  25.566  1.00  0.00    -0.376 OA
BRANCH  21  22
ATOM     22  C   UNL A   1      31.783  28.803  26.811  1.00  0.00     0.202 C 
BRANCH  22  23
ATOM     23  C   UNL A   1      31.882  30.317  26.632  1.00  0.00     0.261 C 
BRANCH  23  24
ATOM     24  O   UNL A   1      33.236  30.794  26.491  1.00  0.00    -0.460 OA
BRANCH  24  25
ATOM     25  C   UNL A   1      33.603  31.805  27.298  1.00  0.00     0.338 C 
ATOM     26  O   UNL A   1      32.955  32.812  27.566  1.00  0.00    -0.246 OA
BRANCH  25  27
ATOM     27  C   UNL A   1      34.882  31.446  27.932  1.00  0.00     0.060 A 
ATOM     28  C   UNL A   1      35.086  30.134  28.375  1.00  0.00     0.016 A 
ATOM     29  C   UNL A   1      35.877  32.406  28.103  1.00  0.00     0.016 A 
ATOM     30  C   UNL A   1      36.277  29.776  29.007  1.00  0.00     0.010 A 
ATOM     31  C   UNL A   1      37.070  32.049  28.738  1.00  0.00     0.010 A 
ATOM     32  C   UNL A   1      37.273  30.737  29.206  1.00  0.00    -0.014 A 
BRANCH  32  33
ATOM     33  C   UNL A   1      38.497  30.424  29.983  1.00  0.00     0.031 A 
ATOM     34  C   UNL A   1      39.500  29.468  29.407  1.00  0.00     0.074 A 
ATOM     35  C   UNL A   1      38.696  30.953  31.203  1.00  0.00     0.049 A 
ATOM     36  N   UNL A   1      40.525  28.891  29.981  1.00  0.00    -0.248 NA
ATOM     37  C   UNL A   1      39.321  29.114  27.992  1.00  0.00     0.031 C 
ATOM     38  C   UNL A   1      37.838  31.948  31.844  1.00  0.00     0.029 A 
ATOM     39  N   UNL A   1      39.675  30.702  32.133  1.00  0.00    -0.354 N 
ATOM     40  C   UNL A   1      41.096  28.084  29.007  1.00  0.00     0.074 A 
ATOM     41  C   UNL A   1      40.302  28.242  27.806  1.00  0.00     0.031 C 
ATOM     42  C   UNL A   1      38.312  32.201  33.077  1.00  0.00     0.029 A 
ATOM     43  C   UNL A   1      39.469  31.344  33.330  1.00  0.00     0.049 A 
ATOM     44  H   UNL A   1      40.449  30.118  31.959  1.00  0.00     0.167 HD
ATOM     45  C   UNL A   1      42.183  27.283  29.109  1.00  0.00     0.037 A 
ATOM     46  C   UNL A   1      40.109  31.214  34.509  1.00  0.00     0.037 A 
ATOM     47  C   UNL A   1      42.972  27.136  30.304  1.00  0.00     0.049 A 
ATOM     48  C   UNL A   1      41.248  30.233  34.630  1.00  0.00     0.074 A 
ATOM     49  C   UNL A   1      44.104  26.364  30.500  1.00  0.00     0.029 A 
ATOM     50  N   UNL A   1      42.706  27.770  31.508  1.00  0.00    -0.354 N 
ATOM     51  N   UNL A   1      41.782  29.465  33.713  1.00  0.00    -0.248 NA
ATOM     52  C   UNL A   1      41.860  30.089  35.959  1.00  0.00     0.031 C 
ATOM     53  C   UNL A   1      44.491  26.490  31.839  1.00  0.00     0.029 A 
ATOM     54  C   UNL A   1      43.631  27.378  32.463  1.00  0.00     0.049 A 
ATOM     55  H   UNL A   1      41.969  28.403  31.662  1.00  0.00     0.167 HD
ATOM     56  C   UNL A   1      42.800  28.762  34.344  1.00  0.00     0.074 A 
ATOM     57  C   UNL A   1      42.822  29.207  35.722  1.00  0.00     0.031 C 
ATOM     58  C   UNL A   1      43.640  27.830  33.830  1.00  0.00     0.037 A 
BRANCH  45  59
ATOM     59  C   UNL A   1      42.559  26.468  27.907  1.00  0.00     0.064 A 
ATOM     60  C   UNL A   1      41.995  25.209  27.661  1.00  0.00     0.173 A 
ATOM     61  C   UNL A   1      43.474  26.974  26.971  1.00  0.00     0.173 A 
ATOM     62  F   UNL A   1      41.125  24.676  28.532  1.00  0.00    -0.203 F 
ATOM     63  C   UNL A   1      42.351  24.474  26.532  1.00  0.00     0.198 A 
ATOM     64  C   UNL A   1      43.807  26.248  25.831  1.00  0.00     0.198 A 
ATOM     65  F   UNL A   1      44.039  28.175  27.158  1.00  0.00    -0.203 F 
ATOM     66  F   UNL A   1      41.833  23.253  26.339  1.00  0.00    -0.200 F 
ATOM     67  C   UNL A   1      43.252  24.996  25.616  1.00  0.00     0.200 A 
ATOM     68  F   UNL A   1      44.668  26.761  24.941  1.00  0.00    -0.200 F 
ATOM     69  F   UNL A   1      43.588  24.290  24.528  1.00  0.00    -0.200 F 
ENDBRANCH  45  59
BRANCH  46  70
ATOM     70  C   UNL A   1      39.653  31.992  35.692  1.00  0.00     0.064 A 
ATOM     71  C   UNL A   1      38.615  31.524  36.507  1.00  0.00     0.173 A 
ATOM     72  C   UNL A   1      40.227  33.231  36.013  1.00  0.00     0.173 A 
ATOM     73  F   UNL A   1      38.010  30.361  36.220  1.00  0.00    -0.203 F 
ATOM     74  C   UNL A   1      38.160  32.270  37.593  1.00  0.00     0.198 A 
ATOM     75  C   UNL A   1      39.792  33.962  37.116  1.00  0.00     0.198 A 
ATOM     76  F   UNL A   1      41.217  33.730  35.258  1.00  0.00    -0.203 F 
ATOM     77  F   UNL A   1      37.132  31.822  38.327  1.00  0.00    -0.200 F 
ATOM     78  C   UNL A   1      38.753  33.486  37.900  1.00  0.00     0.200 A 
ATOM     79  F   UNL A   1      40.372  35.133  37.413  1.00  0.00    -0.200 F 
ATOM     80  F   UNL A   1      38.316  34.202  38.944  1.00  0.00    -0.200 F 
ENDBRANCH  46  70
BRANCH  58  81
ATOM     81  C   UNL A   1      44.668  27.239  34.752  1.00  0.00     0.064 A 
ATOM     82  C   UNL A   1      44.433  26.038  35.438  1.00  0.00     0.173 A 
ATOM     83  C   UNL A   1      45.920  27.851  34.908  1.00  0.00     0.173 A 
ATOM     84  F   UNL A   1      43.246  25.422  35.335  1.00  0.00    -0.203 F 
ATOM     85  C   UNL A   1      45.411  25.479  36.258  1.00  0.00     0.198 A 
ATOM     86  C   UNL A   1      46.905  27.276  35.707  1.00  0.00     0.198 A 
ATOM     87  F   UNL A   1      46.196  28.998  34.271  1.00  0.00    -0.203 F 
ATOM     88  F   UNL A   1      45.153  24.350  36.933  1.00  0.00    -0.200 F 
ATOM     89  C   UNL A   1      46.649  26.093  36.384  1.00  0.00     0.200 A 
ATOM     90  F   UNL A   1      48.105  27.862  35.816  1.00  0.00    -0.200 F 
ATOM     91  F   UNL A   1      47.592  25.547  37.163  1.00  0.00    -0.200 F 
ENDBRANCH  58  81
ENDBRANCH  32  33
ENDBRANCH  25  27
ENDBRANCH  24  25
ENDBRANCH  23  24
ENDBRANCH  22  23
ENDBRANCH  21  22
ENDBRANCH  20  21
ENDBRANCH   1  20
TORSDOF 20
ENDMDL
MODEL 2
REMARK VINA RESULT:     -10.3      2.081      3.167
REMARK SMILES COc1cc(CC(=O)OCCOCCOCCOC(=O)c2ccc(-c3c4nc(c(-c5c(F)c(F)c(F)c(F)c5F)c5ccc([nH]5)c(-c5c(F)c(F)c(F)c(F)c5F)c5nc(c(-c6c(F)c(F)c(F)c(F)c6F)c6ccc3[nH]6)C=C5)C=C4)cc2)cc(Br)c1O
REMARK SMILES IDX 13 1 12 2 11 3 10 4 9 5 7 6 8 7 6 8 5 9 3 10 4 11 87 12
REMARK SMILES IDX 85 13 84 14 86 15 2 16 1 17 88 18 14 20 15 21 16 22 17 23
REMARK SMILES IDX 18 24 19 25 20 26 21 27 22 28 83 29 23 30 82 31 24 32 25 33
REMARK SMILES IDX 26 34 76 35 27 36 81 37 75 38 77 39 28 40 80 41 74 42 73 43
REMARK SMILES IDX 29 45 61 46 41 47 60 48 42 49 45 50 59 51 78 52 43 53 44 54
REMARK SMILES IDX 58 56 79 57 46 58 30 59 31 60 39 61 32 62 33 63 37 64 40 65
REMARK SMILES IDX 34 66 35 67 38 68 36 69 62 70 63 71 71 72 64 73 65 74 69 75
REMARK SMILES IDX 72 76 66 77 67 78 70 79 68 80 47 81 48 82 56 83 49 84 50 85
REMARK SMILES IDX 54 86 57 87 51 88 52 89 55 90 53 91
REMARK H PARENT 88 19 77 44 45 55
REMARK Flexibility Score: inf
ROOT
ATOM      1  C   UNL A   1      33.396  28.948  26.920  1.00  0.00     0.188 C 
ENDROOT
BRANCH   1   2
ATOM      2  O   UNL A   1      32.396  28.124  27.513  1.00  0.00    -0.376 OA
BRANCH   2   3
ATOM      3  C   UNL A   1      31.498  27.428  26.659  1.00  0.00     0.202 C 
BRANCH   3   4
ATOM      4  C   UNL A   1      31.770  25.930  26.509  1.00  0.00     0.261 C 
BRANCH   4   5
ATOM      5  O   UNL A   1      30.571  25.121  26.531  1.00  0.00    -0.463 OA
BRANCH   5   6
ATOM      6  C   UNL A   1      30.764  23.782  26.488  1.00  0.00     0.310 C 
ATOM      7  O   UNL A   1      30.678  23.046  27.470  1.00  0.00    -0.252 OA
BRANCH   6   8
ATOM      8  C   UNL A   1      31.058  23.190  25.130  1.00  0.00     0.158 C 
BRANCH   8   9
ATOM      9  C   UNL A   1      32.215  22.244  24.866  1.00  0.00    -0.032 A 
ATOM     10  C   UNL A   1      34.624  21.856  24.742  1.00  0.00     0.161 A 
ATOM     11  C   UNL A   1      33.525  22.730  24.717  1.00  0.00     0.054 A 
ATOM     12  C   UNL A   1      34.428  20.483  24.907  1.00  0.00     0.172 A 
ATOM     13  C   UNL A   1      33.133  19.979  25.000  1.00  0.00     0.063 A 
ATOM     14  C   UNL A   1      32.036  20.853  24.993  1.00  0.00     0.024 A 
ATOM     15  Br  UNL A   1      32.843  18.125  25.283  1.00  0.00    -0.047 Br
BRANCH  10  16
ATOM     16  O   UNL A   1      35.876  22.416  24.788  1.00  0.00    -0.493 OA
ATOM     17  C   UNL A   1      36.399  22.714  23.493  1.00  0.00     0.278 C 
ENDBRANCH  10  16
BRANCH  12  18
ATOM     18  O   UNL A   1      35.495  19.643  25.078  1.00  0.00    -0.503 OA
ATOM     19  H   UNL A   1      36.268  19.757  24.561  1.00  0.00     0.293 HD
ENDBRANCH  12  18
ENDBRANCH   8   9
ENDBRANCH   6   8
ENDBRANCH   5   6
ENDBRANCH   4   5
ENDBRANCH   3   4
ENDBRANCH   2   3
ENDBRANCH   1   2
BRANCH   1  20
ATOM     20  C   UNL A   1      33.230  30.475  26.947  1.00  0.00     0.188 C 
BRANCH  20  21
ATOM     21  O   UNL A   1      31.869  30.864  27.067  1.00  0.00    -0.376 OA
BRANCH  21  22
ATOM     22  C   UNL A   1      31.612  32.199  26.656  1.00  0.00     0.202 C 
BRANCH  22  23
ATOM     23  C   UNL A   1      32.657  33.129  27.273  1.00  0.00     0.261 C 
BRANCH  23  24
ATOM     24  O   UNL A   1      32.120  34.015  28.276  1.00  0.00    -0.460 OA
BRANCH  24  25
ATOM     25  C   UNL A   1      32.946  34.973  28.734  1.00  0.00     0.338 C 
ATOM     26  O   UNL A   1      32.716  36.176  28.805  1.00  0.00    -0.246 OA
BRANCH  25  27
ATOM     27  C   UNL A   1      34.150  34.322  29.276  1.00  0.00     0.060 A 
ATOM     28  C   UNL A   1      34.029  33.440  30.355  1.00  0.00     0.016 A 
ATOM     29  C   UNL A   1      35.403  34.592  28.728  1.00  0.00     0.016 A 
ATOM     30  C   UNL A   1      35.159  32.835  30.906  1.00  0.00     0.010 A 
ATOM     31  C   UNL A   1      36.535  33.988  29.281  1.00  0.00     0.010 A 
ATOM     32  C   UNL A   1      36.423  33.118  30.381  1.00  0.00    -0.014 A 
BRANCH  32  33
ATOM     33  C   UNL A   1      37.654  32.591  31.019  1.00  0.00     0.031 A 
ATOM     34  C   UNL A   1      38.406  31.480  30.346  1.00  0.00     0.074 A 
ATOM     35  C   UNL A   1      38.078  33.068  32.203  1.00  0.00     0.049 A 
ATOM     36  N   UNL A   1      39.373  30.729  30.809  1.00  0.00    -0.248 NA
ATOM     37  C   UNL A   1      38.009  31.173  28.964  1.00  0.00     0.031 C 
ATOM     38  C   UNL A   1      37.483  34.191  32.924  1.00  0.00     0.029 A 
ATOM     39  N   UNL A   1      39.097  32.643  33.020  1.00  0.00    -0.354 N 
ATOM     40  C   UNL A   1      39.682  29.844  29.786  1.00  0.00     0.074 A 
ATOM     41  C   UNL A   1      38.798  30.146  28.680  1.00  0.00     0.031 C 
ATOM     42  C   UNL A   1      38.129  34.349  34.093  1.00  0.00     0.029 A 
ATOM     43  C   UNL A   1      39.142  33.303  34.224  1.00  0.00     0.049 A 
ATOM     44  H   UNL A   1      39.734  31.935  32.767  1.00  0.00     0.167 HD
ATOM     45  C   UNL A   1      40.619  28.866  29.775  1.00  0.00     0.037 A 
ATOM     46  C   UNL A   1      39.878  33.054  35.326  1.00  0.00     0.037 A 
ATOM     47  C   UNL A   1      41.500  28.574  30.875  1.00  0.00     0.049 A 
ATOM     48  C   UNL A   1      40.836  31.890  35.330  1.00  0.00     0.074 A 
ATOM     49  C   UNL A   1      42.496  27.617  30.952  1.00  0.00     0.029 A 
ATOM     50  N   UNL A   1      41.485  29.236  32.094  1.00  0.00    -0.354 N 
ATOM     51  N   UNL A   1      41.122  31.048  34.368  1.00  0.00    -0.248 NA
ATOM     52  C   UNL A   1      41.560  31.632  36.584  1.00  0.00     0.031 C 
ATOM     53  C   UNL A   1      43.047  27.663  32.238  1.00  0.00     0.029 A 
ATOM     54  C   UNL A   1      42.429  28.682  32.944  1.00  0.00     0.049 A 
ATOM     55  H   UNL A   1      40.890  29.986  32.322  1.00  0.00     0.167 HD
ATOM     56  C   UNL A   1      42.068  30.175  34.890  1.00  0.00     0.074 A 
ATOM     57  C   UNL A   1      42.321  30.599  36.251  1.00  0.00     0.031 C 
ATOM     58  C   UNL A   1      42.670  29.115  34.296  1.00  0.00     0.037 A 
BRANCH  45  59
ATOM     59  C   UNL A   1      40.710  28.007  28.548  1.00  0.00     0.064 A 
ATOM     60  C   UNL A   1      41.482  28.381  27.439  1.00  0.00     0.173 A 
ATOM     61  C   UNL A   1      40.039  26.776  28.497  1.00  0.00     0.173 A 
ATOM     62  F   UNL A   1      42.132  29.554  27.434  1.00  0.00    -0.203 F 
ATOM     63  C   UNL A   1      41.561  27.563  26.314  1.00  0.00     0.198 A 
ATOM     64  C   UNL A   1      40.142  25.949  27.383  1.00  0.00     0.198 A 
ATOM     65  F   UNL A   1      39.290  26.371  29.533  1.00  0.00    -0.203 F 
ATOM     66  F   UNL A   1      42.270  27.960  25.248  1.00  0.00    -0.200 F 
ATOM     67  C   UNL A   1      40.896  26.346  26.289  1.00  0.00     0.200 A 
ATOM     68  F   UNL A   1      39.509  24.768  27.366  1.00  0.00    -0.200 F 
ATOM     69  F   UNL A   1      40.979  25.558  25.209  1.00  0.00    -0.200 F 
ENDBRANCH  45  59
BRANCH  46  70
ATOM     70  C   UNL A   1      39.700  33.890  36.543  1.00  0.00     0.064 A 
ATOM     71  C   UNL A   1      38.853  33.482  37.582  1.00  0.00     0.173 A 
ATOM     72  C   UNL A   1      40.349  35.126  36.679  1.00  0.00     0.173 A 
ATOM     73  F   UNL A   1      38.182  32.325  37.483  1.00  0.00    -0.203 F 
ATOM     74  C   UNL A   1      38.654  34.282  38.706  1.00  0.00     0.198 A 
ATOM     75  C   UNL A   1      40.173  35.912  37.816  1.00  0.00     0.198 A 
ATOM     76  F   UNL A   1      41.161  35.569  35.707  1.00  0.00    -0.203 F 
ATOM     77  F   UNL A   1      37.801  33.890  39.662  1.00  0.00    -0.200 F 
ATOM     78  C   UNL A   1      39.319  35.494  38.825  1.00  0.00     0.200 A 
ATOM     79  F   UNL A   1      40.823  37.079  37.929  1.00  0.00    -0.200 F 
ATOM     80  F   UNL A   1      39.128  36.262  39.905  1.00  0.00    -0.200 F 
ENDBRANCH  46  70
BRANCH  58  81
ATOM     81  C   UNL A   1      43.678  28.348  35.104  1.00  0.00     0.064 A 
ATOM     82  C   UNL A   1      45.025  28.735  35.155  1.00  0.00     0.173 A 
ATOM     83  C   UNL A   1      43.280  27.247  35.879  1.00  0.00     0.173 A 
ATOM     84  F   UNL A   1      45.458  29.770  34.420  1.00  0.00    -0.203 F 
ATOM     85  C   UNL A   1      45.940  28.039  35.941  1.00  0.00     0.198 A 
ATOM     86  C   UNL A   1      44.192  26.571  36.685  1.00  0.00     0.198 A 
ATOM     87  F   UNL A   1      42.003  26.840  35.869  1.00  0.00    -0.203 F 
ATOM     88  F   UNL A   1      47.230  28.403  35.947  1.00  0.00    -0.200 F 
ATOM     89  C   UNL A   1      45.521  26.964  36.712  1.00  0.00     0.200 A 
ATOM     90  F   UNL A   1      43.783  25.542  37.440  1.00  0.00    -0.200 F 
ATOM     91  F   UNL A   1      46.401  26.304  37.477  1.00  0.00    -0.200 F 
ENDBRANCH  58  81
ENDBRANCH  32  33
ENDBRANCH  25  27
ENDBRANCH  24  25
ENDBRANCH  23  24
ENDBRANCH  22  23
ENDBRANCH  21  22
ENDBRANCH  20  21
ENDBRANCH   1  20
TORSDOF 20
ENDMDL
MODEL 3
REMARK VINA RESULT:     -10.3      5.358      9.719
REMARK SMILES COc1cc(CC(=O)OCCOCCOCCOC(=O)c2ccc(-c3c4nc(c(-c5c(F)c(F)c(F)c(F)c5F)c5ccc([nH]5)c(-c5c(F)c(F)c(F)c(F)c5F)c5nc(c(-c6c(F)c(F)c(F)c(F)c6F)c6ccc3[nH]6)C=C5)C=C4)cc2)cc(Br)c1O
REMARK SMILES IDX 13 1 12 2 11 3 10 4 9 5 7 6 8 7 6 8 5 9 3 10 4 11 87 12
REMARK SMILES IDX 85 13 84 14 86 15 2 16 1 17 88 18 14 20 15 21 16 22 17 23
REMARK SMILES IDX 18 24 19 25 20 26 21 27 22 28 83 29 23 30 82 31 24 32 25 33
REMARK SMILES IDX 26 34 76 35 27 36 81 37 75 38 77 39 28 40 80 41 74 42 73 43
REMARK SMILES IDX 29 45 61 46 41 47 60 48 42 49 45 50 59 51 78 52 43 53 44 54
REMARK SMILES IDX 58 56 79 57 46 58 30 59 31 60 39 61 32 62 33 63 37 64 40 65
REMARK SMILES IDX 34 66 35 67 38 68 36 69 62 70 63 71 71 72 64 73 65 74 69 75
REMARK SMILES IDX 72 76 66 77 67 78 70 79 68 80 47 81 48 82 56 83 49 84 50 85
REMARK SMILES IDX 54 86 57 87 51 88 52 89 55 90 53 91
REMARK H PARENT 88 19 77 44 45 55
REMARK Flexibility Score: inf
ROOT
ATOM      1  C   UNL A   1      40.033  21.767  26.152  1.00  0.00     0.188 C 
ENDROOT
BRANCH   1   2
ATOM      2  O   UNL A   1      39.126  20.669  26.114  1.00  0.00    -0.376 OA
BRANCH   2   3
ATOM      3  C   UNL A   1      38.016  20.735  25.229  1.00  0.00     0.202 C 
BRANCH   3   4
ATOM      4  C   UNL A   1      37.368  22.115  25.098  1.00  0.00     0.261 C 
BRANCH   4   5
ATOM      5  O   UNL A   1      36.718  22.328  23.823  1.00  0.00    -0.463 OA
BRANCH   5   6
ATOM      6  C   UNL A   1      35.845  23.361  23.774  1.00  0.00     0.310 C 
ATOM      7  O   UNL A   1      35.265  23.718  22.750  1.00  0.00    -0.252 OA
BRANCH   6   8
ATOM      8  C   UNL A   1      35.561  24.063  25.080  1.00  0.00     0.158 C 
BRANCH   8   9
ATOM      9  C   UNL A   1      34.257  24.782  25.375  1.00  0.00    -0.032 A 
ATOM     10  C   UNL A   1      32.084  24.815  26.489  1.00  0.00     0.161 A 
ATOM     11  C   UNL A   1      33.180  24.106  25.973  1.00  0.00     0.054 A 
ATOM     12  C   UNL A   1      32.045  26.209  26.410  1.00  0.00     0.172 A 
ATOM     13  C   UNL A   1      33.079  26.891  25.772  1.00  0.00     0.063 A 
ATOM     14  C   UNL A   1      34.183  26.184  25.271  1.00  0.00     0.024 A 
ATOM     15  Br  UNL A   1      33.079  28.787  25.701  1.00  0.00    -0.047 Br
BRANCH  10  16
ATOM     16  O   UNL A   1      31.167  24.111  27.228  1.00  0.00    -0.493 OA
ATOM     17  C   UNL A   1      30.655  22.971  26.537  1.00  0.00     0.278 C 
ENDBRANCH  10  16
BRANCH  12  18
ATOM     18  O   UNL A   1      31.055  26.916  27.037  1.00  0.00    -0.503 OA
ATOM     19  H   UNL A   1      30.634  26.561  27.795  1.00  0.00     0.293 HD
ENDBRANCH  12  18
ENDBRANCH   8   9
ENDBRANCH   6   8
ENDBRANCH   5   6
ENDBRANCH   4   5
ENDBRANCH   3   4
ENDBRANCH   2   3
ENDBRANCH   1   2
BRANCH   1  20
ATOM     20  C   UNL A   1      41.545  21.498  26.131  1.00  0.00     0.188 C 
BRANCH  20  21
ATOM     21  O   UNL A   1      41.866  20.293  25.451  1.00  0.00    -0.376 OA
BRANCH  21  22
ATOM     22  C   UNL A   1      42.232  19.224  26.312  1.00  0.00     0.202 C 
BRANCH  22  23
ATOM     23  C   UNL A   1      43.394  18.449  25.692  1.00  0.00     0.261 C 
BRANCH  23  24
ATOM     24  O   UNL A   1      43.737  18.889  24.362  1.00  0.00    -0.460 OA
BRANCH  24  25
ATOM     25  C   UNL A   1      44.977  19.382  24.194  1.00  0.00     0.338 C 
ATOM     26  O   UNL A   1      45.937  18.812  23.685  1.00  0.00    -0.246 OA
BRANCH  25  27
ATOM     27  C   UNL A   1      44.970  20.795  24.606  1.00  0.00     0.060 A 
ATOM     28  C   UNL A   1      44.523  21.771  23.709  1.00  0.00     0.016 A 
ATOM     29  C   UNL A   1      45.418  21.160  25.874  1.00  0.00     0.016 A 
ATOM     30  C   UNL A   1      44.536  23.120  24.065  1.00  0.00     0.010 A 
ATOM     31  C   UNL A   1      45.434  22.511  26.230  1.00  0.00     0.010 A 
ATOM     32  C   UNL A   1      45.007  23.501  25.325  1.00  0.00    -0.014 A 
BRANCH  32  33
ATOM     33  C   UNL A   1      45.151  24.931  25.690  1.00  0.00     0.031 A 
ATOM     34  C   UNL A   1      46.500  25.579  25.576  1.00  0.00     0.074 A 
ATOM     35  C   UNL A   1      44.104  25.636  26.154  1.00  0.00     0.049 A 
ATOM     36  N   UNL A   1      46.908  26.738  26.028  1.00  0.00    -0.248 NA
ATOM     37  C   UNL A   1      47.529  24.814  24.857  1.00  0.00     0.031 C 
ATOM     38  C   UNL A   1      42.730  25.148  26.244  1.00  0.00     0.029 A 
ATOM     39  N   UNL A   1      44.045  26.910  26.665  1.00  0.00    -0.354 N 
ATOM     40  C   UNL A   1      48.246  26.829  25.673  1.00  0.00     0.074 A 
ATOM     41  C   UNL A   1      48.584  25.608  24.973  1.00  0.00     0.031 C 
ATOM     42  C   UNL A   1      41.966  26.101  26.806  1.00  0.00     0.029 A 
ATOM     43  C   UNL A   1      42.809  27.239  27.167  1.00  0.00     0.049 A 
ATOM     44  H   UNL A   1      44.813  27.526  26.671  1.00  0.00     0.167 HD
ATOM     45  C   UNL A   1      49.113  27.841  25.914  1.00  0.00     0.037 A 
ATOM     46  C   UNL A   1      42.419  28.312  27.883  1.00  0.00     0.037 A 
ATOM     47  C   UNL A   1      48.769  29.057  26.605  1.00  0.00     0.049 A 
ATOM     48  C   UNL A   1      43.428  29.375  28.235  1.00  0.00     0.074 A 
ATOM     49  C   UNL A   1      49.572  30.149  26.880  1.00  0.00     0.029 A 
ATOM     50  N   UNL A   1      47.519  29.335  27.137  1.00  0.00    -0.354 N 
ATOM     51  N   UNL A   1      44.695  29.458  27.908  1.00  0.00    -0.248 NA
ATOM     52  C   UNL A   1      42.955  30.486  29.075  1.00  0.00     0.031 C 
ATOM     53  C   UNL A   1      48.822  31.066  27.625  1.00  0.00     0.029 A 
ATOM     54  C   UNL A   1      47.539  30.566  27.771  1.00  0.00     0.049 A 
ATOM     55  H   UNL A   1      46.735  28.743  27.074  1.00  0.00     0.167 HD
ATOM     56  C   UNL A   1      45.164  30.632  28.482  1.00  0.00     0.074 A 
ATOM     57  C   UNL A   1      44.042  31.240  29.166  1.00  0.00     0.031 C 
ATOM     58  C   UNL A   1      46.414  31.159  28.448  1.00  0.00     0.037 A 
BRANCH  45  59
ATOM     59  C   UNL A   1      50.533  27.660  25.464  1.00  0.00     0.064 A 
ATOM     60  C   UNL A   1      50.920  27.873  24.134  1.00  0.00     0.173 A 
ATOM     61  C   UNL A   1      51.525  27.299  26.389  1.00  0.00     0.173 A 
ATOM     62  F   UNL A   1      50.008  28.208  23.210  1.00  0.00    -0.203 F 
ATOM     63  C   UNL A   1      52.247  27.710  23.741  1.00  0.00     0.198 A 
ATOM     64  C   UNL A   1      52.853  27.162  25.998  1.00  0.00     0.198 A 
ATOM     65  F   UNL A   1      51.206  27.086  27.674  1.00  0.00    -0.203 F 
ATOM     66  F   UNL A   1      52.588  27.876  22.455  1.00  0.00    -0.200 F 
ATOM     67  C   UNL A   1      53.213  27.360  24.674  1.00  0.00     0.200 A 
ATOM     68  F   UNL A   1      53.786  26.836  26.903  1.00  0.00    -0.200 F 
ATOM     69  F   UNL A   1      54.489  27.209  24.294  1.00  0.00    -0.200 F 
ENDBRANCH  45  59
BRANCH  46  70
ATOM     70  C   UNL A   1      41.017  28.412  28.368  1.00  0.00     0.064 A 
ATOM     71  C   UNL A   1      40.010  28.953  27.557  1.00  0.00     0.173 A 
ATOM     72  C   UNL A   1      40.661  27.997  29.660  1.00  0.00     0.173 A 
ATOM     73  F   UNL A   1      40.307  29.398  26.327  1.00  0.00    -0.203 F 
ATOM     74  C   UNL A   1      38.703  29.085  28.024  1.00  0.00     0.198 A 
ATOM     75  C   UNL A   1      39.348  28.101  30.114  1.00  0.00     0.198 A 
ATOM     76  F   UNL A   1      41.589  27.483  30.480  1.00  0.00    -0.203 F 
ATOM     77  F   UNL A   1      37.770  29.651  27.246  1.00  0.00    -0.200 F 
ATOM     78  C   UNL A   1      38.372  28.653  29.299  1.00  0.00     0.200 A 
ATOM     79  F   UNL A   1      39.032  27.676  31.346  1.00  0.00    -0.200 F 
ATOM     80  F   UNL A   1      37.116  28.779  29.747  1.00  0.00    -0.200 F 
ENDBRANCH  46  70
BRANCH  58  81
ATOM     81  C   UNL A   1      46.635  32.466  29.154  1.00  0.00     0.064 A 
ATOM     82  C   UNL A   1      47.080  32.515  30.483  1.00  0.00     0.173 A 
ATOM     83  C   UNL A   1      46.454  33.681  28.475  1.00  0.00     0.173 A 
ATOM     84  F   UNL A   1      47.252  31.383  31.180  1.00  0.00    -0.203 F 
ATOM     85  C   UNL A   1      47.320  33.735  31.113  1.00  0.00     0.198 A 
ATOM     86  C   UNL A   1      46.722  34.897  29.098  1.00  0.00     0.198 A 
ATOM     87  F   UNL A   1      46.035  33.688  27.202  1.00  0.00    -0.203 F 
ATOM     88  F   UNL A   1      47.709  33.760  32.395  1.00  0.00    -0.200 F 
ATOM     89  C   UNL A   1      47.150  34.923  30.417  1.00  0.00     0.200 A 
ATOM     90  F   UNL A   1      46.571  36.043  28.421  1.00  0.00    -0.200 F 
ATOM     91  F   UNL A   1      47.394  36.094  31.021  1.00  0.00    -0.200 F 
ENDBRANCH  58  81
ENDBRANCH  32  33
ENDBRANCH  25  27
ENDBRANCH  24  25
ENDBRANCH  23  24
ENDBRANCH  22  23
ENDBRANCH  21  22
ENDBRANCH  20  21
ENDBRANCH   1  20
TORSDOF 20
ENDMDL
