MODEL 1
REMARK VINA RESULT:     -11.4      0.000      0.000
REMARK SMILES O=C(OCCOCCOCCOC(=O)[C@@H]1C=C[C@@H](Nc2ccc3ccccc3n2)C1)c1ccc(-c2c3nc(c(-c4c(F)c(F)c(F)c(F)c4F)c4ccc([nH]4)c(-c4c(F)c(F)c(F)c(F)c4F)c4nc(c(-c5c(F)c(F)c(F)c(F)c5F)c5ccc2[nH]5)C=C4)C=C3)cc1
REMARK SMILES IDX 7 1 6 2 5 3 4 4 3 5 2 6 1 7 31 8 32 9 93 10 33 11 92 12
REMARK SMILES IDX 34 13 35 14 36 15 86 16 37 17 91 18 85 19 87 20 38 21 90 22
REMARK SMILES IDX 84 23 83 24 39 26 71 27 51 28 70 29 52 30 55 31 69 32 88 33
REMARK SMILES IDX 53 34 54 35 68 37 89 38 56 39 40 40 41 41 49 42 42 43 43 44
REMARK SMILES IDX 47 45 50 46 44 47 45 48 48 49 46 50 72 51 73 52 81 53 74 54
REMARK SMILES IDX 75 55 79 56 82 57 76 58 77 59 80 60 78 61 57 62 58 63 66 64
REMARK SMILES IDX 59 65 60 66 64 67 67 68 61 69 62 70 65 71 63 72 8 73 9 74
REMARK SMILES IDX 10 75 11 76 12 77 13 78 14 79 15 80 16 81 30 82 17 83 18 84
REMARK SMILES IDX 19 85 20 87 21 88 29 89 22 90 28 91 23 92 27 93 24 94 26 95
REMARK SMILES IDX 25 96
REMARK H PARENT 87 25 55 36 19 86
REMARK Flexibility Score: inf
ROOT
ATOM      1  C   UNL A   1      36.943  21.964  25.379  1.00  0.00     0.188 C 
ENDROOT
BRANCH   1   2
ATOM      2  O   UNL A   1      36.611  20.648  24.922  1.00  0.00    -0.376 OA
BRANCH   2   3
ATOM      3  C   UNL A   1      37.746  19.781  24.833  1.00  0.00     0.202 C 
BRANCH   3   4
ATOM      4  C   UNL A   1      38.889  20.139  25.805  1.00  0.00     0.261 C 
BRANCH   4   5
ATOM      5  O   UNL A   1      40.026  19.256  25.740  1.00  0.00    -0.460 OA
BRANCH   5   6
ATOM      6  C   UNL A   1      41.337  19.491  25.991  1.00  0.00     0.338 C 
ATOM      7  O   UNL A   1      42.122  18.550  25.868  1.00  0.00    -0.246 OA
BRANCH   6   8
ATOM      8  C   UNL A   1      41.909  20.810  26.425  1.00  0.00     0.060 A 
ATOM      9  C   UNL A   1      42.207  21.174  27.736  1.00  0.00     0.016 A 
ATOM     10  C   UNL A   1      42.201  21.749  25.412  1.00  0.00     0.016 A 
ATOM     11  C   UNL A   1      42.756  22.407  28.049  1.00  0.00     0.010 A 
ATOM     12  C   UNL A   1      42.748  23.002  25.714  1.00  0.00     0.010 A 
ATOM     13  C   UNL A   1      43.007  23.336  27.044  1.00  0.00    -0.014 A 
BRANCH  13  14
ATOM     14  C   UNL A   1      43.361  24.695  27.482  1.00  0.00     0.031 A 
ATOM     15  C   UNL A   1      44.742  25.187  27.174  1.00  0.00     0.074 A 
ATOM     16  C   UNL A   1      42.401  25.517  27.939  1.00  0.00     0.049 A 
ATOM     17  N   UNL A   1      45.266  26.365  27.370  1.00  0.00    -0.248 NA
ATOM     18  C   UNL A   1      45.647  24.225  26.518  1.00  0.00     0.031 C 
ATOM     19  C   UNL A   1      40.997  25.144  28.127  1.00  0.00     0.029 A 
ATOM     20  N   UNL A   1      42.443  26.841  28.284  1.00  0.00    -0.354 N 
ATOM     21  C   UNL A   1      46.557  26.286  26.866  1.00  0.00     0.074 A 
ATOM     22  C   UNL A   1      46.747  24.944  26.365  1.00  0.00     0.031 C 
ATOM     23  C   UNL A   1      40.310  26.219  28.545  1.00  0.00     0.029 A 
ATOM     24  C   UNL A   1      41.234  27.338  28.703  1.00  0.00     0.049 A 
ATOM     25  H   UNL A   1      43.264  27.383  28.237  1.00  0.00     0.167 HD
ATOM     26  C   UNL A   1      47.496  27.258  26.830  1.00  0.00     0.037 A 
ATOM     27  C   UNL A   1      40.929  28.556  29.186  1.00  0.00     0.037 A 
ATOM     28  C   UNL A   1      47.282  28.578  27.354  1.00  0.00     0.049 A 
ATOM     29  C   UNL A   1      42.036  29.578  29.256  1.00  0.00     0.074 A 
ATOM     30  C   UNL A   1      48.176  29.627  27.456  1.00  0.00     0.029 A 
ATOM     31  N   UNL A   1      46.073  29.024  27.875  1.00  0.00    -0.354 N 
ATOM     32  N   UNL A   1      43.275  29.486  28.832  1.00  0.00    -0.248 NA
ATOM     33  C   UNL A   1      41.708  30.867  29.875  1.00  0.00     0.031 C 
ATOM     34  C   UNL A   1      47.520  30.692  28.084  1.00  0.00     0.029 A 
ATOM     35  C   UNL A   1      46.202  30.327  28.321  1.00  0.00     0.049 A 
ATOM     36  H   UNL A   1      45.246  28.491  27.919  1.00  0.00     0.167 HD
ATOM     37  C   UNL A   1      43.869  30.707  29.117  1.00  0.00     0.074 A 
ATOM     38  C   UNL A   1      42.842  31.533  29.722  1.00  0.00     0.031 C 
ATOM     39  C   UNL A   1      45.147  31.113  28.909  1.00  0.00     0.037 A 
BRANCH  26  40
ATOM     40  C   UNL A   1      48.839  26.894  26.272  1.00  0.00     0.064 A 
ATOM     41  C   UNL A   1      49.169  27.107  24.926  1.00  0.00     0.173 A 
ATOM     42  C   UNL A   1      49.807  26.301  27.098  1.00  0.00     0.173 A 
ATOM     43  F   UNL A   1      48.267  27.641  24.087  1.00  0.00    -0.203 F 
ATOM     44  C   UNL A   1      50.408  26.721  24.421  1.00  0.00     0.198 A 
ATOM     45  C   UNL A   1      51.054  25.941  26.597  1.00  0.00     0.198 A 
ATOM     46  F   UNL A   1      49.539  26.065  28.391  1.00  0.00    -0.203 F 
ATOM     47  F   UNL A   1      50.682  26.886  23.120  1.00  0.00    -0.200 F 
ATOM     48  C   UNL A   1      51.352  26.143  25.258  1.00  0.00     0.200 A 
ATOM     49  F   UNL A   1      51.965  25.385  27.408  1.00  0.00    -0.200 F 
ATOM     50  F   UNL A   1      52.543  25.770  24.771  1.00  0.00    -0.200 F 
ENDBRANCH  26  40
BRANCH  27  51
ATOM     51  C   UNL A   1      39.561  28.855  29.692  1.00  0.00     0.064 A 
ATOM     52  C   UNL A   1      38.605  29.498  28.894  1.00  0.00     0.173 A 
ATOM     53  C   UNL A   1      39.196  28.547  31.012  1.00  0.00     0.173 A 
ATOM     54  F   UNL A   1      38.904  29.834  27.629  1.00  0.00    -0.203 F 
ATOM     55  C   UNL A   1      37.354  29.847  29.403  1.00  0.00     0.198 A 
ATOM     56  C   UNL A   1      37.934  28.862  31.509  1.00  0.00     0.198 A 
ATOM     57  F   UNL A   1      40.068  27.933  31.827  1.00  0.00    -0.203 F 
ATOM     58  F   UNL A   1      36.483  30.515  28.634  1.00  0.00    -0.200 F 
ATOM     59  C   UNL A   1      37.018  29.525  30.709  1.00  0.00     0.200 A 
ATOM     60  F   UNL A   1      37.609  28.530  32.767  1.00  0.00    -0.200 F 
ATOM     61  F   UNL A   1      35.818  29.863  31.199  1.00  0.00    -0.200 F 
ENDBRANCH  27  51
BRANCH  39  62
ATOM     62  C   UNL A   1      45.483  32.517  29.316  1.00  0.00     0.064 A 
ATOM     63  C   UNL A   1      45.984  32.813  30.590  1.00  0.00     0.173 A 
ATOM     64  C   UNL A   1      45.332  33.571  28.402  1.00  0.00     0.173 A 
ATOM     65  F   UNL A   1      46.130  31.840  31.502  1.00  0.00    -0.203 F 
ATOM     66  C   UNL A   1      46.294  34.121  30.947  1.00  0.00     0.198 A 
ATOM     67  C   UNL A   1      45.677  34.872  28.751  1.00  0.00     0.198 A 
ATOM     68  F   UNL A   1      44.863  33.335  27.167  1.00  0.00    -0.203 F 
ATOM     69  F   UNL A   1      46.718  34.391  32.190  1.00  0.00    -0.200 F 
ATOM     70  C   UNL A   1      46.148  35.148  30.026  1.00  0.00     0.200 A 
ATOM     71  F   UNL A   1      45.551  35.860  27.854  1.00  0.00    -0.200 F 
ATOM     72  F   UNL A   1      46.453  36.406  30.370  1.00  0.00    -0.200 F 
ENDBRANCH  39  62
ENDBRANCH  13  14
ENDBRANCH   6   8
ENDBRANCH   5   6
ENDBRANCH   4   5
ENDBRANCH   3   4
ENDBRANCH   2   3
ENDBRANCH   1   2
BRANCH   1  73
ATOM     73  C   UNL A   1      35.744  22.734  25.922  1.00  0.00     0.188 C 
BRANCH  73  74
ATOM     74  O   UNL A   1      35.514  23.913  25.155  1.00  0.00    -0.376 OA
BRANCH  74  75
ATOM     75  C   UNL A   1      34.428  24.704  25.640  1.00  0.00     0.202 C 
BRANCH  75  76
ATOM     76  C   UNL A   1      33.260  23.904  26.246  1.00  0.00     0.261 C 
BRANCH  76  77
ATOM     77  O   UNL A   1      32.005  23.962  25.536  1.00  0.00    -0.463 OA
BRANCH  77  78
ATOM     78  C   UNL A   1      31.673  22.884  24.776  1.00  0.00     0.312 C 
ATOM     79  O   UNL A   1      31.634  21.733  25.195  1.00  0.00    -0.252 OA
BRANCH  78  80
ATOM     80  C   UNL A   1      31.458  23.289  23.319  1.00  0.00     0.124 C 
ATOM     81  C   UNL A   1      32.712  23.473  22.512  1.00  0.00    -0.014 C 
ATOM     82  C   UNL A   1      30.800  24.673  23.195  1.00  0.00     0.048 C 
ATOM     83  C   UNL A   1      32.944  24.763  22.239  1.00  0.00    -0.006 C 
ATOM     84  C   UNL A   1      31.941  25.655  22.893  1.00  0.00     0.104 C 
BRANCH  84  85
ATOM     85  N   UNL A   1      31.504  26.672  21.971  1.00  0.00    -0.364 N 
ATOM     86  H   UNL A   1      31.604  26.568  20.998  1.00  0.00     0.162 HD
BRANCH  85  87
ATOM     87  C   UNL A   1      30.938  27.803  22.533  1.00  0.00     0.127 A 
ATOM     88  C   UNL A   1      31.448  28.319  23.716  1.00  0.00     0.047 A 
ATOM     89  N   UNL A   1      29.937  28.405  21.865  1.00  0.00    -0.231 NA
ATOM     90  C   UNL A   1      30.897  29.484  24.241  1.00  0.00     0.014 A 
ATOM     91  C   UNL A   1      29.374  29.510  22.387  1.00  0.00     0.073 A 
ATOM     92  C   UNL A   1      29.830  30.099  23.582  1.00  0.00     0.000 A 
ATOM     93  C   UNL A   1      28.298  30.100  21.736  1.00  0.00     0.029 A 
ATOM     94  C   UNL A   1      29.215  31.261  24.083  1.00  0.00     0.010 A 
ATOM     95  C   UNL A   1      27.673  31.247  22.237  1.00  0.00     0.002 A 
ATOM     96  C   UNL A   1      28.135  31.831  23.411  1.00  0.00     0.001 A 
ENDBRANCH  85  87
ENDBRANCH  84  85
ENDBRANCH  78  80
ENDBRANCH  77  78
ENDBRANCH  76  77
ENDBRANCH  75  76
ENDBRANCH  74  75
ENDBRANCH  73  74
ENDBRANCH   1  73
TORSDOF 19
ENDMDL
MODEL 2
REMARK VINA RESULT:     -11.4      5.345     11.023
REMARK SMILES O=C(OCCOCCOCCOC(=O)[C@@H]1C=C[C@@H](Nc2ccc3ccccc3n2)C1)c1ccc(-c2c3nc(c(-c4c(F)c(F)c(F)c(F)c4F)c4ccc([nH]4)c(-c4c(F)c(F)c(F)c(F)c4F)c4nc(c(-c5c(F)c(F)c(F)c(F)c5F)c5ccc2[nH]5)C=C4)C=C3)cc1
REMARK SMILES IDX 7 1 6 2 5 3 4 4 3 5 2 6 1 7 31 8 32 9 93 10 33 11 92 12
REMARK SMILES IDX 34 13 35 14 36 15 86 16 37 17 91 18 85 19 87 20 38 21 90 22
REMARK SMILES IDX 84 23 83 24 39 26 71 27 51 28 70 29 52 30 55 31 69 32 88 33
REMARK SMILES IDX 53 34 54 35 68 37 89 38 56 39 40 40 41 41 49 42 42 43 43 44
REMARK SMILES IDX 47 45 50 46 44 47 45 48 48 49 46 50 72 51 73 52 81 53 74 54
REMARK SMILES IDX 75 55 79 56 82 57 76 58 77 59 80 60 78 61 57 62 58 63 66 64
REMARK SMILES IDX 59 65 60 66 64 67 67 68 61 69 62 70 65 71 63 72 8 73 9 74
REMARK SMILES IDX 10 75 11 76 12 77 13 78 14 79 15 80 16 81 30 82 17 83 18 84
REMARK SMILES IDX 19 85 20 87 21 88 29 89 22 90 28 91 23 92 27 93 24 94 26 95
REMARK SMILES IDX 25 96
REMARK H PARENT 87 25 55 36 19 86
REMARK Flexibility Score: inf
ROOT
ATOM      1  C   UNL A   1      31.851  29.782  26.504  1.00  0.00     0.188 C 
ENDROOT
BRANCH   1   2
ATOM      2  O   UNL A   1      31.268  30.812  25.698  1.00  0.00    -0.376 OA
BRANCH   2   3
ATOM      3  C   UNL A   1      31.041  32.028  26.417  1.00  0.00     0.202 C 
BRANCH   3   4
ATOM      4  C   UNL A   1      32.297  32.592  27.113  1.00  0.00     0.261 C 
BRANCH   4   5
ATOM      5  O   UNL A   1      32.152  33.938  27.607  1.00  0.00    -0.460 OA
BRANCH   5   6
ATOM      6  C   UNL A   1      32.915  34.641  28.478  1.00  0.00     0.338 C 
ATOM      7  O   UNL A   1      32.563  35.789  28.753  1.00  0.00    -0.246 OA
BRANCH   6   8
ATOM      8  C   UNL A   1      34.171  34.135  29.128  1.00  0.00     0.060 A 
ATOM      9  C   UNL A   1      35.470  34.379  28.684  1.00  0.00     0.016 A 
ATOM     10  C   UNL A   1      34.024  33.375  30.308  1.00  0.00     0.016 A 
ATOM     11  C   UNL A   1      36.578  33.892  29.357  1.00  0.00     0.010 A 
ATOM     12  C   UNL A   1      35.136  32.869  30.994  1.00  0.00     0.010 A 
ATOM     13  C   UNL A   1      36.418  33.115  30.500  1.00  0.00    -0.014 A 
BRANCH  13  14
ATOM     14  C   UNL A   1      37.624  32.444  31.011  1.00  0.00     0.031 A 
ATOM     15  C   UNL A   1      38.064  32.773  32.404  1.00  0.00     0.074 A 
ATOM     16  C   UNL A   1      38.157  31.423  30.320  1.00  0.00     0.049 A 
ATOM     17  N   UNL A   1      39.031  32.256  33.112  1.00  0.00    -0.248 NA
ATOM     18  C   UNL A   1      37.281  33.803  33.111  1.00  0.00     0.031 C 
ATOM     19  C   UNL A   1      37.683  30.953  29.016  1.00  0.00     0.029 A 
ATOM     20  N   UNL A   1      39.180  30.568  30.631  1.00  0.00    -0.354 N 
ATOM     21  C   UNL A   1      38.974  32.897  34.342  1.00  0.00     0.074 A 
ATOM     22  C   UNL A   1      37.889  33.849  34.286  1.00  0.00     0.031 C 
ATOM     23  C   UNL A   1      38.409  29.886  28.644  1.00  0.00     0.029 A 
ATOM     24  C   UNL A   1      39.429  29.633  29.656  1.00  0.00     0.049 A 
ATOM     25  H   UNL A   1      39.688  30.619  31.473  1.00  0.00     0.167 HD
ATOM     26  C   UNL A   1      39.766  32.699  35.420  1.00  0.00     0.037 A 
ATOM     27  C   UNL A   1      40.398  28.702  29.590  1.00  0.00     0.037 A 
ATOM     28  C   UNL A   1      40.850  31.757  35.436  1.00  0.00     0.049 A 
ATOM     29  C   UNL A   1      41.350  28.598  30.755  1.00  0.00     0.074 A 
ATOM     30  C   UNL A   1      41.779  31.521  36.431  1.00  0.00     0.029 A 
ATOM     31  N   UNL A   1      41.150  30.895  34.389  1.00  0.00    -0.354 N 
ATOM     32  N   UNL A   1      41.332  29.244  31.898  1.00  0.00    -0.248 NA
ATOM     33  C   UNL A   1      42.456  27.643  30.623  1.00  0.00     0.031 C 
ATOM     34  C   UNL A   1      42.671  30.548  35.965  1.00  0.00     0.029 A 
ATOM     35  C   UNL A   1      42.264  30.138  34.704  1.00  0.00     0.049 A 
ATOM     36  H   UNL A   1      40.643  30.831  33.546  1.00  0.00     0.167 HD
ATOM     37  C   UNL A   1      42.411  28.765  32.626  1.00  0.00     0.074 A 
ATOM     38  C   UNL A   1      43.043  27.750  31.806  1.00  0.00     0.031 C 
ATOM     39  C   UNL A   1      42.852  29.131  33.856  1.00  0.00     0.037 A 
BRANCH  26  40
ATOM     40  C   UNL A   1      39.522  33.567  36.618  1.00  0.00     0.064 A 
ATOM     41  C   UNL A   1      40.090  34.844  36.739  1.00  0.00     0.173 A 
ATOM     42  C   UNL A   1      38.722  33.102  37.673  1.00  0.00     0.173 A 
ATOM     43  F   UNL A   1      40.888  35.322  35.772  1.00  0.00    -0.203 F 
ATOM     44  C   UNL A   1      39.883  35.615  37.881  1.00  0.00     0.198 A 
ATOM     45  C   UNL A   1      38.496  33.885  38.801  1.00  0.00     0.198 A 
ATOM     46  F   UNL A   1      38.165  31.884  37.613  1.00  0.00    -0.203 F 
ATOM     47  F   UNL A   1      40.477  36.809  37.999  1.00  0.00    -0.200 F 
ATOM     48  C   UNL A   1      39.082  35.137  38.908  1.00  0.00     0.200 A 
ATOM     49  F   UNL A   1      37.721  33.422  39.791  1.00  0.00    -0.200 F 
ATOM     50  F   UNL A   1      38.887  35.878  40.007  1.00  0.00    -0.200 F 
ENDBRANCH  26  40
BRANCH  27  51
ATOM     51  C   UNL A   1      40.558  27.852  28.378  1.00  0.00     0.064 A 
ATOM     52  C   UNL A   1      39.998  26.569  28.299  1.00  0.00     0.173 A 
ATOM     53  C   UNL A   1      41.323  28.290  27.285  1.00  0.00     0.173 A 
ATOM     54  F   UNL A   1      39.273  26.090  29.321  1.00  0.00    -0.203 F 
ATOM     55  C   UNL A   1      40.221  25.749  27.192  1.00  0.00     0.198 A 
ATOM     56  C   UNL A   1      41.515  27.486  26.164  1.00  0.00     0.198 A 
ATOM     57  F   UNL A   1      41.886  29.508  27.301  1.00  0.00    -0.203 F 
ATOM     58  F   UNL A   1      39.725  24.506  27.172  1.00  0.00    -0.200 F 
ATOM     59  C   UNL A   1      40.976  26.210  26.124  1.00  0.00     0.200 A 
ATOM     60  F   UNL A   1      42.229  27.945  25.127  1.00  0.00    -0.200 F 
ATOM     61  F   UNL A   1      41.194  25.422  25.063  1.00  0.00    -0.200 F 
ENDBRANCH  27  51
BRANCH  39  62
ATOM     62  C   UNL A   1      44.053  28.405  34.386  1.00  0.00     0.064 A 
ATOM     63  C   UNL A   1      43.929  27.214  35.114  1.00  0.00     0.173 A 
ATOM     64  C   UNL A   1      45.343  28.894  34.130  1.00  0.00     0.173 A 
ATOM     65  F   UNL A   1      42.715  26.718  35.398  1.00  0.00    -0.203 F 
ATOM     66  C   UNL A   1      45.055  26.553  35.594  1.00  0.00     0.198 A 
ATOM     67  C   UNL A   1      46.467  28.211  34.580  1.00  0.00     0.198 A 
ATOM     68  F   UNL A   1      45.512  30.026  33.430  1.00  0.00    -0.203 F 
ATOM     69  F   UNL A   1      44.912  25.446  36.338  1.00  0.00    -0.200 F 
ATOM     70  C   UNL A   1      46.322  27.046  35.321  1.00  0.00     0.200 A 
ATOM     71  F   UNL A   1      47.691  28.679  34.301  1.00  0.00    -0.200 F 
ATOM     72  F   UNL A   1      47.404  26.404  35.779  1.00  0.00    -0.200 F 
ENDBRANCH  39  62
ENDBRANCH  13  14
ENDBRANCH   6   8
ENDBRANCH   5   6
ENDBRANCH   4   5
ENDBRANCH   3   4
ENDBRANCH   2   3
ENDBRANCH   1   2
BRANCH   1  73
ATOM     73  C   UNL A   1      32.950  29.005  25.789  1.00  0.00     0.188 C 
BRANCH  73  74
ATOM     74  O   UNL A   1      33.267  29.615  24.541  1.00  0.00    -0.376 OA
BRANCH  74  75
ATOM     75  C   UNL A   1      33.274  28.699  23.445  1.00  0.00     0.202 C 
BRANCH  75  76
ATOM     76  C   UNL A   1      32.006  28.718  22.572  1.00  0.00     0.261 C 
BRANCH  76  77
ATOM     77  O   UNL A   1      30.945  27.819  22.960  1.00  0.00    -0.463 OA
BRANCH  77  78
ATOM     78  C   UNL A   1      31.192  26.486  22.848  1.00  0.00     0.312 C 
ATOM     79  O   UNL A   1      31.945  25.993  22.016  1.00  0.00    -0.252 OA
BRANCH  78  80
ATOM     80  C   UNL A   1      30.331  25.688  23.826  1.00  0.00     0.124 C 
ATOM     81  C   UNL A   1      30.545  26.008  25.278  1.00  0.00    -0.014 C 
ATOM     82  C   UNL A   1      30.654  24.185  23.786  1.00  0.00     0.048 C 
ATOM     83  C   UNL A   1      31.178  25.018  25.919  1.00  0.00    -0.006 C 
ATOM     84  C   UNL A   1      31.573  23.920  24.986  1.00  0.00     0.104 C 
BRANCH  84  85
ATOM     85  N   UNL A   1      31.282  22.639  25.576  1.00  0.00    -0.364 N 
ATOM     86  H   UNL A   1      30.477  22.489  26.120  1.00  0.00     0.162 HD
BRANCH  85  87
ATOM     87  C   UNL A   1      32.201  21.633  25.333  1.00  0.00     0.127 A 
ATOM     88  C   UNL A   1      33.496  21.745  25.819  1.00  0.00     0.047 A 
ATOM     89  N   UNL A   1      31.777  20.537  24.677  1.00  0.00    -0.231 NA
ATOM     90  C   UNL A   1      34.393  20.702  25.606  1.00  0.00     0.014 A 
ATOM     91  C   UNL A   1      32.649  19.542  24.434  1.00  0.00     0.073 A 
ATOM     92  C   UNL A   1      33.981  19.574  24.891  1.00  0.00     0.000 A 
ATOM     93  C   UNL A   1      32.236  18.436  23.702  1.00  0.00     0.029 A 
ATOM     94  C   UNL A   1      34.853  18.504  24.621  1.00  0.00     0.010 A 
ATOM     95  C   UNL A   1      33.103  17.376  23.418  1.00  0.00     0.002 A 
ATOM     96  C   UNL A   1      34.413  17.408  23.881  1.00  0.00     0.001 A 
ENDBRANCH  85  87
ENDBRANCH  84  85
ENDBRANCH  78  80
ENDBRANCH  77  78
ENDBRANCH  76  77
ENDBRANCH  75  76
ENDBRANCH  74  75
ENDBRANCH  73  74
ENDBRANCH   1  73
TORSDOF 19
ENDMDL
MODEL 3
REMARK VINA RESULT:     -11.2      1.545      2.565
REMARK SMILES O=C(OCCOCCOCCOC(=O)[C@@H]1C=C[C@@H](Nc2ccc3ccccc3n2)C1)c1ccc(-c2c3nc(c(-c4c(F)c(F)c(F)c(F)c4F)c4ccc([nH]4)c(-c4c(F)c(F)c(F)c(F)c4F)c4nc(c(-c5c(F)c(F)c(F)c(F)c5F)c5ccc2[nH]5)C=C4)C=C3)cc1
REMARK SMILES IDX 7 1 6 2 5 3 4 4 3 5 2 6 1 7 31 8 32 9 93 10 33 11 92 12
REMARK SMILES IDX 34 13 35 14 36 15 86 16 37 17 91 18 85 19 87 20 38 21 90 22
REMARK SMILES IDX 84 23 83 24 39 26 71 27 51 28 70 29 52 30 55 31 69 32 88 33
REMARK SMILES IDX 53 34 54 35 68 37 89 38 56 39 40 40 41 41 49 42 42 43 43 44
REMARK SMILES IDX 47 45 50 46 44 47 45 48 48 49 46 50 72 51 73 52 81 53 74 54
REMARK SMILES IDX 75 55 79 56 82 57 76 58 77 59 80 60 78 61 57 62 58 63 66 64
REMARK SMILES IDX 59 65 60 66 64 67 67 68 61 69 62 70 65 71 63 72 8 73 9 74
REMARK SMILES IDX 10 75 11 76 12 77 13 78 14 79 15 80 16 81 30 82 17 83 18 84
REMARK SMILES IDX 19 85 20 87 21 88 29 89 22 90 28 91 23 92 27 93 24 94 26 95
REMARK SMILES IDX 25 96
REMARK H PARENT 87 25 55 36 19 86
REMARK Flexibility Score: inf
ROOT
ATOM      1  C   UNL A   1      37.126  21.852  24.257  1.00  0.00     0.188 C 
ENDROOT
BRANCH   1   2
ATOM      2  O   UNL A   1      37.375  20.933  25.328  1.00  0.00    -0.376 OA
BRANCH   2   3
ATOM      3  C   UNL A   1      38.759  20.837  25.676  1.00  0.00     0.202 C 
BRANCH   3   4
ATOM      4  C   UNL A   1      39.290  19.391  25.753  1.00  0.00     0.261 C 
BRANCH   4   5
ATOM      5  O   UNL A   1      40.708  19.262  25.527  1.00  0.00    -0.460 OA
BRANCH   5   6
ATOM      6  C   UNL A   1      41.758  19.764  26.221  1.00  0.00     0.338 C 
ATOM      7  O   UNL A   1      42.628  18.976  26.593  1.00  0.00    -0.246 OA
BRANCH   6   8
ATOM      8  C   UNL A   1      41.937  21.209  26.588  1.00  0.00     0.060 A 
ATOM      9  C   UNL A   1      41.874  22.284  25.705  1.00  0.00     0.016 A 
ATOM     10  C   UNL A   1      42.155  21.504  27.951  1.00  0.00     0.016 A 
ATOM     11  C   UNL A   1      42.030  23.593  26.131  1.00  0.00     0.010 A 
ATOM     12  C   UNL A   1      42.323  22.822  28.395  1.00  0.00     0.010 A 
ATOM     13  C   UNL A   1      42.279  23.868  27.472  1.00  0.00    -0.014 A 
BRANCH  13  14
ATOM     14  C   UNL A   1      42.667  25.249  27.797  1.00  0.00     0.031 A 
ATOM     15  C   UNL A   1      44.003  25.727  27.318  1.00  0.00     0.074 A 
ATOM     16  C   UNL A   1      41.754  26.092  28.309  1.00  0.00     0.049 A 
ATOM     17  N   UNL A   1      44.535  26.915  27.394  1.00  0.00    -0.248 NA
ATOM     18  C   UNL A   1      44.841  24.733  26.622  1.00  0.00     0.031 C 
ATOM     19  C   UNL A   1      40.381  25.727  28.665  1.00  0.00     0.029 A 
ATOM     20  N   UNL A   1      41.822  27.433  28.576  1.00  0.00    -0.354 N 
ATOM     21  C   UNL A   1      45.766  26.812  26.761  1.00  0.00     0.074 A 
ATOM     22  C   UNL A   1      45.913  25.446  26.315  1.00  0.00     0.031 C 
ATOM     23  C   UNL A   1      39.733  26.821  29.095  1.00  0.00     0.029 A 
ATOM     24  C   UNL A   1      40.660  27.949  29.094  1.00  0.00     0.049 A 
ATOM     25  H   UNL A   1      42.628  27.974  28.413  1.00  0.00     0.167 HD
ATOM     26  C   UNL A   1      46.688  27.783  26.572  1.00  0.00     0.037 A 
ATOM     27  C   UNL A   1      40.398  29.191  29.541  1.00  0.00     0.037 A 
ATOM     28  C   UNL A   1      46.520  29.129  27.046  1.00  0.00     0.049 A 
ATOM     29  C   UNL A   1      41.497  30.218  29.439  1.00  0.00     0.074 A 
ATOM     30  C   UNL A   1      47.411  30.184  26.996  1.00  0.00     0.029 A 
ATOM     31  N   UNL A   1      45.370  29.599  27.667  1.00  0.00    -0.354 N 
ATOM     32  N   UNL A   1      42.685  30.106  28.891  1.00  0.00    -0.248 NA
ATOM     33  C   UNL A   1      41.226  31.537  30.018  1.00  0.00     0.031 C 
ATOM     34  C   UNL A   1      46.817  31.279  27.632  1.00  0.00     0.029 A 
ATOM     35  C   UNL A   1      45.535  30.925  28.027  1.00  0.00     0.049 A 
ATOM     36  H   UNL A   1      44.556  29.068  27.828  1.00  0.00     0.167 HD
ATOM     37  C   UNL A   1      43.297  31.341  29.045  1.00  0.00     0.074 A 
ATOM     38  C   UNL A   1      42.333  32.197  29.710  1.00  0.00     0.031 C 
ATOM     39  C   UNL A   1      44.542  31.739  28.681  1.00  0.00     0.037 A 
BRANCH  26  40
ATOM     40  C   UNL A   1      47.968  27.392  25.896  1.00  0.00     0.064 A 
ATOM     41  C   UNL A   1      49.105  27.007  26.621  1.00  0.00     0.173 A 
ATOM     42  C   UNL A   1      48.062  27.423  24.496  1.00  0.00     0.173 A 
ATOM     43  F   UNL A   1      49.077  26.991  27.962  1.00  0.00    -0.203 F 
ATOM     44  C   UNL A   1      50.295  26.688  25.971  1.00  0.00     0.198 A 
ATOM     45  C   UNL A   1      49.245  27.079  23.849  1.00  0.00     0.198 A 
ATOM     46  F   UNL A   1      47.007  27.794  23.756  1.00  0.00    -0.203 F 
ATOM     47  F   UNL A   1      51.384  26.374  26.685  1.00  0.00    -0.200 F 
ATOM     48  C   UNL A   1      50.363  26.719  24.586  1.00  0.00     0.200 A 
ATOM     49  F   UNL A   1      49.307  27.107  22.511  1.00  0.00    -0.200 F 
ATOM     50  F   UNL A   1      51.509  26.415  23.963  1.00  0.00    -0.200 F 
ENDBRANCH  26  40
BRANCH  27  51
ATOM     51  C   UNL A   1      39.089  29.514  30.173  1.00  0.00     0.064 A 
ATOM     52  C   UNL A   1      38.105  30.246  29.495  1.00  0.00     0.173 A 
ATOM     53  C   UNL A   1      38.814  29.136  31.497  1.00  0.00     0.173 A 
ATOM     54  F   UNL A   1      38.320  30.651  28.234  1.00  0.00    -0.203 F 
ATOM     55  C   UNL A   1      36.915  30.614  30.124  1.00  0.00     0.198 A 
ATOM     56  C   UNL A   1      37.610  29.471  32.113  1.00  0.00     0.198 A 
ATOM     57  F   UNL A   1      39.716  28.434  32.200  1.00  0.00    -0.203 F 
ATOM     58  F   UNL A   1      36.020  31.366  29.470  1.00  0.00    -0.200 F 
ATOM     59  C   UNL A   1      36.667  30.222  31.430  1.00  0.00     0.200 A 
ATOM     60  F   UNL A   1      37.368  29.072  33.370  1.00  0.00    -0.200 F 
ATOM     61  F   UNL A   1      35.526  30.578  32.036  1.00  0.00    -0.200 F 
ENDBRANCH  27  51
BRANCH  39  62
ATOM     62  C   UNL A   1      44.908  33.164  28.974  1.00  0.00     0.064 A 
ATOM     63  C   UNL A   1      44.638  34.194  28.062  1.00  0.00     0.173 A 
ATOM     64  C   UNL A   1      45.505  33.502  30.197  1.00  0.00     0.173 A 
ATOM     65  F   UNL A   1      44.083  33.915  26.872  1.00  0.00    -0.203 F 
ATOM     66  C   UNL A   1      44.981  35.510  28.353  1.00  0.00     0.198 A 
ATOM     67  C   UNL A   1      45.813  34.824  30.499  1.00  0.00     0.198 A 
ATOM     68  F   UNL A   1      45.774  32.552  31.105  1.00  0.00    -0.203 F 
ATOM     69  F   UNL A   1      44.767  36.471  27.443  1.00  0.00    -0.200 F 
ATOM     70  C   UNL A   1      45.560  35.825  29.572  1.00  0.00     0.200 A 
ATOM     71  F   UNL A   1      46.357  35.129  31.685  1.00  0.00    -0.200 F 
ATOM     72  F   UNL A   1      45.884  37.094  29.853  1.00  0.00    -0.200 F 
ENDBRANCH  39  62
ENDBRANCH  13  14
ENDBRANCH   6   8
ENDBRANCH   5   6
ENDBRANCH   4   5
ENDBRANCH   3   4
ENDBRANCH   2   3
ENDBRANCH   1   2
BRANCH   1  73
ATOM     73  C   UNL A   1      36.218  23.009  24.654  1.00  0.00     0.188 C 
BRANCH  73  74
ATOM     74  O   UNL A   1      36.123  23.112  26.072  1.00  0.00    -0.376 OA
BRANCH  74  75
ATOM     75  C   UNL A   1      34.782  23.042  26.560  1.00  0.00     0.202 C 
BRANCH  75  76
ATOM     76  C   UNL A   1      34.404  21.712  27.236  1.00  0.00     0.261 C 
BRANCH  76  77
ATOM     77  O   UNL A   1      33.251  21.025  26.703  1.00  0.00    -0.463 OA
BRANCH  77  78
ATOM     78  C   UNL A   1      33.336  20.573  25.424  1.00  0.00     0.312 C 
ATOM     79  O   UNL A   1      34.284  19.935  24.981  1.00  0.00    -0.252 OA
BRANCH  78  80
ATOM     80  C   UNL A   1      32.146  21.053  24.595  1.00  0.00     0.124 C 
ATOM     81  C   UNL A   1      32.492  21.912  23.412  1.00  0.00    -0.014 C 
ATOM     82  C   UNL A   1      31.222  21.984  25.398  1.00  0.00     0.048 C 
ATOM     83  C   UNL A   1      32.142  23.190  23.605  1.00  0.00    -0.006 C 
ATOM     84  C   UNL A   1      31.594  23.412  24.976  1.00  0.00     0.104 C 
BRANCH  84  85
ATOM     85  N   UNL A   1      30.420  24.244  24.912  1.00  0.00    -0.364 N 
ATOM     86  H   UNL A   1      29.514  23.863  24.880  1.00  0.00     0.162 HD
BRANCH  85  87
ATOM     87  C   UNL A   1      30.641  25.610  24.898  1.00  0.00     0.127 A 
ATOM     88  C   UNL A   1      30.268  26.361  23.791  1.00  0.00     0.047 A 
ATOM     89  N   UNL A   1      31.163  26.177  26.001  1.00  0.00    -0.231 NA
ATOM     90  C   UNL A   1      30.454  27.741  23.814  1.00  0.00     0.014 A 
ATOM     91  C   UNL A   1      31.381  27.505  26.015  1.00  0.00     0.073 A 
ATOM     92  C   UNL A   1      31.031  28.340  24.935  1.00  0.00     0.000 A 
ATOM     93  C   UNL A   1      31.977  28.087  27.126  1.00  0.00     0.029 A 
ATOM     94  C   UNL A   1      31.271  29.725  25.000  1.00  0.00     0.010 A 
ATOM     95  C   UNL A   1      32.231  29.461  27.190  1.00  0.00     0.002 A 
ATOM     96  C   UNL A   1      31.874  30.282  26.126  1.00  0.00     0.001 A 
ENDBRANCH  85  87
ENDBRANCH  84  85
ENDBRANCH  78  80
ENDBRANCH  77  78
ENDBRANCH  76  77
ENDBRANCH  75  76
ENDBRANCH  74  75
ENDBRANCH  73  74
ENDBRANCH   1  73
TORSDOF 19
ENDMDL
