MODEL 1
REMARK VINA RESULT:     -10.9      0.000      0.000
REMARK SMILES O=C(CC[N@H+]1CCC[C@@H](C(=O)OCCOCCOCCOC(=O)c2ccc(-c3c4nc(c(-c5c(F)c(F)c(F)c(F)c5F)c5ccc([nH]5)c(-c5c(F)c(F)c(F)c(F)c5F)c5nc(c(-c6c(F)c(F)c(F)c(F)c6F)c6ccc3[nH]6)C=C5)C=C4)cc2)C1)Nc1cccc(F)c1
REMARK SMILES IDX 16 1 15 2 14 3 13 4 12 5 10 6 11 7 9 8 5 9 6 10 87 11 7 13
REMARK SMILES IDX 8 14 4 15 3 16 2 17 1 18 88 19 89 21 90 22 95 23 91 24 93 25
REMARK SMILES IDX 92 26 94 27 17 28 18 29 19 30 20 31 21 32 22 33 23 34 24 35
REMARK SMILES IDX 25 36 86 37 26 38 85 39 27 40 28 41 29 42 79 43 30 44 84 45
REMARK SMILES IDX 78 46 80 47 31 48 83 49 77 50 76 51 32 53 64 54 44 55 63 56
REMARK SMILES IDX 45 57 48 58 62 59 81 60 46 61 47 62 61 64 82 65 49 66 33 67
REMARK SMILES IDX 34 68 42 69 35 70 36 71 40 72 43 73 37 74 38 75 41 76 39 77
REMARK SMILES IDX 65 78 66 79 74 80 67 81 68 82 72 83 75 84 69 85 70 86 73 87
REMARK SMILES IDX 71 88 50 89 51 90 59 91 52 92 53 93 57 94 60 95 54 96 55 97
REMARK SMILES IDX 58 98 56 99
REMARK H PARENT 5 12 88 20 80 52 48 63
REMARK Flexibility Score: inf
ROOT
ATOM      1  C   UNL A   1      33.643  28.559  26.869  1.00  0.00     0.188 C 
ENDROOT
BRANCH   1   2
ATOM      2  O   UNL A   1      33.269  27.611  25.892  1.00  0.00    -0.376 OA
BRANCH   2   3
ATOM      3  C   UNL A   1      34.060  27.520  24.716  1.00  0.00     0.202 C 
BRANCH   3   4
ATOM      4  C   UNL A   1      33.788  28.409  23.483  1.00  0.00     0.261 C 
BRANCH   4   5
ATOM      5  O   UNL A   1      32.715  27.983  22.627  1.00  0.00    -0.463 OA
BRANCH   5   6
ATOM      6  C   UNL A   1      32.694  26.698  22.196  1.00  0.00     0.314 C 
ATOM      7  O   UNL A   1      33.604  26.144  21.596  1.00  0.00    -0.252 OA
BRANCH   6   8
ATOM      8  C   UNL A   1      31.417  26.003  22.659  1.00  0.00     0.154 C 
ATOM      9  N   UNL A   1      30.504  24.614  24.517  1.00  0.00    -0.334 N 
ATOM     10  C   UNL A   1      29.832  25.802  25.065  1.00  0.00     0.262 C 
ATOM     11  C   UNL A   1      31.735  25.067  23.820  1.00  0.00     0.277 C 
ATOM     12  H   UNL A   1      29.824  24.174  23.898  1.00  0.00     0.348 HD
ATOM     13  C   UNL A   1      29.249  26.566  23.881  1.00  0.00     0.062 C 
ATOM     14  C   UNL A   1      30.353  27.069  22.965  1.00  0.00     0.027 C 
BRANCH   9  15
ATOM     15  C   UNL A   1      30.864  23.564  25.488  1.00  0.00     0.272 C 
BRANCH  15  16
ATOM     16  C   UNL A   1      31.814  22.452  25.058  1.00  0.00     0.161 C 
BRANCH  16  17
ATOM     17  C   UNL A   1      33.164  22.315  25.741  1.00  0.00     0.230 C 
ATOM     18  O   UNL A   1      33.234  21.684  26.796  1.00  0.00    -0.275 OA
ATOM     19  N   UNL A   1      34.248  22.818  25.051  1.00  0.00    -0.326 N 
ATOM     20  H   UNL A   1      34.068  23.523  24.388  1.00  0.00     0.169 HD
BRANCH  19  21
ATOM     21  C   UNL A   1      35.592  22.414  25.212  1.00  0.00     0.044 A 
ATOM     22  C   UNL A   1      36.519  23.361  25.668  1.00  0.00     0.026 A 
ATOM     23  C   UNL A   1      36.045  21.137  24.869  1.00  0.00     0.065 A 
ATOM     24  C   UNL A   1      37.872  23.024  25.808  1.00  0.00     0.005 A 
ATOM     25  C   UNL A   1      37.394  20.818  24.996  1.00  0.00     0.125 A 
ATOM     26  C   UNL A   1      38.311  21.745  25.470  1.00  0.00     0.039 A 
ATOM     27  F   UNL A   1      37.817  19.597  24.643  1.00  0.00    -0.207 F 
ENDBRANCH  19  21
ENDBRANCH  16  17
ENDBRANCH  15  16
ENDBRANCH   9  15
ENDBRANCH   6   8
ENDBRANCH   5   6
ENDBRANCH   4   5
ENDBRANCH   3   4
ENDBRANCH   2   3
ENDBRANCH   1   2
BRANCH   1  28
ATOM     28  C   UNL A   1      32.552  29.624  27.123  1.00  0.00     0.188 C 
BRANCH  28  29
ATOM     29  O   UNL A   1      32.468  30.763  26.286  1.00  0.00    -0.376 OA
BRANCH  29  30
ATOM     30  C   UNL A   1      31.536  31.781  26.624  1.00  0.00     0.202 C 
BRANCH  30  31
ATOM     31  C   UNL A   1      32.007  33.230  26.878  1.00  0.00     0.261 C 
BRANCH  31  32
ATOM     32  O   UNL A   1      32.693  33.488  28.119  1.00  0.00    -0.460 OA
BRANCH  32  33
ATOM     33  C   UNL A   1      33.872  34.150  28.023  1.00  0.00     0.338 C 
ATOM     34  O   UNL A   1      34.033  35.349  27.817  1.00  0.00    -0.246 OA
BRANCH  33  35
ATOM     35  C   UNL A   1      34.989  33.258  28.401  1.00  0.00     0.060 A 
ATOM     36  C   UNL A   1      34.699  31.968  28.876  1.00  0.00     0.016 A 
ATOM     37  C   UNL A   1      36.310  33.703  28.351  1.00  0.00     0.016 A 
ATOM     38  C   UNL A   1      35.723  31.127  29.318  1.00  0.00     0.010 A 
ATOM     39  C   UNL A   1      37.332  32.871  28.824  1.00  0.00     0.010 A 
ATOM     40  C   UNL A   1      37.043  31.591  29.337  1.00  0.00    -0.014 A 
BRANCH  40  41
ATOM     41  C   UNL A   1      38.092  30.826  30.060  1.00  0.00     0.031 A 
ATOM     42  C   UNL A   1      38.349  31.148  31.506  1.00  0.00     0.074 A 
ATOM     43  C   UNL A   1      38.808  29.864  29.452  1.00  0.00     0.049 A 
ATOM     44  N   UNL A   1      39.270  30.686  32.315  1.00  0.00    -0.248 NA
ATOM     45  C   UNL A   1      37.445  32.132  32.123  1.00  0.00     0.031 C 
ATOM     46  C   UNL A   1      38.629  29.416  28.073  1.00  0.00     0.029 A 
ATOM     47  N   UNL A   1      39.851  29.100  29.922  1.00  0.00    -0.354 N 
ATOM     48  C   UNL A   1      39.064  31.331  33.528  1.00  0.00     0.074 A 
ATOM     49  C   UNL A   1      37.950  32.235  33.344  1.00  0.00     0.031 C 
ATOM     50  C   UNL A   1      39.547  28.473  27.800  1.00  0.00     0.029 A 
ATOM     51  C   UNL A   1      40.402  28.276  28.971  1.00  0.00     0.049 A 
ATOM     52  H   UNL A   1      40.172  29.140  30.851  1.00  0.00     0.167 HD
ATOM     53  C   UNL A   1      39.740  31.180  34.692  1.00  0.00     0.037 A 
ATOM     54  C   UNL A   1      41.489  27.481  29.031  1.00  0.00     0.037 A 
ATOM     55  C   UNL A   1      40.853  30.284  34.876  1.00  0.00     0.049 A 
ATOM     56  C   UNL A   1      42.279  27.393  30.315  1.00  0.00     0.074 A 
ATOM     57  C   UNL A   1      41.589  30.048  36.024  1.00  0.00     0.029 A 
ATOM     58  N   UNL A   1      41.398  29.487  33.881  1.00  0.00    -0.354 N 
ATOM     59  N   UNL A   1      42.065  27.986  31.465  1.00  0.00    -0.248 NA
ATOM     60  C   UNL A   1      43.465  26.522  30.307  1.00  0.00     0.031 C 
ATOM     61  C   UNL A   1      42.619  29.157  35.707  1.00  0.00     0.029 A 
ATOM     62  C   UNL A   1      42.482  28.782  34.381  1.00  0.00     0.049 A 
ATOM     63  H   UNL A   1      41.066  29.430  32.957  1.00  0.00     0.167 HD
ATOM     64  C   UNL A   1      43.062  27.533  32.322  1.00  0.00     0.074 A 
ATOM     65  C   UNL A   1      43.875  26.608  31.564  1.00  0.00     0.031 C 
ATOM     66  C   UNL A   1      43.280  27.853  33.622  1.00  0.00     0.037 A 
BRANCH  53  67
ATOM     67  C   UNL A   1      39.317  32.030  35.856  1.00  0.00     0.064 A 
ATOM     68  C   UNL A   1      39.851  33.310  36.069  1.00  0.00     0.173 A 
ATOM     69  C   UNL A   1      38.338  31.570  36.750  1.00  0.00     0.173 A 
ATOM     70  F   UNL A   1      40.800  33.792  35.253  1.00  0.00    -0.203 F 
ATOM     71  C   UNL A   1      39.440  34.086  37.151  1.00  0.00     0.198 A 
ATOM     72  C   UNL A   1      37.906  32.363  37.810  1.00  0.00     0.198 A 
ATOM     73  F   UNL A   1      37.792  30.357  36.589  1.00  0.00    -0.203 F 
ATOM     74  F   UNL A   1      40.001  35.285  37.366  1.00  0.00    -0.200 F 
ATOM     75  C   UNL A   1      38.463  33.615  38.015  1.00  0.00     0.200 A 
ATOM     76  F   UNL A   1      36.950  31.911  38.635  1.00  0.00    -0.200 F 
ATOM     77  F   UNL A   1      38.063  34.366  39.051  1.00  0.00    -0.200 F 
ENDBRANCH  53  67
BRANCH  54  78
ATOM     78  C   UNL A   1      41.918  26.710  27.833  1.00  0.00     0.064 A 
ATOM     79  C   UNL A   1      41.415  25.426  27.579  1.00  0.00     0.173 A 
ATOM     80  C   UNL A   1      42.866  27.226  26.936  1.00  0.00     0.173 A 
ATOM     81  F   UNL A   1      40.529  24.875  28.421  1.00  0.00    -0.203 F 
ATOM     82  C   UNL A   1      41.861  24.679  26.490  1.00  0.00     0.198 A 
ATOM     83  C   UNL A   1      43.286  26.492  25.829  1.00  0.00     0.198 A 
ATOM     84  F   UNL A   1      43.384  28.447  27.135  1.00  0.00    -0.203 F 
ATOM     85  F   UNL A   1      41.406  23.433  26.303  1.00  0.00    -0.200 F 
ATOM     86  C   UNL A   1      42.791  25.216  25.611  1.00  0.00     0.200 A 
ATOM     87  F   UNL A   1      44.177  27.019  24.977  1.00  0.00    -0.200 F 
ATOM     88  F   UNL A   1      43.218  24.498  24.563  1.00  0.00    -0.200 F 
ENDBRANCH  54  78
BRANCH  66  89
ATOM     89  C   UNL A   1      44.415  27.164  34.331  1.00  0.00     0.064 A 
ATOM     90  C   UNL A   1      45.701  27.721  34.392  1.00  0.00     0.173 A 
ATOM     91  C   UNL A   1      44.196  25.948  34.999  1.00  0.00     0.173 A 
ATOM     92  F   UNL A   1      45.969  28.874  33.761  1.00  0.00    -0.203 F 
ATOM     93  C   UNL A   1      46.732  27.072  35.070  1.00  0.00     0.198 A 
ATOM     94  C   UNL A   1      45.220  25.321  35.705  1.00  0.00     0.198 A 
ATOM     95  F   UNL A   1      42.984  25.375  34.983  1.00  0.00    -0.203 F 
ATOM     96  F   UNL A   1      47.964  27.598  35.070  1.00  0.00    -0.200 F 
ATOM     97  C   UNL A   1      46.489  25.879  35.732  1.00  0.00     0.200 A 
ATOM     98  F   UNL A   1      44.977  24.177  36.360  1.00  0.00    -0.200 F 
ATOM     99  F   UNL A   1      47.479  25.263  36.392  1.00  0.00    -0.200 F 
ENDBRANCH  66  89
ENDBRANCH  40  41
ENDBRANCH  33  35
ENDBRANCH  32  33
ENDBRANCH  31  32
ENDBRANCH  30  31
ENDBRANCH  29  30
ENDBRANCH  28  29
ENDBRANCH   1  28
TORSDOF 21
ENDMDL
MODEL 2
REMARK VINA RESULT:     -10.9      4.260      6.639
REMARK SMILES O=C(CC[N@H+]1CCC[C@@H](C(=O)OCCOCCOCCOC(=O)c2ccc(-c3c4nc(c(-c5c(F)c(F)c(F)c(F)c5F)c5ccc([nH]5)c(-c5c(F)c(F)c(F)c(F)c5F)c5nc(c(-c6c(F)c(F)c(F)c(F)c6F)c6ccc3[nH]6)C=C5)C=C4)cc2)C1)Nc1cccc(F)c1
REMARK SMILES IDX 16 1 15 2 14 3 13 4 12 5 10 6 11 7 9 8 5 9 6 10 87 11 7 13
REMARK SMILES IDX 8 14 4 15 3 16 2 17 1 18 88 19 89 21 90 22 95 23 91 24 93 25
REMARK SMILES IDX 92 26 94 27 17 28 18 29 19 30 20 31 21 32 22 33 23 34 24 35
REMARK SMILES IDX 25 36 86 37 26 38 85 39 27 40 28 41 29 42 79 43 30 44 84 45
REMARK SMILES IDX 78 46 80 47 31 48 83 49 77 50 76 51 32 53 64 54 44 55 63 56
REMARK SMILES IDX 45 57 48 58 62 59 81 60 46 61 47 62 61 64 82 65 49 66 33 67
REMARK SMILES IDX 34 68 42 69 35 70 36 71 40 72 43 73 37 74 38 75 41 76 39 77
REMARK SMILES IDX 65 78 66 79 74 80 67 81 68 82 72 83 75 84 69 85 70 86 73 87
REMARK SMILES IDX 71 88 50 89 51 90 59 91 52 92 53 93 57 94 60 95 54 96 55 97
REMARK SMILES IDX 58 98 56 99
REMARK H PARENT 5 12 88 20 80 52 48 63
REMARK Flexibility Score: inf
ROOT
ATOM      1  C   UNL A   1      34.551  34.204  28.181  1.00  0.00     0.188 C 
ENDROOT
BRANCH   1   2
ATOM      2  O   UNL A   1      34.785  32.934  27.608  1.00  0.00    -0.376 OA
BRANCH   2   3
ATOM      3  C   UNL A   1      33.968  31.853  28.033  1.00  0.00     0.202 C 
BRANCH   3   4
ATOM      4  C   UNL A   1      34.198  30.413  27.524  1.00  0.00     0.261 C 
BRANCH   4   5
ATOM      5  O   UNL A   1      33.760  30.144  26.183  1.00  0.00    -0.463 OA
BRANCH   5   6
ATOM      6  C   UNL A   1      32.589  29.484  25.997  1.00  0.00     0.314 C 
ATOM      7  O   UNL A   1      31.813  29.168  26.888  1.00  0.00    -0.252 OA
BRANCH   6   8
ATOM      8  C   UNL A   1      32.320  29.287  24.509  1.00  0.00     0.154 C 
ATOM      9  N   UNL A   1      32.525  27.599  22.686  1.00  0.00    -0.334 N 
ATOM     10  C   UNL A   1      31.085  27.322  22.790  1.00  0.00     0.262 C 
ATOM     11  C   UNL A   1      33.009  28.015  24.027  1.00  0.00     0.277 C 
ATOM     12  H   UNL A   1      32.616  28.327  21.976  1.00  0.00     0.348 HD
ATOM     13  C   UNL A   1      30.387  28.668  22.962  1.00  0.00     0.062 C 
ATOM     14  C   UNL A   1      30.803  29.329  24.266  1.00  0.00     0.027 C 
BRANCH   9  15
ATOM     15  C   UNL A   1      33.368  26.492  22.197  1.00  0.00     0.272 C 
BRANCH  15  16
ATOM     16  C   UNL A   1      32.699  25.222  21.683  1.00  0.00     0.161 C 
BRANCH  16  17
ATOM     17  C   UNL A   1      33.242  23.867  22.105  1.00  0.00     0.230 C 
ATOM     18  O   UNL A   1      34.432  23.772  22.403  1.00  0.00    -0.275 OA
ATOM     19  N   UNL A   1      32.313  22.855  22.236  1.00  0.00    -0.326 N 
ATOM     20  H   UNL A   1      31.477  22.945  21.725  1.00  0.00     0.169 HD
BRANCH  19  21
ATOM     21  C   UNL A   1      32.457  21.700  23.037  1.00  0.00     0.044 A 
ATOM     22  C   UNL A   1      32.121  20.460  22.478  1.00  0.00     0.026 A 
ATOM     23  C   UNL A   1      32.847  21.752  24.378  1.00  0.00     0.065 A 
ATOM     24  C   UNL A   1      32.206  19.287  23.241  1.00  0.00     0.005 A 
ATOM     25  C   UNL A   1      32.913  20.583  25.132  1.00  0.00     0.125 A 
ATOM     26  C   UNL A   1      32.604  19.350  24.575  1.00  0.00     0.039 A 
ATOM     27  F   UNL A   1      33.267  20.651  26.422  1.00  0.00    -0.207 F 
ENDBRANCH  19  21
ENDBRANCH  16  17
ENDBRANCH  15  16
ENDBRANCH   9  15
ENDBRANCH   6   8
ENDBRANCH   5   6
ENDBRANCH   4   5
ENDBRANCH   3   4
ENDBRANCH   2   3
ENDBRANCH   1   2
BRANCH   1  28
ATOM     28  C   UNL A   1      33.057  34.468  28.471  1.00  0.00     0.188 C 
BRANCH  28  29
ATOM     29  O   UNL A   1      32.662  34.986  29.728  1.00  0.00    -0.376 OA
BRANCH  29  30
ATOM     30  C   UNL A   1      33.651  35.141  30.736  1.00  0.00     0.202 C 
BRANCH  30  31
ATOM     31  C   UNL A   1      33.831  34.071  31.836  1.00  0.00     0.261 C 
BRANCH  31  32
ATOM     32  O   UNL A   1      34.601  32.901  31.493  1.00  0.00    -0.460 OA
BRANCH  32  33
ATOM     33  C   UNL A   1      35.455  32.449  32.444  1.00  0.00     0.338 C 
ATOM     34  O   UNL A   1      35.319  32.532  33.661  1.00  0.00    -0.246 OA
BRANCH  33  35
ATOM     35  C   UNL A   1      36.525  31.638  31.825  1.00  0.00     0.060 A 
ATOM     36  C   UNL A   1      37.525  31.089  32.645  1.00  0.00     0.016 A 
ATOM     37  C   UNL A   1      36.585  31.467  30.442  1.00  0.00     0.016 A 
ATOM     38  C   UNL A   1      38.595  30.386  32.087  1.00  0.00     0.010 A 
ATOM     39  C   UNL A   1      37.674  30.788  29.881  1.00  0.00     0.010 A 
ATOM     40  C   UNL A   1      38.699  30.270  30.697  1.00  0.00    -0.014 A 
BRANCH  40  41
ATOM     41  C   UNL A   1      39.961  29.779  30.082  1.00  0.00     0.031 A 
ATOM     42  C   UNL A   1      41.108  30.740  29.931  1.00  0.00     0.074 A 
ATOM     43  C   UNL A   1      40.093  28.508  29.661  1.00  0.00     0.049 A 
ATOM     44  N   UNL A   1      42.267  30.572  29.345  1.00  0.00    -0.248 NA
ATOM     45  C   UNL A   1      40.919  32.075  30.520  1.00  0.00     0.031 C 
ATOM     46  C   UNL A   1      39.082  27.463  29.791  1.00  0.00     0.029 A 
ATOM     47  N   UNL A   1      41.138  27.889  29.018  1.00  0.00    -0.354 N 
ATOM     48  C   UNL A   1      42.937  31.781  29.482  1.00  0.00     0.074 A 
ATOM     49  C   UNL A   1      42.048  32.681  30.183  1.00  0.00     0.031 C 
ATOM     50  C   UNL A   1      39.546  26.336  29.223  1.00  0.00     0.029 A 
ATOM     51  C   UNL A   1      40.870  26.591  28.657  1.00  0.00     0.049 A 
ATOM     52  H   UNL A   1      41.997  28.333  28.834  1.00  0.00     0.167 HD
ATOM     53  C   UNL A   1      44.184  32.110  29.066  1.00  0.00     0.037 A 
ATOM     54  C   UNL A   1      41.598  25.722  27.926  1.00  0.00     0.037 A 
ATOM     55  C   UNL A   1      45.068  31.217  28.362  1.00  0.00     0.049 A 
ATOM     56  C   UNL A   1      42.950  26.140  27.398  1.00  0.00     0.074 A 
ATOM     57  C   UNL A   1      46.357  31.454  27.916  1.00  0.00     0.029 A 
ATOM     58  N   UNL A   1      44.749  29.920  27.991  1.00  0.00    -0.354 N 
ATOM     59  N   UNL A   1      43.588  27.275  27.552  1.00  0.00    -0.248 NA
ATOM     60  C   UNL A   1      43.682  25.151  26.592  1.00  0.00     0.031 C 
ATOM     61  C   UNL A   1      46.793  30.323  27.220  1.00  0.00     0.029 A 
ATOM     62  C   UNL A   1      45.805  29.355  27.293  1.00  0.00     0.049 A 
ATOM     63  H   UNL A   1      43.900  29.466  28.193  1.00  0.00     0.167 HD
ATOM     64  C   UNL A   1      44.806  27.123  26.899  1.00  0.00     0.074 A 
ATOM     65  C   UNL A   1      44.822  25.783  26.354  1.00  0.00     0.031 C 
ATOM     66  C   UNL A   1      45.819  28.014  26.764  1.00  0.00     0.037 A 
BRANCH  53  67
ATOM     67  C   UNL A   1      44.656  33.512  29.328  1.00  0.00     0.064 A 
ATOM     68  C   UNL A   1      44.406  34.557  28.426  1.00  0.00     0.173 A 
ATOM     69  C   UNL A   1      45.338  33.818  30.516  1.00  0.00     0.173 A 
ATOM     70  F   UNL A   1      43.771  34.316  27.270  1.00  0.00    -0.203 F 
ATOM     71  C   UNL A   1      44.847  35.852  28.692  1.00  0.00     0.198 A 
ATOM     72  C   UNL A   1      45.747  35.120  30.792  1.00  0.00     0.198 A 
ATOM     73  F   UNL A   1      45.599  32.857  31.413  1.00  0.00    -0.203 F 
ATOM     74  F   UNL A   1      44.643  36.825  27.792  1.00  0.00    -0.200 F 
ATOM     75  C   UNL A   1      45.509  36.134  29.877  1.00  0.00     0.200 A 
ATOM     76  F   UNL A   1      46.374  35.392  31.946  1.00  0.00    -0.200 F 
ATOM     77  F   UNL A   1      45.926  37.381  30.135  1.00  0.00    -0.200 F 
ENDBRANCH  53  67
BRANCH  54  78
ATOM     78  C   UNL A   1      41.062  24.367  27.626  1.00  0.00     0.064 A 
ATOM     79  C   UNL A   1      41.607  23.223  28.227  1.00  0.00     0.173 A 
ATOM     80  C   UNL A   1      40.019  24.184  26.705  1.00  0.00     0.173 A 
ATOM     81  F   UNL A   1      42.625  23.341  29.091  1.00  0.00    -0.203 F 
ATOM     82  C   UNL A   1      41.146  21.948  27.901  1.00  0.00     0.198 A 
ATOM     83  C   UNL A   1      39.536  22.911  26.406  1.00  0.00     0.198 A 
ATOM     84  F   UNL A   1      39.466  25.243  26.098  1.00  0.00    -0.203 F 
ATOM     85  F   UNL A   1      41.723  20.870  28.448  1.00  0.00    -0.200 F 
ATOM     86  C   UNL A   1      40.106  21.794  26.996  1.00  0.00     0.200 A 
ATOM     87  F   UNL A   1      38.524  22.768  25.539  1.00  0.00    -0.200 F 
ATOM     88  F   UNL A   1      39.662  20.568  26.685  1.00  0.00    -0.200 F 
ENDBRANCH  54  78
BRANCH  66  89
ATOM     89  C   UNL A   1      47.059  27.559  26.042  1.00  0.00     0.064 A 
ATOM     90  C   UNL A   1      48.117  26.923  26.710  1.00  0.00     0.173 A 
ATOM     91  C   UNL A   1      47.166  27.722  24.651  1.00  0.00     0.173 A 
ATOM     92  F   UNL A   1      48.071  26.753  28.039  1.00  0.00    -0.203 F 
ATOM     93  C   UNL A   1      49.248  26.495  26.016  1.00  0.00     0.198 A 
ATOM     94  C   UNL A   1      48.282  27.260  23.957  1.00  0.00     0.198 A 
ATOM     95  F   UNL A   1      46.182  28.314  23.961  1.00  0.00    -0.203 F 
ATOM     96  F   UNL A   1      50.267  25.937  26.683  1.00  0.00    -0.200 F 
ATOM     97  C   UNL A   1      49.325  26.655  24.641  1.00  0.00     0.200 A 
ATOM     98  F   UNL A   1      48.347  27.399  22.626  1.00  0.00    -0.200 F 
ATOM     99  F   UNL A   1      50.409  26.232  23.976  1.00  0.00    -0.200 F 
ENDBRANCH  66  89
ENDBRANCH  40  41
ENDBRANCH  33  35
ENDBRANCH  32  33
ENDBRANCH  31  32
ENDBRANCH  30  31
ENDBRANCH  29  30
ENDBRANCH  28  29
ENDBRANCH   1  28
TORSDOF 21
ENDMDL
MODEL 3
REMARK VINA RESULT:     -10.6      1.943      2.515
REMARK SMILES O=C(CC[N@H+]1CCC[C@@H](C(=O)OCCOCCOCCOC(=O)c2ccc(-c3c4nc(c(-c5c(F)c(F)c(F)c(F)c5F)c5ccc([nH]5)c(-c5c(F)c(F)c(F)c(F)c5F)c5nc(c(-c6c(F)c(F)c(F)c(F)c6F)c6ccc3[nH]6)C=C5)C=C4)cc2)C1)Nc1cccc(F)c1
REMARK SMILES IDX 16 1 15 2 14 3 13 4 12 5 10 6 11 7 9 8 5 9 6 10 87 11 7 13
REMARK SMILES IDX 8 14 4 15 3 16 2 17 1 18 88 19 89 21 90 22 95 23 91 24 93 25
REMARK SMILES IDX 92 26 94 27 17 28 18 29 19 30 20 31 21 32 22 33 23 34 24 35
REMARK SMILES IDX 25 36 86 37 26 38 85 39 27 40 28 41 29 42 79 43 30 44 84 45
REMARK SMILES IDX 78 46 80 47 31 48 83 49 77 50 76 51 32 53 64 54 44 55 63 56
REMARK SMILES IDX 45 57 48 58 62 59 81 60 46 61 47 62 61 64 82 65 49 66 33 67
REMARK SMILES IDX 34 68 42 69 35 70 36 71 40 72 43 73 37 74 38 75 41 76 39 77
REMARK SMILES IDX 65 78 66 79 74 80 67 81 68 82 72 83 75 84 69 85 70 86 73 87
REMARK SMILES IDX 71 88 50 89 51 90 59 91 52 92 53 93 57 94 60 95 54 96 55 97
REMARK SMILES IDX 58 98 56 99
REMARK H PARENT 5 12 88 20 80 52 48 63
REMARK Flexibility Score: inf
ROOT
ATOM      1  C   UNL A   1      33.479  28.310  26.854  1.00  0.00     0.188 C 
ENDROOT
BRANCH   1   2
ATOM      2  O   UNL A   1      33.673  28.042  25.481  1.00  0.00    -0.376 OA
BRANCH   2   3
ATOM      3  C   UNL A   1      33.301  29.046  24.548  1.00  0.00     0.202 C 
BRANCH   3   4
ATOM      4  C   UNL A   1      33.450  28.834  23.026  1.00  0.00     0.261 C 
BRANCH   4   5
ATOM      5  O   UNL A   1      32.465  27.990  22.410  1.00  0.00    -0.463 OA
BRANCH   5   6
ATOM      6  C   UNL A   1      32.746  26.674  22.238  1.00  0.00     0.314 C 
ATOM      7  O   UNL A   1      33.652  26.236  21.544  1.00  0.00    -0.252 OA
BRANCH   6   8
ATOM      8  C   UNL A   1      31.843  25.818  23.120  1.00  0.00     0.154 C 
ATOM      9  N   UNL A   1      31.785  24.657  25.325  1.00  0.00    -0.334 N 
ATOM     10  C   UNL A   1      30.964  25.749  25.870  1.00  0.00     0.262 C 
ATOM     11  C   UNL A   1      32.656  25.226  24.266  1.00  0.00     0.277 C 
ATOM     12  H   UNL A   1      31.123  23.961  24.979  1.00  0.00     0.348 HD
ATOM     13  C   UNL A   1      29.943  26.113  24.797  1.00  0.00     0.062 C 
ATOM     14  C   UNL A   1      30.632  26.658  23.557  1.00  0.00     0.027 C 
BRANCH   9  15
ATOM     15  C   UNL A   1      32.625  23.928  26.294  1.00  0.00     0.272 C 
BRANCH  15  16
ATOM     16  C   UNL A   1      32.391  22.436  26.502  1.00  0.00     0.161 C 
BRANCH  16  17
ATOM     17  C   UNL A   1      32.787  21.456  25.411  1.00  0.00     0.230 C 
ATOM     18  O   UNL A   1      33.764  21.714  24.709  1.00  0.00    -0.275 OA
ATOM     19  N   UNL A   1      32.075  20.275  25.368  1.00  0.00    -0.326 N 
ATOM     20  H   UNL A   1      31.173  20.281  25.761  1.00  0.00     0.169 HD
BRANCH  19  21
ATOM     21  C   UNL A   1      32.527  19.058  24.810  1.00  0.00     0.044 A 
ATOM     22  C   UNL A   1      32.527  18.928  23.415  1.00  0.00     0.026 A 
ATOM     23  C   UNL A   1      32.901  17.959  25.589  1.00  0.00     0.065 A 
ATOM     24  C   UNL A   1      32.926  17.728  22.810  1.00  0.00     0.005 A 
ATOM     25  C   UNL A   1      33.280  16.767  24.979  1.00  0.00     0.125 A 
ATOM     26  C   UNL A   1      33.305  16.643  23.597  1.00  0.00     0.039 A 
ATOM     27  F   UNL A   1      33.615  15.716  25.739  1.00  0.00    -0.207 F 
ENDBRANCH  19  21
ENDBRANCH  16  17
ENDBRANCH  15  16
ENDBRANCH   9  15
ENDBRANCH   6   8
ENDBRANCH   5   6
ENDBRANCH   4   5
ENDBRANCH   3   4
ENDBRANCH   2   3
ENDBRANCH   1   2
BRANCH   1  28
ATOM     28  C   UNL A   1      32.480  29.462  27.107  1.00  0.00     0.188 C 
BRANCH  28  29
ATOM     29  O   UNL A   1      32.948  30.714  27.576  1.00  0.00    -0.376 OA
BRANCH  29  30
ATOM     30  C   UNL A   1      32.239  31.884  27.197  1.00  0.00     0.202 C 
BRANCH  30  31
ATOM     31  C   UNL A   1      32.872  33.282  27.374  1.00  0.00     0.261 C 
BRANCH  31  32
ATOM     32  O   UNL A   1      32.164  34.223  28.206  1.00  0.00    -0.460 OA
BRANCH  32  33
ATOM     33  C   UNL A   1      32.903  35.231  28.730  1.00  0.00     0.338 C 
ATOM     34  O   UNL A   1      32.620  36.425  28.746  1.00  0.00    -0.246 OA
BRANCH  33  35
ATOM     35  C   UNL A   1      34.050  34.683  29.485  1.00  0.00     0.060 A 
ATOM     36  C   UNL A   1      35.304  34.604  28.855  1.00  0.00     0.016 A 
ATOM     37  C   UNL A   1      33.887  34.189  30.779  1.00  0.00     0.016 A 
ATOM     38  C   UNL A   1      36.391  34.019  29.508  1.00  0.00     0.010 A 
ATOM     39  C   UNL A   1      34.970  33.574  31.420  1.00  0.00     0.010 A 
ATOM     40  C   UNL A   1      36.219  33.460  30.778  1.00  0.00    -0.014 A 
BRANCH  40  41
ATOM     41  C   UNL A   1      37.276  32.592  31.361  1.00  0.00     0.031 A 
ATOM     42  C   UNL A   1      37.787  32.909  32.741  1.00  0.00     0.074 A 
ATOM     43  C   UNL A   1      37.780  31.544  30.687  1.00  0.00     0.049 A 
ATOM     44  N   UNL A   1      38.764  32.360  33.417  1.00  0.00    -0.248 NA
ATOM     45  C   UNL A   1      37.102  34.001  33.452  1.00  0.00     0.031 C 
ATOM     46  C   UNL A   1      37.343  31.095  29.368  1.00  0.00     0.029 A 
ATOM     47  N   UNL A   1      38.791  30.675  31.022  1.00  0.00    -0.354 N 
ATOM     48  C   UNL A   1      38.819  33.045  34.624  1.00  0.00     0.074 A 
ATOM     49  C   UNL A   1      37.797  34.068  34.578  1.00  0.00     0.031 C 
ATOM     50  C   UNL A   1      38.098  30.048  28.993  1.00  0.00     0.029 A 
ATOM     51  C   UNL A   1      39.095  29.776  30.028  1.00  0.00     0.049 A 
ATOM     52  H   UNL A   1      39.254  30.694  31.890  1.00  0.00     0.167 HD
ATOM     53  C   UNL A   1      39.646  32.839  35.677  1.00  0.00     0.037 A 
ATOM     54  C   UNL A   1      40.084  28.863  29.952  1.00  0.00     0.037 A 
ATOM     55  C   UNL A   1      40.668  31.825  35.723  1.00  0.00     0.049 A 
ATOM     56  C   UNL A   1      41.048  28.708  31.104  1.00  0.00     0.074 A 
ATOM     57  C   UNL A   1      41.541  31.527  36.754  1.00  0.00     0.029 A 
ATOM     58  N   UNL A   1      40.962  30.953  34.686  1.00  0.00    -0.354 N 
ATOM     59  N   UNL A   1      41.080  29.342  32.251  1.00  0.00    -0.248 NA
ATOM     60  C   UNL A   1      42.115  27.707  30.947  1.00  0.00     0.031 C 
ATOM     61  C   UNL A   1      42.405  30.518  36.318  1.00  0.00     0.029 A 
ATOM     62  C   UNL A   1      42.026  30.138  35.041  1.00  0.00     0.049 A 
ATOM     63  H   UNL A   1      40.487  30.917  33.825  1.00  0.00     0.167 HD
ATOM     64  C   UNL A   1      42.140  28.793  32.964  1.00  0.00     0.074 A 
ATOM     65  C   UNL A   1      42.721  27.768  32.124  1.00  0.00     0.031 C 
ATOM     66  C   UNL A   1      42.590  29.110  34.204  1.00  0.00     0.037 A 
BRANCH  53  67
ATOM     67  C   UNL A   1      39.503  33.753  36.861  1.00  0.00     0.064 A 
ATOM     68  C   UNL A   1      40.133  35.006  36.908  1.00  0.00     0.173 A 
ATOM     69  C   UNL A   1      38.696  33.383  37.948  1.00  0.00     0.173 A 
ATOM     70  F   UNL A   1      40.927  35.402  35.902  1.00  0.00    -0.203 F 
ATOM     71  C   UNL A   1      39.982  35.841  38.012  1.00  0.00     0.198 A 
ATOM     72  C   UNL A   1      38.522  34.236  39.034  1.00  0.00     0.198 A 
ATOM     73  F   UNL A   1      38.068  32.199  37.952  1.00  0.00    -0.203 F 
ATOM     74  F   UNL A   1      40.636  37.012  38.059  1.00  0.00    -0.200 F 
ATOM     75  C   UNL A   1      39.171  35.460  39.070  1.00  0.00     0.200 A 
ATOM     76  F   UNL A   1      37.724  33.871  40.048  1.00  0.00    -0.200 F 
ATOM     77  F   UNL A   1      39.021  36.268  40.128  1.00  0.00    -0.200 F 
ENDBRANCH  53  67
BRANCH  54  78
ATOM     78  C   UNL A   1      40.236  28.026  28.730  1.00  0.00     0.064 A 
ATOM     79  C   UNL A   1      39.639  26.760  28.640  1.00  0.00     0.173 A 
ATOM     80  C   UNL A   1      41.010  28.459  27.643  1.00  0.00     0.173 A 
ATOM     81  F   UNL A   1      38.914  26.288  29.663  1.00  0.00    -0.203 F 
ATOM     82  C   UNL A   1      39.830  25.952  27.520  1.00  0.00     0.198 A 
ATOM     83  C   UNL A   1      41.173  27.664  26.511  1.00  0.00     0.198 A 
ATOM     84  F   UNL A   1      41.608  29.659  27.680  1.00  0.00    -0.203 F 
ATOM     85  F   UNL A   1      39.295  24.724  27.485  1.00  0.00    -0.200 F 
ATOM     86  C   UNL A   1      40.591  26.407  26.454  1.00  0.00     0.200 A 
ATOM     87  F   UNL A   1      41.900  28.112  25.478  1.00  0.00    -0.200 F 
ATOM     88  F   UNL A   1      40.773  25.629  25.378  1.00  0.00    -0.200 F 
ENDBRANCH  54  78
BRANCH  66  89
ATOM     89  C   UNL A   1      43.737  28.308  34.757  1.00  0.00     0.064 A 
ATOM     90  C   UNL A   1      45.073  28.691  34.565  1.00  0.00     0.173 A 
ATOM     91  C   UNL A   1      43.490  27.164  35.533  1.00  0.00     0.173 A 
ATOM     92  F   UNL A   1      45.367  29.769  33.822  1.00  0.00    -0.203 F 
ATOM     93  C   UNL A   1      46.118  27.941  35.102  1.00  0.00     0.198 A 
ATOM     94  C   UNL A   1      44.536  26.438  36.098  1.00  0.00     0.198 A 
ATOM     95  F   UNL A   1      42.233  26.757  35.758  1.00  0.00    -0.203 F 
ATOM     96  F   UNL A   1      47.387  28.298  34.861  1.00  0.00    -0.200 F 
ATOM     97  C   UNL A   1      45.849  26.823  35.875  1.00  0.00     0.200 A 
ATOM     98  F   UNL A   1      44.272  25.368  36.860  1.00  0.00    -0.200 F 
ATOM     99  F   UNL A   1      46.855  26.111  36.399  1.00  0.00    -0.200 F 
ENDBRANCH  66  89
ENDBRANCH  40  41
ENDBRANCH  33  35
ENDBRANCH  32  33
ENDBRANCH  31  32
ENDBRANCH  30  31
ENDBRANCH  29  30
ENDBRANCH  28  29
ENDBRANCH   1  28
TORSDOF 21
ENDMDL
