MODEL 1
REMARK VINA RESULT:     -10.4      0.000      0.000
REMARK SMILES O=C(OCCOCCOCCOC(=O)c1c(F)cccc1NS(=O)(=O)C(F)(F)F)c1ccc(-c2c3nc(c(-c4c(F)c(F)c(F)c(F)c4F)c4ccc([nH]4)c(-c4c(F)c(F)c(F)c(F)c4F)c4nc(c(-c5c(F)c(F)c(F)c(F)c5F)c5ccc2[nH]5)C=C4)C=C3)cc1
REMARK SMILES IDX 8 1 7 2 6 3 5 4 4 5 3 6 2 7 1 8 30 9 31 10 92 11 32 12 91 13
REMARK SMILES IDX 33 14 34 15 35 16 85 17 36 18 90 19 84 20 86 21 37 22 89 23
REMARK SMILES IDX 83 24 82 25 38 27 70 28 50 29 69 30 51 31 54 32 68 33 87 34
REMARK SMILES IDX 52 35 53 36 67 38 88 39 55 40 39 41 40 42 48 43 41 44 42 45
REMARK SMILES IDX 46 46 49 47 43 48 44 49 47 50 45 51 71 52 72 53 80 54 73 55
REMARK SMILES IDX 74 56 78 57 81 58 75 59 76 60 79 61 77 62 56 63 57 64 65 65
REMARK SMILES IDX 58 66 59 67 63 68 66 69 60 70 61 71 64 72 62 73 9 74 10 75
REMARK SMILES IDX 11 76 12 77 13 78 14 79 15 80 16 81 21 82 17 83 18 84 20 85
REMARK SMILES IDX 19 86 22 87 23 89 24 90 25 91 26 92 27 93 28 94 29 95
REMARK H PARENT 86 26 54 37 22 88
REMARK Flexibility Score: inf
ROOT
ATOM      1  C   UNL A   1      35.285  22.735  24.016  1.00  0.00     0.188 C 
ENDROOT
BRANCH   1   2
ATOM      2  C   UNL A   1      36.045  21.750  24.904  1.00  0.00     0.188 C 
BRANCH   2   3
ATOM      3  O   UNL A   1      37.367  21.526  24.399  1.00  0.00    -0.376 OA
BRANCH   3   4
ATOM      4  C   UNL A   1      38.280  21.052  25.391  1.00  0.00     0.202 C 
BRANCH   4   5
ATOM      5  C   UNL A   1      38.867  19.668  25.089  1.00  0.00     0.261 C 
BRANCH   5   6
ATOM      6  O   UNL A   1      39.813  19.249  26.084  1.00  0.00    -0.460 OA
BRANCH   6   7
ATOM      7  C   UNL A   1      41.153  19.464  26.114  1.00  0.00     0.338 C 
ATOM      8  O   UNL A   1      41.894  18.558  25.732  1.00  0.00    -0.246 OA
BRANCH   7   9
ATOM      9  C   UNL A   1      41.788  20.758  26.529  1.00  0.00     0.060 A 
ATOM     10  C   UNL A   1      42.195  21.088  27.822  1.00  0.00     0.016 A 
ATOM     11  C   UNL A   1      42.041  21.697  25.511  1.00  0.00     0.016 A 
ATOM     12  C   UNL A   1      42.700  22.350  28.126  1.00  0.00     0.010 A 
ATOM     13  C   UNL A   1      42.627  22.937  25.792  1.00  0.00     0.010 A 
ATOM     14  C   UNL A   1      42.902  23.290  27.118  1.00  0.00    -0.014 A 
BRANCH  14  15
ATOM     15  C   UNL A   1      43.233  24.681  27.494  1.00  0.00     0.031 A 
ATOM     16  C   UNL A   1      44.614  25.186  27.203  1.00  0.00     0.074 A 
ATOM     17  C   UNL A   1      42.284  25.525  27.940  1.00  0.00     0.049 A 
ATOM     18  N   UNL A   1      45.131  26.365  27.428  1.00  0.00    -0.248 NA
ATOM     19  C   UNL A   1      45.529  24.244  26.538  1.00  0.00     0.031 C 
ATOM     20  C   UNL A   1      40.875  25.182  28.106  1.00  0.00     0.029 A 
ATOM     21  N   UNL A   1      42.350  26.850  28.286  1.00  0.00    -0.354 N 
ATOM     22  C   UNL A   1      46.426  26.303  26.935  1.00  0.00     0.074 A 
ATOM     23  C   UNL A   1      46.634  24.964  26.435  1.00  0.00     0.031 C 
ATOM     24  C   UNL A   1      40.205  26.281  28.488  1.00  0.00     0.029 A 
ATOM     25  C   UNL A   1      41.145  27.375  28.679  1.00  0.00     0.049 A 
ATOM     26  H   UNL A   1      43.184  27.376  28.256  1.00  0.00     0.167 HD
ATOM     27  C   UNL A   1      47.353  27.287  26.887  1.00  0.00     0.037 A 
ATOM     28  C   UNL A   1      40.829  28.590  29.163  1.00  0.00     0.037 A 
ATOM     29  C   UNL A   1      47.135  28.614  27.387  1.00  0.00     0.049 A 
ATOM     30  C   UNL A   1      41.914  29.623  29.251  1.00  0.00     0.074 A 
ATOM     31  C   UNL A   1      48.025  29.669  27.455  1.00  0.00     0.029 A 
ATOM     32  N   UNL A   1      45.929  29.068  27.904  1.00  0.00    -0.354 N 
ATOM     33  N   UNL A   1      43.160  29.536  28.854  1.00  0.00    -0.248 NA
ATOM     34  C   UNL A   1      41.558  30.918  29.844  1.00  0.00     0.031 C 
ATOM     35  C   UNL A   1      47.368  30.751  28.049  1.00  0.00     0.029 A 
ATOM     36  C   UNL A   1      46.056  30.384  28.313  1.00  0.00     0.049 A 
ATOM     37  H   UNL A   1      45.106  28.533  27.972  1.00  0.00     0.167 HD
ATOM     38  C   UNL A   1      43.735  30.766  29.126  1.00  0.00     0.074 A 
ATOM     39  C   UNL A   1      42.698  31.588  29.720  1.00  0.00     0.031 C 
ATOM     40  C   UNL A   1      45.005  31.178  28.897  1.00  0.00     0.037 A 
BRANCH  27  41
ATOM     41  C   UNL A   1      48.687  26.925  26.312  1.00  0.00     0.064 A 
ATOM     42  C   UNL A   1      49.673  26.347  27.124  1.00  0.00     0.173 A 
ATOM     43  C   UNL A   1      48.978  27.110  24.951  1.00  0.00     0.173 A 
ATOM     44  F   UNL A   1      49.439  26.141  28.428  1.00  0.00    -0.203 F 
ATOM     45  C   UNL A   1      50.901  25.962  26.593  1.00  0.00     0.198 A 
ATOM     46  C   UNL A   1      50.198  26.701  24.419  1.00  0.00     0.198 A 
ATOM     47  F   UNL A   1      48.054  27.629  24.128  1.00  0.00    -0.203 F 
ATOM     48  F   UNL A   1      51.830  25.412  27.388  1.00  0.00    -0.200 F 
ATOM     49  C   UNL A   1      51.159  26.130  25.241  1.00  0.00     0.200 A 
ATOM     50  F   UNL A   1      50.432  26.831  23.106  1.00  0.00    -0.200 F 
ATOM     51  F   UNL A   1      52.328  25.728  24.725  1.00  0.00    -0.200 F 
ENDBRANCH  27  41
BRANCH  28  52
ATOM     52  C   UNL A   1      39.440  28.867  29.616  1.00  0.00     0.064 A 
ATOM     53  C   UNL A   1      38.487  29.401  28.732  1.00  0.00     0.173 A 
ATOM     54  C   UNL A   1      39.045  28.654  30.942  1.00  0.00     0.173 A 
ATOM     55  F   UNL A   1      38.813  29.639  27.453  1.00  0.00    -0.203 F 
ATOM     56  C   UNL A   1      37.203  29.730  29.164  1.00  0.00     0.198 A 
ATOM     57  C   UNL A   1      37.753  28.963  31.369  1.00  0.00     0.198 A 
ATOM     58  F   UNL A   1      39.913  28.134  31.822  1.00  0.00    -0.203 F 
ATOM     59  F   UNL A   1      36.332  30.281  28.308  1.00  0.00    -0.200 F 
ATOM     60  C   UNL A   1      36.837  29.508  30.481  1.00  0.00     0.200 A 
ATOM     61  F   UNL A   1      37.397  28.736  32.640  1.00  0.00    -0.200 F 
ATOM     62  F   UNL A   1      35.603  29.826  30.898  1.00  0.00    -0.200 F 
ENDBRANCH  28  52
BRANCH  40  63
ATOM     63  C   UNL A   1      45.345  32.586  29.270  1.00  0.00     0.064 A 
ATOM     64  C   UNL A   1      45.817  32.880  30.558  1.00  0.00     0.173 A 
ATOM     65  C   UNL A   1      45.121  33.649  28.385  1.00  0.00     0.173 A 
ATOM     66  F   UNL A   1      46.043  31.893  31.437  1.00  0.00    -0.203 F 
ATOM     67  C   UNL A   1      46.032  34.195  30.954  1.00  0.00     0.198 A 
ATOM     68  C   UNL A   1      45.359  34.962  28.779  1.00  0.00     0.198 A 
ATOM     69  F   UNL A   1      44.684  33.410  27.140  1.00  0.00    -0.203 F 
ATOM     70  F   UNL A   1      46.450  34.459  32.200  1.00  0.00    -0.200 F 
ATOM     71  C   UNL A   1      45.804  35.235  30.064  1.00  0.00     0.200 A 
ATOM     72  F   UNL A   1      45.159  35.965  27.912  1.00  0.00    -0.200 F 
ATOM     73  F   UNL A   1      46.013  36.502  30.447  1.00  0.00    -0.200 F 
ENDBRANCH  40  63
ENDBRANCH  14  15
ENDBRANCH   7   9
ENDBRANCH   6   7
ENDBRANCH   5   6
ENDBRANCH   4   5
ENDBRANCH   3   4
ENDBRANCH   2   3
ENDBRANCH   1   2
BRANCH   1  74
ATOM     74  O   UNL A   1      33.865  22.706  24.165  1.00  0.00    -0.376 OA
BRANCH  74  75
ATOM     75  C   UNL A   1      33.092  22.548  22.979  1.00  0.00     0.202 C 
BRANCH  75  76
ATOM     76  C   UNL A   1      33.176  23.691  21.962  1.00  0.00     0.261 C 
BRANCH  76  77
ATOM     77  O   UNL A   1      33.779  24.909  22.436  1.00  0.00    -0.460 OA
BRANCH  77  78
ATOM     78  C   UNL A   1      32.930  25.952  22.608  1.00  0.00     0.343 C 
ATOM     79  O   UNL A   1      31.960  26.247  21.926  1.00  0.00    -0.246 OA
BRANCH  78  80
ATOM     80  C   UNL A   1      33.322  26.743  23.773  1.00  0.00     0.119 A 
ATOM     81  C   UNL A   1      33.654  28.077  23.545  1.00  0.00     0.139 A 
ATOM     82  C   UNL A   1      33.206  26.263  25.087  1.00  0.00     0.066 A 
ATOM     83  F   UNL A   1      33.695  28.575  22.300  1.00  0.00    -0.206 F 
ATOM     84  C   UNL A   1      33.885  28.943  24.605  1.00  0.00     0.040 A 
ATOM     85  C   UNL A   1      33.525  27.125  26.146  1.00  0.00     0.028 A 
ATOM     86  C   UNL A   1      33.859  28.459  25.908  1.00  0.00     0.005 A 
BRANCH  82  87
ATOM     87  N   UNL A   1      32.638  24.977  25.378  1.00  0.00    -0.275 N 
ATOM     88  H   UNL A   1      33.223  24.187  25.432  1.00  0.00     0.180 HD
BRANCH  87  89
ATOM     89  S   UNL A   1      30.970  24.807  25.631  1.00  0.00     0.333 S 
ATOM     90  O   UNL A   1      30.650  25.927  26.504  1.00  0.00    -0.197 OA
ATOM     91  O   UNL A   1      30.369  24.734  24.316  1.00  0.00    -0.197 OA
BRANCH  89  92
ATOM     92  C   UNL A   1      30.760  23.194  26.568  1.00  0.00     0.516 C 
ATOM     93  F   UNL A   1      29.637  23.207  27.347  1.00  0.00    -0.155 F 
ATOM     94  F   UNL A   1      30.625  22.128  25.725  1.00  0.00    -0.155 F 
ATOM     95  F   UNL A   1      31.805  22.919  27.394  1.00  0.00    -0.155 F 
ENDBRANCH  89  92
ENDBRANCH  87  89
ENDBRANCH  82  87
ENDBRANCH  78  80
ENDBRANCH  77  78
ENDBRANCH  76  77
ENDBRANCH  75  76
ENDBRANCH  74  75
ENDBRANCH   1  74
TORSDOF 20
ENDMDL
MODEL 2
REMARK VINA RESULT:     -10.4      2.191      3.210
REMARK SMILES O=C(OCCOCCOCCOC(=O)c1c(F)cccc1NS(=O)(=O)C(F)(F)F)c1ccc(-c2c3nc(c(-c4c(F)c(F)c(F)c(F)c4F)c4ccc([nH]4)c(-c4c(F)c(F)c(F)c(F)c4F)c4nc(c(-c5c(F)c(F)c(F)c(F)c5F)c5ccc2[nH]5)C=C4)C=C3)cc1
REMARK SMILES IDX 8 1 7 2 6 3 5 4 4 5 3 6 2 7 1 8 30 9 31 10 92 11 32 12 91 13
REMARK SMILES IDX 33 14 34 15 35 16 85 17 36 18 90 19 84 20 86 21 37 22 89 23
REMARK SMILES IDX 83 24 82 25 38 27 70 28 50 29 69 30 51 31 54 32 68 33 87 34
REMARK SMILES IDX 52 35 53 36 67 38 88 39 55 40 39 41 40 42 48 43 41 44 42 45
REMARK SMILES IDX 46 46 49 47 43 48 44 49 47 50 45 51 71 52 72 53 80 54 73 55
REMARK SMILES IDX 74 56 78 57 81 58 75 59 76 60 79 61 77 62 56 63 57 64 65 65
REMARK SMILES IDX 58 66 59 67 63 68 66 69 60 70 61 71 64 72 62 73 9 74 10 75
REMARK SMILES IDX 11 76 12 77 13 78 14 79 15 80 16 81 21 82 17 83 18 84 20 85
REMARK SMILES IDX 19 86 22 87 23 89 24 90 25 91 26 92 27 93 28 94 29 95
REMARK H PARENT 86 26 54 37 22 88
REMARK Flexibility Score: inf
ROOT
ATOM      1  C   UNL A   1      35.263  23.043  23.608  1.00  0.00     0.188 C 
ENDROOT
BRANCH   1   2
ATOM      2  C   UNL A   1      34.507  22.619  24.868  1.00  0.00     0.188 C 
BRANCH   2   3
ATOM      3  O   UNL A   1      35.346  21.830  25.722  1.00  0.00    -0.376 OA
BRANCH   3   4
ATOM      4  C   UNL A   1      36.237  20.973  25.005  1.00  0.00     0.202 C 
BRANCH   4   5
ATOM      5  C   UNL A   1      37.682  21.484  24.947  1.00  0.00     0.261 C 
BRANCH   5   6
ATOM      6  O   UNL A   1      38.590  20.626  25.654  1.00  0.00    -0.460 OA
BRANCH   6   7
ATOM      7  C   UNL A   1      39.762  20.955  26.255  1.00  0.00     0.338 C 
ATOM      8  O   UNL A   1      40.632  20.087  26.343  1.00  0.00    -0.246 OA
BRANCH   7   9
ATOM      9  C   UNL A   1      40.088  22.326  26.770  1.00  0.00     0.060 A 
ATOM     10  C   UNL A   1      39.474  23.513  26.370  1.00  0.00     0.016 A 
ATOM     11  C   UNL A   1      41.063  22.409  27.781  1.00  0.00     0.016 A 
ATOM     12  C   UNL A   1      39.903  24.750  26.844  1.00  0.00     0.010 A 
ATOM     13  C   UNL A   1      41.443  23.642  28.327  1.00  0.00     0.010 A 
ATOM     14  C   UNL A   1      40.903  24.825  27.812  1.00  0.00    -0.014 A 
BRANCH  14  15
ATOM     15  C   UNL A   1      41.484  26.146  28.138  1.00  0.00     0.031 A 
ATOM     16  C   UNL A   1      42.872  26.448  27.659  1.00  0.00     0.074 A 
ATOM     17  C   UNL A   1      40.740  27.111  28.708  1.00  0.00     0.049 A 
ATOM     18  N   UNL A   1      43.584  27.534  27.810  1.00  0.00    -0.248 NA
ATOM     19  C   UNL A   1      43.539  25.394  26.877  1.00  0.00     0.031 C 
ATOM     20  C   UNL A   1      39.331  26.975  29.065  1.00  0.00     0.029 A 
ATOM     21  N   UNL A   1      41.047  28.405  29.040  1.00  0.00    -0.354 N 
ATOM     22  C   UNL A   1      44.776  27.291  27.145  1.00  0.00     0.074 A 
ATOM     23  C   UNL A   1      44.714  25.946  26.622  1.00  0.00     0.031 C 
ATOM     24  C   UNL A   1      38.889  28.153  29.534  1.00  0.00     0.029 A 
ATOM     25  C   UNL A   1      39.998  29.094  29.593  1.00  0.00     0.049 A 
ATOM     26  H   UNL A   1      41.938  28.803  28.895  1.00  0.00     0.167 HD
ATOM     27  C   UNL A   1      45.823  28.129  26.968  1.00  0.00     0.037 A 
ATOM     28  C   UNL A   1      39.933  30.332  30.114  1.00  0.00     0.037 A 
ATOM     29  C   UNL A   1      45.874  29.465  27.491  1.00  0.00     0.049 A 
ATOM     30  C   UNL A   1      41.161  31.193  30.051  1.00  0.00     0.074 A 
ATOM     31  C   UNL A   1      46.911  30.376  27.435  1.00  0.00     0.029 A 
ATOM     32  N   UNL A   1      44.830  30.080  28.168  1.00  0.00    -0.354 N 
ATOM     33  N   UNL A   1      42.315  30.932  29.487  1.00  0.00    -0.248 NA
ATOM     34  C   UNL A   1      41.084  32.515  30.686  1.00  0.00     0.031 C 
ATOM     35  C   UNL A   1      46.508  31.532  28.112  1.00  0.00     0.029 A 
ATOM     36  C   UNL A   1      45.204  31.356  28.554  1.00  0.00     0.049 A 
ATOM     37  H   UNL A   1      43.953  29.671  28.349  1.00  0.00     0.167 HD
ATOM     38  C   UNL A   1      43.097  32.059  29.676  1.00  0.00     0.074 A 
ATOM     39  C   UNL A   1      42.283  33.012  30.405  1.00  0.00     0.031 C 
ATOM     40  C   UNL A   1      44.371  32.284  29.275  1.00  0.00     0.037 A 
BRANCH  27  41
ATOM     41  C   UNL A   1      46.999  27.587  26.216  1.00  0.00     0.064 A 
ATOM     42  C   UNL A   1      47.023  27.631  24.815  1.00  0.00     0.173 A 
ATOM     43  C   UNL A   1      48.120  27.063  26.879  1.00  0.00     0.173 A 
ATOM     44  F   UNL A   1      45.980  28.133  24.137  1.00  0.00    -0.203 F 
ATOM     45  C   UNL A   1      48.129  27.175  24.105  1.00  0.00     0.198 A 
ATOM     46  C   UNL A   1      49.234  26.630  26.165  1.00  0.00     0.198 A 
ATOM     47  F   UNL A   1      48.156  27.030  28.220  1.00  0.00    -0.203 F 
ATOM     48  F   UNL A   1      48.131  27.227  22.765  1.00  0.00    -0.200 F 
ATOM     49  C   UNL A   1      49.237  26.684  24.779  1.00  0.00     0.200 A 
ATOM     50  F   UNL A   1      50.317  26.190  26.820  1.00  0.00    -0.200 F 
ATOM     51  F   UNL A   1      50.314  26.277  24.095  1.00  0.00    -0.200 F 
ENDBRANCH  27  41
BRANCH  28  52
ATOM     52  C   UNL A   1      38.674  30.802  30.752  1.00  0.00     0.064 A 
ATOM     53  C   UNL A   1      37.665  31.414  29.990  1.00  0.00     0.173 A 
ATOM     54  C   UNL A   1      38.470  30.696  32.133  1.00  0.00     0.173 A 
ATOM     55  F   UNL A   1      37.813  31.554  28.665  1.00  0.00    -0.203 F 
ATOM     56  C   UNL A   1      36.513  31.921  30.589  1.00  0.00     0.198 A 
ATOM     57  C   UNL A   1      37.307  31.184  32.729  1.00  0.00     0.198 A 
ATOM     58  F   UNL A   1      39.397  30.109  32.903  1.00  0.00    -0.203 F 
ATOM     59  F   UNL A   1      35.590  32.541  29.842  1.00  0.00    -0.200 F 
ATOM     60  C   UNL A   1      36.334  31.803  31.958  1.00  0.00     0.200 A 
ATOM     61  F   UNL A   1      37.129  31.058  34.051  1.00  0.00    -0.200 F 
ATOM     62  F   UNL A   1      35.226  32.292  32.535  1.00  0.00    -0.200 F 
ENDBRANCH  28  52
BRANCH  40  63
ATOM     63  C   UNL A   1      44.963  33.620  29.596  1.00  0.00     0.064 A 
ATOM     64  C   UNL A   1      45.617  33.826  30.819  1.00  0.00     0.173 A 
ATOM     65  C   UNL A   1      44.806  34.714  28.734  1.00  0.00     0.173 A 
ATOM     66  F   UNL A   1      45.787  32.807  31.676  1.00  0.00    -0.203 F 
ATOM     67  C   UNL A   1      46.075  35.089  31.178  1.00  0.00     0.198 A 
ATOM     68  C   UNL A   1      45.285  35.971  29.088  1.00  0.00     0.198 A 
ATOM     69  F   UNL A   1      44.200  34.556  27.548  1.00  0.00    -0.203 F 
ATOM     70  F   UNL A   1      46.666  35.274  32.367  1.00  0.00    -0.200 F 
ATOM     71  C   UNL A   1      45.910  36.159  30.312  1.00  0.00     0.200 A 
ATOM     72  F   UNL A   1      45.145  37.000  28.241  1.00  0.00    -0.200 F 
ATOM     73  F   UNL A   1      46.352  37.376  30.658  1.00  0.00    -0.200 F 
ENDBRANCH  40  63
ENDBRANCH  14  15
ENDBRANCH   7   9
ENDBRANCH   6   7
ENDBRANCH   5   6
ENDBRANCH   4   5
ENDBRANCH   3   4
ENDBRANCH   2   3
ENDBRANCH   1   2
BRANCH   1  74
ATOM     74  O   UNL A   1      34.607  24.040  22.823  1.00  0.00    -0.376 OA
BRANCH  74  75
ATOM     75  C   UNL A   1      33.218  23.858  22.573  1.00  0.00     0.202 C 
BRANCH  75  76
ATOM     76  C   UNL A   1      32.474  25.063  21.987  1.00  0.00     0.261 C 
BRANCH  76  77
ATOM     77  O   UNL A   1      32.021  26.044  22.937  1.00  0.00    -0.460 OA
BRANCH  77  78
ATOM     78  C   UNL A   1      32.783  27.162  23.030  1.00  0.00     0.343 C 
ATOM     79  O   UNL A   1      33.505  27.648  22.172  1.00  0.00    -0.246 OA
BRANCH  78  80
ATOM     80  C   UNL A   1      32.644  27.767  24.353  1.00  0.00     0.119 A 
ATOM     81  C   UNL A   1      33.399  27.209  25.383  1.00  0.00     0.139 A 
ATOM     82  C   UNL A   1      31.934  28.959  24.568  1.00  0.00     0.066 A 
ATOM     83  F   UNL A   1      34.145  26.114  25.176  1.00  0.00    -0.206 F 
ATOM     84  C   UNL A   1      33.452  27.813  26.633  1.00  0.00     0.040 A 
ATOM     85  C   UNL A   1      31.927  29.511  25.858  1.00  0.00     0.028 A 
ATOM     86  C   UNL A   1      32.685  28.944  26.884  1.00  0.00     0.005 A 
BRANCH  82  87
ATOM     87  N   UNL A   1      31.343  29.697  23.488  1.00  0.00    -0.275 N 
ATOM     88  H   UNL A   1      31.860  30.406  23.042  1.00  0.00     0.180 HD
BRANCH  87  89
ATOM     89  S   UNL A   1      29.762  29.358  22.976  1.00  0.00     0.333 S 
ATOM     90  O   UNL A   1      29.918  29.130  21.547  1.00  0.00    -0.197 OA
ATOM     91  O   UNL A   1      29.286  28.285  23.821  1.00  0.00    -0.197 OA
BRANCH  89  92
ATOM     92  C   UNL A   1      28.786  30.936  23.262  1.00  0.00     0.516 C 
ATOM     93  F   UNL A   1      28.927  31.811  22.221  1.00  0.00    -0.155 F 
ATOM     94  F   UNL A   1      27.447  30.694  23.375  1.00  0.00    -0.155 F 
ATOM     95  F   UNL A   1      29.168  31.600  24.386  1.00  0.00    -0.155 F 
ENDBRANCH  89  92
ENDBRANCH  87  89
ENDBRANCH  82  87
ENDBRANCH  78  80
ENDBRANCH  77  78
ENDBRANCH  76  77
ENDBRANCH  75  76
ENDBRANCH  74  75
ENDBRANCH   1  74
TORSDOF 20
ENDMDL
MODEL 3
REMARK VINA RESULT:     -10.2      1.656      2.912
REMARK SMILES O=C(OCCOCCOCCOC(=O)c1c(F)cccc1NS(=O)(=O)C(F)(F)F)c1ccc(-c2c3nc(c(-c4c(F)c(F)c(F)c(F)c4F)c4ccc([nH]4)c(-c4c(F)c(F)c(F)c(F)c4F)c4nc(c(-c5c(F)c(F)c(F)c(F)c5F)c5ccc2[nH]5)C=C4)C=C3)cc1
REMARK SMILES IDX 8 1 7 2 6 3 5 4 4 5 3 6 2 7 1 8 30 9 31 10 92 11 32 12 91 13
REMARK SMILES IDX 33 14 34 15 35 16 85 17 36 18 90 19 84 20 86 21 37 22 89 23
REMARK SMILES IDX 83 24 82 25 38 27 70 28 50 29 69 30 51 31 54 32 68 33 87 34
REMARK SMILES IDX 52 35 53 36 67 38 88 39 55 40 39 41 40 42 48 43 41 44 42 45
REMARK SMILES IDX 46 46 49 47 43 48 44 49 47 50 45 51 71 52 72 53 80 54 73 55
REMARK SMILES IDX 74 56 78 57 81 58 75 59 76 60 79 61 77 62 56 63 57 64 65 65
REMARK SMILES IDX 58 66 59 67 63 68 66 69 60 70 61 71 64 72 62 73 9 74 10 75
REMARK SMILES IDX 11 76 12 77 13 78 14 79 15 80 16 81 21 82 17 83 18 84 20 85
REMARK SMILES IDX 19 86 22 87 23 89 24 90 25 91 26 92 27 93 28 94 29 95
REMARK H PARENT 86 26 54 37 22 88
REMARK Flexibility Score: inf
ROOT
ATOM      1  C   UNL A   1      35.016  22.652  24.967  1.00  0.00     0.188 C 
ENDROOT
BRANCH   1   2
ATOM      2  C   UNL A   1      35.849  21.514  25.557  1.00  0.00     0.188 C 
BRANCH   2   3
ATOM      3  O   UNL A   1      36.934  21.175  24.684  1.00  0.00    -0.376 OA
BRANCH   3   4
ATOM      4  C   UNL A   1      38.187  21.052  25.361  1.00  0.00     0.202 C 
BRANCH   4   5
ATOM      5  C   UNL A   1      38.822  19.660  25.249  1.00  0.00     0.261 C 
BRANCH   5   6
ATOM      6  O   UNL A   1      39.786  19.417  26.285  1.00  0.00    -0.460 OA
BRANCH   6   7
ATOM      7  C   UNL A   1      41.124  19.643  26.259  1.00  0.00     0.338 C 
ATOM      8  O   UNL A   1      41.857  18.737  25.861  1.00  0.00    -0.246 OA
BRANCH   7   9
ATOM      9  C   UNL A   1      41.764  20.948  26.631  1.00  0.00     0.060 A 
ATOM     10  C   UNL A   1      42.219  21.299  27.903  1.00  0.00     0.016 A 
ATOM     11  C   UNL A   1      41.968  21.874  25.591  1.00  0.00     0.016 A 
ATOM     12  C   UNL A   1      42.725  22.569  28.169  1.00  0.00     0.010 A 
ATOM     13  C   UNL A   1      42.555  23.123  25.833  1.00  0.00     0.010 A 
ATOM     14  C   UNL A   1      42.879  23.497  27.141  1.00  0.00    -0.014 A 
BRANCH  14  15
ATOM     15  C   UNL A   1      43.213  24.896  27.485  1.00  0.00     0.031 A 
ATOM     16  C   UNL A   1      44.561  25.420  27.094  1.00  0.00     0.074 A 
ATOM     17  C   UNL A   1      42.284  25.727  27.991  1.00  0.00     0.049 A 
ATOM     18  N   UNL A   1      45.074  26.609  27.276  1.00  0.00    -0.248 NA
ATOM     19  C   UNL A   1      45.443  24.488  26.372  1.00  0.00     0.031 C 
ATOM     20  C   UNL A   1      40.895  25.362  28.258  1.00  0.00     0.029 A 
ATOM     21  N   UNL A   1      42.352  27.056  28.324  1.00  0.00    -0.354 N 
ATOM     22  C   UNL A   1      46.332  26.563  26.694  1.00  0.00     0.074 A 
ATOM     23  C   UNL A   1      46.526  25.225  26.188  1.00  0.00     0.031 C 
ATOM     24  C   UNL A   1      40.237  26.454  28.679  1.00  0.00     0.029 A 
ATOM     25  C   UNL A   1      41.169  27.564  28.797  1.00  0.00     0.049 A 
ATOM     26  H   UNL A   1      43.173  27.594  28.232  1.00  0.00     0.167 HD
ATOM     27  C   UNL A   1      47.237  27.561  26.575  1.00  0.00     0.037 A 
ATOM     28  C   UNL A   1      40.868  28.777  29.296  1.00  0.00     0.037 A 
ATOM     29  C   UNL A   1      47.033  28.889  27.081  1.00  0.00     0.049 A 
ATOM     30  C   UNL A   1      41.939  29.828  29.300  1.00  0.00     0.074 A 
ATOM     31  C   UNL A   1      47.908  29.958  27.080  1.00  0.00     0.029 A 
ATOM     32  N   UNL A   1      45.859  29.327  27.679  1.00  0.00    -0.354 N 
ATOM     33  N   UNL A   1      43.156  29.758  28.818  1.00  0.00    -0.248 NA
ATOM     34  C   UNL A   1      41.605  31.121  29.910  1.00  0.00     0.031 C 
ATOM     35  C   UNL A   1      47.277  31.034  27.712  1.00  0.00     0.029 A 
ATOM     36  C   UNL A   1      45.993  30.647  28.069  1.00  0.00     0.049 A 
ATOM     37  H   UNL A   1      45.051  28.779  27.807  1.00  0.00     0.167 HD
ATOM     38  C   UNL A   1      43.729  30.998  29.041  1.00  0.00     0.074 A 
ATOM     39  C   UNL A   1      42.722  31.808  29.702  1.00  0.00     0.031 C 
ATOM     40  C   UNL A   1      44.972  31.429  28.721  1.00  0.00     0.037 A 
BRANCH  27  41
ATOM     41  C   UNL A   1      48.533  27.217  25.909  1.00  0.00     0.064 A 
ATOM     42  C   UNL A   1      48.672  27.350  24.520  1.00  0.00     0.173 A 
ATOM     43  C   UNL A   1      49.651  26.798  26.646  1.00  0.00     0.173 A 
ATOM     44  F   UNL A   1      47.635  27.758  23.774  1.00  0.00    -0.203 F 
ATOM     45  C   UNL A   1      49.885  27.080  23.894  1.00  0.00     0.198 A 
ATOM     46  C   UNL A   1      50.870  26.552  26.019  1.00  0.00     0.198 A 
ATOM     47  F   UNL A   1      49.576  26.687  27.982  1.00  0.00    -0.203 F 
ATOM     48  F   UNL A   1      49.995  27.213  22.564  1.00  0.00    -0.200 F 
ATOM     49  C   UNL A   1      50.985  26.691  24.643  1.00  0.00     0.200 A 
ATOM     50  F   UNL A   1      51.941  26.211  26.749  1.00  0.00    -0.200 F 
ATOM     51  F   UNL A   1      52.160  26.463  24.043  1.00  0.00    -0.200 F 
ENDBRANCH  27  41
BRANCH  28  52
ATOM     52  C   UNL A   1      39.510  29.036  29.843  1.00  0.00     0.064 A 
ATOM     53  C   UNL A   1      38.571  29.787  29.116  1.00  0.00     0.173 A 
ATOM     54  C   UNL A   1      39.134  28.583  31.113  1.00  0.00     0.173 A 
ATOM     55  F   UNL A   1      38.881  30.258  27.899  1.00  0.00    -0.203 F 
ATOM     56  C   UNL A   1      37.321  30.094  29.650  1.00  0.00     0.198 A 
ATOM     57  C   UNL A   1      37.874  28.873  31.638  1.00  0.00     0.198 A 
ATOM     58  F   UNL A   1      39.988  27.850  31.842  1.00  0.00    -0.203 F 
ATOM     59  F   UNL A   1      36.466  30.854  28.952  1.00  0.00    -0.200 F 
ATOM     60  C   UNL A   1      36.972  29.635  30.910  1.00  0.00     0.200 A 
ATOM     61  F   UNL A   1      37.534  28.416  32.851  1.00  0.00    -0.200 F 
ATOM     62  F   UNL A   1      35.770  29.931  31.424  1.00  0.00    -0.200 F 
ENDBRANCH  28  52
BRANCH  40  63
ATOM     63  C   UNL A   1      45.315  32.845  29.062  1.00  0.00     0.064 A 
ATOM     64  C   UNL A   1      45.059  33.873  28.143  1.00  0.00     0.173 A 
ATOM     65  C   UNL A   1      45.975  33.168  30.255  1.00  0.00     0.173 A 
ATOM     66  F   UNL A   1      44.432  33.607  26.987  1.00  0.00    -0.203 F 
ATOM     67  C   UNL A   1      45.472  35.176  28.399  1.00  0.00     0.198 A 
ATOM     68  C   UNL A   1      46.367  34.477  30.516  1.00  0.00     0.198 A 
ATOM     69  F   UNL A   1      46.226  32.218  31.166  1.00  0.00    -0.203 F 
ATOM     70  F   UNL A   1      45.250  36.138  27.493  1.00  0.00    -0.200 F 
ATOM     71  C   UNL A   1      46.125  35.477  29.585  1.00  0.00     0.200 A 
ATOM     72  F   UNL A   1      46.978  34.772  31.672  1.00  0.00    -0.200 F 
ATOM     73  F   UNL A   1      46.522  36.733  29.832  1.00  0.00    -0.200 F 
ENDBRANCH  40  63
ENDBRANCH  14  15
ENDBRANCH   7   9
ENDBRANCH   6   7
ENDBRANCH   5   6
ENDBRANCH   4   5
ENDBRANCH   3   4
ENDBRANCH   2   3
ENDBRANCH   1   2
BRANCH   1  74
ATOM     74  O   UNL A   1      33.687  22.753  25.482  1.00  0.00    -0.376 OA
BRANCH  74  75
ATOM     75  C   UNL A   1      32.658  23.093  24.559  1.00  0.00     0.202 C 
BRANCH  75  76
ATOM     76  C   UNL A   1      31.462  23.860  25.134  1.00  0.00     0.261 C 
BRANCH  76  77
ATOM     77  O   UNL A   1      31.163  25.118  24.504  1.00  0.00    -0.460 OA
BRANCH  77  78
ATOM     78  C   UNL A   1      30.451  25.993  25.257  1.00  0.00     0.343 C 
ATOM     79  O   UNL A   1      30.021  25.828  26.389  1.00  0.00    -0.246 OA
BRANCH  78  80
ATOM     80  C   UNL A   1      30.237  27.240  24.526  1.00  0.00     0.119 A 
ATOM     81  C   UNL A   1      29.162  27.273  23.638  1.00  0.00     0.139 A 
ATOM     82  C   UNL A   1      30.947  28.417  24.813  1.00  0.00     0.066 A 
ATOM     83  F   UNL A   1      28.424  26.177  23.409  1.00  0.00    -0.206 F 
ATOM     84  C   UNL A   1      28.788  28.458  23.019  1.00  0.00     0.040 A 
ATOM     85  C   UNL A   1      30.612  29.588  24.117  1.00  0.00     0.028 A 
ATOM     86  C   UNL A   1      29.536  29.610  23.228  1.00  0.00     0.005 A 
BRANCH  82  87
ATOM     87  N   UNL A   1      31.895  28.489  25.888  1.00  0.00    -0.275 N 
ATOM     88  H   UNL A   1      31.581  28.658  26.805  1.00  0.00     0.180 HD
BRANCH  87  89
ATOM     89  S   UNL A   1      33.552  28.285  25.591  1.00  0.00     0.333 S 
ATOM     90  O   UNL A   1      33.778  26.884  25.914  1.00  0.00    -0.197 OA
ATOM     91  O   UNL A   1      33.780  28.750  24.239  1.00  0.00    -0.197 OA
BRANCH  89  92
ATOM     92  C   UNL A   1      34.430  29.372  26.844  1.00  0.00     0.516 C 
ATOM     93  F   UNL A   1      34.169  28.976  28.126  1.00  0.00    -0.155 F 
ATOM     94  F   UNL A   1      35.788  29.322  26.701  1.00  0.00    -0.155 F 
ATOM     95  F   UNL A   1      34.069  30.681  26.757  1.00  0.00    -0.155 F 
ENDBRANCH  89  92
ENDBRANCH  87  89
ENDBRANCH  82  87
ENDBRANCH  78  80
ENDBRANCH  77  78
ENDBRANCH  76  77
ENDBRANCH  75  76
ENDBRANCH  74  75
ENDBRANCH   1  74
TORSDOF 20
ENDMDL
