MODEL 1
REMARK VINA RESULT:     -11.8      0.000      0.000
REMARK SMILES CCNC(=O)c1cccc(-c2ccc(Cl)c(C(=O)OCCOCCOCCOC(=O)c3ccc(-c4c5nc(c(-c6c(F)c(F)c(F)c(F)c6F)c6ccc([nH]6)c(-c6c(F)c(F)c(F)c(F)c6F)c6nc(c(-c7c(F)c(F)c(F)c(F)c7F)c7ccc4[nH]7)C=C6)C=C5)cc3)c2)c1
REMARK SMILES IDX 23 1 22 2 21 3 20 4 19 5 17 6 18 7 16 8 11 9 12 10 94 11
REMARK SMILES IDX 13 12 14 13 15 14 10 15 6 16 7 17 95 18 8 19 9 20 4 21 3 22
REMARK SMILES IDX 5 24 2 25 1 26 24 27 25 28 26 29 27 30 28 31 29 32 30 33
REMARK SMILES IDX 31 34 32 35 93 36 33 37 92 38 34 39 35 40 36 41 86 42 37 43
REMARK SMILES IDX 91 44 85 45 87 46 38 47 90 48 84 49 83 50 39 52 71 53 51 54
REMARK SMILES IDX 70 55 52 56 55 57 69 58 88 59 53 60 54 61 68 63 89 64 56 65
REMARK SMILES IDX 40 66 41 67 49 68 42 69 43 70 47 71 50 72 44 73 45 74 48 75
REMARK SMILES IDX 46 76 72 77 73 78 81 79 74 80 75 81 79 82 82 83 76 84 77 85
REMARK SMILES IDX 80 86 78 87 57 88 58 89 66 90 59 91 60 92 64 93 67 94 61 95
REMARK SMILES IDX 62 96 65 97 63 98
REMARK H PARENT 3 23 87 51 55 62
REMARK Flexibility Score: inf
ROOT
ATOM      1  C   UNL A   1      33.862  28.641  26.063  1.00  0.00     0.188 C 
ENDROOT
BRANCH   1   2
ATOM      2  O   UNL A   1      33.740  28.725  24.655  1.00  0.00    -0.376 OA
BRANCH   2   3
ATOM      3  C   UNL A   1      33.968  27.578  23.849  1.00  0.00     0.202 C 
BRANCH   3   4
ATOM      4  C   UNL A   1      33.612  27.585  22.362  1.00  0.00     0.261 C 
BRANCH   4   5
ATOM      5  O   UNL A   1      33.618  26.273  21.789  1.00  0.00    -0.460 OA
BRANCH   5   6
ATOM      6  C   UNL A   1      32.395  25.755  21.499  1.00  0.00     0.339 C 
ATOM      7  O   UNL A   1      31.773  25.872  20.469  1.00  0.00    -0.246 OA
BRANCH   6   8
ATOM      8  C   UNL A   1      31.967  24.930  22.651  1.00  0.00     0.079 A 
ATOM      9  C   UNL A   1      32.223  22.853  23.930  1.00  0.00    -0.017 A 
ATOM     10  C   UNL A   1      31.215  23.311  24.794  1.00  0.00     0.010 A 
ATOM     11  C   UNL A   1      32.575  23.680  22.848  1.00  0.00     0.026 A 
ATOM     12  C   UNL A   1      30.587  24.544  24.589  1.00  0.00     0.022 A 
ATOM     13  C   UNL A   1      30.962  25.360  23.521  1.00  0.00     0.055 A 
ATOM     14  Cl  UNL A   1      30.091  26.835  23.306  1.00  0.00    -0.083 Cl
BRANCH   9  15
ATOM     15  C   UNL A   1      32.945  21.591  24.189  1.00  0.00    -0.018 A 
ATOM     16  C   UNL A   1      33.174  19.192  23.777  1.00  0.00     0.040 A 
ATOM     17  C   UNL A   1      34.367  19.164  24.500  1.00  0.00     0.014 A 
ATOM     18  C   UNL A   1      32.451  20.383  23.672  1.00  0.00     0.022 A 
ATOM     19  C   UNL A   1      34.856  20.342  25.063  1.00  0.00     0.001 A 
ATOM     20  C   UNL A   1      34.157  21.544  24.898  1.00  0.00     0.009 A 
BRANCH  16  21
ATOM     21  C   UNL A   1      32.667  17.947  23.161  1.00  0.00     0.251 C 
ATOM     22  N   UNL A   1      32.446  16.829  23.929  1.00  0.00    -0.352 N 
ATOM     23  H   UNL A   1      32.258  16.007  23.420  1.00  0.00     0.163 HD
ATOM     24  O   UNL A   1      32.442  17.918  21.955  1.00  0.00    -0.269 OA
BRANCH  22  25
ATOM     25  C   UNL A   1      32.447  16.667  25.375  1.00  0.00     0.112 C 
ATOM     26  C   UNL A   1      32.500  15.202  25.762  1.00  0.00     0.027 C 
ENDBRANCH  22  25
ENDBRANCH  16  21
ENDBRANCH   9  15
ENDBRANCH   6   8
ENDBRANCH   5   6
ENDBRANCH   4   5
ENDBRANCH   3   4
ENDBRANCH   2   3
ENDBRANCH   1   2
BRANCH   1  27
ATOM     27  C   UNL A   1      33.890  29.912  26.938  1.00  0.00     0.188 C 
BRANCH  27  28
ATOM     28  O   UNL A   1      32.701  30.523  27.393  1.00  0.00    -0.376 OA
BRANCH  28  29
ATOM     29  C   UNL A   1      32.318  31.800  26.911  1.00  0.00     0.202 C 
BRANCH  29  30
ATOM     30  C   UNL A   1      33.010  33.088  27.368  1.00  0.00     0.261 C 
BRANCH  30  31
ATOM     31  O   UNL A   1      32.252  33.904  28.267  1.00  0.00    -0.460 OA
BRANCH  31  32
ATOM     32  C   UNL A   1      32.911  34.992  28.733  1.00  0.00     0.338 C 
ATOM     33  O   UNL A   1      32.572  36.160  28.655  1.00  0.00    -0.246 OA
BRANCH  32  34
ATOM     34  C   UNL A   1      34.072  34.564  29.532  1.00  0.00     0.060 A 
ATOM     35  C   UNL A   1      35.344  34.683  28.958  1.00  0.00     0.016 A 
ATOM     36  C   UNL A   1      33.906  33.975  30.785  1.00  0.00     0.016 A 
ATOM     37  C   UNL A   1      36.456  34.167  29.618  1.00  0.00     0.010 A 
ATOM     38  C   UNL A   1      35.019  33.440  31.438  1.00  0.00     0.010 A 
ATOM     39  C   UNL A   1      36.291  33.499  30.838  1.00  0.00    -0.014 A 
BRANCH  39  40
ATOM     40  C   UNL A   1      37.407  32.687  31.377  1.00  0.00     0.031 A 
ATOM     41  C   UNL A   1      37.939  33.022  32.743  1.00  0.00     0.074 A 
ATOM     42  C   UNL A   1      37.918  31.655  30.686  1.00  0.00     0.049 A 
ATOM     43  N   UNL A   1      38.924  32.478  33.412  1.00  0.00    -0.248 NA
ATOM     44  C   UNL A   1      37.268  34.123  33.453  1.00  0.00     0.031 C 
ATOM     45  C   UNL A   1      37.460  31.205  29.374  1.00  0.00     0.029 A 
ATOM     46  N   UNL A   1      38.948  30.802  30.997  1.00  0.00    -0.354 N 
ATOM     47  C   UNL A   1      38.989  33.168  34.615  1.00  0.00     0.074 A 
ATOM     48  C   UNL A   1      37.968  34.191  34.576  1.00  0.00     0.031 C 
ATOM     49  C   UNL A   1      38.218  30.165  28.984  1.00  0.00     0.029 A 
ATOM     50  C   UNL A   1      39.227  29.895  30.006  1.00  0.00     0.049 A 
ATOM     51  H   UNL A   1      39.439  30.838  31.849  1.00  0.00     0.167 HD
ATOM     52  C   UNL A   1      39.821  32.961  35.664  1.00  0.00     0.037 A 
ATOM     53  C   UNL A   1      40.202  28.968  29.931  1.00  0.00     0.037 A 
ATOM     54  C   UNL A   1      40.842  31.949  35.701  1.00  0.00     0.049 A 
ATOM     55  C   UNL A   1      41.163  28.807  31.082  1.00  0.00     0.074 A 
ATOM     56  C   UNL A   1      41.734  31.659  36.719  1.00  0.00     0.029 A 
ATOM     57  N   UNL A   1      41.110  31.062  34.668  1.00  0.00    -0.354 N 
ATOM     58  N   UNL A   1      41.204  29.446  32.227  1.00  0.00    -0.248 NA
ATOM     59  C   UNL A   1      42.211  27.786  30.932  1.00  0.00     0.031 C 
ATOM     60  C   UNL A   1      42.572  30.627  36.284  1.00  0.00     0.029 A 
ATOM     61  C   UNL A   1      42.166  30.238  35.018  1.00  0.00     0.049 A 
ATOM     62  H   UNL A   1      40.622  31.026  33.814  1.00  0.00     0.167 HD
ATOM     63  C   UNL A   1      42.252  28.881  32.944  1.00  0.00     0.074 A 
ATOM     64  C   UNL A   1      42.817  27.842  32.110  1.00  0.00     0.031 C 
ATOM     65  C   UNL A   1      42.704  29.192  34.184  1.00  0.00     0.037 A 
BRANCH  52  66
ATOM     66  C   UNL A   1      39.674  33.867  36.849  1.00  0.00     0.064 A 
ATOM     67  C   UNL A   1      40.282  35.130  36.889  1.00  0.00     0.173 A 
ATOM     68  C   UNL A   1      38.892  33.478  37.948  1.00  0.00     0.173 A 
ATOM     69  F   UNL A   1      41.053  35.541  35.871  1.00  0.00    -0.203 F 
ATOM     70  C   UNL A   1      40.130  35.963  37.995  1.00  0.00     0.198 A 
ATOM     71  C   UNL A   1      38.720  34.324  39.039  1.00  0.00     0.198 A 
ATOM     72  F   UNL A   1      38.289  32.280  37.958  1.00  0.00    -0.203 F 
ATOM     73  F   UNL A   1      40.757  37.148  38.031  1.00  0.00    -0.200 F 
ATOM     74  C   UNL A   1      39.344  35.562  39.066  1.00  0.00     0.200 A 
ATOM     75  F   UNL A   1      37.951  33.940  40.068  1.00  0.00    -0.200 F 
ATOM     76  F   UNL A   1      39.193  36.369  40.125  1.00  0.00    -0.200 F 
ENDBRANCH  52  66
BRANCH  53  77
ATOM     77  C   UNL A   1      40.331  28.118  28.719  1.00  0.00     0.064 A 
ATOM     78  C   UNL A   1      39.722  26.856  28.653  1.00  0.00     0.173 A 
ATOM     79  C   UNL A   1      41.097  28.531  27.619  1.00  0.00     0.173 A 
ATOM     80  F   UNL A   1      39.004  26.405  29.691  1.00  0.00    -0.203 F 
ATOM     81  C   UNL A   1      39.896  26.032  27.544  1.00  0.00     0.198 A 
ATOM     82  C   UNL A   1      41.246  27.717  26.499  1.00  0.00     0.198 A 
ATOM     83  F   UNL A   1      41.705  29.726  27.636  1.00  0.00    -0.203 F 
ATOM     84  F   UNL A   1      39.350  24.808  27.530  1.00  0.00    -0.200 F 
ATOM     85  C   UNL A   1      40.653  26.464  26.465  1.00  0.00     0.200 A 
ATOM     86  F   UNL A   1      41.975  28.142  25.457  1.00  0.00    -0.200 F 
ATOM     87  F   UNL A   1      40.826  25.668  25.401  1.00  0.00    -0.200 F 
ENDBRANCH  53  77
BRANCH  65  88
ATOM     88  C   UNL A   1      43.826  28.366  34.741  1.00  0.00     0.064 A 
ATOM     89  C   UNL A   1      43.598  27.137  35.377  1.00  0.00     0.173 A 
ATOM     90  C   UNL A   1      45.157  28.791  34.595  1.00  0.00     0.173 A 
ATOM     91  F   UNL A   1      42.344  26.691  35.553  1.00  0.00    -0.203 F 
ATOM     92  C   UNL A   1      44.656  26.379  35.871  1.00  0.00     0.198 A 
ATOM     93  C   UNL A   1      46.213  28.016  35.064  1.00  0.00     0.198 A 
ATOM     94  F   UNL A   1      45.431  29.955  33.985  1.00  0.00    -0.203 F 
ATOM     95  F   UNL A   1      44.410  25.231  36.518  1.00  0.00    -0.200 F 
ATOM     96  C   UNL A   1      45.962  26.815  35.708  1.00  0.00     0.200 A 
ATOM     97  F   UNL A   1      47.476  28.433  34.891  1.00  0.00    -0.200 F 
ATOM     98  F   UNL A   1      46.979  26.080  36.178  1.00  0.00    -0.200 F 
ENDBRANCH  65  88
ENDBRANCH  39  40
ENDBRANCH  32  34
ENDBRANCH  31  32
ENDBRANCH  30  31
ENDBRANCH  29  30
ENDBRANCH  28  29
ENDBRANCH  27  28
ENDBRANCH   1  27
TORSDOF 20
ENDMDL
MODEL 2
REMARK VINA RESULT:     -11.6      3.841      9.601
REMARK SMILES CCNC(=O)c1cccc(-c2ccc(Cl)c(C(=O)OCCOCCOCCOC(=O)c3ccc(-c4c5nc(c(-c6c(F)c(F)c(F)c(F)c6F)c6ccc([nH]6)c(-c6c(F)c(F)c(F)c(F)c6F)c6nc(c(-c7c(F)c(F)c(F)c(F)c7F)c7ccc4[nH]7)C=C6)C=C5)cc3)c2)c1
REMARK SMILES IDX 23 1 22 2 21 3 20 4 19 5 17 6 18 7 16 8 11 9 12 10 94 11
REMARK SMILES IDX 13 12 14 13 15 14 10 15 6 16 7 17 95 18 8 19 9 20 4 21 3 22
REMARK SMILES IDX 5 24 2 25 1 26 24 27 25 28 26 29 27 30 28 31 29 32 30 33
REMARK SMILES IDX 31 34 32 35 93 36 33 37 92 38 34 39 35 40 36 41 86 42 37 43
REMARK SMILES IDX 91 44 85 45 87 46 38 47 90 48 84 49 83 50 39 52 71 53 51 54
REMARK SMILES IDX 70 55 52 56 55 57 69 58 88 59 53 60 54 61 68 63 89 64 56 65
REMARK SMILES IDX 40 66 41 67 49 68 42 69 43 70 47 71 50 72 44 73 45 74 48 75
REMARK SMILES IDX 46 76 72 77 73 78 81 79 74 80 75 81 79 82 82 83 76 84 77 85
REMARK SMILES IDX 80 86 78 87 57 88 58 89 66 90 59 91 60 92 64 93 67 94 61 95
REMARK SMILES IDX 62 96 65 97 63 98
REMARK H PARENT 3 23 87 51 55 62
REMARK Flexibility Score: inf
ROOT
ATOM      1  C   UNL A   1      41.119  21.182  27.316  1.00  0.00     0.188 C 
ENDROOT
BRANCH   1   2
ATOM      2  O   UNL A   1      39.764  21.560  27.157  1.00  0.00    -0.376 OA
BRANCH   2   3
ATOM      3  C   UNL A   1      39.328  22.160  25.946  1.00  0.00     0.202 C 
BRANCH   3   4
ATOM      4  C   UNL A   1      37.883  22.634  25.786  1.00  0.00     0.261 C 
BRANCH   4   5
ATOM      5  O   UNL A   1      37.144  21.843  24.849  1.00  0.00    -0.460 OA
BRANCH   5   6
ATOM      6  C   UNL A   1      36.439  22.542  23.920  1.00  0.00     0.339 C 
ATOM      7  O   UNL A   1      36.800  22.864  22.813  1.00  0.00    -0.246 OA
BRANCH   6   8
ATOM      8  C   UNL A   1      35.085  22.786  24.467  1.00  0.00     0.079 A 
ATOM      9  C   UNL A   1      33.397  24.411  25.192  1.00  0.00    -0.017 A 
ATOM     10  C   UNL A   1      32.552  23.333  25.500  1.00  0.00     0.010 A 
ATOM     11  C   UNL A   1      34.675  24.111  24.686  1.00  0.00     0.026 A 
ATOM     12  C   UNL A   1      32.964  22.009  25.308  1.00  0.00     0.022 A 
ATOM     13  C   UNL A   1      34.228  21.730  24.787  1.00  0.00     0.055 A 
ATOM     14  Cl  UNL A   1      34.677  20.069  24.643  1.00  0.00    -0.083 Cl
BRANCH   9  15
ATOM     15  C   UNL A   1      32.938  25.810  25.315  1.00  0.00    -0.018 A 
ATOM     16  C   UNL A   1      32.630  28.006  24.287  1.00  0.00     0.040 A 
ATOM     17  C   UNL A   1      31.936  28.454  25.411  1.00  0.00     0.014 A 
ATOM     18  C   UNL A   1      33.167  26.716  24.268  1.00  0.00     0.022 A 
ATOM     19  C   UNL A   1      31.735  27.588  26.484  1.00  0.00     0.001 A 
ATOM     20  C   UNL A   1      32.222  26.275  26.430  1.00  0.00     0.009 A 
BRANCH  16  21
ATOM     21  C   UNL A   1      32.824  28.918  23.140  1.00  0.00     0.251 C 
ATOM     22  N   UNL A   1      31.754  29.313  22.373  1.00  0.00    -0.352 N 
ATOM     23  H   UNL A   1      31.991  29.791  21.545  1.00  0.00     0.163 HD
ATOM     24  O   UNL A   1      33.952  29.324  22.875  1.00  0.00    -0.269 OA
BRANCH  22  25
ATOM     25  C   UNL A   1      30.326  29.136  22.591  1.00  0.00     0.112 C 
ATOM     26  C   UNL A   1      29.519  30.080  21.722  1.00  0.00     0.027 C 
ENDBRANCH  22  25
ENDBRANCH  16  21
ENDBRANCH   9  15
ENDBRANCH   6   8
ENDBRANCH   5   6
ENDBRANCH   4   5
ENDBRANCH   3   4
ENDBRANCH   2   3
ENDBRANCH   1   2
BRANCH   1  27
ATOM     27  C   UNL A   1      41.889  20.478  26.177  1.00  0.00     0.188 C 
BRANCH  27  28
ATOM     28  O   UNL A   1      42.808  21.177  25.364  1.00  0.00    -0.376 OA
BRANCH  28  29
ATOM     29  C   UNL A   1      44.202  20.964  25.508  1.00  0.00     0.202 C 
BRANCH  29  30
ATOM     30  C   UNL A   1      45.208  22.119  25.528  1.00  0.00     0.261 C 
BRANCH  30  31
ATOM     31  O   UNL A   1      44.869  23.210  26.390  1.00  0.00    -0.460 OA
BRANCH  31  32
ATOM     32  C   UNL A   1      44.501  24.344  25.747  1.00  0.00     0.338 C 
ATOM     33  O   UNL A   1      44.666  24.622  24.572  1.00  0.00    -0.246 OA
BRANCH  32  34
ATOM     34  C   UNL A   1      43.691  25.183  26.646  1.00  0.00     0.060 A 
ATOM     35  C   UNL A   1      43.997  26.548  26.724  1.00  0.00     0.016 A 
ATOM     36  C   UNL A   1      42.709  24.624  27.463  1.00  0.00     0.016 A 
ATOM     37  C   UNL A   1      43.349  27.353  27.657  1.00  0.00     0.010 A 
ATOM     38  C   UNL A   1      42.074  25.428  28.413  1.00  0.00     0.010 A 
ATOM     39  C   UNL A   1      42.422  26.786  28.540  1.00  0.00    -0.014 A 
BRANCH  39  40
ATOM     40  C   UNL A   1      41.976  27.561  29.721  1.00  0.00     0.031 A 
ATOM     41  C   UNL A   1      40.729  28.394  29.600  1.00  0.00     0.074 A 
ATOM     42  C   UNL A   1      42.643  27.506  30.886  1.00  0.00     0.049 A 
ATOM     43  N   UNL A   1      40.159  29.176  30.481  1.00  0.00    -0.248 NA
ATOM     44  C   UNL A   1      40.028  28.334  28.307  1.00  0.00     0.031 C 
ATOM     45  C   UNL A   1      43.837  26.704  31.140  1.00  0.00     0.029 A 
ATOM     46  N   UNL A   1      42.406  28.151  32.075  1.00  0.00    -0.354 N 
ATOM     47  C   UNL A   1      39.039  29.700  29.851  1.00  0.00     0.074 A 
ATOM     48  C   UNL A   1      39.022  29.174  28.503  1.00  0.00     0.031 C 
ATOM     49  C   UNL A   1      44.240  26.916  32.406  1.00  0.00     0.029 A 
ATOM     50  C   UNL A   1      43.347  27.886  33.038  1.00  0.00     0.049 A 
ATOM     51  H   UNL A   1      41.636  28.745  32.222  1.00  0.00     0.167 HD
ATOM     52  C   UNL A   1      38.101  30.538  30.352  1.00  0.00     0.037 A 
ATOM     53  C   UNL A   1      43.478  28.391  34.281  1.00  0.00     0.037 A 
ATOM     54  C   UNL A   1      38.120  31.068  31.690  1.00  0.00     0.049 A 
ATOM     55  C   UNL A   1      42.461  29.380  34.792  1.00  0.00     0.074 A 
ATOM     56  C   UNL A   1      37.215  31.924  32.293  1.00  0.00     0.029 A 
ATOM     57  N   UNL A   1      39.103  30.796  32.631  1.00  0.00    -0.354 N 
ATOM     58  N   UNL A   1      41.390  29.852  34.199  1.00  0.00    -0.248 NA
ATOM     59  C   UNL A   1      42.669  29.902  36.151  1.00  0.00     0.031 C 
ATOM     60  C   UNL A   1      37.673  32.204  33.584  1.00  0.00     0.029 A 
ATOM     61  C   UNL A   1      38.835  31.482  33.803  1.00  0.00     0.049 A 
ATOM     62  H   UNL A   1      39.875  30.204  32.485  1.00  0.00     0.167 HD
ATOM     63  C   UNL A   1      40.780  30.692  35.123  1.00  0.00     0.074 A 
ATOM     64  C   UNL A   1      41.595  30.660  36.319  1.00  0.00     0.031 C 
ATOM     65  C   UNL A   1      39.644  31.422  34.994  1.00  0.00     0.037 A 
BRANCH  52  66
ATOM     66  C   UNL A   1      36.986  30.952  29.440  1.00  0.00     0.064 A 
ATOM     67  C   UNL A   1      36.944  32.231  28.864  1.00  0.00     0.173 A 
ATOM     68  C   UNL A   1      35.962  30.050  29.115  1.00  0.00     0.173 A 
ATOM     69  F   UNL A   1      37.891  33.135  29.157  1.00  0.00    -0.203 F 
ATOM     70  C   UNL A   1      35.905  32.598  28.012  1.00  0.00     0.198 A 
ATOM     71  C   UNL A   1      34.941  30.411  28.241  1.00  0.00     0.198 A 
ATOM     72  F   UNL A   1      35.957  28.815  29.639  1.00  0.00    -0.203 F 
ATOM     73  F   UNL A   1      35.861  33.839  27.508  1.00  0.00    -0.200 F 
ATOM     74  C   UNL A   1      34.909  31.687  27.696  1.00  0.00     0.200 A 
ATOM     75  F   UNL A   1      33.984  29.526  27.928  1.00  0.00    -0.200 F 
ATOM     76  F   UNL A   1      33.914  32.040  26.870  1.00  0.00    -0.200 F 
ENDBRANCH  52  66
BRANCH  53  77
ATOM     77  C   UNL A   1      44.621  27.978  35.136  1.00  0.00     0.064 A 
ATOM     78  C   UNL A   1      45.848  28.652  35.079  1.00  0.00     0.173 A 
ATOM     79  C   UNL A   1      44.522  26.875  35.998  1.00  0.00     0.173 A 
ATOM     80  F   UNL A   1      46.000  29.694  34.249  1.00  0.00    -0.203 F 
ATOM     81  C   UNL A   1      46.940  28.226  35.832  1.00  0.00     0.198 A 
ATOM     82  C   UNL A   1      45.606  26.467  36.772  1.00  0.00     0.198 A 
ATOM     83  F   UNL A   1      43.371  26.191  36.085  1.00  0.00    -0.203 F 
ATOM     84  F   UNL A   1      48.118  28.854  35.716  1.00  0.00    -0.200 F 
ATOM     85  C   UNL A   1      46.817  27.136  36.682  1.00  0.00     0.200 A 
ATOM     86  F   UNL A   1      45.480  25.416  37.595  1.00  0.00    -0.200 F 
ATOM     87  F   UNL A   1      47.869  26.722  37.401  1.00  0.00    -0.200 F 
ENDBRANCH  53  77
BRANCH  65  88
ATOM     88  C   UNL A   1      39.180  32.200  36.191  1.00  0.00     0.064 A 
ATOM     89  C   UNL A   1      39.623  33.506  36.443  1.00  0.00     0.173 A 
ATOM     90  C   UNL A   1      38.243  31.643  37.075  1.00  0.00     0.173 A 
ATOM     91  F   UNL A   1      40.529  34.080  35.635  1.00  0.00    -0.203 F 
ATOM     92  C   UNL A   1      39.166  34.216  37.551  1.00  0.00     0.198 A 
ATOM     93  C   UNL A   1      37.766  32.367  38.165  1.00  0.00     0.198 A 
ATOM     94  F   UNL A   1      37.779  30.400  36.875  1.00  0.00    -0.203 F 
ATOM     95  F   UNL A   1      39.639  35.446  37.798  1.00  0.00    -0.200 F 
ATOM     96  C   UNL A   1      38.233  33.649  38.406  1.00  0.00     0.200 A 
ATOM     97  F   UNL A   1      36.853  31.822  38.981  1.00  0.00    -0.200 F 
ATOM     98  F   UNL A   1      37.790  34.336  39.467  1.00  0.00    -0.200 F 
ENDBRANCH  65  88
ENDBRANCH  39  40
ENDBRANCH  32  34
ENDBRANCH  31  32
ENDBRANCH  30  31
ENDBRANCH  29  30
ENDBRANCH  28  29
ENDBRANCH  27  28
ENDBRANCH   1  27
TORSDOF 20
ENDMDL
MODEL 3
REMARK VINA RESULT:     -11.6      1.158      2.413
REMARK SMILES CCNC(=O)c1cccc(-c2ccc(Cl)c(C(=O)OCCOCCOCCOC(=O)c3ccc(-c4c5nc(c(-c6c(F)c(F)c(F)c(F)c6F)c6ccc([nH]6)c(-c6c(F)c(F)c(F)c(F)c6F)c6nc(c(-c7c(F)c(F)c(F)c(F)c7F)c7ccc4[nH]7)C=C6)C=C5)cc3)c2)c1
REMARK SMILES IDX 23 1 22 2 21 3 20 4 19 5 17 6 18 7 16 8 11 9 12 10 94 11
REMARK SMILES IDX 13 12 14 13 15 14 10 15 6 16 7 17 95 18 8 19 9 20 4 21 3 22
REMARK SMILES IDX 5 24 2 25 1 26 24 27 25 28 26 29 27 30 28 31 29 32 30 33
REMARK SMILES IDX 31 34 32 35 93 36 33 37 92 38 34 39 35 40 36 41 86 42 37 43
REMARK SMILES IDX 91 44 85 45 87 46 38 47 90 48 84 49 83 50 39 52 71 53 51 54
REMARK SMILES IDX 70 55 52 56 55 57 69 58 88 59 53 60 54 61 68 63 89 64 56 65
REMARK SMILES IDX 40 66 41 67 49 68 42 69 43 70 47 71 50 72 44 73 45 74 48 75
REMARK SMILES IDX 46 76 72 77 73 78 81 79 74 80 75 81 79 82 82 83 76 84 77 85
REMARK SMILES IDX 80 86 78 87 57 88 58 89 66 90 59 91 60 92 64 93 67 94 61 95
REMARK SMILES IDX 62 96 65 97 63 98
REMARK H PARENT 3 23 87 51 55 62
REMARK Flexibility Score: inf
ROOT
ATOM      1  C   UNL A   1      33.674  28.806  25.751  1.00  0.00     0.188 C 
ENDROOT
BRANCH   1   2
ATOM      2  O   UNL A   1      33.333  29.138  24.418  1.00  0.00    -0.376 OA
BRANCH   2   3
ATOM      3  C   UNL A   1      34.200  28.783  23.350  1.00  0.00     0.202 C 
BRANCH   3   4
ATOM      4  C   UNL A   1      33.637  28.263  22.027  1.00  0.00     0.261 C 
BRANCH   4   5
ATOM      5  O   UNL A   1      33.736  26.839  21.908  1.00  0.00    -0.460 OA
BRANCH   5   6
ATOM      6  C   UNL A   1      32.560  26.184  21.722  1.00  0.00     0.339 C 
ATOM      7  O   UNL A   1      32.075  25.830  20.673  1.00  0.00    -0.246 OA
BRANCH   6   8
ATOM      8  C   UNL A   1      31.987  25.890  23.054  1.00  0.00     0.079 A 
ATOM      9  C   UNL A   1      32.044  24.515  25.084  1.00  0.00    -0.017 A 
ATOM     10  C   UNL A   1      30.964  25.268  25.574  1.00  0.00     0.010 A 
ATOM     11  C   UNL A   1      32.533  24.838  23.806  1.00  0.00     0.026 A 
ATOM     12  C   UNL A   1      30.398  26.302  24.820  1.00  0.00     0.022 A 
ATOM     13  C   UNL A   1      30.909  26.620  23.561  1.00  0.00     0.055 A 
ATOM     14  Cl  UNL A   1      30.110  27.868  22.674  1.00  0.00    -0.083 Cl
BRANCH   9  15
ATOM     15  C   UNL A   1      32.697  23.478  25.909  1.00  0.00    -0.018 A 
ATOM     16  C   UNL A   1      34.511  21.862  26.183  1.00  0.00     0.040 A 
ATOM     17  C   UNL A   1      34.102  21.599  27.491  1.00  0.00     0.014 A 
ATOM     18  C   UNL A   1      33.781  22.752  25.391  1.00  0.00     0.022 A 
ATOM     19  C   UNL A   1      33.000  22.273  28.014  1.00  0.00     0.001 A 
ATOM     20  C   UNL A   1      32.313  23.211  27.234  1.00  0.00     0.009 A 
BRANCH  16  21
ATOM     21  C   UNL A   1      35.693  21.163  25.636  1.00  0.00     0.251 C 
ATOM     22  N   UNL A   1      35.557  19.949  25.005  1.00  0.00    -0.352 N 
ATOM     23  H   UNL A   1      36.404  19.486  24.810  1.00  0.00     0.163 HD
ATOM     24  O   UNL A   1      36.803  21.676  25.747  1.00  0.00    -0.269 OA
BRANCH  22  25
ATOM     25  C   UNL A   1      34.359  19.242  24.581  1.00  0.00     0.112 C 
ATOM     26  C   UNL A   1      34.612  17.751  24.475  1.00  0.00     0.027 C 
ENDBRANCH  22  25
ENDBRANCH  16  21
ENDBRANCH   9  15
ENDBRANCH   6   8
ENDBRANCH   5   6
ENDBRANCH   4   5
ENDBRANCH   3   4
ENDBRANCH   2   3
ENDBRANCH   1   2
BRANCH   1  27
ATOM     27  C   UNL A   1      33.767  29.892  26.844  1.00  0.00     0.188 C 
BRANCH  27  28
ATOM     28  O   UNL A   1      32.613  30.513  27.369  1.00  0.00    -0.376 OA
BRANCH  28  29
ATOM     29  C   UNL A   1      32.186  31.772  26.877  1.00  0.00     0.202 C 
BRANCH  29  30
ATOM     30  C   UNL A   1      32.880  33.081  27.268  1.00  0.00     0.261 C 
BRANCH  30  31
ATOM     31  O   UNL A   1      32.273  33.794  28.351  1.00  0.00    -0.460 OA
BRANCH  31  32
ATOM     32  C   UNL A   1      32.956  34.892  28.756  1.00  0.00     0.338 C 
ATOM     33  O   UNL A   1      32.635  36.060  28.625  1.00  0.00    -0.246 OA
BRANCH  32  34
ATOM     34  C   UNL A   1      34.120  34.483  29.560  1.00  0.00     0.060 A 
ATOM     35  C   UNL A   1      35.390  34.593  28.979  1.00  0.00     0.016 A 
ATOM     36  C   UNL A   1      33.959  33.920  30.826  1.00  0.00     0.016 A 
ATOM     37  C   UNL A   1      36.505  34.093  29.648  1.00  0.00     0.010 A 
ATOM     38  C   UNL A   1      35.075  33.402  31.487  1.00  0.00     0.010 A 
ATOM     39  C   UNL A   1      36.345  33.451  30.881  1.00  0.00    -0.014 A 
BRANCH  39  40
ATOM     40  C   UNL A   1      37.464  32.652  31.434  1.00  0.00     0.031 A 
ATOM     41  C   UNL A   1      37.984  33.002  32.802  1.00  0.00     0.074 A 
ATOM     42  C   UNL A   1      37.989  31.621  30.754  1.00  0.00     0.049 A 
ATOM     43  N   UNL A   1      38.968  32.471  33.481  1.00  0.00    -0.248 NA
ATOM     44  C   UNL A   1      37.298  34.102  33.499  1.00  0.00     0.031 C 
ATOM     45  C   UNL A   1      37.544  31.157  29.442  1.00  0.00     0.029 A 
ATOM     46  N   UNL A   1      39.025  30.779  31.078  1.00  0.00    -0.354 N 
ATOM     47  C   UNL A   1      39.019  33.170  34.680  1.00  0.00     0.074 A 
ATOM     48  C   UNL A   1      37.989  34.184  34.626  1.00  0.00     0.031 C 
ATOM     49  C   UNL A   1      38.314  30.121  29.064  1.00  0.00     0.029 A 
ATOM     50  C   UNL A   1      39.318  29.867  30.096  1.00  0.00     0.049 A 
ATOM     51  H   UNL A   1      39.509  30.825  31.934  1.00  0.00     0.167 HD
ATOM     52  C   UNL A   1      39.845  32.978  35.736  1.00  0.00     0.037 A 
ATOM     53  C   UNL A   1      40.303  28.948  30.035  1.00  0.00     0.037 A 
ATOM     54  C   UNL A   1      40.875  31.975  35.788  1.00  0.00     0.049 A 
ATOM     55  C   UNL A   1      41.257  28.804  31.193  1.00  0.00     0.074 A 
ATOM     56  C   UNL A   1      41.762  31.700  36.813  1.00  0.00     0.029 A 
ATOM     57  N   UNL A   1      41.158  31.084  34.763  1.00  0.00    -0.354 N 
ATOM     58  N   UNL A   1      41.284  29.451  32.334  1.00  0.00    -0.248 NA
ATOM     59  C   UNL A   1      42.315  27.792  31.058  1.00  0.00     0.031 C 
ATOM     60  C   UNL A   1      42.612  30.673  36.392  1.00  0.00     0.029 A 
ATOM     61  C   UNL A   1      42.219  30.271  35.125  1.00  0.00     0.049 A 
ATOM     62  H   UNL A   1      40.677  31.038  33.906  1.00  0.00     0.167 HD
ATOM     63  C   UNL A   1      42.332  28.901  33.063  1.00  0.00     0.074 A 
ATOM     64  C   UNL A   1      42.912  27.861  32.239  1.00  0.00     0.031 C 
ATOM     65  C   UNL A   1      42.772  29.225  34.303  1.00  0.00     0.037 A 
BRANCH  52  66
ATOM     66  C   UNL A   1      39.682  33.891  36.914  1.00  0.00     0.064 A 
ATOM     67  C   UNL A   1      38.908  33.525  38.025  1.00  0.00     0.173 A 
ATOM     68  C   UNL A   1      40.330  35.134  36.945  1.00  0.00     0.173 A 
ATOM     69  F   UNL A   1      38.254  32.353  38.037  1.00  0.00    -0.203 F 
ATOM     70  C   UNL A   1      38.771  34.380  39.116  1.00  0.00     0.198 A 
ATOM     71  C   UNL A   1      40.215  35.975  38.048  1.00  0.00     0.198 A 
ATOM     72  F   UNL A   1      41.083  35.530  35.908  1.00  0.00    -0.203 F 
ATOM     73  F   UNL A   1      37.991  34.029  40.148  1.00  0.00    -0.200 F 
ATOM     74  C   UNL A   1      39.430  35.601  39.129  1.00  0.00     0.200 A 
ATOM     75  F   UNL A   1      40.860  37.149  38.065  1.00  0.00    -0.200 F 
ATOM     76  F   UNL A   1      39.304  36.419  40.183  1.00  0.00    -0.200 F 
ENDBRANCH  52  66
BRANCH  53  77
ATOM     77  C   UNL A   1      40.447  28.091  28.830  1.00  0.00     0.064 A 
ATOM     78  C   UNL A   1      41.204  28.512  27.728  1.00  0.00     0.173 A 
ATOM     79  C   UNL A   1      39.798  26.850  28.739  1.00  0.00     0.173 A 
ATOM     80  F   UNL A   1      41.819  29.704  27.756  1.00  0.00    -0.203 F 
ATOM     81  C   UNL A   1      41.287  27.738  26.573  1.00  0.00     0.198 A 
ATOM     82  C   UNL A   1      39.905  26.064  27.594  1.00  0.00     0.198 A 
ATOM     83  F   UNL A   1      39.056  26.403  29.763  1.00  0.00    -0.203 F 
ATOM     84  F   UNL A   1      41.971  28.191  25.513  1.00  0.00    -0.200 F 
ATOM     85  C   UNL A   1      40.642  26.512  26.508  1.00  0.00     0.200 A 
ATOM     86  F   UNL A   1      39.283  24.878  27.538  1.00  0.00    -0.200 F 
ATOM     87  F   UNL A   1      40.716  25.771  25.394  1.00  0.00    -0.200 F 
ENDBRANCH  53  77
BRANCH  65  88
ATOM     88  C   UNL A   1      43.898  28.412  34.874  1.00  0.00     0.064 A 
ATOM     89  C   UNL A   1      45.237  28.803  34.737  1.00  0.00     0.173 A 
ATOM     90  C   UNL A   1      43.626  27.246  35.608  1.00  0.00     0.173 A 
ATOM     91  F   UNL A   1      45.551  29.903  34.035  1.00  0.00    -0.203 F 
ATOM     92  C   UNL A   1      46.264  28.042  35.290  1.00  0.00     0.198 A 
ATOM     93  C   UNL A   1      44.653  26.505  36.184  1.00  0.00     0.198 A 
ATOM     94  F   UNL A   1      42.360  26.833  35.777  1.00  0.00    -0.203 F 
ATOM     95  F   UNL A   1      47.541  28.409  35.106  1.00  0.00    -0.200 F 
ATOM     96  C   UNL A   1      45.972  26.899  36.018  1.00  0.00     0.200 A 
ATOM     97  F   UNL A   1      44.366  25.409  36.900  1.00  0.00    -0.200 F 
ATOM     98  F   UNL A   1      46.961  26.172  36.555  1.00  0.00    -0.200 F 
ENDBRANCH  65  88
ENDBRANCH  39  40
ENDBRANCH  32  34
ENDBRANCH  31  32
ENDBRANCH  30  31
ENDBRANCH  29  30
ENDBRANCH  28  29
ENDBRANCH  27  28
ENDBRANCH   1  27
TORSDOF 20
ENDMDL
