MODEL 1
REMARK VINA RESULT:     -11.1      0.000      0.000
REMARK SMILES Cc1nn(C)c(Cl)c1C[N@@H+]1CC[C@H](O)C[C@@H]1C(=O)OCCOCCOCCOC(=O)c1ccc(-c2c3nc(c(-c4c(F)c(F)c(F)c(F)c4F)c4ccc([nH]4)c(-c4c(F)c(F)c(F)c(F)c4F)c4nc(c(-c5c(F)c(F)c(F)c(F)c5F)c5ccc2[nH]5)C=C4)C=C3)cc1
REMARK SMILES IDX 23 1 22 2 21 3 20 4 19 5 17 6 18 7 16 8 10 9 11 10 12 12
REMARK SMILES IDX 15 13 13 14 9 15 8 16 1 17 2 18 3 19 4 20 6 21 5 22 7 23
REMARK SMILES IDX 14 24 24 26 25 27 26 28 27 29 28 30 29 31 30 32 31 33 32 34
REMARK SMILES IDX 93 35 33 36 92 37 34 38 35 39 36 40 86 41 37 42 91 43 85 44
REMARK SMILES IDX 87 45 38 46 90 47 84 48 83 49 39 51 71 52 51 53 70 54 52 55
REMARK SMILES IDX 55 56 69 57 88 58 53 59 54 60 68 62 89 63 56 64 40 65 41 66
REMARK SMILES IDX 49 67 42 68 43 69 47 70 50 71 44 72 45 73 48 74 46 75 72 76
REMARK SMILES IDX 73 77 81 78 74 79 75 80 79 81 82 82 76 83 77 84 80 85 78 86
REMARK SMILES IDX 57 87 58 88 66 89 59 90 60 91 64 92 67 93 61 94 62 95 65 96
REMARK SMILES IDX 63 97
REMARK H PARENT 10 11 14 25 87 50 55 61
REMARK Flexibility Score: inf
ROOT
ATOM      1  C   UNL A   1      40.324  19.894  25.973  1.00  0.00     0.188 C 
ENDROOT
BRANCH   1   2
ATOM      2  O   UNL A   1      39.627  20.862  26.749  1.00  0.00    -0.376 OA
BRANCH   2   3
ATOM      3  C   UNL A   1      39.410  22.122  26.120  1.00  0.00     0.202 C 
BRANCH   3   4
ATOM      4  C   UNL A   1      37.952  22.588  26.100  1.00  0.00     0.261 C 
BRANCH   4   5
ATOM      5  O   UNL A   1      37.266  22.282  24.857  1.00  0.00    -0.459 OA
BRANCH   5   6
ATOM      6  C   UNL A   1      36.154  21.517  24.930  1.00  0.00     0.365 C 
ATOM      7  O   UNL A   1      36.184  20.338  25.290  1.00  0.00    -0.245 OA
BRANCH   6   8
ATOM      8  C   UNL A   1      34.830  22.150  24.445  1.00  0.00     0.297 C 
ATOM      9  N   UNL A   1      34.317  23.393  25.037  1.00  0.00    -0.319 N 
ATOM     10  C   UNL A   1      33.449  23.353  26.196  1.00  0.00     0.265 C 
ATOM     11  H   UNL A   1      33.595  23.372  24.316  1.00  0.00     0.349 HD
ATOM     12  C   UNL A   1      32.408  22.238  26.185  1.00  0.00     0.093 C 
ATOM     13  C   UNL A   1      33.726  21.074  24.379  1.00  0.00     0.109 C 
ATOM     14  C   UNL A   1      32.931  20.910  25.668  1.00  0.00     0.126 C 
BRANCH   9  15
ATOM     15  C   UNL A   1      34.926  24.675  24.701  1.00  0.00     0.305 C 
BRANCH  15  16
ATOM     16  C   UNL A   1      33.953  25.680  24.198  1.00  0.00     0.066 A 
ATOM     17  C   UNL A   1      33.020  24.438  22.091  1.00  0.00     0.069 C 
ATOM     18  C   UNL A   1      33.123  25.576  23.041  1.00  0.00     0.070 A 
ATOM     19  N   UNL A   1      32.410  26.692  22.825  1.00  0.00    -0.177 NA
ATOM     20  N   UNL A   1      32.768  27.507  23.840  1.00  0.00    -0.256 N 
ATOM     21  C   UNL A   1      33.574  26.886  24.744  1.00  0.00     0.135 A 
ATOM     22  C   UNL A   1      32.327  28.880  23.803  1.00  0.00     0.175 C 
ATOM     23  Cl  UNL A   1      33.957  27.624  26.231  1.00  0.00    -0.062 Cl
ENDBRANCH  15  16
ENDBRANCH   9  15
BRANCH  14  24
ATOM     24  O   UNL A   1      33.717  20.267  26.662  1.00  0.00    -0.393 OA
ATOM     25  H   UNL A   1      33.684  20.783  27.483  1.00  0.00     0.210 HD
ENDBRANCH  14  24
ENDBRANCH   6   8
ENDBRANCH   5   6
ENDBRANCH   4   5
ENDBRANCH   3   4
ENDBRANCH   2   3
ENDBRANCH   1   2
BRANCH   1  26
ATOM     26  C   UNL A   1      41.836  19.790  26.204  1.00  0.00     0.188 C 
BRANCH  26  27
ATOM     27  O   UNL A   1      42.529  19.248  25.078  1.00  0.00    -0.376 OA
BRANCH  27  28
ATOM     28  C   UNL A   1      43.843  18.797  25.393  1.00  0.00     0.202 C 
BRANCH  28  29
ATOM     29  C   UNL A   1      44.781  19.243  24.285  1.00  0.00     0.261 C 
BRANCH  29  30
ATOM     30  O   UNL A   1      44.521  20.583  23.880  1.00  0.00    -0.460 OA
BRANCH  30  31
ATOM     31  C   UNL A   1      45.267  21.577  24.406  1.00  0.00     0.338 C 
ATOM     32  O   UNL A   1      46.464  21.736  24.299  1.00  0.00    -0.246 OA
BRANCH  31  33
ATOM     33  C   UNL A   1      44.351  22.367  25.254  1.00  0.00     0.060 A 
ATOM     34  C   UNL A   1      43.556  23.333  24.634  1.00  0.00     0.016 A 
ATOM     35  C   UNL A   1      44.502  22.325  26.650  1.00  0.00     0.016 A 
ATOM     36  C   UNL A   1      43.133  24.412  25.389  1.00  0.00     0.010 A 
ATOM     37  C   UNL A   1      44.123  23.415  27.390  1.00  0.00     0.010 A 
ATOM     38  C   UNL A   1      43.529  24.486  26.727  1.00  0.00    -0.014 A 
BRANCH  38  39
ATOM     39  C   UNL A   1      43.475  25.764  27.410  1.00  0.00     0.031 A 
ATOM     40  C   UNL A   1      44.553  26.715  27.090  1.00  0.00     0.074 A 
ATOM     41  C   UNL A   1      42.377  26.094  28.121  1.00  0.00     0.049 A 
ATOM     42  N   UNL A   1      45.380  27.272  27.911  1.00  0.00    -0.248 NA
ATOM     43  C   UNL A   1      44.792  27.046  25.676  1.00  0.00     0.031 C 
ATOM     44  C   UNL A   1      41.119  25.334  28.173  1.00  0.00     0.029 A 
ATOM     45  N   UNL A   1      42.092  27.221  28.840  1.00  0.00    -0.354 N 
ATOM     46  C   UNL A   1      46.110  28.170  27.143  1.00  0.00     0.074 A 
ATOM     47  C   UNL A   1      45.836  27.866  25.766  1.00  0.00     0.031 C 
ATOM     48  C   UNL A   1      40.155  26.107  28.715  1.00  0.00     0.029 A 
ATOM     49  C   UNL A   1      40.747  27.361  29.149  1.00  0.00     0.049 A 
ATOM     50  H   UNL A   1      42.778  27.872  29.113  1.00  0.00     0.167 HD
ATOM     51  C   UNL A   1      46.638  29.288  27.703  1.00  0.00     0.037 A 
ATOM     52  C   UNL A   1      40.131  28.447  29.676  1.00  0.00     0.037 A 
ATOM     53  C   UNL A   1      46.684  29.195  29.136  1.00  0.00     0.049 A 
ATOM     54  C   UNL A   1      41.155  29.298  30.324  1.00  0.00     0.074 A 
ATOM     55  C   UNL A   1      47.469  28.556  30.069  1.00  0.00     0.029 A 
ATOM     56  N   UNL A   1      45.549  29.616  29.773  1.00  0.00    -0.354 N 
ATOM     57  N   UNL A   1      41.812  28.962  31.398  1.00  0.00    -0.248 NA
ATOM     58  C   UNL A   1      41.689  30.453  29.605  1.00  0.00     0.031 C 
ATOM     59  C   UNL A   1      46.695  28.482  31.264  1.00  0.00     0.029 A 
ATOM     60  C   UNL A   1      45.454  29.067  31.025  1.00  0.00     0.049 A 
ATOM     61  H   UNL A   1      44.888  30.233  29.384  1.00  0.00     0.167 HD
ATOM     62  C   UNL A   1      43.042  29.573  31.251  1.00  0.00     0.074 A 
ATOM     63  C   UNL A   1      42.846  30.611  30.254  1.00  0.00     0.031 C 
ATOM     64  C   UNL A   1      44.176  28.962  31.692  1.00  0.00     0.037 A 
BRANCH  51  65
ATOM     65  C   UNL A   1      46.678  30.632  27.017  1.00  0.00     0.064 A 
ATOM     66  C   UNL A   1      47.895  31.341  26.991  1.00  0.00     0.173 A 
ATOM     67  C   UNL A   1      45.527  31.380  26.684  1.00  0.00     0.173 A 
ATOM     68  F   UNL A   1      49.045  30.733  27.318  1.00  0.00    -0.203 F 
ATOM     69  C   UNL A   1      47.943  32.710  26.716  1.00  0.00     0.198 A 
ATOM     70  C   UNL A   1      45.588  32.731  26.352  1.00  0.00     0.198 A 
ATOM     71  F   UNL A   1      44.293  30.871  26.782  1.00  0.00    -0.203 F 
ATOM     72  F   UNL A   1      49.104  33.369  26.826  1.00  0.00    -0.200 F 
ATOM     73  C   UNL A   1      46.790  33.404  26.400  1.00  0.00     0.200 A 
ATOM     74  F   UNL A   1      44.455  33.393  26.070  1.00  0.00    -0.200 F 
ATOM     75  F   UNL A   1      46.826  34.727  26.192  1.00  0.00    -0.200 F 
ENDBRANCH  51  65
BRANCH  52  76
ATOM     76  C   UNL A   1      38.723  28.871  29.516  1.00  0.00     0.064 A 
ATOM     77  C   UNL A   1      37.906  29.125  30.628  1.00  0.00     0.173 A 
ATOM     78  C   UNL A   1      38.211  29.261  28.262  1.00  0.00     0.173 A 
ATOM     79  F   UNL A   1      38.335  28.829  31.863  1.00  0.00    -0.203 F 
ATOM     80  C   UNL A   1      36.658  29.743  30.495  1.00  0.00     0.198 A 
ATOM     81  C   UNL A   1      36.960  29.860  28.128  1.00  0.00     0.198 A 
ATOM     82  F   UNL A   1      38.953  29.145  27.150  1.00  0.00    -0.203 F 
ATOM     83  F   UNL A   1      35.933  30.023  31.586  1.00  0.00    -0.200 F 
ATOM     84  C   UNL A   1      36.188  30.113  29.245  1.00  0.00     0.200 A 
ATOM     85  F   UNL A   1      36.532  30.241  26.916  1.00  0.00    -0.200 F 
ATOM     86  F   UNL A   1      35.014  30.748  29.123  1.00  0.00    -0.200 F 
ENDBRANCH  52  76
BRANCH  64  87
ATOM     87  C   UNL A   1      44.027  27.966  32.796  1.00  0.00     0.064 A 
ATOM     88  C   UNL A   1      43.826  28.310  34.141  1.00  0.00     0.173 A 
ATOM     89  C   UNL A   1      44.036  26.605  32.465  1.00  0.00     0.173 A 
ATOM     90  F   UNL A   1      43.722  29.593  34.514  1.00  0.00    -0.203 F 
ATOM     91  C   UNL A   1      43.696  27.328  35.120  1.00  0.00     0.198 A 
ATOM     92  C   UNL A   1      43.868  25.626  33.439  1.00  0.00     0.198 A 
ATOM     93  F   UNL A   1      44.177  26.224  31.185  1.00  0.00    -0.203 F 
ATOM     94  F   UNL A   1      43.534  27.676  36.405  1.00  0.00    -0.200 F 
ATOM     95  C   UNL A   1      43.713  25.987  34.768  1.00  0.00     0.200 A 
ATOM     96  F   UNL A   1      43.842  24.333  33.087  1.00  0.00    -0.200 F 
ATOM     97  F   UNL A   1      43.559  25.042  35.706  1.00  0.00    -0.200 F 
ENDBRANCH  64  87
ENDBRANCH  38  39
ENDBRANCH  31  33
ENDBRANCH  30  31
ENDBRANCH  29  30
ENDBRANCH  28  29
ENDBRANCH  27  28
ENDBRANCH  26  27
ENDBRANCH   1  26
TORSDOF 20
ENDMDL
MODEL 2
REMARK VINA RESULT:     -10.9      3.755      7.973
REMARK SMILES Cc1nn(C)c(Cl)c1C[N@@H+]1CC[C@H](O)C[C@@H]1C(=O)OCCOCCOCCOC(=O)c1ccc(-c2c3nc(c(-c4c(F)c(F)c(F)c(F)c4F)c4ccc([nH]4)c(-c4c(F)c(F)c(F)c(F)c4F)c4nc(c(-c5c(F)c(F)c(F)c(F)c5F)c5ccc2[nH]5)C=C4)C=C3)cc1
REMARK SMILES IDX 23 1 22 2 21 3 20 4 19 5 17 6 18 7 16 8 10 9 11 10 12 12
REMARK SMILES IDX 15 13 13 14 9 15 8 16 1 17 2 18 3 19 4 20 6 21 5 22 7 23
REMARK SMILES IDX 14 24 24 26 25 27 26 28 27 29 28 30 29 31 30 32 31 33 32 34
REMARK SMILES IDX 93 35 33 36 92 37 34 38 35 39 36 40 86 41 37 42 91 43 85 44
REMARK SMILES IDX 87 45 38 46 90 47 84 48 83 49 39 51 71 52 51 53 70 54 52 55
REMARK SMILES IDX 55 56 69 57 88 58 53 59 54 60 68 62 89 63 56 64 40 65 41 66
REMARK SMILES IDX 49 67 42 68 43 69 47 70 50 71 44 72 45 73 48 74 46 75 72 76
REMARK SMILES IDX 73 77 81 78 74 79 75 80 79 81 82 82 76 83 77 84 80 85 78 86
REMARK SMILES IDX 57 87 58 88 66 89 59 90 60 91 64 92 67 93 61 94 62 95 65 96
REMARK SMILES IDX 63 97
REMARK H PARENT 10 11 14 25 87 50 55 61
REMARK Flexibility Score: inf
ROOT
ATOM      1  C   UNL A   1      33.505  28.458  24.741  1.00  0.00     0.188 C 
ENDROOT
BRANCH   1   2
ATOM      2  O   UNL A   1      32.413  27.598  24.436  1.00  0.00    -0.376 OA
BRANCH   2   3
ATOM      3  C   UNL A   1      31.273  27.720  25.282  1.00  0.00     0.202 C 
BRANCH   3   4
ATOM      4  C   UNL A   1      31.071  26.560  26.261  1.00  0.00     0.261 C 
BRANCH   4   5
ATOM      5  O   UNL A   1      32.076  25.518  26.135  1.00  0.00    -0.459 OA
BRANCH   5   6
ATOM      6  C   UNL A   1      31.677  24.240  26.331  1.00  0.00     0.365 C 
ATOM      7  O   UNL A   1      30.804  23.937  27.146  1.00  0.00    -0.245 OA
BRANCH   6   8
ATOM      8  C   UNL A   1      32.436  23.139  25.555  1.00  0.00     0.297 C 
ATOM      9  N   UNL A   1      33.887  23.216  25.345  1.00  0.00    -0.319 N 
ATOM     10  C   UNL A   1      34.428  23.895  24.184  1.00  0.00     0.265 C 
ATOM     11  H   UNL A   1      33.822  22.279  24.945  1.00  0.00     0.349 HD
ATOM     12  C   UNL A   1      33.660  23.666  22.886  1.00  0.00     0.093 C 
ATOM     13  C   UNL A   1      31.702  22.828  24.233  1.00  0.00     0.109 C 
ATOM     14  C   UNL A   1      32.151  23.676  23.051  1.00  0.00     0.126 C 
BRANCH   9  15
ATOM     15  C   UNL A   1      34.807  22.925  26.438  1.00  0.00     0.305 C 
BRANCH  15  16
ATOM     16  C   UNL A   1      36.064  22.267  25.996  1.00  0.00     0.066 A 
ATOM     17  C   UNL A   1      35.108  20.113  24.856  1.00  0.00     0.069 C 
ATOM     18  C   UNL A   1      36.193  21.022  25.309  1.00  0.00     0.070 A 
ATOM     19  N   UNL A   1      37.475  20.676  25.121  1.00  0.00    -0.177 NA
ATOM     20  N   UNL A   1      38.170  21.693  25.672  1.00  0.00    -0.256 N 
ATOM     21  C   UNL A   1      37.364  22.714  26.075  1.00  0.00     0.135 A 
ATOM     22  C   UNL A   1      39.598  21.547  25.817  1.00  0.00     0.175 C 
ATOM     23  Cl  UNL A   1      38.019  24.205  26.573  1.00  0.00    -0.062 Cl
ENDBRANCH  15  16
ENDBRANCH   9  15
BRANCH  14  24
ATOM     24  O   UNL A   1      31.677  25.010  23.183  1.00  0.00    -0.393 OA
ATOM     25  H   UNL A   1      32.430  25.621  23.182  1.00  0.00     0.210 HD
ENDBRANCH  14  24
ENDBRANCH   6   8
ENDBRANCH   5   6
ENDBRANCH   4   5
ENDBRANCH   3   4
ENDBRANCH   2   3
ENDBRANCH   1   2
BRANCH   1  26
ATOM     26  C   UNL A   1      33.185  29.698  25.584  1.00  0.00     0.188 C 
BRANCH  26  27
ATOM     27  O   UNL A   1      34.132  29.910  26.633  1.00  0.00    -0.376 OA
BRANCH  27  28
ATOM     28  C   UNL A   1      33.651  30.779  27.654  1.00  0.00     0.202 C 
BRANCH  28  29
ATOM     29  C   UNL A   1      34.685  31.869  27.881  1.00  0.00     0.261 C 
BRANCH  29  30
ATOM     30  O   UNL A   1      36.004  31.339  27.954  1.00  0.00    -0.460 OA
BRANCH  30  31
ATOM     31  C   UNL A   1      36.441  30.843  29.130  1.00  0.00     0.338 C 
ATOM     32  O   UNL A   1      36.252  31.297  30.239  1.00  0.00    -0.246 OA
BRANCH  31  33
ATOM     33  C   UNL A   1      37.314  29.700  28.791  1.00  0.00     0.060 A 
ATOM     34  C   UNL A   1      37.630  28.795  29.806  1.00  0.00     0.016 A 
ATOM     35  C   UNL A   1      38.010  29.708  27.570  1.00  0.00     0.016 A 
ATOM     36  C   UNL A   1      38.811  28.083  29.701  1.00  0.00     0.010 A 
ATOM     37  C   UNL A   1      39.203  29.039  27.485  1.00  0.00     0.010 A 
ATOM     38  C   UNL A   1      39.630  28.312  28.593  1.00  0.00    -0.014 A 
BRANCH  38  39
ATOM     39  C   UNL A   1      41.027  27.926  28.656  1.00  0.00     0.031 A 
ATOM     40  C   UNL A   1      41.382  26.664  27.984  1.00  0.00     0.074 A 
ATOM     41  C   UNL A   1      41.940  28.800  29.129  1.00  0.00     0.049 A 
ATOM     42  N   UNL A   1      41.951  25.629  28.505  1.00  0.00    -0.248 NA
ATOM     43  C   UNL A   1      41.002  26.499  26.572  1.00  0.00     0.031 C 
ATOM     44  C   UNL A   1      41.691  30.208  29.473  1.00  0.00     0.029 A 
ATOM     45  N   UNL A   1      43.291  28.673  29.285  1.00  0.00    -0.354 N 
ATOM     46  C   UNL A   1      42.178  24.763  27.442  1.00  0.00     0.074 A 
ATOM     47  C   UNL A   1      41.426  25.262  26.324  1.00  0.00     0.031 C 
ATOM     48  C   UNL A   1      42.872  30.848  29.605  1.00  0.00     0.029 A 
ATOM     49  C   UNL A   1      43.948  29.881  29.470  1.00  0.00     0.049 A 
ATOM     50  H   UNL A   1      43.755  27.806  29.267  1.00  0.00     0.167 HD
ATOM     51  C   UNL A   1      43.210  23.882  27.478  1.00  0.00     0.037 A 
ATOM     52  C   UNL A   1      45.284  30.102  29.462  1.00  0.00     0.037 A 
ATOM     53  C   UNL A   1      43.715  23.707  28.812  1.00  0.00     0.049 A 
ATOM     54  C   UNL A   1      45.975  28.814  29.704  1.00  0.00     0.074 A 
ATOM     55  C   UNL A   1      43.319  23.038  29.948  1.00  0.00     0.029 A 
ATOM     56  N   UNL A   1      44.685  24.599  29.178  1.00  0.00    -0.354 N 
ATOM     57  N   UNL A   1      45.936  28.166  30.834  1.00  0.00    -0.248 NA
ATOM     58  C   UNL A   1      46.501  28.057  28.571  1.00  0.00     0.031 C 
ATOM     59  C   UNL A   1      43.989  23.664  31.039  1.00  0.00     0.029 A 
ATOM     60  C   UNL A   1      44.766  24.707  30.541  1.00  0.00     0.049 A 
ATOM     61  H   UNL A   1      45.252  25.097  28.545  1.00  0.00     0.167 HD
ATOM     62  C   UNL A   1      46.025  26.838  30.469  1.00  0.00     0.074 A 
ATOM     63  C   UNL A   1      46.557  26.840  29.117  1.00  0.00     0.031 C 
ATOM     64  C   UNL A   1      45.342  25.881  31.157  1.00  0.00     0.037 A 
BRANCH  51  65
ATOM     65  C   UNL A   1      44.062  23.538  26.281  1.00  0.00     0.064 A 
ATOM     66  C   UNL A   1      44.105  22.200  25.844  1.00  0.00     0.173 A 
ATOM     67  C   UNL A   1      45.071  24.382  25.764  1.00  0.00     0.173 A 
ATOM     68  F   UNL A   1      43.211  21.307  26.295  1.00  0.00    -0.203 F 
ATOM     69  C   UNL A   1      45.119  21.731  25.005  1.00  0.00     0.198 A 
ATOM     70  C   UNL A   1      46.044  23.924  24.880  1.00  0.00     0.198 A 
ATOM     71  F   UNL A   1      45.227  25.644  26.182  1.00  0.00    -0.203 F 
ATOM     72  F   UNL A   1      45.192  20.426  24.716  1.00  0.00    -0.200 F 
ATOM     73  C   UNL A   1      46.089  22.593  24.526  1.00  0.00     0.200 A 
ATOM     74  F   UNL A   1      46.990  24.770  24.445  1.00  0.00    -0.200 F 
ATOM     75  F   UNL A   1      47.094  22.134  23.769  1.00  0.00    -0.200 F 
ENDBRANCH  51  65
BRANCH  52  76
ATOM     76  C   UNL A   1      46.008  31.341  29.101  1.00  0.00     0.064 A 
ATOM     77  C   UNL A   1      46.918  31.941  29.986  1.00  0.00     0.173 A 
ATOM     78  C   UNL A   1      45.995  31.841  27.783  1.00  0.00     0.173 A 
ATOM     79  F   UNL A   1      47.028  31.495  31.245  1.00  0.00    -0.203 F 
ATOM     80  C   UNL A   1      47.771  32.969  29.574  1.00  0.00     0.198 A 
ATOM     81  C   UNL A   1      46.834  32.878  27.378  1.00  0.00     0.198 A 
ATOM     82  F   UNL A   1      45.228  31.275  26.839  1.00  0.00    -0.203 F 
ATOM     83  F   UNL A   1      48.668  33.475  30.431  1.00  0.00    -0.200 F 
ATOM     84  C   UNL A   1      47.732  33.434  28.269  1.00  0.00     0.200 A 
ATOM     85  F   UNL A   1      46.806  33.297  26.105  1.00  0.00    -0.200 F 
ATOM     86  F   UNL A   1      48.582  34.386  27.863  1.00  0.00    -0.200 F 
ENDBRANCH  52  76
BRANCH  64  87
ATOM     87  C   UNL A   1      44.995  26.184  32.578  1.00  0.00     0.064 A 
ATOM     88  C   UNL A   1      43.826  26.849  32.976  1.00  0.00     0.173 A 
ATOM     89  C   UNL A   1      45.862  25.733  33.582  1.00  0.00     0.173 A 
ATOM     90  F   UNL A   1      42.912  27.233  32.075  1.00  0.00    -0.203 F 
ATOM     91  C   UNL A   1      43.567  27.099  34.322  1.00  0.00     0.198 A 
ATOM     92  C   UNL A   1      45.582  25.950  34.927  1.00  0.00     0.198 A 
ATOM     93  F   UNL A   1      46.971  25.049  33.256  1.00  0.00    -0.203 F 
ATOM     94  F   UNL A   1      42.457  27.763  34.681  1.00  0.00    -0.200 F 
ATOM     95  C   UNL A   1      44.442  26.646  35.296  1.00  0.00     0.200 A 
ATOM     96  F   UNL A   1      46.411  25.472  35.865  1.00  0.00    -0.200 F 
ATOM     97  F   UNL A   1      44.180  26.862  36.592  1.00  0.00    -0.200 F 
ENDBRANCH  64  87
ENDBRANCH  38  39
ENDBRANCH  31  33
ENDBRANCH  30  31
ENDBRANCH  29  30
ENDBRANCH  28  29
ENDBRANCH  27  28
ENDBRANCH  26  27
ENDBRANCH   1  26
TORSDOF 20
ENDMDL
MODEL 3
REMARK VINA RESULT:     -10.8      1.675      3.068
REMARK SMILES Cc1nn(C)c(Cl)c1C[N@@H+]1CC[C@H](O)C[C@@H]1C(=O)OCCOCCOCCOC(=O)c1ccc(-c2c3nc(c(-c4c(F)c(F)c(F)c(F)c4F)c4ccc([nH]4)c(-c4c(F)c(F)c(F)c(F)c4F)c4nc(c(-c5c(F)c(F)c(F)c(F)c5F)c5ccc2[nH]5)C=C4)C=C3)cc1
REMARK SMILES IDX 23 1 22 2 21 3 20 4 19 5 17 6 18 7 16 8 10 9 11 10 12 12
REMARK SMILES IDX 15 13 13 14 9 15 8 16 1 17 2 18 3 19 4 20 6 21 5 22 7 23
REMARK SMILES IDX 14 24 24 26 25 27 26 28 27 29 28 30 29 31 30 32 31 33 32 34
REMARK SMILES IDX 93 35 33 36 92 37 34 38 35 39 36 40 86 41 37 42 91 43 85 44
REMARK SMILES IDX 87 45 38 46 90 47 84 48 83 49 39 51 71 52 51 53 70 54 52 55
REMARK SMILES IDX 55 56 69 57 88 58 53 59 54 60 68 62 89 63 56 64 40 65 41 66
REMARK SMILES IDX 49 67 42 68 43 69 47 70 50 71 44 72 45 73 48 74 46 75 72 76
REMARK SMILES IDX 73 77 81 78 74 79 75 80 79 81 82 82 76 83 77 84 80 85 78 86
REMARK SMILES IDX 57 87 58 88 66 89 59 90 60 91 64 92 67 93 61 94 62 95 65 96
REMARK SMILES IDX 63 97
REMARK H PARENT 10 11 14 25 87 50 55 61
REMARK Flexibility Score: inf
ROOT
ATOM      1  C   UNL A   1      37.812  23.001  25.455  1.00  0.00     0.188 C 
ENDROOT
BRANCH   1   2
ATOM      2  O   UNL A   1      36.875  22.280  24.663  1.00  0.00    -0.376 OA
BRANCH   2   3
ATOM      3  C   UNL A   1      36.396  22.954  23.502  1.00  0.00     0.202 C 
BRANCH   3   4
ATOM      4  C   UNL A   1      35.053  23.667  23.680  1.00  0.00     0.261 C 
BRANCH   4   5
ATOM      5  O   UNL A   1      34.482  24.140  22.430  1.00  0.00    -0.459 OA
BRANCH   5   6
ATOM      6  C   UNL A   1      33.687  25.233  22.481  1.00  0.00     0.365 C 
ATOM      7  O   UNL A   1      33.690  26.095  21.600  1.00  0.00    -0.245 OA
BRANCH   6   8
ATOM      8  C   UNL A   1      32.828  25.420  23.753  1.00  0.00     0.297 C 
ATOM      9  N   UNL A   1      31.362  25.376  23.696  1.00  0.00    -0.319 N 
ATOM     10  C   UNL A   1      30.598  26.582  23.445  1.00  0.00     0.265 C 
ATOM     11  H   UNL A   1      31.377  25.425  24.714  1.00  0.00     0.349 HD
ATOM     12  C   UNL A   1      31.120  27.833  24.146  1.00  0.00     0.093 C 
ATOM     13  C   UNL A   1      33.314  26.657  24.537  1.00  0.00     0.109 C 
ATOM     14  C   UNL A   1      32.633  27.959  24.140  1.00  0.00     0.126 C 
BRANCH   9  15
ATOM     15  C   UNL A   1      30.667  24.102  23.547  1.00  0.00     0.305 C 
BRANCH  15  16
ATOM     16  C   UNL A   1      31.355  22.970  24.222  1.00  0.00     0.066 A 
ATOM     17  C   UNL A   1      30.864  23.533  26.731  1.00  0.00     0.069 C 
ATOM     18  C   UNL A   1      31.448  22.729  25.626  1.00  0.00     0.070 A 
ATOM     19  N   UNL A   1      32.203  21.656  25.908  1.00  0.00    -0.177 NA
ATOM     20  N   UNL A   1      32.586  21.201  24.697  1.00  0.00    -0.256 N 
ATOM     21  C   UNL A   1      31.987  21.875  23.677  1.00  0.00     0.135 A 
ATOM     22  C   UNL A   1      33.578  20.156  24.641  1.00  0.00     0.175 C 
ATOM     23  Cl  UNL A   1      32.117  21.329  22.068  1.00  0.00    -0.062 Cl
ENDBRANCH  15  16
ENDBRANCH   9  15
BRANCH  14  24
ATOM     24  O   UNL A   1      33.087  28.394  22.866  1.00  0.00    -0.393 OA
ATOM     25  H   UNL A   1      34.053  28.483  22.881  1.00  0.00     0.210 HD
ENDBRANCH  14  24
ENDBRANCH   6   8
ENDBRANCH   5   6
ENDBRANCH   4   5
ENDBRANCH   3   4
ENDBRANCH   2   3
ENDBRANCH   1   2
BRANCH   1  26
ATOM     26  C   UNL A   1      38.922  22.179  26.120  1.00  0.00     0.188 C 
BRANCH  26  27
ATOM     27  O   UNL A   1      38.894  20.803  25.737  1.00  0.00    -0.376 OA
BRANCH  27  28
ATOM     28  C   UNL A   1      40.101  20.111  26.043  1.00  0.00     0.202 C 
BRANCH  28  29
ATOM     29  C   UNL A   1      40.990  21.037  26.854  1.00  0.00     0.261 C 
BRANCH  29  30
ATOM     30  O   UNL A   1      42.345  20.600  26.856  1.00  0.00    -0.460 OA
BRANCH  30  31
ATOM     31  C   UNL A   1      43.061  20.695  25.717  1.00  0.00     0.338 C 
ATOM     32  O   UNL A   1      43.264  19.824  24.897  1.00  0.00    -0.246 OA
BRANCH  31  33
ATOM     33  C   UNL A   1      43.665  22.044  25.728  1.00  0.00     0.060 A 
ATOM     34  C   UNL A   1      44.673  22.300  26.660  1.00  0.00     0.016 A 
ATOM     35  C   UNL A   1      43.038  23.082  25.019  1.00  0.00     0.016 A 
ATOM     36  C   UNL A   1      44.862  23.606  27.074  1.00  0.00     0.010 A 
ATOM     37  C   UNL A   1      43.192  24.370  25.459  1.00  0.00     0.010 A 
ATOM     38  C   UNL A   1      44.032  24.599  26.546  1.00  0.00    -0.014 A 
BRANCH  38  39
ATOM     39  C   UNL A   1      43.910  25.863  27.247  1.00  0.00     0.031 A 
ATOM     40  C   UNL A   1      44.940  26.872  26.948  1.00  0.00     0.074 A 
ATOM     41  C   UNL A   1      42.793  26.127  27.957  1.00  0.00     0.049 A 
ATOM     42  N   UNL A   1      45.734  27.457  27.781  1.00  0.00    -0.248 NA
ATOM     43  C   UNL A   1      45.169  27.234  25.540  1.00  0.00     0.031 C 
ATOM     44  C   UNL A   1      41.575  25.303  27.991  1.00  0.00     0.029 A 
ATOM     45  N   UNL A   1      42.449  27.227  28.691  1.00  0.00    -0.354 N 
ATOM     46  C   UNL A   1      46.421  28.402  27.029  1.00  0.00     0.074 A 
ATOM     47  C   UNL A   1      46.170  28.105  25.646  1.00  0.00     0.031 C 
ATOM     48  C   UNL A   1      40.571  26.019  28.539  1.00  0.00     0.029 A 
ATOM     49  C   UNL A   1      41.096  27.295  28.994  1.00  0.00     0.049 A 
ATOM     50  H   UNL A   1      43.100  27.908  28.977  1.00  0.00     0.167 HD
ATOM     51  C   UNL A   1      46.889  29.537  27.608  1.00  0.00     0.037 A 
ATOM     52  C   UNL A   1      40.425  28.340  29.533  1.00  0.00     0.037 A 
ATOM     53  C   UNL A   1      46.933  29.426  29.040  1.00  0.00     0.049 A 
ATOM     54  C   UNL A   1      41.401  29.233  30.199  1.00  0.00     0.074 A 
ATOM     55  C   UNL A   1      47.745  28.813  29.968  1.00  0.00     0.029 A 
ATOM     56  N   UNL A   1      45.776  29.779  29.677  1.00  0.00    -0.354 N 
ATOM     57  N   UNL A   1      42.068  28.914  31.272  1.00  0.00    -0.248 NA
ATOM     58  C   UNL A   1      41.879  30.423  29.499  1.00  0.00     0.031 C 
ATOM     59  C   UNL A   1      46.971  28.683  31.158  1.00  0.00     0.029 A 
ATOM     60  C   UNL A   1      45.703  29.208  30.920  1.00  0.00     0.049 A 
ATOM     61  H   UNL A   1      45.086  30.368  29.293  1.00  0.00     0.167 HD
ATOM     62  C   UNL A   1      43.267  29.588  31.141  1.00  0.00     0.074 A 
ATOM     63  C   UNL A   1      43.023  30.629  30.157  1.00  0.00     0.031 C 
ATOM     64  C   UNL A   1      44.429  29.029  31.578  1.00  0.00     0.037 A 
BRANCH  51  65
ATOM     65  C   UNL A   1      46.865  30.891  26.942  1.00  0.00     0.064 A 
ATOM     66  C   UNL A   1      48.033  31.678  26.968  1.00  0.00     0.173 A 
ATOM     67  C   UNL A   1      45.679  31.568  26.579  1.00  0.00     0.173 A 
ATOM     68  F   UNL A   1      49.209  31.141  27.327  1.00  0.00    -0.203 F 
ATOM     69  C   UNL A   1      48.001  33.051  26.713  1.00  0.00     0.198 A 
ATOM     70  C   UNL A   1      45.663  32.925  26.267  1.00  0.00     0.198 A 
ATOM     71  F   UNL A   1      44.479  30.979  26.627  1.00  0.00    -0.203 F 
ATOM     72  F   UNL A   1      49.112  33.783  26.872  1.00  0.00    -0.200 F 
ATOM     73  C   UNL A   1      46.816  33.674  26.366  1.00  0.00     0.200 A 
ATOM     74  F   UNL A   1      44.500  33.516  25.954  1.00  0.00    -0.200 F 
ATOM     75  F   UNL A   1      46.773  34.999  26.177  1.00  0.00    -0.200 F 
ENDBRANCH  51  65
BRANCH  52  76
ATOM     76  C   UNL A   1      38.997  28.696  29.372  1.00  0.00     0.064 A 
ATOM     77  C   UNL A   1      38.143  28.812  30.479  1.00  0.00     0.173 A 
ATOM     78  C   UNL A   1      38.490  29.154  28.140  1.00  0.00     0.173 A 
ATOM     79  F   UNL A   1      38.564  28.442  31.697  1.00  0.00    -0.203 F 
ATOM     80  C   UNL A   1      36.865  29.367  30.363  1.00  0.00     0.198 A 
ATOM     81  C   UNL A   1      37.209  29.691  28.022  1.00  0.00     0.198 A 
ATOM     82  F   UNL A   1      39.259  29.171  27.041  1.00  0.00    -0.203 F 
ATOM     83  F   UNL A   1      36.102  29.517  31.455  1.00  0.00    -0.200 F 
ATOM     84  C   UNL A   1      36.400  29.809  29.136  1.00  0.00     0.200 A 
ATOM     85  F   UNL A   1      36.784  30.143  26.834  1.00  0.00    -0.200 F 
ATOM     86  F   UNL A   1      35.194  30.384  29.034  1.00  0.00    -0.200 F 
ENDBRANCH  52  76
BRANCH  64  87
ATOM     87  C   UNL A   1      44.325  28.011  32.667  1.00  0.00     0.064 A 
ATOM     88  C   UNL A   1      44.220  28.328  34.030  1.00  0.00     0.173 A 
ATOM     89  C   UNL A   1      44.276  26.658  32.307  1.00  0.00     0.173 A 
ATOM     90  F   UNL A   1      44.176  29.603  34.438  1.00  0.00    -0.203 F 
ATOM     91  C   UNL A   1      44.127  27.325  34.993  1.00  0.00     0.198 A 
ATOM     92  C   UNL A   1      44.144  25.660  33.267  1.00  0.00     0.198 A 
ATOM     93  F   UNL A   1      44.323  26.305  31.012  1.00  0.00    -0.203 F 
ATOM     94  F   UNL A   1      44.058  27.647  36.294  1.00  0.00    -0.200 F 
ATOM     95  C   UNL A   1      44.085  25.994  34.611  1.00  0.00     0.200 A 
ATOM     96  F   UNL A   1      44.061  24.378  32.889  1.00  0.00    -0.200 F 
ATOM     97  F   UNL A   1      43.968  25.030  35.535  1.00  0.00    -0.200 F 
ENDBRANCH  64  87
ENDBRANCH  38  39
ENDBRANCH  31  33
ENDBRANCH  30  31
ENDBRANCH  29  30
ENDBRANCH  28  29
ENDBRANCH  27  28
ENDBRANCH  26  27
ENDBRANCH   1  26
TORSDOF 20
ENDMDL
