MODEL 1
REMARK VINA RESULT:     -10.4      0.000      0.000
REMARK SMILES COC[C@H](C)n1c(SCC(=O)OCCOCCOCCOC(=O)c2ccc(-c3c4nc(c(-c5c(F)c(F)c(F)c(F)c5F)c5ccc([nH]5)c(-c5c(F)c(F)c(F)c(F)c5F)c5nc(c(-c6c(F)c(F)c(F)c(F)c6F)c6ccc3[nH]6)C=C5)C=C4)cc2)nc2cc(C)cnc21
REMARK SMILES IDX 15 1 14 2 13 3 12 4 10 5 11 6 9 7 8 8 7 9 6 10 94 11 87 12
REMARK SMILES IDX 88 13 93 14 89 15 92 16 90 17 91 18 4 19 5 20 3 21 2 22 1 23
REMARK SMILES IDX 16 24 17 25 18 26 19 27 20 28 21 29 22 30 23 31 24 32 25 33
REMARK SMILES IDX 86 34 26 35 85 36 27 37 28 38 29 39 79 40 30 41 84 42 78 43
REMARK SMILES IDX 80 44 31 45 83 46 77 47 76 48 32 50 64 51 44 52 63 53 45 54
REMARK SMILES IDX 48 55 62 56 81 57 46 58 47 59 61 61 82 62 49 63 33 64 34 65
REMARK SMILES IDX 42 66 35 67 36 68 40 69 43 70 37 71 38 72 41 73 39 74 65 75
REMARK SMILES IDX 66 76 74 77 67 78 68 79 72 80 75 81 69 82 70 83 73 84 71 85
REMARK SMILES IDX 50 86 51 87 59 88 52 89 53 90 57 91 60 92 54 93 55 94 58 95
REMARK SMILES IDX 56 96
REMARK H PARENT 80 49 48 60
REMARK Flexibility Score: inf
ROOT
ATOM      1  O   UNL A   1      32.979  30.757  27.044  1.00  0.00    -0.376 OA
ENDROOT
BRANCH   1   2
ATOM      2  C   UNL A   1      33.590  29.472  26.986  1.00  0.00     0.202 C 
BRANCH   2   3
ATOM      3  C   UNL A   1      33.921  28.953  25.587  1.00  0.00     0.261 C 
BRANCH   3   4
ATOM      4  O   UNL A   1      32.755  28.873  24.737  1.00  0.00    -0.463 OA
BRANCH   4   5
ATOM      5  C   UNL A   1      32.967  28.568  23.432  1.00  0.00     0.316 C 
ATOM      6  O   UNL A   1      34.014  28.809  22.836  1.00  0.00    -0.251 OA
BRANCH   5   7
ATOM      7  C   UNL A   1      31.790  27.957  22.696  1.00  0.00     0.200 C 
BRANCH   7   8
ATOM      8  S   UNL A   1      31.844  26.220  22.325  1.00  0.00    -0.076 SA
BRANCH   8   9
ATOM      9  C   UNL A   1      32.971  25.311  23.287  1.00  0.00     0.171 A 
ATOM     10  N   UNL A   1      32.970  24.903  24.615  1.00  0.00    -0.298 N 
ATOM     11  C   UNL A   1      34.185  24.259  24.823  1.00  0.00     0.161 A 
ATOM     12  N   UNL A   1      34.030  24.848  22.651  1.00  0.00    -0.221 NA
ATOM     13  C   UNL A   1      34.741  24.131  23.560  1.00  0.00     0.109 A 
ATOM     14  N   UNL A   1      34.684  23.747  25.969  1.00  0.00    -0.236 NA
ATOM     15  C   UNL A   1      35.854  23.298  23.393  1.00  0.00     0.037 A 
ATOM     16  C   UNL A   1      35.772  22.948  25.754  1.00  0.00     0.117 A 
ATOM     17  C   UNL A   1      36.335  22.626  24.519  1.00  0.00    -0.030 A 
ATOM     18  C   UNL A   1      37.400  21.579  24.393  1.00  0.00     0.046 C 
BRANCH  10  19
ATOM     19  C   UNL A   1      31.862  24.885  25.567  1.00  0.00     0.114 C 
ATOM     20  C   UNL A   1      31.400  26.260  26.077  1.00  0.00     0.034 C 
BRANCH  19  21
ATOM     21  C   UNL A   1      30.651  24.076  25.077  1.00  0.00     0.185 C 
BRANCH  21  22
ATOM     22  O   UNL A   1      30.987  22.734  24.696  1.00  0.00    -0.383 OA
ATOM     23  C   UNL A   1      31.467  21.909  25.752  1.00  0.00     0.194 C 
ENDBRANCH  21  22
ENDBRANCH  19  21
ENDBRANCH  10  19
ENDBRANCH   8   9
ENDBRANCH   7   8
ENDBRANCH   5   7
ENDBRANCH   4   5
ENDBRANCH   3   4
ENDBRANCH   2   3
ENDBRANCH   1   2
BRANCH   1  24
ATOM     24  C   UNL A   1      33.687  31.808  27.679  1.00  0.00     0.188 C 
BRANCH  24  25
ATOM     25  C   UNL A   1      35.190  31.640  27.943  1.00  0.00     0.188 C 
BRANCH  25  26
ATOM     26  O   UNL A   1      36.035  32.752  28.177  1.00  0.00    -0.376 OA
BRANCH  26  27
ATOM     27  C   UNL A   1      36.263  33.215  29.495  1.00  0.00     0.202 C 
BRANCH  27  28
ATOM     28  C   UNL A   1      36.250  32.175  30.599  1.00  0.00     0.261 C 
BRANCH  28  29
ATOM     29  O   UNL A   1      37.485  31.469  30.693  1.00  0.00    -0.460 OA
BRANCH  29  30
ATOM     30  C   UNL A   1      37.349  30.168  30.398  1.00  0.00     0.338 C 
ATOM     31  O   UNL A   1      36.643  29.337  30.970  1.00  0.00    -0.246 OA
BRANCH  30  32
ATOM     32  C   UNL A   1      38.267  29.776  29.337  1.00  0.00     0.060 A 
ATOM     33  C   UNL A   1      38.153  28.452  28.922  1.00  0.00     0.016 A 
ATOM     34  C   UNL A   1      39.433  30.515  29.142  1.00  0.00     0.016 A 
ATOM     35  C   UNL A   1      39.276  27.765  28.551  1.00  0.00     0.010 A 
ATOM     36  C   UNL A   1      40.573  29.826  28.775  1.00  0.00     0.010 A 
ATOM     37  C   UNL A   1      40.492  28.434  28.636  1.00  0.00    -0.014 A 
BRANCH  37  38
ATOM     38  C   UNL A   1      41.657  27.574  28.783  1.00  0.00     0.031 A 
ATOM     39  C   UNL A   1      42.350  27.628  30.098  1.00  0.00     0.074 A 
ATOM     40  C   UNL A   1      42.021  26.799  27.741  1.00  0.00     0.049 A 
ATOM     41  N   UNL A   1      43.620  27.593  30.355  1.00  0.00    -0.248 NA
ATOM     42  C   UNL A   1      41.497  27.826  31.284  1.00  0.00     0.031 C 
ATOM     43  C   UNL A   1      41.303  26.609  26.472  1.00  0.00     0.029 A 
ATOM     44  N   UNL A   1      43.029  25.888  27.655  1.00  0.00    -0.354 N 
ATOM     45  C   UNL A   1      43.716  27.611  31.744  1.00  0.00     0.074 A 
ATOM     46  C   UNL A   1      42.397  27.866  32.261  1.00  0.00     0.031 C 
ATOM     47  C   UNL A   1      41.709  25.455  25.908  1.00  0.00     0.029 A 
ATOM     48  C   UNL A   1      42.765  24.891  26.729  1.00  0.00     0.049 A 
ATOM     49  H   UNL A   1      43.853  25.933  28.192  1.00  0.00     0.167 HD
ATOM     50  C   UNL A   1      44.825  27.211  32.417  1.00  0.00     0.037 A 
ATOM     51  C   UNL A   1      43.249  23.626  26.758  1.00  0.00     0.037 A 
ATOM     52  C   UNL A   1      46.027  27.355  31.656  1.00  0.00     0.049 A 
ATOM     53  C   UNL A   1      44.442  23.621  27.640  1.00  0.00     0.074 A 
ATOM     54  C   UNL A   1      46.705  28.441  31.134  1.00  0.00     0.029 A 
ATOM     55  N   UNL A   1      46.591  26.251  31.071  1.00  0.00    -0.354 N 
ATOM     56  N   UNL A   1      45.574  24.205  27.358  1.00  0.00    -0.248 NA
ATOM     57  C   UNL A   1      44.238  23.305  29.048  1.00  0.00     0.031 C 
ATOM     58  C   UNL A   1      47.315  27.967  29.939  1.00  0.00     0.029 A 
ATOM     59  C   UNL A   1      46.970  26.623  29.805  1.00  0.00     0.049 A 
ATOM     60  H   UNL A   1      46.704  25.363  31.481  1.00  0.00     0.167 HD
ATOM     61  C   UNL A   1      46.046  24.677  28.575  1.00  0.00     0.074 A 
ATOM     62  C   UNL A   1      45.235  24.009  29.588  1.00  0.00     0.031 C 
ATOM     63  C   UNL A   1      46.856  25.772  28.646  1.00  0.00     0.037 A 
BRANCH  50  64
ATOM     64  C   UNL A   1      44.727  26.448  33.702  1.00  0.00     0.064 A 
ATOM     65  C   UNL A   1      44.319  25.105  33.718  1.00  0.00     0.173 A 
ATOM     66  C   UNL A   1      44.808  27.085  34.963  1.00  0.00     0.173 A 
ATOM     67  F   UNL A   1      44.148  24.432  32.571  1.00  0.00    -0.203 F 
ATOM     68  C   UNL A   1      44.017  24.449  34.914  1.00  0.00     0.198 A 
ATOM     69  C   UNL A   1      44.563  26.413  36.155  1.00  0.00     0.198 A 
ATOM     70  F   UNL A   1      45.035  28.403  35.070  1.00  0.00    -0.203 F 
ATOM     71  F   UNL A   1      43.549  23.193  34.885  1.00  0.00    -0.200 F 
ATOM     72  C   UNL A   1      44.150  25.099  36.131  1.00  0.00     0.200 A 
ATOM     73  F   UNL A   1      44.673  27.070  37.317  1.00  0.00    -0.200 F 
ATOM     74  F   UNL A   1      43.833  24.478  37.275  1.00  0.00    -0.200 F 
ENDBRANCH  50  64
BRANCH  51  75
ATOM     75  C   UNL A   1      42.508  22.398  26.376  1.00  0.00     0.064 A 
ATOM     76  C   UNL A   1      43.178  21.289  25.842  1.00  0.00     0.173 A 
ATOM     77  C   UNL A   1      41.154  22.198  26.724  1.00  0.00     0.173 A 
ATOM     78  F   UNL A   1      44.483  21.370  25.548  1.00  0.00    -0.203 F 
ATOM     79  C   UNL A   1      42.532  20.061  25.656  1.00  0.00     0.198 A 
ATOM     80  C   UNL A   1      40.504  20.983  26.513  1.00  0.00     0.198 A 
ATOM     81  F   UNL A   1      40.450  23.145  27.360  1.00  0.00    -0.203 F 
ATOM     82  F   UNL A   1      43.220  19.008  25.193  1.00  0.00    -0.200 F 
ATOM     83  C   UNL A   1      41.195  19.911  25.987  1.00  0.00     0.200 A 
ATOM     84  F   UNL A   1      39.220  20.846  26.874  1.00  0.00    -0.200 F 
ATOM     85  F   UNL A   1      40.585  18.726  25.840  1.00  0.00    -0.200 F 
ENDBRANCH  51  75
BRANCH  63  86
ATOM     86  C   UNL A   1      47.412  26.311  27.360  1.00  0.00     0.064 A 
ATOM     87  C   UNL A   1      48.607  25.838  26.792  1.00  0.00     0.173 A 
ATOM     88  C   UNL A   1      46.635  27.191  26.595  1.00  0.00     0.173 A 
ATOM     89  F   UNL A   1      49.342  24.907  27.414  1.00  0.00    -0.203 F 
ATOM     90  C   UNL A   1      49.028  26.262  25.534  1.00  0.00     0.198 A 
ATOM     91  C   UNL A   1      47.041  27.587  25.324  1.00  0.00     0.198 A 
ATOM     92  F   UNL A   1      45.450  27.618  27.059  1.00  0.00    -0.203 F 
ATOM     93  F   UNL A   1      50.173  25.795  25.015  1.00  0.00    -0.200 F 
ATOM     94  C   UNL A   1      48.240  27.131  24.798  1.00  0.00     0.200 A 
ATOM     95  F   UNL A   1      46.251  28.384  24.590  1.00  0.00    -0.200 F 
ATOM     96  F   UNL A   1      48.619  27.502  23.566  1.00  0.00    -0.200 F 
ENDBRANCH  63  86
ENDBRANCH  37  38
ENDBRANCH  30  32
ENDBRANCH  29  30
ENDBRANCH  28  29
ENDBRANCH  27  28
ENDBRANCH  26  27
ENDBRANCH  25  26
ENDBRANCH  24  25
ENDBRANCH   1  24
TORSDOF 22
ENDMDL
MODEL 2
REMARK VINA RESULT:     -10.3      4.659      9.217
REMARK SMILES COC[C@H](C)n1c(SCC(=O)OCCOCCOCCOC(=O)c2ccc(-c3c4nc(c(-c5c(F)c(F)c(F)c(F)c5F)c5ccc([nH]5)c(-c5c(F)c(F)c(F)c(F)c5F)c5nc(c(-c6c(F)c(F)c(F)c(F)c6F)c6ccc3[nH]6)C=C5)C=C4)cc2)nc2cc(C)cnc21
REMARK SMILES IDX 15 1 14 2 13 3 12 4 10 5 11 6 9 7 8 8 7 9 6 10 94 11 87 12
REMARK SMILES IDX 88 13 93 14 89 15 92 16 90 17 91 18 4 19 5 20 3 21 2 22 1 23
REMARK SMILES IDX 16 24 17 25 18 26 19 27 20 28 21 29 22 30 23 31 24 32 25 33
REMARK SMILES IDX 86 34 26 35 85 36 27 37 28 38 29 39 79 40 30 41 84 42 78 43
REMARK SMILES IDX 80 44 31 45 83 46 77 47 76 48 32 50 64 51 44 52 63 53 45 54
REMARK SMILES IDX 48 55 62 56 81 57 46 58 47 59 61 61 82 62 49 63 33 64 34 65
REMARK SMILES IDX 42 66 35 67 36 68 40 69 43 70 37 71 38 72 41 73 39 74 65 75
REMARK SMILES IDX 66 76 74 77 67 78 68 79 72 80 75 81 69 82 70 83 73 84 71 85
REMARK SMILES IDX 50 86 51 87 59 88 52 89 53 90 57 91 60 92 54 93 55 94 58 95
REMARK SMILES IDX 56 96
REMARK H PARENT 80 49 48 60
REMARK Flexibility Score: inf
ROOT
ATOM      1  O   UNL A   1      35.416  22.155  26.467  1.00  0.00    -0.376 OA
ENDROOT
BRANCH   1   2
ATOM      2  C   UNL A   1      34.037  22.476  26.316  1.00  0.00     0.202 C 
BRANCH   2   3
ATOM      3  C   UNL A   1      33.554  22.694  24.883  1.00  0.00     0.261 C 
BRANCH   3   4
ATOM      4  O   UNL A   1      32.923  23.982  24.701  1.00  0.00    -0.463 OA
BRANCH   4   5
ATOM      5  C   UNL A   1      31.916  24.050  23.795  1.00  0.00     0.316 C 
ATOM      6  O   UNL A   1      30.731  23.897  24.080  1.00  0.00    -0.251 OA
BRANCH   5   7
ATOM      7  C   UNL A   1      32.337  24.263  22.354  1.00  0.00     0.200 C 
BRANCH   7   8
ATOM      8  S   UNL A   1      33.094  25.812  21.923  1.00  0.00    -0.076 SA
BRANCH   8   9
ATOM      9  C   UNL A   1      32.763  27.111  23.029  1.00  0.00     0.171 A 
ATOM     10  N   UNL A   1      31.610  27.823  23.336  1.00  0.00    -0.298 N 
ATOM     11  C   UNL A   1      31.988  28.792  24.259  1.00  0.00     0.161 A 
ATOM     12  N   UNL A   1      33.770  27.490  23.792  1.00  0.00    -0.221 NA
ATOM     13  C   UNL A   1      33.289  28.463  24.609  1.00  0.00     0.109 A 
ATOM     14  N   UNL A   1      31.239  29.773  24.808  1.00  0.00    -0.236 NA
ATOM     15  C   UNL A   1      33.874  29.098  25.711  1.00  0.00     0.037 A 
ATOM     16  C   UNL A   1      31.856  30.366  25.875  1.00  0.00     0.117 A 
ATOM     17  C   UNL A   1      33.098  30.025  26.412  1.00  0.00    -0.030 A 
ATOM     18  C   UNL A   1      33.579  30.610  27.705  1.00  0.00     0.046 C 
BRANCH  10  19
ATOM     19  C   UNL A   1      30.223  27.508  23.006  1.00  0.00     0.114 C 
ATOM     20  C   UNL A   1      29.391  26.891  24.143  1.00  0.00     0.034 C 
BRANCH  19  21
ATOM     21  C   UNL A   1      29.461  28.688  22.384  1.00  0.00     0.185 C 
BRANCH  21  22
ATOM     22  O   UNL A   1      28.210  28.955  23.034  1.00  0.00    -0.383 OA
ATOM     23  C   UNL A   1      27.872  30.333  23.150  1.00  0.00     0.194 C 
ENDBRANCH  21  22
ENDBRANCH  19  21
ENDBRANCH  10  19
ENDBRANCH   8   9
ENDBRANCH   7   8
ENDBRANCH   5   7
ENDBRANCH   4   5
ENDBRANCH   3   4
ENDBRANCH   2   3
ENDBRANCH   1   2
BRANCH   1  24
ATOM     24  C   UNL A   1      36.264  22.298  25.341  1.00  0.00     0.188 C 
BRANCH  24  25
ATOM     25  C   UNL A   1      37.759  22.570  25.563  1.00  0.00     0.188 C 
BRANCH  25  26
ATOM     26  O   UNL A   1      38.718  21.530  25.538  1.00  0.00    -0.376 OA
BRANCH  26  27
ATOM     27  C   UNL A   1      39.750  21.482  26.506  1.00  0.00     0.202 C 
BRANCH  27  28
ATOM     28  C   UNL A   1      40.910  22.441  26.320  1.00  0.00     0.261 C 
BRANCH  28  29
ATOM     29  O   UNL A   1      40.881  23.516  27.256  1.00  0.00    -0.460 OA
BRANCH  29  30
ATOM     30  C   UNL A   1      41.304  24.669  26.719  1.00  0.00     0.338 C 
ATOM     31  O   UNL A   1      42.370  24.882  26.142  1.00  0.00    -0.246 OA
BRANCH  30  32
ATOM     32  C   UNL A   1      40.370  25.750  27.002  1.00  0.00     0.060 A 
ATOM     33  C   UNL A   1      40.747  26.996  26.509  1.00  0.00     0.016 A 
ATOM     34  C   UNL A   1      39.477  25.613  28.065  1.00  0.00     0.016 A 
ATOM     35  C   UNL A   1      40.455  28.120  27.232  1.00  0.00     0.010 A 
ATOM     36  C   UNL A   1      39.184  26.744  28.803  1.00  0.00     0.010 A 
ATOM     37  C   UNL A   1      39.808  27.948  28.450  1.00  0.00    -0.014 A 
BRANCH  37  38
ATOM     38  C   UNL A   1      40.007  29.025  29.409  1.00  0.00     0.031 A 
ATOM     39  C   UNL A   1      38.979  30.100  29.410  1.00  0.00     0.074 A 
ATOM     40  C   UNL A   1      41.086  28.977  30.217  1.00  0.00     0.049 A 
ATOM     41  N   UNL A   1      39.133  31.378  29.555  1.00  0.00    -0.248 NA
ATOM     42  C   UNL A   1      37.592  29.684  29.133  1.00  0.00     0.031 C 
ATOM     43  C   UNL A   1      42.059  27.882  30.348  1.00  0.00     0.029 A 
ATOM     44  N   UNL A   1      41.455  29.828  31.213  1.00  0.00    -0.354 N 
ATOM     45  C   UNL A   1      37.846  31.909  29.540  1.00  0.00     0.074 A 
ATOM     46  C   UNL A   1      36.949  30.846  29.168  1.00  0.00     0.031 C 
ATOM     47  C   UNL A   1      42.685  27.993  31.536  1.00  0.00     0.029 A 
ATOM     48  C   UNL A   1      42.220  29.205  32.187  1.00  0.00     0.049 A 
ATOM     49  H   UNL A   1      41.206  30.780  31.239  1.00  0.00     0.167 HD
ATOM     50  C   UNL A   1      37.543  33.137  30.033  1.00  0.00     0.037 A 
ATOM     51  C   UNL A   1      42.304  29.567  33.489  1.00  0.00     0.037 A 
ATOM     52  C   UNL A   1      38.647  34.045  29.998  1.00  0.00     0.049 A 
ATOM     53  C   UNL A   1      41.841  30.973  33.596  1.00  0.00     0.074 A 
ATOM     54  C   UNL A   1      39.389  34.610  28.979  1.00  0.00     0.029 A 
ATOM     55  N   UNL A   1      39.343  34.303  31.150  1.00  0.00    -0.354 N 
ATOM     56  N   UNL A   1      42.483  32.002  33.114  1.00  0.00    -0.248 NA
ATOM     57  C   UNL A   1      40.432  31.198  33.887  1.00  0.00     0.031 C 
ATOM     58  C   UNL A   1      40.700  34.771  29.509  1.00  0.00     0.029 A 
ATOM     59  C   UNL A   1      40.675  34.292  30.818  1.00  0.00     0.049 A 
ATOM     60  H   UNL A   1      38.962  34.466  32.043  1.00  0.00     0.167 HD
ATOM     61  C   UNL A   1      41.491  32.871  32.681  1.00  0.00     0.074 A 
ATOM     62  C   UNL A   1      40.255  32.369  33.270  1.00  0.00     0.031 C 
ATOM     63  C   UNL A   1      41.712  33.749  31.660  1.00  0.00     0.037 A 
BRANCH  50  64
ATOM     64  C   UNL A   1      36.268  33.387  30.780  1.00  0.00     0.064 A 
ATOM     65  C   UNL A   1      35.228  34.138  30.208  1.00  0.00     0.173 A 
ATOM     66  C   UNL A   1      36.133  33.093  32.156  1.00  0.00     0.173 A 
ATOM     67  F   UNL A   1      35.294  34.524  28.926  1.00  0.00    -0.203 F 
ATOM     68  C   UNL A   1      34.132  34.558  30.964  1.00  0.00     0.198 A 
ATOM     69  C   UNL A   1      35.014  33.463  32.892  1.00  0.00     0.198 A 
ATOM     70  F   UNL A   1      37.127  32.519  32.852  1.00  0.00    -0.203 F 
ATOM     71  F   UNL A   1      33.201  35.344  30.406  1.00  0.00    -0.200 F 
ATOM     72  C   UNL A   1      34.020  34.212  32.302  1.00  0.00     0.200 A 
ATOM     73  F   UNL A   1      34.940  33.139  34.190  1.00  0.00    -0.200 F 
ATOM     74  F   UNL A   1      32.982  34.640  33.032  1.00  0.00    -0.200 F 
ENDBRANCH  50  64
BRANCH  51  75
ATOM     75  C   UNL A   1      42.395  28.645  34.649  1.00  0.00     0.064 A 
ATOM     76  C   UNL A   1      41.582  27.507  34.729  1.00  0.00     0.173 A 
ATOM     77  C   UNL A   1      43.429  28.739  35.606  1.00  0.00     0.173 A 
ATOM     78  F   UNL A   1      40.619  27.302  33.819  1.00  0.00    -0.203 F 
ATOM     79  C   UNL A   1      41.782  26.530  35.712  1.00  0.00     0.198 A 
ATOM     80  C   UNL A   1      43.611  27.779  36.600  1.00  0.00     0.198 A 
ATOM     81  F   UNL A   1      44.345  29.716  35.548  1.00  0.00    -0.203 F 
ATOM     82  F   UNL A   1      41.019  25.428  35.723  1.00  0.00    -0.200 F 
ATOM     83  C   UNL A   1      42.793  26.669  36.649  1.00  0.00     0.200 A 
ATOM     84  F   UNL A   1      44.618  27.914  37.476  1.00  0.00    -0.200 F 
ATOM     85  F   UNL A   1      43.007  25.718  37.568  1.00  0.00    -0.200 F 
ENDBRANCH  51  75
BRANCH  63  86
ATOM     86  C   UNL A   1      43.125  33.913  31.178  1.00  0.00     0.064 A 
ATOM     87  C   UNL A   1      43.685  33.104  30.175  1.00  0.00     0.173 A 
ATOM     88  C   UNL A   1      43.867  35.022  31.605  1.00  0.00     0.173 A 
ATOM     89  F   UNL A   1      42.986  32.097  29.636  1.00  0.00    -0.203 F 
ATOM     90  C   UNL A   1      44.951  33.365  29.657  1.00  0.00     0.198 A 
ATOM     91  C   UNL A   1      45.118  35.301  31.062  1.00  0.00     0.198 A 
ATOM     92  F   UNL A   1      43.351  35.869  32.509  1.00  0.00    -0.203 F 
ATOM     93  F   UNL A   1      45.462  32.576  28.700  1.00  0.00    -0.200 F 
ATOM     94  C   UNL A   1      45.664  34.469  30.096  1.00  0.00     0.200 A 
ATOM     95  F   UNL A   1      45.783  36.400  31.446  1.00  0.00    -0.200 F 
ATOM     96  F   UNL A   1      46.861  34.750  29.562  1.00  0.00    -0.200 F 
ENDBRANCH  63  86
ENDBRANCH  37  38
ENDBRANCH  30  32
ENDBRANCH  29  30
ENDBRANCH  28  29
ENDBRANCH  27  28
ENDBRANCH  26  27
ENDBRANCH  25  26
ENDBRANCH  24  25
ENDBRANCH   1  24
TORSDOF 22
ENDMDL
MODEL 3
REMARK VINA RESULT:     -10.2      4.579      9.264
REMARK SMILES COC[C@H](C)n1c(SCC(=O)OCCOCCOCCOC(=O)c2ccc(-c3c4nc(c(-c5c(F)c(F)c(F)c(F)c5F)c5ccc([nH]5)c(-c5c(F)c(F)c(F)c(F)c5F)c5nc(c(-c6c(F)c(F)c(F)c(F)c6F)c6ccc3[nH]6)C=C5)C=C4)cc2)nc2cc(C)cnc21
REMARK SMILES IDX 15 1 14 2 13 3 12 4 10 5 11 6 9 7 8 8 7 9 6 10 94 11 87 12
REMARK SMILES IDX 88 13 93 14 89 15 92 16 90 17 91 18 4 19 5 20 3 21 2 22 1 23
REMARK SMILES IDX 16 24 17 25 18 26 19 27 20 28 21 29 22 30 23 31 24 32 25 33
REMARK SMILES IDX 86 34 26 35 85 36 27 37 28 38 29 39 79 40 30 41 84 42 78 43
REMARK SMILES IDX 80 44 31 45 83 46 77 47 76 48 32 50 64 51 44 52 63 53 45 54
REMARK SMILES IDX 48 55 62 56 81 57 46 58 47 59 61 61 82 62 49 63 33 64 34 65
REMARK SMILES IDX 42 66 35 67 36 68 40 69 43 70 37 71 38 72 41 73 39 74 65 75
REMARK SMILES IDX 66 76 74 77 67 78 68 79 72 80 75 81 69 82 70 83 73 84 71 85
REMARK SMILES IDX 50 86 51 87 59 88 52 89 53 90 57 91 60 92 54 93 55 94 58 95
REMARK SMILES IDX 56 96
REMARK H PARENT 80 49 48 60
REMARK Flexibility Score: inf
ROOT
ATOM      1  O   UNL A   1      35.839  21.507  26.300  1.00  0.00    -0.376 OA
ENDROOT
BRANCH   1   2
ATOM      2  C   UNL A   1      34.460  21.584  25.955  1.00  0.00     0.202 C 
BRANCH   2   3
ATOM      3  C   UNL A   1      34.065  20.931  24.631  1.00  0.00     0.261 C 
BRANCH   3   4
ATOM      4  O   UNL A   1      33.980  21.885  23.548  1.00  0.00    -0.463 OA
BRANCH   4   5
ATOM      5  C   UNL A   1      32.764  22.049  22.969  1.00  0.00     0.316 C 
ATOM      6  O   UNL A   1      32.113  21.131  22.476  1.00  0.00    -0.251 OA
BRANCH   5   7
ATOM      7  C   UNL A   1      32.255  23.476  22.893  1.00  0.00     0.200 C 
BRANCH   7   8
ATOM      8  S   UNL A   1      31.561  24.197  24.362  1.00  0.00    -0.076 SA
BRANCH   8   9
ATOM      9  C   UNL A   1      31.067  25.854  24.189  1.00  0.00     0.171 A 
ATOM     10  N   UNL A   1      31.739  27.063  24.330  1.00  0.00    -0.298 N 
ATOM     11  C   UNL A   1      30.789  28.059  24.128  1.00  0.00     0.161 A 
ATOM     12  N   UNL A   1      29.825  26.047  23.788  1.00  0.00    -0.221 NA
ATOM     13  C   UNL A   1      29.665  27.391  23.666  1.00  0.00     0.109 A 
ATOM     14  N   UNL A   1      30.935  29.397  24.227  1.00  0.00    -0.236 NA
ATOM     15  C   UNL A   1      28.609  28.136  23.128  1.00  0.00     0.037 A 
ATOM     16  C   UNL A   1      29.876  30.079  23.695  1.00  0.00     0.117 A 
ATOM     17  C   UNL A   1      28.758  29.524  23.073  1.00  0.00    -0.030 A 
ATOM     18  C   UNL A   1      27.761  30.376  22.347  1.00  0.00     0.046 C 
BRANCH  10  19
ATOM     19  C   UNL A   1      33.176  27.309  24.408  1.00  0.00     0.114 C 
ATOM     20  C   UNL A   1      33.735  28.314  23.387  1.00  0.00     0.034 C 
BRANCH  19  21
ATOM     21  C   UNL A   1      33.655  27.680  25.820  1.00  0.00     0.185 C 
BRANCH  21  22
ATOM     22  O   UNL A   1      34.067  29.050  25.932  1.00  0.00    -0.383 OA
ATOM     23  C   UNL A   1      33.944  29.613  27.234  1.00  0.00     0.194 C 
ENDBRANCH  21  22
ENDBRANCH  19  21
ENDBRANCH  10  19
ENDBRANCH   8   9
ENDBRANCH   7   8
ENDBRANCH   5   7
ENDBRANCH   4   5
ENDBRANCH   3   4
ENDBRANCH   2   3
ENDBRANCH   1   2
BRANCH   1  24
ATOM     24  C   UNL A   1      36.755  21.075  25.309  1.00  0.00     0.188 C 
BRANCH  24  25
ATOM     25  C   UNL A   1      38.206  21.573  25.366  1.00  0.00     0.188 C 
BRANCH  25  26
ATOM     26  O   UNL A   1      39.283  20.701  25.653  1.00  0.00    -0.376 OA
BRANCH  26  27
ATOM     27  C   UNL A   1      40.255  21.057  26.619  1.00  0.00     0.202 C 
BRANCH  27  28
ATOM     28  C   UNL A   1      41.096  22.285  26.326  1.00  0.00     0.261 C 
BRANCH  28  29
ATOM     29  O   UNL A   1      40.523  23.475  26.862  1.00  0.00    -0.460 OA
BRANCH  29  30
ATOM     30  C   UNL A   1      41.176  24.576  26.463  1.00  0.00     0.338 C 
ATOM     31  O   UNL A   1      42.337  24.658  26.065  1.00  0.00    -0.246 OA
BRANCH  30  32
ATOM     32  C   UNL A   1      40.364  25.768  26.670  1.00  0.00     0.060 A 
ATOM     33  C   UNL A   1      40.959  26.961  26.271  1.00  0.00     0.016 A 
ATOM     34  C   UNL A   1      39.336  25.732  27.613  1.00  0.00     0.016 A 
ATOM     35  C   UNL A   1      40.729  28.100  26.993  1.00  0.00     0.010 A 
ATOM     36  C   UNL A   1      39.104  26.877  28.349  1.00  0.00     0.010 A 
ATOM     37  C   UNL A   1      39.919  27.993  28.117  1.00  0.00    -0.014 A 
BRANCH  37  38
ATOM     38  C   UNL A   1      40.137  29.015  29.131  1.00  0.00     0.031 A 
ATOM     39  C   UNL A   1      39.116  30.095  29.203  1.00  0.00     0.074 A 
ATOM     40  C   UNL A   1      41.224  28.916  29.923  1.00  0.00     0.049 A 
ATOM     41  N   UNL A   1      39.281  31.362  29.415  1.00  0.00    -0.248 NA
ATOM     42  C   UNL A   1      37.723  29.703  28.920  1.00  0.00     0.031 C 
ATOM     43  C   UNL A   1      42.190  27.808  29.983  1.00  0.00     0.029 A 
ATOM     44  N   UNL A   1      41.611  29.708  30.959  1.00  0.00    -0.354 N 
ATOM     45  C   UNL A   1      37.998  31.902  29.444  1.00  0.00     0.074 A 
ATOM     46  C   UNL A   1      37.089  30.866  29.025  1.00  0.00     0.031 C 
ATOM     47  C   UNL A   1      42.830  27.851  31.168  1.00  0.00     0.029 A 
ATOM     48  C   UNL A   1      42.382  29.028  31.889  1.00  0.00     0.049 A 
ATOM     49  H   UNL A   1      41.369  30.660  31.040  1.00  0.00     0.167 HD
ATOM     50  C   UNL A   1      37.709  33.103  30.007  1.00  0.00     0.037 A 
ATOM     51  C   UNL A   1      42.484  29.318  33.208  1.00  0.00     0.037 A 
ATOM     52  C   UNL A   1      38.819  34.004  30.008  1.00  0.00     0.049 A 
ATOM     53  C   UNL A   1      42.032  30.719  33.396  1.00  0.00     0.074 A 
ATOM     54  C   UNL A   1      39.554  34.619  29.013  1.00  0.00     0.029 A 
ATOM     55  N   UNL A   1      39.531  34.194  31.164  1.00  0.00    -0.354 N 
ATOM     56  N   UNL A   1      42.676  31.769  32.964  1.00  0.00    -0.248 NA
ATOM     57  C   UNL A   1      40.627  30.938  33.715  1.00  0.00     0.031 C 
ATOM     58  C   UNL A   1      40.872  34.742  29.536  1.00  0.00     0.029 A 
ATOM     59  C   UNL A   1      40.859  34.193  30.817  1.00  0.00     0.049 A 
ATOM     60  H   UNL A   1      39.161  34.311  32.070  1.00  0.00     0.167 HD
ATOM     61  C   UNL A   1      41.685  32.666  32.590  1.00  0.00     0.074 A 
ATOM     62  C   UNL A   1      40.452  32.141  33.165  1.00  0.00     0.031 C 
ATOM     63  C   UNL A   1      41.902  33.597  31.616  1.00  0.00     0.037 A 
BRANCH  50  64
ATOM     64  C   UNL A   1      36.445  33.321  30.781  1.00  0.00     0.064 A 
ATOM     65  C   UNL A   1      35.370  34.034  30.227  1.00  0.00     0.173 A 
ATOM     66  C   UNL A   1      36.351  33.034  32.163  1.00  0.00     0.173 A 
ATOM     67  F   UNL A   1      35.394  34.411  28.941  1.00  0.00    -0.203 F 
ATOM     68  C   UNL A   1      34.279  34.428  31.006  1.00  0.00     0.198 A 
ATOM     69  C   UNL A   1      35.238  33.376  32.921  1.00  0.00     0.198 A 
ATOM     70  F   UNL A   1      37.378  32.496  32.839  1.00  0.00    -0.203 F 
ATOM     71  F   UNL A   1      33.311  35.180  30.463  1.00  0.00    -0.200 F 
ATOM     72  C   UNL A   1      34.208  34.090  32.348  1.00  0.00     0.200 A 
ATOM     73  F   UNL A   1      35.204  33.061  34.223  1.00  0.00    -0.200 F 
ATOM     74  F   UNL A   1      33.175  34.491  33.099  1.00  0.00    -0.200 F 
ENDBRANCH  50  64
BRANCH  51  75
ATOM     75  C   UNL A   1      42.580  28.334  34.315  1.00  0.00     0.064 A 
ATOM     76  C   UNL A   1      41.604  27.343  34.484  1.00  0.00     0.173 A 
ATOM     77  C   UNL A   1      43.742  28.205  35.108  1.00  0.00     0.173 A 
ATOM     78  F   UNL A   1      40.500  27.348  33.724  1.00  0.00    -0.203 F 
ATOM     79  C   UNL A   1      41.774  26.295  35.397  1.00  0.00     0.198 A 
ATOM     80  C   UNL A   1      43.898  27.177  36.036  1.00  0.00     0.198 A 
ATOM     81  F   UNL A   1      44.794  29.019  34.940  1.00  0.00    -0.203 F 
ATOM     82  F   UNL A   1      40.843  25.335  35.493  1.00  0.00    -0.200 F 
ATOM     83  C   UNL A   1      42.917  26.216  36.175  1.00  0.00     0.200 A 
ATOM     84  F   UNL A   1      45.028  27.097  36.753  1.00  0.00    -0.200 F 
ATOM     85  F   UNL A   1      43.094  25.195  37.025  1.00  0.00    -0.200 F 
ENDBRANCH  51  75
BRANCH  63  86
ATOM     86  C   UNL A   1      43.310  33.778  31.127  1.00  0.00     0.064 A 
ATOM     87  C   UNL A   1      44.225  34.645  31.749  1.00  0.00     0.173 A 
ATOM     88  C   UNL A   1      43.799  32.930  30.126  1.00  0.00     0.173 A 
ATOM     89  F   UNL A   1      43.855  35.400  32.791  1.00  0.00    -0.203 F 
ATOM     90  C   UNL A   1      45.560  34.691  31.354  1.00  0.00     0.198 A 
ATOM     91  C   UNL A   1      45.141  32.954  29.756  1.00  0.00     0.198 A 
ATOM     92  F   UNL A   1      42.985  32.032  29.548  1.00  0.00    -0.203 F 
ATOM     93  F   UNL A   1      46.412  35.528  31.965  1.00  0.00    -0.200 F 
ATOM     94  C   UNL A   1      46.018  33.841  30.363  1.00  0.00     0.200 A 
ATOM     95  F   UNL A   1      45.596  32.092  28.836  1.00  0.00    -0.200 F 
ATOM     96  F   UNL A   1      47.313  33.849  30.016  1.00  0.00    -0.200 F 
ENDBRANCH  63  86
ENDBRANCH  37  38
ENDBRANCH  30  32
ENDBRANCH  29  30
ENDBRANCH  28  29
ENDBRANCH  27  28
ENDBRANCH  26  27
ENDBRANCH  25  26
ENDBRANCH  24  25
ENDBRANCH   1  24
TORSDOF 22
ENDMDL
