MODEL 1
REMARK VINA RESULT:     -11.6      0.000      0.000
REMARK SMILES Cc1cc(C(=O)Nc2cccc(C(=O)NCC(=O)OCCOCCOCCOC(=O)c3ccc(-c4c5nc(c(-c6c(F)c(F)c(F)c(F)c6F)c6ccc([nH]6)c(-c6c(F)c(F)c(F)c(F)c6F)c6nc(c(-c7c(F)c(F)c(F)c(F)c7F)c7ccc4[nH]7)C=C6)C=C5)cc3)c2)no1
REMARK SMILES IDX 23 1 22 2 21 3 20 4 19 5 17 6 18 7 16 8 15 9 13 10 14 11
REMARK SMILES IDX 12 13 8 14 9 15 94 16 10 17 11 18 7 19 5 20 6 21 4 23 1 24
REMARK SMILES IDX 2 25 3 26 96 27 95 28 24 29 25 30 26 31 27 32 28 33 29 34
REMARK SMILES IDX 30 35 31 36 32 37 93 38 33 39 92 40 34 41 35 42 36 43 86 44
REMARK SMILES IDX 37 45 91 46 85 47 87 48 38 49 90 50 84 51 83 52 39 54 71 55
REMARK SMILES IDX 51 56 70 57 52 58 55 59 69 60 88 61 53 62 54 63 68 65 89 66
REMARK SMILES IDX 56 67 40 68 41 69 49 70 42 71 43 72 47 73 50 74 44 75 45 76
REMARK SMILES IDX 48 77 46 78 72 79 73 80 81 81 74 82 75 83 79 84 82 85 76 86
REMARK SMILES IDX 77 87 80 88 78 89 57 90 58 91 66 92 59 93 60 94 64 95 67 96
REMARK SMILES IDX 61 97 62 98 65 99 63 100
REMARK H PARENT 15 12 7 22 87 53 55 64
REMARK Flexibility Score: inf
ROOT
ATOM      1  C   UNL A   1      39.877  21.363  26.093  1.00  0.00     0.188 C 
ENDROOT
BRANCH   1   2
ATOM      2  O   UNL A   1      38.587  21.936  25.942  1.00  0.00    -0.376 OA
BRANCH   2   3
ATOM      3  C   UNL A   1      37.531  21.160  25.378  1.00  0.00     0.202 C 
BRANCH   3   4
ATOM      4  C   UNL A   1      36.073  21.638  25.514  1.00  0.00     0.261 C 
BRANCH   4   5
ATOM      5  O   UNL A   1      35.090  20.596  25.350  1.00  0.00    -0.462 OA
BRANCH   5   6
ATOM      6  C   UNL A   1      33.829  20.890  25.755  1.00  0.00     0.325 C 
ATOM      7  O   UNL A   1      32.829  20.272  25.407  1.00  0.00    -0.250 OA
BRANCH   6   8
ATOM      8  C   UNL A   1      33.779  21.979  26.842  1.00  0.00     0.239 C 
BRANCH   8   9
ATOM      9  N   UNL A   1      32.496  22.457  27.361  1.00  0.00    -0.341 N 
ATOM     10  C   UNL A   1      31.517  23.256  26.837  1.00  0.00     0.251 C 
ATOM     11  O   UNL A   1      30.467  23.351  27.472  1.00  0.00    -0.269 OA
ATOM     12  H   UNL A   1      32.299  22.139  28.272  1.00  0.00     0.164 HD
BRANCH  10  13
ATOM     13  C   UNL A   1      31.634  23.936  25.519  1.00  0.00     0.041 A 
ATOM     14  C   UNL A   1      32.636  25.594  24.065  1.00  0.00     0.042 A 
ATOM     15  C   UNL A   1      32.018  25.029  22.958  1.00  0.00     0.026 A 
ATOM     16  C   UNL A   1      32.314  25.133  25.335  1.00  0.00     0.040 A 
ATOM     17  C   UNL A   1      31.234  23.884  23.125  1.00  0.00     0.003 A 
ATOM     18  C   UNL A   1      31.084  23.313  24.392  1.00  0.00     0.014 A 
BRANCH  14  19
ATOM     19  N   UNL A   1      33.600  26.598  23.905  1.00  0.00    -0.321 N 
ATOM     20  C   UNL A   1      33.421  27.924  23.510  1.00  0.00     0.277 C 
ATOM     21  O   UNL A   1      34.410  28.528  23.094  1.00  0.00    -0.267 OA
ATOM     22  H   UNL A   1      34.529  26.331  24.095  1.00  0.00     0.170 HD
BRANCH  20  23
ATOM     23  C   UNL A   1      32.111  28.593  23.697  1.00  0.00     0.171 A 
ATOM     24  C   UNL A   1      28.830  30.156  23.043  1.00  0.00     0.091 C 
ATOM     25  C   UNL A   1      30.090  29.504  23.454  1.00  0.00     0.134 A 
ATOM     26  C   UNL A   1      30.942  28.596  22.870  1.00  0.00     0.082 A 
ATOM     27  O   UNL A   1      30.633  29.918  24.627  1.00  0.00    -0.361 OA
ATOM     28  N   UNL A   1      31.877  29.343  24.792  1.00  0.00    -0.074 NA
ENDBRANCH  20  23
ENDBRANCH  14  19
ENDBRANCH  10  13
ENDBRANCH   8   9
ENDBRANCH   6   8
ENDBRANCH   5   6
ENDBRANCH   4   5
ENDBRANCH   3   4
ENDBRANCH   2   3
ENDBRANCH   1   2
BRANCH   1  29
ATOM     29  C   UNL A   1      40.029  19.841  26.014  1.00  0.00     0.188 C 
BRANCH  29  30
ATOM     30  O   UNL A   1      41.251  19.372  25.521  1.00  0.00    -0.376 OA
BRANCH  30  31
ATOM     31  C   UNL A   1      42.443  19.697  26.206  1.00  0.00     0.202 C 
BRANCH  31  32
ATOM     32  C   UNL A   1      43.394  20.826  25.749  1.00  0.00     0.261 C 
BRANCH  32  33
ATOM     33  O   UNL A   1      43.268  22.121  26.358  1.00  0.00    -0.460 OA
BRANCH  33  34
ATOM     34  C   UNL A   1      43.134  23.191  25.537  1.00  0.00     0.338 C 
ATOM     35  O   UNL A   1      43.231  23.199  24.319  1.00  0.00    -0.246 OA
BRANCH  34  36
ATOM     36  C   UNL A   1      42.580  24.311  26.337  1.00  0.00     0.060 A 
ATOM     37  C   UNL A   1      43.126  25.599  26.195  1.00  0.00     0.016 A 
ATOM     38  C   UNL A   1      41.515  24.094  27.208  1.00  0.00     0.016 A 
ATOM     39  C   UNL A   1      42.626  26.666  26.947  1.00  0.00     0.010 A 
ATOM     40  C   UNL A   1      41.037  25.156  27.984  1.00  0.00     0.010 A 
ATOM     41  C   UNL A   1      41.610  26.437  27.884  1.00  0.00    -0.014 A 
BRANCH  41  42
ATOM     42  C   UNL A   1      41.297  27.447  28.926  1.00  0.00     0.031 A 
ATOM     43  C   UNL A   1      42.099  27.408  30.199  1.00  0.00     0.074 A 
ATOM     44  C   UNL A   1      40.311  28.348  28.781  1.00  0.00     0.049 A 
ATOM     45  N   UNL A   1      41.915  28.048  31.325  1.00  0.00    -0.248 NA
ATOM     46  C   UNL A   1      43.265  26.508  30.200  1.00  0.00     0.031 C 
ATOM     47  C   UNL A   1      39.502  28.535  27.581  1.00  0.00     0.029 A 
ATOM     48  N   UNL A   1      39.808  29.263  29.675  1.00  0.00    -0.354 N 
ATOM     49  C   UNL A   1      42.925  27.610  32.173  1.00  0.00     0.074 A 
ATOM     50  C   UNL A   1      43.703  26.635  31.442  1.00  0.00     0.031 C 
ATOM     51  C   UNL A   1      38.580  29.486  27.824  1.00  0.00     0.029 A 
ATOM     52  C   UNL A   1      38.707  29.938  29.209  1.00  0.00     0.049 A 
ATOM     53  H   UNL A   1      40.200  29.418  30.565  1.00  0.00     0.167 HD
ATOM     54  C   UNL A   1      43.179  27.987  33.448  1.00  0.00     0.037 A 
ATOM     55  C   UNL A   1      37.876  30.791  29.843  1.00  0.00     0.037 A 
ATOM     56  C   UNL A   1      42.398  28.954  34.175  1.00  0.00     0.049 A 
ATOM     57  C   UNL A   1      38.124  31.130  31.295  1.00  0.00     0.074 A 
ATOM     58  C   UNL A   1      42.581  29.414  35.467  1.00  0.00     0.029 A 
ATOM     59  N   UNL A   1      41.280  29.603  33.672  1.00  0.00    -0.354 N 
ATOM     60  N   UNL A   1      39.082  30.722  32.091  1.00  0.00    -0.248 NA
ATOM     61  C   UNL A   1      37.172  32.050  31.934  1.00  0.00     0.031 C 
ATOM     62  C   UNL A   1      41.537  30.294  35.768  1.00  0.00     0.029 A 
ATOM     63  C   UNL A   1      40.747  30.440  34.639  1.00  0.00     0.049 A 
ATOM     64  H   UNL A   1      40.920  29.487  32.763  1.00  0.00     0.167 HD
ATOM     65  C   UNL A   1      38.872  31.364  33.307  1.00  0.00     0.074 A 
ATOM     66  C   UNL A   1      37.698  32.195  33.141  1.00  0.00     0.031 C 
ATOM     67  C   UNL A   1      39.589  31.279  34.455  1.00  0.00     0.037 A 
BRANCH  54  68
ATOM     68  C   UNL A   1      44.324  27.320  34.153  1.00  0.00     0.064 A 
ATOM     69  C   UNL A   1      45.615  27.870  34.156  1.00  0.00     0.173 A 
ATOM     70  C   UNL A   1      44.120  26.124  34.858  1.00  0.00     0.173 A 
ATOM     71  F   UNL A   1      45.868  29.004  33.483  1.00  0.00    -0.203 F 
ATOM     72  C   UNL A   1      46.665  27.232  34.811  1.00  0.00     0.198 A 
ATOM     73  C   UNL A   1      45.164  25.508  35.542  1.00  0.00     0.198 A 
ATOM     74  F   UNL A   1      42.906  25.555  34.890  1.00  0.00    -0.203 F 
ATOM     75  F   UNL A   1      47.901  27.746  34.752  1.00  0.00    -0.200 F 
ATOM     76  C   UNL A   1      46.437  26.056  35.511  1.00  0.00     0.200 A 
ATOM     77  F   UNL A   1      44.938  24.379  36.231  1.00  0.00    -0.200 F 
ATOM     78  F   UNL A   1      47.446  25.447  36.148  1.00  0.00    -0.200 F 
ENDBRANCH  54  68
BRANCH  55  79
ATOM     79  C   UNL A   1      36.709  31.371  29.125  1.00  0.00     0.064 A 
ATOM     80  C   UNL A   1      36.685  32.725  28.760  1.00  0.00     0.173 A 
ATOM     81  C   UNL A   1      35.578  30.598  28.822  1.00  0.00     0.173 A 
ATOM     82  F   UNL A   1      37.728  33.516  29.058  1.00  0.00    -0.203 F 
ATOM     83  C   UNL A   1      35.570  33.287  28.142  1.00  0.00     0.198 A 
ATOM     84  C   UNL A   1      34.476  31.152  28.174  1.00  0.00     0.198 A 
ATOM     85  F   UNL A   1      35.543  29.300  29.158  1.00  0.00    -0.203 F 
ATOM     86  F   UNL A   1      35.551  34.597  27.861  1.00  0.00    -0.200 F 
ATOM     87  C   UNL A   1      34.469  32.499  27.843  1.00  0.00     0.200 A 
ATOM     88  F   UNL A   1      33.417  30.385  27.882  1.00  0.00    -0.200 F 
ATOM     89  F   UNL A   1      33.395  33.040  27.253  1.00  0.00    -0.200 F 
ENDBRANCH  55  79
BRANCH  67  90
ATOM     90  C   UNL A   1      39.173  32.151  35.608  1.00  0.00     0.064 A 
ATOM     91  C   UNL A   1      38.310  31.695  36.614  1.00  0.00     0.173 A 
ATOM     92  C   UNL A   1      39.696  33.449  35.733  1.00  0.00     0.173 A 
ATOM     93  F   UNL A   1      37.774  30.467  36.540  1.00  0.00    -0.203 F 
ATOM     94  C   UNL A   1      37.965  32.514  37.688  1.00  0.00     0.198 A 
ATOM     95  C   UNL A   1      39.377  34.251  36.825  1.00  0.00     0.198 A 
ATOM     96  F   UNL A   1      40.535  33.932  34.805  1.00  0.00    -0.203 F 
ATOM     97  F   UNL A   1      37.099  32.074  38.612  1.00  0.00    -0.200 F 
ATOM     98  C   UNL A   1      38.505  33.786  37.796  1.00  0.00     0.200 A 
ATOM     99  F   UNL A   1      39.917  35.473  36.937  1.00  0.00    -0.200 F 
ATOM    100  F   UNL A   1      38.181  34.567  38.837  1.00  0.00    -0.200 F 
ENDBRANCH  67  90
ENDBRANCH  41  42
ENDBRANCH  34  36
ENDBRANCH  33  34
ENDBRANCH  32  33
ENDBRANCH  31  32
ENDBRANCH  30  31
ENDBRANCH  29  30
ENDBRANCH   1  29
TORSDOF 21
ENDMDL
MODEL 2
REMARK VINA RESULT:     -11.4      1.237      2.203
REMARK SMILES Cc1cc(C(=O)Nc2cccc(C(=O)NCC(=O)OCCOCCOCCOC(=O)c3ccc(-c4c5nc(c(-c6c(F)c(F)c(F)c(F)c6F)c6ccc([nH]6)c(-c6c(F)c(F)c(F)c(F)c6F)c6nc(c(-c7c(F)c(F)c(F)c(F)c7F)c7ccc4[nH]7)C=C6)C=C5)cc3)c2)no1
REMARK SMILES IDX 23 1 22 2 21 3 20 4 19 5 17 6 18 7 16 8 15 9 13 10 14 11
REMARK SMILES IDX 12 13 8 14 9 15 94 16 10 17 11 18 7 19 5 20 6 21 4 23 1 24
REMARK SMILES IDX 2 25 3 26 96 27 95 28 24 29 25 30 26 31 27 32 28 33 29 34
REMARK SMILES IDX 30 35 31 36 32 37 93 38 33 39 92 40 34 41 35 42 36 43 86 44
REMARK SMILES IDX 37 45 91 46 85 47 87 48 38 49 90 50 84 51 83 52 39 54 71 55
REMARK SMILES IDX 51 56 70 57 52 58 55 59 69 60 88 61 53 62 54 63 68 65 89 66
REMARK SMILES IDX 56 67 40 68 41 69 49 70 42 71 43 72 47 73 50 74 44 75 45 76
REMARK SMILES IDX 48 77 46 78 72 79 73 80 81 81 74 82 75 83 79 84 82 85 76 86
REMARK SMILES IDX 77 87 80 88 78 89 57 90 58 91 66 92 59 93 60 94 64 95 67 96
REMARK SMILES IDX 61 97 62 98 65 99 63 100
REMARK H PARENT 15 12 7 22 87 53 55 64
REMARK Flexibility Score: inf
ROOT
ATOM      1  C   UNL A   1      39.891  21.339  26.139  1.00  0.00     0.188 C 
ENDROOT
BRANCH   1   2
ATOM      2  O   UNL A   1      38.493  21.570  26.084  1.00  0.00    -0.376 OA
BRANCH   2   3
ATOM      3  C   UNL A   1      37.757  21.179  24.926  1.00  0.00     0.202 C 
BRANCH   3   4
ATOM      4  C   UNL A   1      36.324  20.636  25.077  1.00  0.00     0.261 C 
BRANCH   4   5
ATOM      5  O   UNL A   1      36.205  19.213  24.879  1.00  0.00    -0.462 OA
BRANCH   5   6
ATOM      6  C   UNL A   1      34.954  18.740  24.645  1.00  0.00     0.325 C 
ATOM      7  O   UNL A   1      34.691  17.566  24.413  1.00  0.00    -0.250 OA
BRANCH   6   8
ATOM      8  C   UNL A   1      33.856  19.796  24.867  1.00  0.00     0.239 C 
BRANCH   8   9
ATOM      9  N   UNL A   1      32.888  20.099  23.810  1.00  0.00    -0.341 N 
ATOM     10  C   UNL A   1      32.477  21.267  23.229  1.00  0.00     0.251 C 
ATOM     11  O   UNL A   1      31.747  21.179  22.242  1.00  0.00    -0.269 OA
ATOM     12  H   UNL A   1      32.444  19.300  23.445  1.00  0.00     0.164 HD
BRANCH  10  13
ATOM     13  C   UNL A   1      32.931  22.610  23.681  1.00  0.00     0.041 A 
ATOM     14  C   UNL A   1      32.737  24.543  25.128  1.00  0.00     0.042 A 
ATOM     15  C   UNL A   1      33.961  25.024  24.687  1.00  0.00     0.026 A 
ATOM     16  C   UNL A   1      32.178  23.432  24.510  1.00  0.00     0.040 A 
ATOM     17  C   UNL A   1      34.697  24.274  23.766  1.00  0.00     0.003 A 
ATOM     18  C   UNL A   1      34.205  23.049  23.303  1.00  0.00     0.014 A 
BRANCH  14  19
ATOM     19  N   UNL A   1      32.082  25.149  26.209  1.00  0.00    -0.321 N 
ATOM     20  C   UNL A   1      31.400  26.365  26.243  1.00  0.00     0.277 C 
ATOM     21  O   UNL A   1      31.211  26.877  27.348  1.00  0.00    -0.267 OA
ATOM     22  H   UNL A   1      32.109  24.651  27.057  1.00  0.00     0.170 HD
BRANCH  20  23
ATOM     23  C   UNL A   1      30.836  26.946  25.000  1.00  0.00     0.171 A 
ATOM     24  C   UNL A   1      30.032  29.280  22.254  1.00  0.00     0.091 C 
ATOM     25  C   UNL A   1      30.315  28.228  23.251  1.00  0.00     0.134 A 
ATOM     26  C   UNL A   1      31.309  28.019  24.178  1.00  0.00     0.082 A 
ATOM     27  O   UNL A   1      29.371  27.265  23.402  1.00  0.00    -0.361 OA
ATOM     28  N   UNL A   1      29.698  26.456  24.472  1.00  0.00    -0.074 NA
ENDBRANCH  20  23
ENDBRANCH  14  19
ENDBRANCH  10  13
ENDBRANCH   8   9
ENDBRANCH   6   8
ENDBRANCH   5   6
ENDBRANCH   4   5
ENDBRANCH   3   4
ENDBRANCH   2   3
ENDBRANCH   1   2
BRANCH   1  29
ATOM     29  C   UNL A   1      40.405  19.898  26.238  1.00  0.00     0.188 C 
BRANCH  29  30
ATOM     30  O   UNL A   1      41.492  19.578  25.418  1.00  0.00    -0.376 OA
BRANCH  30  31
ATOM     31  C   UNL A   1      42.804  19.771  25.904  1.00  0.00     0.202 C 
BRANCH  31  32
ATOM     32  C   UNL A   1      43.624  21.051  25.625  1.00  0.00     0.261 C 
BRANCH  32  33
ATOM     33  O   UNL A   1      43.231  22.273  26.270  1.00  0.00    -0.460 OA
BRANCH  33  34
ATOM     34  C   UNL A   1      43.274  23.412  25.537  1.00  0.00     0.338 C 
ATOM     35  O   UNL A   1      43.513  23.509  24.343  1.00  0.00    -0.246 OA
BRANCH  34  36
ATOM     36  C   UNL A   1      42.713  24.507  26.367  1.00  0.00     0.060 A 
ATOM     37  C   UNL A   1      43.218  25.812  26.223  1.00  0.00     0.016 A 
ATOM     38  C   UNL A   1      41.682  24.251  27.267  1.00  0.00     0.016 A 
ATOM     39  C   UNL A   1      42.711  26.856  27.003  1.00  0.00     0.010 A 
ATOM     40  C   UNL A   1      41.198  25.289  28.069  1.00  0.00     0.010 A 
ATOM     41  C   UNL A   1      41.731  26.588  27.967  1.00  0.00    -0.014 A 
BRANCH  41  42
ATOM     42  C   UNL A   1      41.422  27.577  29.030  1.00  0.00     0.031 A 
ATOM     43  C   UNL A   1      42.234  27.518  30.296  1.00  0.00     0.074 A 
ATOM     44  C   UNL A   1      40.431  28.476  28.909  1.00  0.00     0.049 A 
ATOM     45  N   UNL A   1      42.056  28.136  31.434  1.00  0.00    -0.248 NA
ATOM     46  C   UNL A   1      43.403  26.623  30.271  1.00  0.00     0.031 C 
ATOM     47  C   UNL A   1      39.612  28.682  27.719  1.00  0.00     0.029 A 
ATOM     48  N   UNL A   1      39.931  29.372  29.824  1.00  0.00    -0.354 N 
ATOM     49  C   UNL A   1      43.073  27.688  32.267  1.00  0.00     0.074 A 
ATOM     50  C   UNL A   1      43.850  26.730  31.513  1.00  0.00     0.031 C 
ATOM     51  C   UNL A   1      38.688  29.623  27.985  1.00  0.00     0.029 A 
ATOM     52  C   UNL A   1      38.823  30.051  29.378  1.00  0.00     0.049 A 
ATOM     53  H   UNL A   1      40.328  29.513  30.713  1.00  0.00     0.167 HD
ATOM     54  C   UNL A   1      43.335  28.042  33.547  1.00  0.00     0.037 A 
ATOM     55  C   UNL A   1      37.994  30.888  30.034  1.00  0.00     0.037 A 
ATOM     56  C   UNL A   1      42.556  28.992  34.297  1.00  0.00     0.049 A 
ATOM     57  C   UNL A   1      38.252  31.202  31.489  1.00  0.00     0.074 A 
ATOM     58  C   UNL A   1      42.747  29.428  35.596  1.00  0.00     0.029 A 
ATOM     59  N   UNL A   1      41.432  29.646  33.815  1.00  0.00    -0.354 N 
ATOM     60  N   UNL A   1      39.217  30.783  32.271  1.00  0.00    -0.248 NA
ATOM     61  C   UNL A   1      37.300  32.106  32.152  1.00  0.00     0.031 C 
ATOM     62  C   UNL A   1      41.701  30.298  35.921  1.00  0.00     0.029 A 
ATOM     63  C   UNL A   1      40.903  30.462  34.801  1.00  0.00     0.049 A 
ATOM     64  H   UNL A   1      41.065  29.544  32.907  1.00  0.00     0.167 HD
ATOM     65  C   UNL A   1      39.014  31.403  33.500  1.00  0.00     0.074 A 
ATOM     66  C   UNL A   1      37.835  32.231  33.359  1.00  0.00     0.031 C 
ATOM     67  C   UNL A   1      39.740  31.299  34.641  1.00  0.00     0.037 A 
BRANCH  54  68
ATOM     68  C   UNL A   1      44.489  27.367  34.230  1.00  0.00     0.064 A 
ATOM     69  C   UNL A   1      45.777  27.923  34.235  1.00  0.00     0.173 A 
ATOM     70  C   UNL A   1      44.295  26.156  34.914  1.00  0.00     0.173 A 
ATOM     71  F   UNL A   1      46.020  29.070  33.582  1.00  0.00    -0.203 F 
ATOM     72  C   UNL A   1      46.834  27.277  34.871  1.00  0.00     0.198 A 
ATOM     73  C   UNL A   1      45.347  25.532  35.579  1.00  0.00     0.198 A 
ATOM     74  F   UNL A   1      43.084  25.581  34.944  1.00  0.00    -0.203 F 
ATOM     75  F   UNL A   1      48.068  27.798  34.813  1.00  0.00    -0.200 F 
ATOM     76  C   UNL A   1      46.617  26.088  35.549  1.00  0.00     0.200 A 
ATOM     77  F   UNL A   1      45.131  24.390  36.247  1.00  0.00    -0.200 F 
ATOM     78  F   UNL A   1      47.634  25.471  36.168  1.00  0.00    -0.200 F 
ENDBRANCH  54  68
BRANCH  55  79
ATOM     79  C   UNL A   1      36.819  31.476  29.335  1.00  0.00     0.064 A 
ATOM     80  C   UNL A   1      35.717  30.683  28.982  1.00  0.00     0.173 A 
ATOM     81  C   UNL A   1      36.786  32.831  28.971  1.00  0.00     0.173 A 
ATOM     82  F   UNL A   1      35.713  29.375  29.277  1.00  0.00    -0.203 F 
ATOM     83  C   UNL A   1      34.641  31.217  28.275  1.00  0.00     0.198 A 
ATOM     84  C   UNL A   1      35.695  33.371  28.292  1.00  0.00     0.198 A 
ATOM     85  F   UNL A   1      37.818  33.632  29.274  1.00  0.00    -0.203 F 
ATOM     86  F   UNL A   1      33.630  30.421  27.897  1.00  0.00    -0.200 F 
ATOM     87  C   UNL A   1      34.628  32.561  27.936  1.00  0.00     0.200 A 
ATOM     88  F   UNL A   1      35.685  34.672  27.973  1.00  0.00    -0.200 F 
ATOM     89  F   UNL A   1      33.596  33.072  27.252  1.00  0.00    -0.200 F 
ENDBRANCH  55  79
BRANCH  67  90
ATOM     90  C   UNL A   1      39.329  32.148  35.813  1.00  0.00     0.064 A 
ATOM     91  C   UNL A   1      39.788  33.462  35.979  1.00  0.00     0.173 A 
ATOM     92  C   UNL A   1      38.413  31.651  36.755  1.00  0.00     0.173 A 
ATOM     93  F   UNL A   1      40.672  33.983  35.115  1.00  0.00    -0.203 F 
ATOM     94  C   UNL A   1      39.368  34.237  37.059  1.00  0.00     0.198 A 
ATOM     95  C   UNL A   1      37.969  32.440  37.812  1.00  0.00     0.198 A 
ATOM     96  F   UNL A   1      37.933  30.404  36.638  1.00  0.00    -0.203 F 
ATOM     97  F   UNL A   1      39.859  35.473  37.224  1.00  0.00    -0.200 F 
ATOM     98  C   UNL A   1      38.453  33.729  37.968  1.00  0.00     0.200 A 
ATOM     99  F   UNL A   1      37.068  31.953  38.677  1.00  0.00    -0.200 F 
ATOM    100  F   UNL A   1      38.040  34.481  38.997  1.00  0.00    -0.200 F 
ENDBRANCH  67  90
ENDBRANCH  41  42
ENDBRANCH  34  36
ENDBRANCH  33  34
ENDBRANCH  32  33
ENDBRANCH  31  32
ENDBRANCH  30  31
ENDBRANCH  29  30
ENDBRANCH   1  29
TORSDOF 21
ENDMDL
MODEL 3
REMARK VINA RESULT:     -11.4      1.541      3.003
REMARK SMILES Cc1cc(C(=O)Nc2cccc(C(=O)NCC(=O)OCCOCCOCCOC(=O)c3ccc(-c4c5nc(c(-c6c(F)c(F)c(F)c(F)c6F)c6ccc([nH]6)c(-c6c(F)c(F)c(F)c(F)c6F)c6nc(c(-c7c(F)c(F)c(F)c(F)c7F)c7ccc4[nH]7)C=C6)C=C5)cc3)c2)no1
REMARK SMILES IDX 23 1 22 2 21 3 20 4 19 5 17 6 18 7 16 8 15 9 13 10 14 11
REMARK SMILES IDX 12 13 8 14 9 15 94 16 10 17 11 18 7 19 5 20 6 21 4 23 1 24
REMARK SMILES IDX 2 25 3 26 96 27 95 28 24 29 25 30 26 31 27 32 28 33 29 34
REMARK SMILES IDX 30 35 31 36 32 37 93 38 33 39 92 40 34 41 35 42 36 43 86 44
REMARK SMILES IDX 37 45 91 46 85 47 87 48 38 49 90 50 84 51 83 52 39 54 71 55
REMARK SMILES IDX 51 56 70 57 52 58 55 59 69 60 88 61 53 62 54 63 68 65 89 66
REMARK SMILES IDX 56 67 40 68 41 69 49 70 42 71 43 72 47 73 50 74 44 75 45 76
REMARK SMILES IDX 48 77 46 78 72 79 73 80 81 81 74 82 75 83 79 84 82 85 76 86
REMARK SMILES IDX 77 87 80 88 78 89 57 90 58 91 66 92 59 93 60 94 64 95 67 96
REMARK SMILES IDX 61 97 62 98 65 99 63 100
REMARK H PARENT 15 12 7 22 87 53 55 64
REMARK Flexibility Score: inf
ROOT
ATOM      1  C   UNL A   1      43.667  19.227  25.381  1.00  0.00     0.188 C 
ENDROOT
BRANCH   1   2
ATOM      2  O   UNL A   1      42.298  19.478  25.102  1.00  0.00    -0.376 OA
BRANCH   2   3
ATOM      3  C   UNL A   1      41.334  19.379  26.148  1.00  0.00     0.202 C 
BRANCH   3   4
ATOM      4  C   UNL A   1      40.454  20.594  26.496  1.00  0.00     0.261 C 
BRANCH   4   5
ATOM      5  O   UNL A   1      39.226  20.672  25.745  1.00  0.00    -0.462 OA
BRANCH   5   6
ATOM      6  C   UNL A   1      38.518  21.823  25.865  1.00  0.00     0.325 C 
ATOM      7  O   UNL A   1      39.011  22.914  26.126  1.00  0.00    -0.250 OA
BRANCH   6   8
ATOM      8  C   UNL A   1      37.037  21.668  25.473  1.00  0.00     0.239 C 
BRANCH   8   9
ATOM      9  N   UNL A   1      35.995  21.613  26.501  1.00  0.00    -0.341 N 
ATOM     10  C   UNL A   1      34.630  21.690  26.450  1.00  0.00     0.251 C 
ATOM     11  O   UNL A   1      34.013  21.452  27.487  1.00  0.00    -0.269 OA
ATOM     12  H   UNL A   1      36.349  21.496  27.412  1.00  0.00     0.164 HD
BRANCH  10  13
ATOM     13  C   UNL A   1      33.872  21.966  25.200  1.00  0.00     0.041 A 
ATOM     14  C   UNL A   1      33.471  23.279  23.204  1.00  0.00     0.042 A 
ATOM     15  C   UNL A   1      32.598  22.315  22.719  1.00  0.00     0.026 A 
ATOM     16  C   UNL A   1      33.970  23.159  24.494  1.00  0.00     0.040 A 
ATOM     17  C   UNL A   1      32.390  21.148  23.459  1.00  0.00     0.003 A 
ATOM     18  C   UNL A   1      33.063  20.954  24.669  1.00  0.00     0.014 A 
BRANCH  14  19
ATOM     19  N   UNL A   1      33.872  24.348  22.391  1.00  0.00    -0.321 N 
ATOM     20  C   UNL A   1      33.315  25.622  22.289  1.00  0.00     0.277 C 
ATOM     21  O   UNL A   1      33.584  26.278  21.282  1.00  0.00    -0.267 OA
ATOM     22  H   UNL A   1      34.651  24.175  21.814  1.00  0.00     0.170 HD
BRANCH  20  23
ATOM     23  C   UNL A   1      32.524  26.189  23.410  1.00  0.00     0.171 A 
ATOM     24  C   UNL A   1      31.542  27.481  26.726  1.00  0.00     0.091 C 
ATOM     25  C   UNL A   1      31.811  27.047  25.340  1.00  0.00     0.134 A 
ATOM     26  C   UNL A   1      32.946  26.903  24.577  1.00  0.00     0.082 A 
ATOM     27  O   UNL A   1      30.749  26.587  24.632  1.00  0.00    -0.361 OA
ATOM     28  N   UNL A   1      31.183  26.071  23.427  1.00  0.00    -0.074 NA
ENDBRANCH  20  23
ENDBRANCH  14  19
ENDBRANCH  10  13
ENDBRANCH   8   9
ENDBRANCH   6   8
ENDBRANCH   5   6
ENDBRANCH   4   5
ENDBRANCH   3   4
ENDBRANCH   2   3
ENDBRANCH   1   2
BRANCH   1  29
ATOM     29  C   UNL A   1      44.739  19.903  24.520  1.00  0.00     0.188 C 
BRANCH  29  30
ATOM     30  O   UNL A   1      45.693  20.657  25.210  1.00  0.00    -0.376 OA
BRANCH  30  31
ATOM     31  C   UNL A   1      46.037  21.941  24.730  1.00  0.00     0.202 C 
BRANCH  31  32
ATOM     32  C   UNL A   1      45.077  22.807  23.885  1.00  0.00     0.261 C 
BRANCH  32  33
ATOM     33  O   UNL A   1      44.362  23.873  24.531  1.00  0.00    -0.460 OA
BRANCH  33  34
ATOM     34  C   UNL A   1      43.174  23.573  25.109  1.00  0.00     0.338 C 
ATOM     35  O   UNL A   1      42.462  22.609  24.869  1.00  0.00    -0.246 OA
BRANCH  34  36
ATOM     36  C   UNL A   1      43.002  24.465  26.282  1.00  0.00     0.060 A 
ATOM     37  C   UNL A   1      42.161  24.067  27.337  1.00  0.00     0.016 A 
ATOM     38  C   UNL A   1      43.684  25.678  26.351  1.00  0.00     0.016 A 
ATOM     39  C   UNL A   1      41.977  24.896  28.447  1.00  0.00     0.010 A 
ATOM     40  C   UNL A   1      43.474  26.521  27.447  1.00  0.00     0.010 A 
ATOM     41  C   UNL A   1      42.595  26.152  28.483  1.00  0.00    -0.014 A 
BRANCH  41  42
ATOM     42  C   UNL A   1      42.161  27.185  29.457  1.00  0.00     0.031 A 
ATOM     43  C   UNL A   1      42.910  27.276  30.759  1.00  0.00     0.074 A 
ATOM     44  C   UNL A   1      41.113  27.996  29.226  1.00  0.00     0.049 A 
ATOM     45  N   UNL A   1      42.630  27.956  31.840  1.00  0.00    -0.248 NA
ATOM     46  C   UNL A   1      44.141  26.474  30.852  1.00  0.00     0.031 C 
ATOM     47  C   UNL A   1      40.343  28.055  27.989  1.00  0.00     0.029 A 
ATOM     48  N   UNL A   1      40.504  28.911  30.050  1.00  0.00    -0.354 N 
ATOM     49  C   UNL A   1      43.634  27.645  32.748  1.00  0.00     0.074 A 
ATOM     50  C   UNL A   1      44.516  26.700  32.101  1.00  0.00     0.031 C 
ATOM     51  C   UNL A   1      39.340  28.940  28.145  1.00  0.00     0.029 A 
ATOM     52  C   UNL A   1      39.373  29.471  29.507  1.00  0.00     0.049 A 
ATOM     53  H   UNL A   1      40.845  29.143  30.944  1.00  0.00     0.167 HD
ATOM     54  C   UNL A   1      43.804  28.105  34.010  1.00  0.00     0.037 A 
ATOM     55  C   UNL A   1      38.453  30.285  30.063  1.00  0.00     0.037 A 
ATOM     56  C   UNL A   1      42.921  29.042  34.653  1.00  0.00     0.049 A 
ATOM     57  C   UNL A   1      38.613  30.716  31.502  1.00  0.00     0.074 A 
ATOM     58  C   UNL A   1      43.013  29.580  35.924  1.00  0.00     0.029 A 
ATOM     59  N   UNL A   1      41.778  29.573  34.075  1.00  0.00    -0.354 N 
ATOM     60  N   UNL A   1      39.566  30.428  32.355  1.00  0.00    -0.248 NA
ATOM     61  C   UNL A   1      37.565  31.589  32.054  1.00  0.00     0.031 C 
ATOM     62  C   UNL A   1      41.892  30.387  36.139  1.00  0.00     0.029 A 
ATOM     63  C   UNL A   1      41.141  30.412  34.975  1.00  0.00     0.049 A 
ATOM     64  H   UNL A   1      41.465  29.381  33.161  1.00  0.00     0.167 HD
ATOM     65  C   UNL A   1      39.256  31.113  33.525  1.00  0.00     0.074 A 
ATOM     66  C   UNL A   1      38.028  31.836  33.271  1.00  0.00     0.031 C 
ATOM     67  C   UNL A   1      39.929  31.144  34.702  1.00  0.00     0.037 A 
BRANCH  54  68
ATOM     68  C   UNL A   1      44.968  27.570  34.792  1.00  0.00     0.064 A 
ATOM     69  C   UNL A   1      44.852  26.441  35.618  1.00  0.00     0.173 A 
ATOM     70  C   UNL A   1      46.228  28.180  34.691  1.00  0.00     0.173 A 
ATOM     71  F   UNL A   1      43.666  25.830  35.763  1.00  0.00    -0.203 F 
ATOM     72  C   UNL A   1      45.944  25.965  36.339  1.00  0.00     0.198 A 
ATOM     73  C   UNL A   1      47.326  27.679  35.385  1.00  0.00     0.198 A 
ATOM     74  F   UNL A   1      46.397  29.260  33.914  1.00  0.00    -0.203 F 
ATOM     75  F   UNL A   1      45.794  24.921  37.166  1.00  0.00    -0.200 F 
ATOM     76  C   UNL A   1      47.181  26.578  36.215  1.00  0.00     0.200 A 
ATOM     77  F   UNL A   1      48.525  28.264  35.252  1.00  0.00    -0.200 F 
ATOM     78  F   UNL A   1      48.233  26.113  36.902  1.00  0.00    -0.200 F 
ENDBRANCH  54  68
BRANCH  55  79
ATOM     79  C   UNL A   1      37.274  30.732  29.271  1.00  0.00     0.064 A 
ATOM     80  C   UNL A   1      36.227  29.847  28.972  1.00  0.00     0.173 A 
ATOM     81  C   UNL A   1      37.186  32.037  28.763  1.00  0.00     0.173 A 
ATOM     82  F   UNL A   1      36.280  28.578  29.405  1.00  0.00    -0.203 F 
ATOM     83  C   UNL A   1      35.151  30.244  28.181  1.00  0.00     0.198 A 
ATOM     84  C   UNL A   1      36.093  32.442  28.000  1.00  0.00     0.198 A 
ATOM     85  F   UNL A   1      38.164  32.920  29.010  1.00  0.00    -0.203 F 
ATOM     86  F   UNL A   1      34.196  29.359  27.860  1.00  0.00    -0.200 F 
ATOM     87  C   UNL A   1      35.081  31.543  27.700  1.00  0.00     0.200 A 
ATOM     88  F   UNL A   1      36.028  33.700  27.543  1.00  0.00    -0.200 F 
ATOM     89  F   UNL A   1      34.049  31.922  26.936  1.00  0.00    -0.200 F 
ENDBRANCH  55  79
BRANCH  67  90
ATOM     90  C   UNL A   1      39.398  32.037  35.790  1.00  0.00     0.064 A 
ATOM     91  C   UNL A   1      39.788  33.379  35.910  1.00  0.00     0.173 A 
ATOM     92  C   UNL A   1      38.438  31.552  36.693  1.00  0.00     0.173 A 
ATOM     93  F   UNL A   1      40.710  33.891  35.080  1.00  0.00    -0.203 F 
ATOM     94  C   UNL A   1      39.258  34.193  36.909  1.00  0.00     0.198 A 
ATOM     95  C   UNL A   1      37.885  32.378  37.667  1.00  0.00     0.198 A 
ATOM     96  F   UNL A   1      38.021  30.280  36.617  1.00  0.00    -0.203 F 
ATOM     97  F   UNL A   1      39.683  35.458  37.035  1.00  0.00    -0.200 F 
ATOM     98  C   UNL A   1      38.302  33.695  37.780  1.00  0.00     0.200 A 
ATOM     99  F   UNL A   1      36.945  31.899  38.495  1.00  0.00    -0.200 F 
ATOM    100  F   UNL A   1      37.783  34.484  38.732  1.00  0.00    -0.200 F 
ENDBRANCH  67  90
ENDBRANCH  41  42
ENDBRANCH  34  36
ENDBRANCH  33  34
ENDBRANCH  32  33
ENDBRANCH  31  32
ENDBRANCH  30  31
ENDBRANCH  29  30
ENDBRANCH   1  29
TORSDOF 21
ENDMDL
