MODEL 1
REMARK VINA RESULT:      -8.8      0.000      0.000
REMARK SMILES Cc1cc(NS(=O)(=O)c2ccc3c(c2)[C@H]2[C@H]4CC[C@H](C4)[C@@H]2[C@H](c2cccc(C(=O)OCCOCCOCCOC(=O)c4ccc(-c5c6nc(c(-c7c(F)c(F)c(F)c(F)c7F)c7ccc([nH]7)c(-c7c(F)c(F)c(F)c(F)c7F)c7nc(c(-c8c(F)c(F)c(F)c(F)c8F)c8ccc5[nH]8)C=C7)C=C6)cc4)c2)N3)no1
REMARK SMILES IDX 34 1 33 2 32 3 31 4 30 5 28 6 29 7 27 8 23 9 24 10 105 11
REMARK SMILES IDX 25 12 26 13 22 14 9 15 10 16 14 17 11 18 13 19 12 20 15 21
REMARK SMILES IDX 106 22 16 23 21 24 17 26 20 27 19 28 18 29 6 30 7 31 8 32
REMARK SMILES IDX 5 33 4 35 1 36 2 37 3 38 108 39 107 40 35 41 36 42 37 43
REMARK SMILES IDX 38 44 39 45 40 46 41 47 42 48 43 49 104 50 44 51 103 52
REMARK SMILES IDX 45 53 46 54 47 55 97 56 48 57 102 58 96 59 98 60 49 61
REMARK SMILES IDX 101 62 95 63 94 64 50 66 82 67 62 68 81 69 63 70 66 71 80 72
REMARK SMILES IDX 99 73 64 74 65 75 79 77 100 78 67 79 51 80 52 81 60 82 53 83
REMARK SMILES IDX 54 84 58 85 61 86 55 87 56 88 59 89 57 90 83 91 84 92 92 93
REMARK SMILES IDX 85 94 86 95 90 96 93 97 87 98 88 99 91 100 89 101 68 102
REMARK SMILES IDX 69 103 77 104 70 105 71 106 75 107 78 108 72 109 73 110
REMARK SMILES IDX 76 111 74 112
REMARK H PARENT 106 25 5 34 98 65 66 76
REMARK Flexibility Score: inf
ROOT
ATOM      1  C   UNL A   1      50.274  27.836  30.501  1.00  0.00     0.188 C 
ENDROOT
BRANCH   1   2
ATOM      2  O   UNL A   1      50.076  28.305  29.186  1.00  0.00    -0.376 OA
BRANCH   2   3
ATOM      3  C   UNL A   1      48.774  28.393  28.626  1.00  0.00     0.202 C 
BRANCH   3   4
ATOM      4  C   UNL A   1      48.446  29.104  27.305  1.00  0.00     0.261 C 
BRANCH   4   5
ATOM      5  O   UNL A   1      47.310  28.606  26.595  1.00  0.00    -0.460 OA
BRANCH   5   6
ATOM      6  C   UNL A   1      46.426  29.555  26.197  1.00  0.00     0.338 C 
ATOM      7  O   UNL A   1      46.379  30.102  25.107  1.00  0.00    -0.246 OA
BRANCH   6   8
ATOM      8  C   UNL A   1      45.345  29.688  27.198  1.00  0.00     0.060 A 
ATOM      9  C   UNL A   1      43.744  28.761  28.788  1.00  0.00    -0.025 A 
ATOM     10  C   UNL A   1      43.308  30.079  29.034  1.00  0.00     0.006 A 
ATOM     11  C   UNL A   1      44.784  28.584  27.857  1.00  0.00     0.021 A 
ATOM     12  C   UNL A   1      43.837  31.173  28.348  1.00  0.00     0.001 A 
ATOM     13  C   UNL A   1      44.862  30.979  27.435  1.00  0.00     0.016 A 
BRANCH   9  14
ATOM     14  C   UNL A   1      43.135  27.606  29.578  1.00  0.00     0.113 C 
ATOM     15  C   UNL A   1      42.252  22.933  27.572  1.00  0.00     0.088 A 
ATOM     16  C   UNL A   1      43.388  22.825  28.387  1.00  0.00     0.024 A 
ATOM     17  C   UNL A   1      41.723  24.191  27.302  1.00  0.00     0.028 A 
ATOM     18  C   UNL A   1      43.972  23.967  28.955  1.00  0.00     0.027 A 
ATOM     19  C   UNL A   1      42.238  25.312  27.963  1.00  0.00    -0.020 A 
ATOM     20  C   UNL A   1      43.399  25.226  28.768  1.00  0.00     0.038 A 
ATOM     21  C   UNL A   1      41.574  26.651  27.890  1.00  0.00     0.030 C 
ATOM     22  N   UNL A   1      43.904  26.347  29.431  1.00  0.00    -0.378 N 
ATOM     23  C   UNL A   1      40.089  26.901  27.557  1.00  0.00    -0.003 C 
ATOM     24  C   UNL A   1      41.668  27.253  29.306  1.00  0.00     0.027 C 
ATOM     25  H   UNL A   1      44.809  26.300  29.817  1.00  0.00     0.161 HD
ATOM     26  C   UNL A   1      39.126  26.322  28.619  1.00  0.00     0.004 C 
ATOM     27  C   UNL A   1      40.042  28.402  27.896  1.00  0.00     0.008 C 
ATOM     28  C   UNL A   1      40.439  28.190  29.365  1.00  0.00    -0.005 C 
ATOM     29  C   UNL A   1      39.253  27.302  29.801  1.00  0.00     0.004 C 
BRANCH  15  30
ATOM     30  S   UNL A   1      41.507  21.413  27.008  1.00  0.00     0.263 S 
ATOM     31  O   UNL A   1      41.201  21.568  25.603  1.00  0.00    -0.201 OA
ATOM     32  O   UNL A   1      40.453  21.124  27.963  1.00  0.00    -0.201 OA
BRANCH  30  33
ATOM     33  N   UNL A   1      42.576  20.150  27.208  1.00  0.00    -0.261 N 
ATOM     34  H   UNL A   1      42.735  19.853  28.134  1.00  0.00     0.182 HD
BRANCH  33  35
ATOM     35  C   UNL A   1      43.262  19.476  26.217  1.00  0.00     0.183 A 
ATOM     36  C   UNL A   1      45.130  19.343  23.081  1.00  0.00     0.091 C 
ATOM     37  C   UNL A   1      44.432  19.232  24.375  1.00  0.00     0.135 A 
ATOM     38  C   UNL A   1      44.280  20.078  25.445  1.00  0.00     0.096 A 
ATOM     39  O   UNL A   1      43.699  18.109  24.592  1.00  0.00    -0.360 OA
ATOM     40  N   UNL A   1      42.973  18.256  25.763  1.00  0.00    -0.061 NA
ENDBRANCH  33  35
ENDBRANCH  30  33
ENDBRANCH  15  30
ENDBRANCH   9  14
ENDBRANCH   6   8
ENDBRANCH   5   6
ENDBRANCH   4   5
ENDBRANCH   3   4
ENDBRANCH   2   3
ENDBRANCH   1   2
BRANCH   1  41
ATOM     41  C   UNL A   1      51.630  28.037  31.211  1.00  0.00     0.188 C 
BRANCH  41  42
ATOM     42  O   UNL A   1      51.704  28.252  32.605  1.00  0.00    -0.376 OA
BRANCH  42  43
ATOM     43  C   UNL A   1      52.879  28.799  33.177  1.00  0.00     0.202 C 
BRANCH  43  44
ATOM     44  C   UNL A   1      53.597  30.003  32.556  1.00  0.00     0.261 C 
BRANCH  44  45
ATOM     45  O   UNL A   1      53.330  31.260  33.190  1.00  0.00    -0.460 OA
BRANCH  45  46
ATOM     46  C   UNL A   1      52.725  32.187  32.407  1.00  0.00     0.338 C 
ATOM     47  O   UNL A   1      53.255  33.046  31.721  1.00  0.00    -0.246 OA
BRANCH  46  48
ATOM     48  C   UNL A   1      51.281  31.893  32.351  1.00  0.00     0.060 A 
ATOM     49  C   UNL A   1      50.475  32.071  33.475  1.00  0.00     0.016 A 
ATOM     50  C   UNL A   1      50.733  31.454  31.139  1.00  0.00     0.016 A 
ATOM     51  C   UNL A   1      49.103  31.833  33.374  1.00  0.00     0.010 A 
ATOM     52  C   UNL A   1      49.364  31.201  31.045  1.00  0.00     0.010 A 
ATOM     53  C   UNL A   1      48.536  31.414  32.156  1.00  0.00    -0.014 A 
BRANCH  53  54
ATOM     54  C   UNL A   1      47.062  31.376  32.005  1.00  0.00     0.031 A 
ATOM     55  C   UNL A   1      46.245  30.212  32.474  1.00  0.00     0.074 A 
ATOM     56  C   UNL A   1      46.463  32.432  31.427  1.00  0.00     0.049 A 
ATOM     57  N   UNL A   1      44.942  30.083  32.498  1.00  0.00    -0.248 NA
ATOM     58  C   UNL A   1      46.978  29.040  32.972  1.00  0.00     0.031 C 
ATOM     59  C   UNL A   1      47.166  33.606  30.904  1.00  0.00     0.029 A 
ATOM     60  N   UNL A   1      45.139  32.703  31.195  1.00  0.00    -0.354 N 
ATOM     61  C   UNL A   1      44.694  28.833  33.043  1.00  0.00     0.074 A 
ATOM     62  C   UNL A   1      45.984  28.217  33.283  1.00  0.00     0.031 C 
ATOM     63  C   UNL A   1      46.265  34.485  30.445  1.00  0.00     0.029 A 
ATOM     64  C   UNL A   1      44.925  33.930  30.620  1.00  0.00     0.049 A 
ATOM     65  H   UNL A   1      44.414  32.076  31.418  1.00  0.00     0.167 HD
ATOM     66  C   UNL A   1      43.497  28.267  33.335  1.00  0.00     0.037 A 
ATOM     67  C   UNL A   1      43.778  34.549  30.284  1.00  0.00     0.037 A 
ATOM     68  C   UNL A   1      42.217  28.879  33.071  1.00  0.00     0.049 A 
ATOM     69  C   UNL A   1      42.467  33.875  30.572  1.00  0.00     0.074 A 
ATOM     70  C   UNL A   1      40.953  28.392  33.358  1.00  0.00     0.029 A 
ATOM     71  N   UNL A   1      42.035  30.105  32.445  1.00  0.00    -0.354 N 
ATOM     72  N   UNL A   1      42.241  32.725  31.159  1.00  0.00    -0.248 NA
ATOM     73  C   UNL A   1      41.250  34.588  30.159  1.00  0.00     0.031 C 
ATOM     74  C   UNL A   1      40.008  29.295  32.859  1.00  0.00     0.029 A 
ATOM     75  C   UNL A   1      40.681  30.374  32.312  1.00  0.00     0.049 A 
ATOM     76  H   UNL A   1      42.762  30.696  32.141  1.00  0.00     0.167 HD
ATOM     77  C   UNL A   1      40.860  32.587  31.209  1.00  0.00     0.074 A 
ATOM     78  C   UNL A   1      40.300  33.778  30.606  1.00  0.00     0.031 C 
ATOM     79  C   UNL A   1      40.129  31.562  31.710  1.00  0.00     0.037 A 
BRANCH  66  80
ATOM     80  C   UNL A   1      43.501  26.917  33.996  1.00  0.00     0.064 A 
ATOM     81  C   UNL A   1      43.135  26.767  35.342  1.00  0.00     0.173 A 
ATOM     82  C   UNL A   1      43.774  25.756  33.259  1.00  0.00     0.173 A 
ATOM     83  F   UNL A   1      42.864  27.846  36.092  1.00  0.00    -0.203 F 
ATOM     84  C   UNL A   1      43.057  25.507  35.929  1.00  0.00     0.198 A 
ATOM     85  C   UNL A   1      43.670  24.495  33.840  1.00  0.00     0.198 A 
ATOM     86  F   UNL A   1      44.116  25.842  31.964  1.00  0.00    -0.203 F 
ATOM     87  F   UNL A   1      42.732  25.391  37.224  1.00  0.00    -0.200 F 
ATOM     88  C   UNL A   1      43.314  24.372  35.175  1.00  0.00     0.200 A 
ATOM     89  F   UNL A   1      43.899  23.398  33.106  1.00  0.00    -0.200 F 
ATOM     90  F   UNL A   1      43.218  23.157  35.735  1.00  0.00    -0.200 F 
ENDBRANCH  66  80
BRANCH  67  91
ATOM     91  C   UNL A   1      43.830  35.908  29.690  1.00  0.00     0.064 A 
ATOM     92  C   UNL A   1      43.779  36.086  28.301  1.00  0.00     0.173 A 
ATOM     93  C   UNL A   1      43.889  37.055  30.495  1.00  0.00     0.173 A 
ATOM     94  F   UNL A   1      43.737  35.018  27.490  1.00  0.00    -0.203 F 
ATOM     95  C   UNL A   1      43.792  37.360  27.739  1.00  0.00     0.198 A 
ATOM     96  C   UNL A   1      43.874  38.329  29.933  1.00  0.00     0.198 A 
ATOM     97  F   UNL A   1      43.930  36.937  31.831  1.00  0.00    -0.203 F 
ATOM     98  F   UNL A   1      43.771  37.501  26.407  1.00  0.00    -0.200 F 
ATOM     99  C   UNL A   1      43.830  38.480  28.555  1.00  0.00     0.200 A 
ATOM    100  F   UNL A   1      43.891  39.409  30.726  1.00  0.00    -0.200 F 
ATOM    101  F   UNL A   1      43.826  39.706  28.014  1.00  0.00    -0.200 F 
ENDBRANCH  67  91
BRANCH  79 102
ATOM    102  C   UNL A   1      38.632  31.682  31.646  1.00  0.00     0.064 A 
ATOM    103  C   UNL A   1      37.913  31.301  30.503  1.00  0.00     0.173 A 
ATOM    104  C   UNL A   1      37.904  32.123  32.761  1.00  0.00     0.173 A 
ATOM    105  F   UNL A   1      38.562  30.887  29.404  1.00  0.00    -0.203 F 
ATOM    106  C   UNL A   1      36.522  31.372  30.475  1.00  0.00     0.198 A 
ATOM    107  C   UNL A   1      36.513  32.164  32.741  1.00  0.00     0.198 A 
ATOM    108  F   UNL A   1      38.542  32.494  33.881  1.00  0.00    -0.203 F 
ATOM    109  F   UNL A   1      35.859  31.041  29.358  1.00  0.00    -0.200 F 
ATOM    110  C   UNL A   1      35.823  31.793  31.596  1.00  0.00     0.200 A 
ATOM    111  F   UNL A   1      35.838  32.557  33.830  1.00  0.00    -0.200 F 
ATOM    112  F   UNL A   1      34.484  31.847  31.572  1.00  0.00    -0.200 F 
ENDBRANCH  79 102
ENDBRANCH  53  54
ENDBRANCH  46  48
ENDBRANCH  45  46
ENDBRANCH  44  45
ENDBRANCH  43  44
ENDBRANCH  42  43
ENDBRANCH  41  42
ENDBRANCH   1  41
TORSDOF 21
ENDMDL
MODEL 2
REMARK VINA RESULT:      -8.8      4.890      9.548
REMARK SMILES Cc1cc(NS(=O)(=O)c2ccc3c(c2)[C@H]2[C@H]4CC[C@H](C4)[C@@H]2[C@H](c2cccc(C(=O)OCCOCCOCCOC(=O)c4ccc(-c5c6nc(c(-c7c(F)c(F)c(F)c(F)c7F)c7ccc([nH]7)c(-c7c(F)c(F)c(F)c(F)c7F)c7nc(c(-c8c(F)c(F)c(F)c(F)c8F)c8ccc5[nH]8)C=C7)C=C6)cc4)c2)N3)no1
REMARK SMILES IDX 34 1 33 2 32 3 31 4 30 5 28 6 29 7 27 8 23 9 24 10 105 11
REMARK SMILES IDX 25 12 26 13 22 14 9 15 10 16 14 17 11 18 13 19 12 20 15 21
REMARK SMILES IDX 106 22 16 23 21 24 17 26 20 27 19 28 18 29 6 30 7 31 8 32
REMARK SMILES IDX 5 33 4 35 1 36 2 37 3 38 108 39 107 40 35 41 36 42 37 43
REMARK SMILES IDX 38 44 39 45 40 46 41 47 42 48 43 49 104 50 44 51 103 52
REMARK SMILES IDX 45 53 46 54 47 55 97 56 48 57 102 58 96 59 98 60 49 61
REMARK SMILES IDX 101 62 95 63 94 64 50 66 82 67 62 68 81 69 63 70 66 71 80 72
REMARK SMILES IDX 99 73 64 74 65 75 79 77 100 78 67 79 51 80 52 81 60 82 53 83
REMARK SMILES IDX 54 84 58 85 61 86 55 87 56 88 59 89 57 90 83 91 84 92 92 93
REMARK SMILES IDX 85 94 86 95 90 96 93 97 87 98 88 99 91 100 89 101 68 102
REMARK SMILES IDX 69 103 77 104 70 105 71 106 75 107 78 108 72 109 73 110
REMARK SMILES IDX 76 111 74 112
REMARK H PARENT 106 25 5 34 98 65 66 76
REMARK Flexibility Score: inf
ROOT
ATOM      1  C   UNL A   1      43.019  23.850  29.384  1.00  0.00     0.188 C 
ENDROOT
BRANCH   1   2
ATOM      2  O   UNL A   1      42.956  22.905  28.339  1.00  0.00    -0.376 OA
BRANCH   2   3
ATOM      3  C   UNL A   1      43.240  23.274  26.997  1.00  0.00     0.202 C 
BRANCH   3   4
ATOM      4  C   UNL A   1      42.271  24.043  26.087  1.00  0.00     0.261 C 
BRANCH   4   5
ATOM      5  O   UNL A   1      41.128  24.610  26.731  1.00  0.00    -0.460 OA
BRANCH   5   6
ATOM      6  C   UNL A   1      40.898  25.915  26.439  1.00  0.00     0.338 C 
ATOM      7  O   UNL A   1      41.021  26.454  25.351  1.00  0.00    -0.246 OA
BRANCH   6   8
ATOM      8  C   UNL A   1      40.239  26.580  27.583  1.00  0.00     0.060 A 
ATOM      9  C   UNL A   1      39.581  28.561  28.847  1.00  0.00    -0.025 A 
ATOM     10  C   UNL A   1      38.991  27.696  29.790  1.00  0.00     0.006 A 
ATOM     11  C   UNL A   1      40.204  27.975  27.729  1.00  0.00     0.021 A 
ATOM     12  C   UNL A   1      39.063  26.307  29.667  1.00  0.00     0.001 A 
ATOM     13  C   UNL A   1      39.680  25.749  28.559  1.00  0.00     0.016 A 
BRANCH   9  14
ATOM     14  C   UNL A   1      39.459  30.071  29.030  1.00  0.00     0.113 C 
ATOM     15  C   UNL A   1      37.926  32.293  33.429  1.00  0.00     0.088 A 
ATOM     16  C   UNL A   1      39.315  32.467  33.340  1.00  0.00     0.024 A 
ATOM     17  C   UNL A   1      37.283  31.463  32.518  1.00  0.00     0.028 A 
ATOM     18  C   UNL A   1      40.051  31.838  32.325  1.00  0.00     0.027 A 
ATOM     19  C   UNL A   1      38.002  30.932  31.441  1.00  0.00    -0.020 A 
ATOM     20  C   UNL A   1      39.408  31.075  31.350  1.00  0.00     0.038 A 
ATOM     21  C   UNL A   1      37.329  30.220  30.311  1.00  0.00     0.030 C 
ATOM     22  N   UNL A   1      40.119  30.550  30.268  1.00  0.00    -0.378 N 
ATOM     23  C   UNL A   1      35.852  30.385  29.896  1.00  0.00    -0.003 C 
ATOM     24  C   UNL A   1      38.051  30.677  29.027  1.00  0.00     0.027 C 
ATOM     25  H   UNL A   1      41.101  30.494  30.331  1.00  0.00     0.161 HD
ATOM     26  C   UNL A   1      35.523  31.807  29.387  1.00  0.00     0.004 C 
ATOM     27  C   UNL A   1      35.910  29.599  28.574  1.00  0.00     0.008 C 
ATOM     28  C   UNL A   1      36.957  30.529  27.944  1.00  0.00    -0.005 C 
ATOM     29  C   UNL A   1      36.149  31.847  27.980  1.00  0.00     0.004 C 
BRANCH  15  30
ATOM     30  S   UNL A   1      37.065  33.241  34.672  1.00  0.00     0.263 S 
ATOM     31  O   UNL A   1      35.648  33.022  34.488  1.00  0.00    -0.201 OA
ATOM     32  O   UNL A   1      37.620  34.580  34.587  1.00  0.00    -0.201 OA
BRANCH  30  33
ATOM     33  N   UNL A   1      37.516  32.725  36.191  1.00  0.00    -0.261 N 
ATOM     34  H   UNL A   1      37.007  31.970  36.566  1.00  0.00     0.182 HD
BRANCH  33  35
ATOM     35  C   UNL A   1      38.525  33.242  36.980  1.00  0.00     0.183 A 
ATOM     36  C   UNL A   1      41.739  33.008  38.699  1.00  0.00     0.091 C 
ATOM     37  C   UNL A   1      40.451  33.275  38.034  1.00  0.00     0.135 A 
ATOM     38  C   UNL A   1      39.869  32.820  36.877  1.00  0.00     0.096 A 
ATOM     39  O   UNL A   1      39.569  34.078  38.686  1.00  0.00    -0.360 OA
ATOM     40  N   UNL A   1      38.358  34.070  38.012  1.00  0.00    -0.061 NA
ENDBRANCH  33  35
ENDBRANCH  30  33
ENDBRANCH  15  30
ENDBRANCH   9  14
ENDBRANCH   6   8
ENDBRANCH   5   6
ENDBRANCH   4   5
ENDBRANCH   3   4
ENDBRANCH   2   3
ENDBRANCH   1   2
BRANCH   1  41
ATOM     41  C   UNL A   1      44.235  23.890  30.335  1.00  0.00     0.188 C 
BRANCH  41  42
ATOM     42  O   UNL A   1      44.289  23.082  31.493  1.00  0.00    -0.376 OA
BRANCH  42  43
ATOM     43  C   UNL A   1      44.314  23.682  32.776  1.00  0.00     0.202 C 
BRANCH  43  44
ATOM     44  C   UNL A   1      43.382  23.223  33.903  1.00  0.00     0.261 C 
BRANCH  44  45
ATOM     45  O   UNL A   1      43.777  23.631  35.219  1.00  0.00    -0.460 OA
BRANCH  45  46
ATOM     46  C   UNL A   1      42.944  24.510  35.829  1.00  0.00     0.338 C 
ATOM     47  O   UNL A   1      42.245  24.318  36.811  1.00  0.00    -0.246 OA
BRANCH  46  48
ATOM     48  C   UNL A   1      43.137  25.842  35.228  1.00  0.00     0.060 A 
ATOM     49  C   UNL A   1      44.379  26.476  35.286  1.00  0.00     0.016 A 
ATOM     50  C   UNL A   1      42.054  26.449  34.579  1.00  0.00     0.016 A 
ATOM     51  C   UNL A   1      44.542  27.714  34.662  1.00  0.00     0.010 A 
ATOM     52  C   UNL A   1      42.215  27.694  33.970  1.00  0.00     0.010 A 
ATOM     53  C   UNL A   1      43.468  28.323  33.986  1.00  0.00    -0.014 A 
BRANCH  53  54
ATOM     54  C   UNL A   1      43.710  29.523  33.150  1.00  0.00     0.031 A 
ATOM     55  C   UNL A   1      44.168  29.422  31.728  1.00  0.00     0.074 A 
ATOM     56  C   UNL A   1      43.502  30.728  33.710  1.00  0.00     0.049 A 
ATOM     57  N   UNL A   1      44.324  30.380  30.849  1.00  0.00    -0.248 NA
ATOM     58  C   UNL A   1      44.502  28.082  31.229  1.00  0.00     0.031 C 
ATOM     59  C   UNL A   1      43.086  30.943  35.097  1.00  0.00     0.029 A 
ATOM     60  N   UNL A   1      43.594  31.992  33.187  1.00  0.00    -0.354 N 
ATOM     61  C   UNL A   1      44.741  29.760  29.681  1.00  0.00     0.074 A 
ATOM     62  C   UNL A   1      44.870  28.347  29.980  1.00  0.00     0.031 C 
ATOM     63  C   UNL A   1      42.925  32.257  35.306  1.00  0.00     0.029 A 
ATOM     64  C   UNL A   1      43.246  32.977  34.077  1.00  0.00     0.049 A 
ATOM     65  H   UNL A   1      43.882  32.175  32.264  1.00  0.00     0.167 HD
ATOM     66  C   UNL A   1      44.970  30.320  28.468  1.00  0.00     0.037 A 
ATOM     67  C   UNL A   1      43.178  34.312  33.918  1.00  0.00     0.037 A 
ATOM     68  C   UNL A   1      44.862  31.731  28.187  1.00  0.00     0.049 A 
ATOM     69  C   UNL A   1      43.489  34.911  32.576  1.00  0.00     0.074 A 
ATOM     70  C   UNL A   1      45.048  32.386  26.981  1.00  0.00     0.029 A 
ATOM     71  N   UNL A   1      44.551  32.708  29.123  1.00  0.00    -0.354 N 
ATOM     72  N   UNL A   1      43.807  34.308  31.457  1.00  0.00    -0.248 NA
ATOM     73  C   UNL A   1      43.422  36.376  32.472  1.00  0.00     0.031 C 
ATOM     74  C   UNL A   1      44.905  33.760  27.198  1.00  0.00     0.029 A 
ATOM     75  C   UNL A   1      44.570  33.960  28.527  1.00  0.00     0.049 A 
ATOM     76  H   UNL A   1      44.347  32.536  30.071  1.00  0.00     0.167 HD
ATOM     77  C   UNL A   1      43.955  35.314  30.511  1.00  0.00     0.074 A 
ATOM     78  C   UNL A   1      43.676  36.565  31.184  1.00  0.00     0.031 C 
ATOM     79  C   UNL A   1      44.293  35.203  29.203  1.00  0.00     0.037 A 
BRANCH  66  80
ATOM     80  C   UNL A   1      45.347  29.410  27.334  1.00  0.00     0.064 A 
ATOM     81  C   UNL A   1      46.692  29.158  27.021  1.00  0.00     0.173 A 
ATOM     82  C   UNL A   1      44.367  28.708  26.618  1.00  0.00     0.173 A 
ATOM     83  F   UNL A   1      47.669  29.803  27.676  1.00  0.00    -0.203 F 
ATOM     84  C   UNL A   1      47.039  28.249  26.026  1.00  0.00     0.198 A 
ATOM     85  C   UNL A   1      44.717  27.780  25.641  1.00  0.00     0.198 A 
ATOM     86  F   UNL A   1      43.066  28.901  26.885  1.00  0.00    -0.203 F 
ATOM     87  F   UNL A   1      48.330  28.045  25.727  1.00  0.00    -0.200 F 
ATOM     88  C   UNL A   1      46.053  27.553  25.344  1.00  0.00     0.200 A 
ATOM     89  F   UNL A   1      43.764  27.093  24.997  1.00  0.00    -0.200 F 
ATOM     90  F   UNL A   1      46.389  26.662  24.400  1.00  0.00    -0.200 F 
ENDBRANCH  66  80
BRANCH  67  91
ATOM     91  C   UNL A   1      42.740  35.160  35.056  1.00  0.00     0.064 A 
ATOM     92  C   UNL A   1      41.399  35.545  35.188  1.00  0.00     0.173 A 
ATOM     93  C   UNL A   1      43.639  35.564  36.053  1.00  0.00     0.173 A 
ATOM     94  F   UNL A   1      40.506  35.194  34.250  1.00  0.00    -0.203 F 
ATOM     95  C   UNL A   1      40.976  36.311  36.271  1.00  0.00     0.198 A 
ATOM     96  C   UNL A   1      43.208  36.306  37.150  1.00  0.00     0.198 A 
ATOM     97  F   UNL A   1      44.931  35.212  35.976  1.00  0.00    -0.203 F 
ATOM     98  F   UNL A   1      39.694  36.691  36.359  1.00  0.00    -0.200 F 
ATOM     99  C   UNL A   1      41.878  36.683  37.256  1.00  0.00     0.200 A 
ATOM    100  F   UNL A   1      44.080  36.647  38.109  1.00  0.00    -0.200 F 
ATOM    101  F   UNL A   1      41.466  37.406  38.306  1.00  0.00    -0.200 F 
ENDBRANCH  67  91
BRANCH  79 102
ATOM    102  C   UNL A   1      44.367  36.469  28.397  1.00  0.00     0.064 A 
ATOM    103  C   UNL A   1      45.587  37.123  28.166  1.00  0.00     0.173 A 
ATOM    104  C   UNL A   1      43.216  37.000  27.796  1.00  0.00     0.173 A 
ATOM    105  F   UNL A   1      46.715  36.665  28.730  1.00  0.00    -0.203 F 
ATOM    106  C   UNL A   1      45.648  38.268  27.377  1.00  0.00     0.198 A 
ATOM    107  C   UNL A   1      43.284  38.129  26.983  1.00  0.00     0.198 A 
ATOM    108  F   UNL A   1      42.024  36.412  27.981  1.00  0.00    -0.203 F 
ATOM    109  F   UNL A   1      46.818  38.899  27.202  1.00  0.00    -0.200 F 
ATOM    110  C   UNL A   1      44.500  38.764  26.778  1.00  0.00     0.200 A 
ATOM    111  F   UNL A   1      42.176  38.597  26.393  1.00  0.00    -0.200 F 
ATOM    112  F   UNL A   1      44.563  39.858  26.006  1.00  0.00    -0.200 F 
ENDBRANCH  79 102
ENDBRANCH  53  54
ENDBRANCH  46  48
ENDBRANCH  45  46
ENDBRANCH  44  45
ENDBRANCH  43  44
ENDBRANCH  42  43
ENDBRANCH  41  42
ENDBRANCH   1  41
TORSDOF 21
ENDMDL
MODEL 3
REMARK VINA RESULT:      -8.7      5.970     10.710
REMARK SMILES Cc1cc(NS(=O)(=O)c2ccc3c(c2)[C@H]2[C@H]4CC[C@H](C4)[C@@H]2[C@H](c2cccc(C(=O)OCCOCCOCCOC(=O)c4ccc(-c5c6nc(c(-c7c(F)c(F)c(F)c(F)c7F)c7ccc([nH]7)c(-c7c(F)c(F)c(F)c(F)c7F)c7nc(c(-c8c(F)c(F)c(F)c(F)c8F)c8ccc5[nH]8)C=C7)C=C6)cc4)c2)N3)no1
REMARK SMILES IDX 34 1 33 2 32 3 31 4 30 5 28 6 29 7 27 8 23 9 24 10 105 11
REMARK SMILES IDX 25 12 26 13 22 14 9 15 10 16 14 17 11 18 13 19 12 20 15 21
REMARK SMILES IDX 106 22 16 23 21 24 17 26 20 27 19 28 18 29 6 30 7 31 8 32
REMARK SMILES IDX 5 33 4 35 1 36 2 37 3 38 108 39 107 40 35 41 36 42 37 43
REMARK SMILES IDX 38 44 39 45 40 46 41 47 42 48 43 49 104 50 44 51 103 52
REMARK SMILES IDX 45 53 46 54 47 55 97 56 48 57 102 58 96 59 98 60 49 61
REMARK SMILES IDX 101 62 95 63 94 64 50 66 82 67 62 68 81 69 63 70 66 71 80 72
REMARK SMILES IDX 99 73 64 74 65 75 79 77 100 78 67 79 51 80 52 81 60 82 53 83
REMARK SMILES IDX 54 84 58 85 61 86 55 87 56 88 59 89 57 90 83 91 84 92 92 93
REMARK SMILES IDX 85 94 86 95 90 96 93 97 87 98 88 99 91 100 89 101 68 102
REMARK SMILES IDX 69 103 77 104 70 105 71 106 75 107 78 108 72 109 73 110
REMARK SMILES IDX 76 111 74 112
REMARK H PARENT 106 25 5 34 98 65 66 76
REMARK Flexibility Score: inf
ROOT
ATOM      1  C   UNL A   1      38.178  29.169  28.356  1.00  0.00     0.188 C 
ENDROOT
BRANCH   1   2
ATOM      2  O   UNL A   1      38.466  28.100  29.229  1.00  0.00    -0.376 OA
BRANCH   2   3
ATOM      3  C   UNL A   1      39.337  27.048  28.841  1.00  0.00     0.202 C 
BRANCH   3   4
ATOM      4  C   UNL A   1      39.474  26.523  27.404  1.00  0.00     0.261 C 
BRANCH   4   5
ATOM      5  O   UNL A   1      38.752  25.326  27.107  1.00  0.00    -0.460 OA
BRANCH   5   6
ATOM      6  C   UNL A   1      39.480  24.184  27.201  1.00  0.00     0.338 C 
ATOM      7  O   UNL A   1      40.411  23.969  27.960  1.00  0.00    -0.246 OA
BRANCH   6   8
ATOM      8  C   UNL A   1      38.842  23.113  26.406  1.00  0.00     0.060 A 
ATOM      9  C   UNL A   1      37.049  22.237  25.002  1.00  0.00    -0.025 A 
ATOM     10  C   UNL A   1      37.745  21.012  24.971  1.00  0.00     0.006 A 
ATOM     11  C   UNL A   1      37.626  23.294  25.731  1.00  0.00     0.021 A 
ATOM     12  C   UNL A   1      38.934  20.819  25.677  1.00  0.00     0.001 A 
ATOM     13  C   UNL A   1      39.487  21.872  26.388  1.00  0.00     0.016 A 
BRANCH   9  14
ATOM     14  C   UNL A   1      35.759  22.391  24.200  1.00  0.00     0.113 C 
ATOM     15  C   UNL A   1      32.614  26.463  24.617  1.00  0.00     0.088 A 
ATOM     16  C   UNL A   1      33.320  26.607  23.413  1.00  0.00     0.024 A 
ATOM     17  C   UNL A   1      32.983  25.460  25.508  1.00  0.00     0.028 A 
ATOM     18  C   UNL A   1      34.367  25.732  23.090  1.00  0.00     0.027 A 
ATOM     19  C   UNL A   1      33.948  24.522  25.129  1.00  0.00    -0.020 A 
ATOM     20  C   UNL A   1      34.689  24.666  23.930  1.00  0.00     0.038 A 
ATOM     21  C   UNL A   1      34.227  23.297  25.942  1.00  0.00     0.030 C 
ATOM     22  N   UNL A   1      35.646  23.720  23.554  1.00  0.00    -0.378 N 
ATOM     23  C   UNL A   1      33.254  22.641  26.943  1.00  0.00    -0.003 C 
ATOM     24  C   UNL A   1      34.433  22.150  24.932  1.00  0.00     0.027 C 
ATOM     25  H   UNL A   1      36.272  23.947  22.828  1.00  0.00     0.161 HD
ATOM     26  C   UNL A   1      31.982  22.077  26.267  1.00  0.00     0.004 C 
ATOM     27  C   UNL A   1      34.051  21.350  27.205  1.00  0.00     0.008 C 
ATOM     28  C   UNL A   1      34.007  20.900  25.737  1.00  0.00    -0.005 C 
ATOM     29  C   UNL A   1      32.474  20.795  25.571  1.00  0.00     0.004 C 
BRANCH  15  30
ATOM     30  S   UNL A   1      31.215  27.541  24.875  1.00  0.00     0.263 S 
ATOM     31  O   UNL A   1      31.726  28.867  25.143  1.00  0.00    -0.201 OA
ATOM     32  O   UNL A   1      30.381  26.862  25.850  1.00  0.00    -0.201 OA
BRANCH  30  33
ATOM     33  N   UNL A   1      30.269  27.576  23.505  1.00  0.00    -0.261 N 
ATOM     34  H   UNL A   1      30.469  26.901  22.815  1.00  0.00     0.182 HD
BRANCH  33  35
ATOM     35  C   UNL A   1      29.233  28.448  23.231  1.00  0.00     0.183 A 
ATOM     36  C   UNL A   1      27.620  31.721  23.397  1.00  0.00     0.091 C 
ATOM     37  C   UNL A   1      28.151  30.359  23.208  1.00  0.00     0.135 A 
ATOM     38  C   UNL A   1      29.419  29.843  23.105  1.00  0.00     0.096 A 
ATOM     39  O   UNL A   1      27.256  29.337  23.198  1.00  0.00    -0.360 OA
ATOM     40  N   UNL A   1      27.938  28.131  23.197  1.00  0.00    -0.061 NA
ENDBRANCH  33  35
ENDBRANCH  30  33
ENDBRANCH  15  30
ENDBRANCH   9  14
ENDBRANCH   6   8
ENDBRANCH   5   6
ENDBRANCH   4   5
ENDBRANCH   3   4
ENDBRANCH   2   3
ENDBRANCH   1   2
BRANCH   1  41
ATOM     41  C   UNL A   1      37.059  30.178  28.691  1.00  0.00     0.188 C 
BRANCH  41  42
ATOM     42  O   UNL A   1      37.282  31.252  29.582  1.00  0.00    -0.376 OA
BRANCH  42  43
ATOM     43  C   UNL A   1      36.225  32.142  29.899  1.00  0.00     0.202 C 
BRANCH  43  44
ATOM     44  C   UNL A   1      35.652  32.245  31.317  1.00  0.00     0.261 C 
BRANCH  44  45
ATOM     45  O   UNL A   1      36.063  31.204  32.213  1.00  0.00    -0.460 OA
BRANCH  45  46
ATOM     46  C   UNL A   1      36.838  31.604  33.251  1.00  0.00     0.338 C 
ATOM     47  O   UNL A   1      36.488  32.191  34.262  1.00  0.00    -0.246 OA
BRANCH  46  48
ATOM     48  C   UNL A   1      38.194  31.054  33.070  1.00  0.00     0.060 A 
ATOM     49  C   UNL A   1      38.390  29.855  32.385  1.00  0.00     0.016 A 
ATOM     50  C   UNL A   1      39.283  31.773  33.582  1.00  0.00     0.016 A 
ATOM     51  C   UNL A   1      39.691  29.389  32.187  1.00  0.00     0.010 A 
ATOM     52  C   UNL A   1      40.581  31.296  33.397  1.00  0.00     0.010 A 
ATOM     53  C   UNL A   1      40.795  30.113  32.675  1.00  0.00    -0.014 A 
BRANCH  53  54
ATOM     54  C   UNL A   1      42.167  29.724  32.273  1.00  0.00     0.031 A 
ATOM     55  C   UNL A   1      42.893  28.587  32.922  1.00  0.00     0.074 A 
ATOM     56  C   UNL A   1      42.755  30.428  31.290  1.00  0.00     0.049 A 
ATOM     57  N   UNL A   1      44.055  28.071  32.607  1.00  0.00    -0.248 NA
ATOM     58  C   UNL A   1      42.241  27.951  34.075  1.00  0.00     0.031 C 
ATOM     59  C   UNL A   1      42.152  31.577  30.610  1.00  0.00     0.029 A 
ATOM     60  N   UNL A   1      43.976  30.281  30.681  1.00  0.00    -0.354 N 
ATOM     61  C   UNL A   1      44.262  27.028  33.498  1.00  0.00     0.074 A 
ATOM     62  C   UNL A   1      43.131  27.022  34.405  1.00  0.00     0.031 C 
ATOM     63  C   UNL A   1      42.988  32.007  29.655  1.00  0.00     0.029 A 
ATOM     64  C   UNL A   1      44.193  31.181  29.669  1.00  0.00     0.049 A 
ATOM     65  H   UNL A   1      44.631  29.596  30.946  1.00  0.00     0.167 HD
ATOM     66  C   UNL A   1      45.291  26.148  33.534  1.00  0.00     0.037 A 
ATOM     67  C   UNL A   1      45.239  31.320  28.834  1.00  0.00     0.037 A 
ATOM     68  C   UNL A   1      46.424  26.178  32.642  1.00  0.00     0.049 A 
ATOM     69  C   UNL A   1      46.392  30.361  28.932  1.00  0.00     0.074 A 
ATOM     70  C   UNL A   1      47.502  25.309  32.587  1.00  0.00     0.029 A 
ATOM     71  N   UNL A   1      46.636  27.131  31.656  1.00  0.00    -0.354 N 
ATOM     72  N   UNL A   1      46.542  29.331  29.728  1.00  0.00    -0.248 NA
ATOM     73  C   UNL A   1      47.515  30.579  28.010  1.00  0.00     0.031 C 
ATOM     74  C   UNL A   1      48.389  25.767  31.608  1.00  0.00     0.029 A 
ATOM     75  C   UNL A   1      47.839  26.889  31.010  1.00  0.00     0.049 A 
ATOM     76  H   UNL A   1      46.021  27.872  31.446  1.00  0.00     0.167 HD
ATOM     77  C   UNL A   1      47.763  28.762  29.388  1.00  0.00     0.074 A 
ATOM     78  C   UNL A   1      48.305  29.554  28.304  1.00  0.00     0.031 C 
ATOM     79  C   UNL A   1      48.375  27.681  29.931  1.00  0.00     0.037 A 
BRANCH  66  80
ATOM     80  C   UNL A   1      45.244  25.054  34.564  1.00  0.00     0.064 A 
ATOM     81  C   UNL A   1      44.739  23.783  34.250  1.00  0.00     0.173 A 
ATOM     82  C   UNL A   1      45.794  25.243  35.840  1.00  0.00     0.173 A 
ATOM     83  F   UNL A   1      44.201  23.550  33.043  1.00  0.00    -0.203 F 
ATOM     84  C   UNL A   1      44.774  22.747  35.180  1.00  0.00     0.198 A 
ATOM     85  C   UNL A   1      45.852  24.198  36.759  1.00  0.00     0.198 A 
ATOM     86  F   UNL A   1      46.303  26.435  36.188  1.00  0.00    -0.203 F 
ATOM     87  F   UNL A   1      44.261  21.550  34.865  1.00  0.00    -0.200 F 
ATOM     88  C   UNL A   1      45.339  22.952  36.429  1.00  0.00     0.200 A 
ATOM     89  F   UNL A   1      46.417  24.391  37.958  1.00  0.00    -0.200 F 
ATOM     90  F   UNL A   1      45.392  21.948  37.315  1.00  0.00    -0.200 F 
ENDBRANCH  66  80
BRANCH  67  91
ATOM     91  C   UNL A   1      45.207  32.379  27.794  1.00  0.00     0.064 A 
ATOM     92  C   UNL A   1      45.969  33.546  27.937  1.00  0.00     0.173 A 
ATOM     93  C   UNL A   1      44.451  32.230  26.623  1.00  0.00     0.173 A 
ATOM     94  F   UNL A   1      46.696  33.740  29.048  1.00  0.00    -0.203 F 
ATOM     95  C   UNL A   1      45.970  34.528  26.950  1.00  0.00     0.198 A 
ATOM     96  C   UNL A   1      44.475  33.200  25.624  1.00  0.00     0.198 A 
ATOM     97  F   UNL A   1      43.712  31.126  26.436  1.00  0.00    -0.203 F 
ATOM     98  F   UNL A   1      46.685  35.648  27.124  1.00  0.00    -0.200 F 
ATOM     99  C   UNL A   1      45.231  34.350  25.790  1.00  0.00     0.200 A 
ATOM    100  F   UNL A   1      43.774  33.015  24.496  1.00  0.00    -0.200 F 
ATOM    101  F   UNL A   1      45.246  35.288  24.834  1.00  0.00    -0.200 F 
ENDBRANCH  67  91
BRANCH  79 102
ATOM    102  C   UNL A   1      49.700  27.272  29.354  1.00  0.00     0.064 A 
ATOM    103  C   UNL A   1      50.910  27.754  29.876  1.00  0.00     0.173 A 
ATOM    104  C   UNL A   1      49.765  26.339  28.308  1.00  0.00     0.173 A 
ATOM    105  F   UNL A   1      50.904  28.660  30.867  1.00  0.00    -0.203 F 
ATOM    106  C   UNL A   1      52.132  27.330  29.363  1.00  0.00     0.198 A 
ATOM    107  C   UNL A   1      50.989  25.893  27.817  1.00  0.00     0.198 A 
ATOM    108  F   UNL A   1      48.638  25.842  27.775  1.00  0.00    -0.203 F 
ATOM    109  F   UNL A   1      53.274  27.834  29.852  1.00  0.00    -0.200 F 
ATOM    110  C   UNL A   1      52.172  26.392  28.342  1.00  0.00     0.200 A 
ATOM    111  F   UNL A   1      51.025  24.976  26.841  1.00  0.00    -0.200 F 
ATOM    112  F   UNL A   1      53.349  25.973  27.859  1.00  0.00    -0.200 F 
ENDBRANCH  79 102
ENDBRANCH  53  54
ENDBRANCH  46  48
ENDBRANCH  45  46
ENDBRANCH  44  45
ENDBRANCH  43  44
ENDBRANCH  42  43
ENDBRANCH  41  42
ENDBRANCH   1  41
TORSDOF 21
ENDMDL
