MODEL 1
REMARK VINA RESULT:     -11.5      0.000      0.000
REMARK SMILES CC(C)[C@H](NC(=O)OCc1ccccc1)C(=O)NCC(=O)OCCOCCOCCOC(=O)c1ccc(-c2c3nc(c(-c4c(F)c(F)c(F)c(F)c4F)c4ccc([nH]4)c(-c4c(F)c(F)c(F)c(F)c4F)c4nc(c(-c5c(F)c(F)c(F)c(F)c5F)c5ccc2[nH]5)C=C4)C=C3)cc1
REMARK SMILES IDX 24 1 23 2 22 3 20 4 21 5 19 6 18 7 16 8 17 9 4 11 2 12 1 13
REMARK SMILES IDX 3 14 5 15 6 16 7 18 8 19 9 20 10 21 11 22 15 23 12 24 14 25
REMARK SMILES IDX 13 26 25 27 26 28 27 29 28 30 29 31 30 32 31 33 32 34 33 35
REMARK SMILES IDX 34 36 35 37 96 38 36 39 95 40 37 41 38 42 39 43 89 44 40 45
REMARK SMILES IDX 94 46 88 47 90 48 41 49 93 50 87 51 86 52 42 54 74 55 54 56
REMARK SMILES IDX 73 57 55 58 58 59 72 60 91 61 56 62 57 63 71 65 92 66 59 67
REMARK SMILES IDX 43 68 44 69 52 70 45 71 46 72 50 73 53 74 47 75 48 76 51 77
REMARK SMILES IDX 49 78 75 79 76 80 84 81 77 82 78 83 82 84 85 85 79 86 80 87
REMARK SMILES IDX 83 88 81 89 60 90 61 91 69 92 62 93 63 94 67 95 70 96 64 97
REMARK SMILES IDX 65 98 68 99 66 100
REMARK H PARENT 18 10 5 17 90 53 58 64
REMARK Flexibility Score: inf
ROOT
ATOM      1  C   UNL A   1      41.601  19.495  26.903  1.00  0.00     0.202 C 
ENDROOT
BRANCH   1   2
ATOM      2  C   UNL A   1      39.807  20.064  25.785  1.00  0.00     0.261 C 
BRANCH   2   3
ATOM      3  O   UNL A   1      38.982  21.560  25.945  1.00  0.00    -0.462 OA
BRANCH   3   4
ATOM      4  C   UNL A   1      37.785  21.844  25.357  1.00  0.00     0.325 C 
ATOM      5  O   UNL A   1      37.695  22.363  24.246  1.00  0.00    -0.250 OA
BRANCH   4   6
ATOM      6  C   UNL A   1      36.486  21.315  26.102  1.00  0.00     0.238 C 
BRANCH   6   7
ATOM      7  N   UNL A   1      35.134  20.966  25.603  1.00  0.00    -0.343 N 
ATOM      8  C   UNL A   1      34.152  21.649  24.966  1.00  0.00     0.243 C 
ATOM      9  O   UNL A   1      33.193  21.007  24.528  1.00  0.00    -0.273 OA
ATOM     10  H   UNL A   1      34.897  20.025  25.773  1.00  0.00     0.164 HD
BRANCH   8  11
ATOM     11  C   UNL A   1      34.313  23.129  24.662  1.00  0.00     0.177 C 
BRANCH  11  12
ATOM     12  C   UNL A   1      33.237  23.942  25.480  1.00  0.00     0.015 C 
ATOM     13  C   UNL A   1      32.658  23.213  26.700  1.00  0.00     0.010 C 
ATOM     14  C   UNL A   1      33.665  25.384  25.865  1.00  0.00     0.010 C 
ENDBRANCH  11  12
BRANCH  11  15
ATOM     15  N   UNL A   1      34.339  23.372  23.216  1.00  0.00    -0.309 N 
ATOM     16  C   UNL A   1      33.258  23.618  22.393  1.00  0.00     0.408 C 
ATOM     17  H   UNL A   1      35.225  23.359  22.785  1.00  0.00     0.167 HD
ATOM     18  O   UNL A   1      33.360  23.498  21.179  1.00  0.00    -0.225 OA
BRANCH  16  19
ATOM     19  O   UNL A   1      32.155  24.086  23.034  1.00  0.00    -0.445 OA
BRANCH  19  20
ATOM     20  C   UNL A   1      31.440  25.175  22.401  1.00  0.00     0.270 C 
BRANCH  20  21
ATOM     21  C   UNL A   1      31.857  26.503  22.996  1.00  0.00    -0.011 A 
ATOM     22  C   UNL A   1      30.781  27.321  24.182  1.00  0.00     0.007 A 
ATOM     23  C   UNL A   1      33.438  27.238  22.649  1.00  0.00     0.007 A 
ATOM     24  C   UNL A   1      31.368  28.753  25.171  1.00  0.00     0.000 A 
ATOM     25  C   UNL A   1      34.012  28.651  23.578  1.00  0.00     0.000 A 
ATOM     26  C   UNL A   1      32.974  29.448  24.793  1.00  0.00     0.000 A 
ENDBRANCH  20  21
ENDBRANCH  19  20
ENDBRANCH  16  19
ENDBRANCH  11  15
ENDBRANCH   8  11
ENDBRANCH   6   7
ENDBRANCH   4   6
ENDBRANCH   3   4
ENDBRANCH   2   3
ENDBRANCH   1   2
BRANCH   1  27
ATOM     27  O   UNL A   1      43.011  18.838  26.394  1.00  0.00    -0.376 OA
BRANCH  27  28
ATOM     28  C   UNL A   1      43.607  19.106  25.107  1.00  0.00     0.188 C 
BRANCH  28  29
ATOM     29  C   UNL A   1      45.042  19.634  25.016  1.00  0.00     0.188 C 
BRANCH  29  30
ATOM     30  O   UNL A   1      45.223  20.817  24.295  1.00  0.00    -0.376 OA
BRANCH  30  31
ATOM     31  C   UNL A   1      46.038  21.837  24.838  1.00  0.00     0.202 C 
BRANCH  31  32
ATOM     32  C   UNL A   1      45.449  23.042  25.595  1.00  0.00     0.261 C 
BRANCH  32  33
ATOM     33  O   UNL A   1      44.415  23.850  24.989  1.00  0.00    -0.460 OA
BRANCH  33  34
ATOM     34  C   UNL A   1      43.100  23.535  25.107  1.00  0.00     0.338 C 
ATOM     35  O   UNL A   1      42.581  22.457  24.880  1.00  0.00    -0.246 OA
BRANCH  34  36
ATOM     36  C   UNL A   1      42.501  24.626  25.950  1.00  0.00     0.060 A 
ATOM     37  C   UNL A   1      42.955  25.954  25.796  1.00  0.00     0.016 A 
ATOM     38  C   UNL A   1      41.388  24.373  26.753  1.00  0.00     0.016 A 
ATOM     39  C   UNL A   1      42.342  27.005  26.491  1.00  0.00     0.010 A 
ATOM     40  C   UNL A   1      40.797  25.415  27.474  1.00  0.00     0.010 A 
ATOM     41  C   UNL A   1      41.310  26.722  27.393  1.00  0.00    -0.014 A 
BRANCH  41  42
ATOM     42  C   UNL A   1      41.018  27.668  28.501  1.00  0.00     0.031 A 
ATOM     43  C   UNL A   1      41.887  27.553  29.729  1.00  0.00     0.074 A 
ATOM     44  C   UNL A   1      40.033  28.582  28.453  1.00  0.00     0.049 A 
ATOM     45  N   UNL A   1      41.789  28.152  30.887  1.00  0.00    -0.248 NA
ATOM     46  C   UNL A   1      43.015  26.611  29.633  1.00  0.00     0.031 C 
ATOM     47  C   UNL A   1      39.162  28.834  27.311  1.00  0.00     0.029 A 
ATOM     48  N   UNL A   1      39.594  29.460  29.415  1.00  0.00    -0.354 N 
ATOM     49  C   UNL A   1      42.830  27.644  31.656  1.00  0.00     0.074 A 
ATOM     50  C   UNL A   1      43.519  26.662  30.852  1.00  0.00     0.031 C 
ATOM     51  C   UNL A   1      38.277  29.793  27.643  1.00  0.00     0.029 A 
ATOM     52  C   UNL A   1      38.494  30.189  29.035  1.00  0.00     0.049 A 
ATOM     53  H   UNL A   1      40.028  29.558  30.294  1.00  0.00     0.167 HD
ATOM     54  C   UNL A   1      43.188  27.973  32.919  1.00  0.00     0.037 A 
ATOM     55  C   UNL A   1      37.737  31.051  29.745  1.00  0.00     0.037 A 
ATOM     56  C   UNL A   1      42.491  28.942  33.718  1.00  0.00     0.049 A 
ATOM     57  C   UNL A   1      38.094  31.333  31.187  1.00  0.00     0.074 A 
ATOM     58  C   UNL A   1      42.771  29.360  35.006  1.00  0.00     0.029 A 
ATOM     59  N   UNL A   1      41.362  29.636  33.307  1.00  0.00    -0.354 N 
ATOM     60  N   UNL A   1      39.087  30.868  31.905  1.00  0.00    -0.248 NA
ATOM     61  C   UNL A   1      37.220  32.266  31.916  1.00  0.00     0.031 C 
ATOM     62  C   UNL A   1      41.767  30.247  35.402  1.00  0.00     0.029 A 
ATOM     63  C   UNL A   1      40.912  30.452  34.331  1.00  0.00     0.049 A 
ATOM     64  H   UNL A   1      40.943  29.558  32.420  1.00  0.00     0.167 HD
ATOM     65  C   UNL A   1      38.985  31.478  33.150  1.00  0.00     0.074 A 
ATOM     66  C   UNL A   1      37.836  32.358  33.086  1.00  0.00     0.031 C 
ATOM     67  C   UNL A   1      39.770  31.330  34.246  1.00  0.00     0.037 A 
BRANCH  54  68
ATOM     68  C   UNL A   1      44.355  27.241  33.521  1.00  0.00     0.064 A 
ATOM     69  C   UNL A   1      44.193  26.056  34.257  1.00  0.00     0.173 A 
ATOM     70  C   UNL A   1      45.659  27.733  33.356  1.00  0.00     0.173 A 
ATOM     71  F   UNL A   1      42.967  25.550  34.462  1.00  0.00    -0.203 F 
ATOM     72  C   UNL A   1      45.285  25.416  34.839  1.00  0.00     0.198 A 
ATOM     73  C   UNL A   1      46.752  27.068  33.903  1.00  0.00     0.198 A 
ATOM     74  F   UNL A   1      45.875  28.860  32.662  1.00  0.00    -0.203 F 
ATOM     75  F   UNL A   1      45.096  24.327  35.596  1.00  0.00    -0.200 F 
ATOM     76  C   UNL A   1      46.565  25.918  34.655  1.00  0.00     0.200 A 
ATOM     77  F   UNL A   1      47.990  27.545  33.708  1.00  0.00    -0.200 F 
ATOM     78  F   UNL A   1      47.616  25.299  35.209  1.00  0.00    -0.200 F 
ENDBRANCH  54  68
BRANCH  55  79
ATOM     79  C   UNL A   1      36.554  31.703  29.116  1.00  0.00     0.064 A 
ATOM     80  C   UNL A   1      36.530  33.086  28.880  1.00  0.00     0.173 A 
ATOM     81  C   UNL A   1      35.415  30.966  28.760  1.00  0.00     0.173 A 
ATOM     82  F   UNL A   1      37.581  33.843  29.229  1.00  0.00    -0.203 F 
ATOM     83  C   UNL A   1      35.408  33.707  28.333  1.00  0.00     0.198 A 
ATOM     84  C   UNL A   1      34.307  31.581  28.180  1.00  0.00     0.198 A 
ATOM     85  F   UNL A   1      35.379  29.641  28.969  1.00  0.00    -0.203 F 
ATOM     86  F   UNL A   1      35.394  35.036  28.169  1.00  0.00    -0.200 F 
ATOM     87  C   UNL A   1      34.301  32.952  27.975  1.00  0.00     0.200 A 
ATOM     88  F   UNL A   1      33.245  30.847  27.823  1.00  0.00    -0.200 F 
ATOM     89  F   UNL A   1      33.225  33.548  27.443  1.00  0.00    -0.200 F 
ENDBRANCH  55  79
BRANCH  67  90
ATOM     90  C   UNL A   1      39.457  32.175  35.452  1.00  0.00     0.064 A 
ATOM     91  C   UNL A   1      39.981  33.465  35.614  1.00  0.00     0.173 A 
ATOM     92  C   UNL A   1      38.575  31.698  36.436  1.00  0.00     0.173 A 
ATOM     93  F   UNL A   1      40.835  33.968  34.709  1.00  0.00    -0.203 F 
ATOM     94  C   UNL A   1      39.663  34.232  36.733  1.00  0.00     0.198 A 
ATOM     95  C   UNL A   1      38.226  32.484  37.531  1.00  0.00     0.198 A 
ATOM     96  F   UNL A   1      38.033  30.476  36.324  1.00  0.00    -0.203 F 
ATOM     97  F   UNL A   1      40.223  35.438  36.898  1.00  0.00    -0.200 F 
ATOM     98  C   UNL A   1      38.778  33.745  37.685  1.00  0.00     0.200 A 
ATOM     99  F   UNL A   1      37.352  32.019  38.434  1.00  0.00    -0.200 F 
ATOM    100  F   UNL A   1      38.464  34.489  38.753  1.00  0.00    -0.200 F 
ENDBRANCH  67  90
ENDBRANCH  41  42
ENDBRANCH  34  36
ENDBRANCH  33  34
ENDBRANCH  32  33
ENDBRANCH  31  32
ENDBRANCH  30  31
ENDBRANCH  29  30
ENDBRANCH  28  29
ENDBRANCH  27  28
ENDBRANCH   1  27
TORSDOF 24
ENDMDL
MODEL 2
REMARK VINA RESULT:     -11.0      5.495     10.864
REMARK SMILES CC(C)[C@H](NC(=O)OCc1ccccc1)C(=O)NCC(=O)OCCOCCOCCOC(=O)c1ccc(-c2c3nc(c(-c4c(F)c(F)c(F)c(F)c4F)c4ccc([nH]4)c(-c4c(F)c(F)c(F)c(F)c4F)c4nc(c(-c5c(F)c(F)c(F)c(F)c5F)c5ccc2[nH]5)C=C4)C=C3)cc1
REMARK SMILES IDX 24 1 23 2 22 3 20 4 21 5 19 6 18 7 16 8 17 9 4 11 2 12 1 13
REMARK SMILES IDX 3 14 5 15 6 16 7 18 8 19 9 20 10 21 11 22 15 23 12 24 14 25
REMARK SMILES IDX 13 26 25 27 26 28 27 29 28 30 29 31 30 32 31 33 32 34 33 35
REMARK SMILES IDX 34 36 35 37 96 38 36 39 95 40 37 41 38 42 39 43 89 44 40 45
REMARK SMILES IDX 94 46 88 47 90 48 41 49 93 50 87 51 86 52 42 54 74 55 54 56
REMARK SMILES IDX 73 57 55 58 58 59 72 60 91 61 56 62 57 63 71 65 92 66 59 67
REMARK SMILES IDX 43 68 44 69 52 70 45 71 46 72 50 73 53 74 47 75 48 76 51 77
REMARK SMILES IDX 49 78 75 79 76 80 84 81 77 82 78 83 82 84 85 85 79 86 80 87
REMARK SMILES IDX 83 88 81 89 60 90 61 91 69 92 62 93 63 94 67 95 70 96 64 97
REMARK SMILES IDX 65 98 68 99 66 100
REMARK H PARENT 18 10 5 17 90 53 58 64
REMARK Flexibility Score: inf
ROOT
ATOM      1  C   UNL A   1      35.827  31.113  28.138  1.00  0.00     0.202 C 
ENDROOT
BRANCH   1   2
ATOM      2  C   UNL A   1      35.078  29.273  27.219  1.00  0.00     0.261 C 
BRANCH   2   3
ATOM      3  O   UNL A   1      33.621  29.144  26.323  1.00  0.00    -0.462 OA
BRANCH   3   4
ATOM      4  C   UNL A   1      32.379  29.375  26.836  1.00  0.00     0.325 C 
ATOM      5  O   UNL A   1      31.742  30.400  26.603  1.00  0.00    -0.250 OA
BRANCH   4   6
ATOM      6  C   UNL A   1      31.704  28.174  27.626  1.00  0.00     0.238 C 
BRANCH   6   7
ATOM      7  N   UNL A   1      30.957  26.981  27.160  1.00  0.00    -0.343 N 
ATOM      8  C   UNL A   1      31.176  26.034  26.215  1.00  0.00     0.243 C 
ATOM      9  O   UNL A   1      30.424  25.056  26.193  1.00  0.00    -0.273 OA
ATOM     10  H   UNL A   1      30.112  26.846  27.647  1.00  0.00     0.164 HD
BRANCH   8  11
ATOM     11  C   UNL A   1      32.405  26.102  25.324  1.00  0.00     0.177 C 
BRANCH  11  12
ATOM     12  C   UNL A   1      31.975  25.821  23.833  1.00  0.00     0.015 C 
ATOM     13  C   UNL A   1      30.629  26.430  23.417  1.00  0.00     0.010 C 
ATOM     14  C   UNL A   1      33.063  26.140  22.771  1.00  0.00     0.010 C 
ENDBRANCH  11  12
BRANCH  11  15
ATOM     15  N   UNL A   1      33.486  25.262  25.850  1.00  0.00    -0.309 N 
ATOM     16  C   UNL A   1      33.550  23.882  25.836  1.00  0.00     0.408 C 
ATOM     17  H   UNL A   1      34.250  25.733  26.257  1.00  0.00     0.167 HD
ATOM     18  O   UNL A   1      34.333  23.289  26.567  1.00  0.00    -0.225 OA
BRANCH  16  19
ATOM     19  O   UNL A   1      32.767  23.289  24.898  1.00  0.00    -0.445 OA
BRANCH  19  20
ATOM     20  C   UNL A   1      33.438  22.704  23.756  1.00  0.00     0.270 C 
BRANCH  20  21
ATOM     21  C   UNL A   1      33.279  21.199  23.758  1.00  0.00    -0.011 A 
ATOM     22  C   UNL A   1      32.180  20.420  22.567  1.00  0.00     0.007 A 
ATOM     23  C   UNL A   1      34.233  20.149  24.830  1.00  0.00     0.007 A 
ATOM     24  C   UNL A   1      32.189  18.602  22.307  1.00  0.00     0.000 A 
ATOM     25  C   UNL A   1      34.230  18.377  24.614  1.00  0.00     0.000 A 
ATOM     26  C   UNL A   1      33.178  17.590  23.404  1.00  0.00     0.000 A 
ENDBRANCH  20  21
ENDBRANCH  19  20
ENDBRANCH  16  19
ENDBRANCH  11  15
ENDBRANCH   8  11
ENDBRANCH   6   7
ENDBRANCH   4   6
ENDBRANCH   3   4
ENDBRANCH   2   3
ENDBRANCH   1   2
BRANCH   1  27
ATOM     27  O   UNL A   1      35.846  32.652  27.582  1.00  0.00    -0.376 OA
BRANCH  27  28
ATOM     28  C   UNL A   1      35.055  33.721  28.143  1.00  0.00     0.188 C 
BRANCH  28  29
ATOM     29  C   UNL A   1      34.505  33.608  29.569  1.00  0.00     0.188 C 
BRANCH  29  30
ATOM     30  O   UNL A   1      35.422  33.801  30.604  1.00  0.00    -0.376 OA
BRANCH  30  31
ATOM     31  C   UNL A   1      34.944  34.077  31.906  1.00  0.00     0.202 C 
BRANCH  31  32
ATOM     32  C   UNL A   1      34.968  33.023  33.030  1.00  0.00     0.261 C 
BRANCH  32  33
ATOM     33  O   UNL A   1      35.839  31.873  32.933  1.00  0.00    -0.460 OA
BRANCH  33  34
ATOM     34  C   UNL A   1      37.025  31.818  33.590  1.00  0.00     0.338 C 
ATOM     35  O   UNL A   1      37.205  31.915  34.790  1.00  0.00    -0.246 OA
BRANCH  34  36
ATOM     36  C   UNL A   1      37.994  31.207  32.615  1.00  0.00     0.060 A 
ATOM     37  C   UNL A   1      39.046  30.396  33.093  1.00  0.00     0.016 A 
ATOM     38  C   UNL A   1      37.763  31.288  31.240  1.00  0.00     0.016 A 
ATOM     39  C   UNL A   1      39.898  29.731  32.202  1.00  0.00     0.010 A 
ATOM     40  C   UNL A   1      38.632  30.652  30.349  1.00  0.00     0.010 A 
ATOM     41  C   UNL A   1      39.738  29.923  30.825  1.00  0.00    -0.014 A 
BRANCH  41  42
ATOM     42  C   UNL A   1      40.885  29.698  29.909  1.00  0.00     0.031 A 
ATOM     43  C   UNL A   1      40.960  28.346  29.245  1.00  0.00     0.074 A 
ATOM     44  C   UNL A   1      41.832  30.622  29.668  1.00  0.00     0.049 A 
ATOM     45  N   UNL A   1      41.901  27.823  28.503  1.00  0.00    -0.248 NA
ATOM     46  C   UNL A   1      39.811  27.453  29.473  1.00  0.00     0.031 C 
ATOM     47  C   UNL A   1      41.848  31.981  30.198  1.00  0.00     0.029 A 
ATOM     48  N   UNL A   1      42.982  30.536  28.920  1.00  0.00    -0.354 N 
ATOM     49  C   UNL A   1      41.462  26.541  28.195  1.00  0.00     0.074 A 
ATOM     50  C   UNL A   1      40.196  26.348  28.861  1.00  0.00     0.031 C 
ATOM     51  C   UNL A   1      42.965  32.600  29.771  1.00  0.00     0.029 A 
ATOM     52  C   UNL A   1      43.762  31.665  28.976  1.00  0.00     0.049 A 
ATOM     53  H   UNL A   1      43.223  29.740  28.393  1.00  0.00     0.167 HD
ATOM     54  C   UNL A   1      42.056  25.607  27.416  1.00  0.00     0.037 A 
ATOM     55  C   UNL A   1      44.989  31.897  28.467  1.00  0.00     0.037 A 
ATOM     56  C   UNL A   1      43.323  25.801  26.765  1.00  0.00     0.049 A 
ATOM     57  C   UNL A   1      45.682  30.807  27.681  1.00  0.00     0.074 A 
ATOM     58  C   UNL A   1      44.014  24.927  25.947  1.00  0.00     0.029 A 
ATOM     59  N   UNL A   1      44.096  26.948  26.873  1.00  0.00    -0.354 N 
ATOM     60  N   UNL A   1      45.258  29.604  27.375  1.00  0.00    -0.248 NA
ATOM     61  C   UNL A   1      47.027  31.112  27.168  1.00  0.00     0.031 C 
ATOM     62  C   UNL A   1      45.241  25.514  25.624  1.00  0.00     0.029 A 
ATOM     63  C   UNL A   1      45.276  26.790  26.165  1.00  0.00     0.049 A 
ATOM     64  H   UNL A   1      43.844  27.754  27.379  1.00  0.00     0.167 HD
ATOM     65  C   UNL A   1      46.259  29.025  26.603  1.00  0.00     0.074 A 
ATOM     66  C   UNL A   1      47.310  30.015  26.478  1.00  0.00     0.031 C 
ATOM     67  C   UNL A   1      46.307  27.790  26.044  1.00  0.00     0.037 A 
BRANCH  54  68
ATOM     68  C   UNL A   1      41.362  24.282  27.272  1.00  0.00     0.064 A 
ATOM     69  C   UNL A   1      41.863  23.110  27.859  1.00  0.00     0.173 A 
ATOM     70  C   UNL A   1      40.172  24.185  26.533  1.00  0.00     0.173 A 
ATOM     71  F   UNL A   1      43.006  23.141  28.561  1.00  0.00    -0.203 F 
ATOM     72  C   UNL A   1      41.223  21.885  27.679  1.00  0.00     0.198 A 
ATOM     73  C   UNL A   1      39.513  22.968  26.390  1.00  0.00     0.198 A 
ATOM     74  F   UNL A   1      39.647  25.272  25.949  1.00  0.00    -0.203 F 
ATOM     75  F   UNL A   1      41.759  20.770  28.191  1.00  0.00    -0.200 F 
ATOM     76  C   UNL A   1      40.044  21.817  26.952  1.00  0.00     0.200 A 
ATOM     77  F   UNL A   1      38.365  22.907  25.701  1.00  0.00    -0.200 F 
ATOM     78  F   UNL A   1      39.426  20.640  26.783  1.00  0.00    -0.200 F 
ENDBRANCH  54  68
BRANCH  55  79
ATOM     79  C   UNL A   1      45.658  33.209  28.692  1.00  0.00     0.064 A 
ATOM     80  C   UNL A   1      45.578  34.236  27.740  1.00  0.00     0.173 A 
ATOM     81  C   UNL A   1      46.411  33.458  29.849  1.00  0.00     0.173 A 
ATOM     82  F   UNL A   1      44.896  34.041  26.602  1.00  0.00    -0.203 F 
ATOM     83  C   UNL A   1      46.239  35.450  27.927  1.00  0.00     0.198 A 
ATOM     84  C   UNL A   1      47.043  34.683  30.052  1.00  0.00     0.198 A 
ATOM     85  F   UNL A   1      46.528  32.510  30.791  1.00  0.00    -0.203 F 
ATOM     86  F   UNL A   1      46.188  36.391  26.975  1.00  0.00    -0.200 F 
ATOM     87  C   UNL A   1      46.963  35.675  29.087  1.00  0.00     0.200 A 
ATOM     88  F   UNL A   1      47.730  34.903  31.182  1.00  0.00    -0.200 F 
ATOM     89  F   UNL A   1      47.593  36.844  29.270  1.00  0.00    -0.200 F 
ENDBRANCH  55  79
BRANCH  67  90
ATOM     90  C   UNL A   1      47.503  27.451  25.196  1.00  0.00     0.064 A 
ATOM     91  C   UNL A   1      47.565  27.771  23.832  1.00  0.00     0.173 A 
ATOM     92  C   UNL A   1      48.627  26.839  25.775  1.00  0.00     0.173 A 
ATOM     93  F   UNL A   1      46.517  28.349  23.224  1.00  0.00    -0.203 F 
ATOM     94  C   UNL A   1      48.691  27.458  23.073  1.00  0.00     0.198 A 
ATOM     95  C   UNL A   1      49.766  26.567  25.024  1.00  0.00     0.198 A 
ATOM     96  F   UNL A   1      48.628  26.523  27.080  1.00  0.00    -0.203 F 
ATOM     97  F   UNL A   1      48.704  27.718  21.759  1.00  0.00    -0.200 F 
ATOM     98  C   UNL A   1      49.794  26.866  23.671  1.00  0.00     0.200 A 
ATOM     99  F   UNL A   1      50.838  26.017  25.612  1.00  0.00    -0.200 F 
ATOM    100  F   UNL A   1      50.880  26.578  22.943  1.00  0.00    -0.200 F 
ENDBRANCH  67  90
ENDBRANCH  41  42
ENDBRANCH  34  36
ENDBRANCH  33  34
ENDBRANCH  32  33
ENDBRANCH  31  32
ENDBRANCH  30  31
ENDBRANCH  29  30
ENDBRANCH  28  29
ENDBRANCH  27  28
ENDBRANCH   1  27
TORSDOF 24
ENDMDL
MODEL 3
REMARK VINA RESULT:     -10.9      3.707      9.546
REMARK SMILES CC(C)[C@H](NC(=O)OCc1ccccc1)C(=O)NCC(=O)OCCOCCOCCOC(=O)c1ccc(-c2c3nc(c(-c4c(F)c(F)c(F)c(F)c4F)c4ccc([nH]4)c(-c4c(F)c(F)c(F)c(F)c4F)c4nc(c(-c5c(F)c(F)c(F)c(F)c5F)c5ccc2[nH]5)C=C4)C=C3)cc1
REMARK SMILES IDX 24 1 23 2 22 3 20 4 21 5 19 6 18 7 16 8 17 9 4 11 2 12 1 13
REMARK SMILES IDX 3 14 5 15 6 16 7 18 8 19 9 20 10 21 11 22 15 23 12 24 14 25
REMARK SMILES IDX 13 26 25 27 26 28 27 29 28 30 29 31 30 32 31 33 32 34 33 35
REMARK SMILES IDX 34 36 35 37 96 38 36 39 95 40 37 41 38 42 39 43 89 44 40 45
REMARK SMILES IDX 94 46 88 47 90 48 41 49 93 50 87 51 86 52 42 54 74 55 54 56
REMARK SMILES IDX 73 57 55 58 58 59 72 60 91 61 56 62 57 63 71 65 92 66 59 67
REMARK SMILES IDX 43 68 44 69 52 70 45 71 46 72 50 73 53 74 47 75 48 76 51 77
REMARK SMILES IDX 49 78 75 79 76 80 84 81 77 82 78 83 82 84 85 85 79 86 80 87
REMARK SMILES IDX 83 88 81 89 60 90 61 91 69 92 62 93 63 94 67 95 70 96 64 97
REMARK SMILES IDX 65 98 68 99 66 100
REMARK H PARENT 18 10 5 17 90 53 58 64
REMARK Flexibility Score: inf
ROOT
ATOM      1  C   UNL A   1      32.685  31.314  27.240  1.00  0.00     0.202 C 
ENDROOT
BRANCH   1   2
ATOM      2  C   UNL A   1      31.862  30.080  25.630  1.00  0.00     0.261 C 
BRANCH   2   3
ATOM      3  O   UNL A   1      32.087  28.387  25.475  1.00  0.00    -0.462 OA
BRANCH   3   4
ATOM      4  C   UNL A   1      33.214  27.722  25.860  1.00  0.00     0.325 C 
ATOM      5  O   UNL A   1      34.170  28.284  26.392  1.00  0.00    -0.250 OA
BRANCH   4   6
ATOM      6  C   UNL A   1      33.177  26.139  25.747  1.00  0.00     0.238 C 
BRANCH   6   7
ATOM      7  N   UNL A   1      32.100  25.154  26.006  1.00  0.00    -0.343 N 
ATOM      8  C   UNL A   1      31.361  24.329  25.225  1.00  0.00     0.243 C 
ATOM      9  O   UNL A   1      30.646  23.492  25.784  1.00  0.00    -0.273 OA
ATOM     10  H   UNL A   1      31.870  25.084  26.961  1.00  0.00     0.164 HD
BRANCH   8  11
ATOM     11  C   UNL A   1      31.537  24.331  23.716  1.00  0.00     0.177 C 
BRANCH  11  12
ATOM     12  C   UNL A   1      30.682  25.504  23.100  1.00  0.00     0.015 C 
ATOM     13  C   UNL A   1      29.639  26.116  24.045  1.00  0.00     0.010 C 
ATOM     14  C   UNL A   1      31.511  26.623  22.414  1.00  0.00     0.010 C 
ENDBRANCH  11  12
BRANCH  11  15
ATOM     15  N   UNL A   1      31.297  22.998  23.154  1.00  0.00    -0.309 N 
ATOM     16  C   UNL A   1      32.248  22.080  22.754  1.00  0.00     0.408 C 
ATOM     17  H   UNL A   1      30.355  22.728  23.050  1.00  0.00     0.167 HD
ATOM     18  O   UNL A   1      31.942  21.146  22.023  1.00  0.00    -0.225 OA
BRANCH  16  19
ATOM     19  O   UNL A   1      33.474  22.254  23.314  1.00  0.00    -0.445 OA
BRANCH  19  20
ATOM     20  C   UNL A   1      33.866  21.313  24.343  1.00  0.00     0.270 C 
BRANCH  20  21
ATOM     21  C   UNL A   1      35.188  21.718  24.958  1.00  0.00    -0.011 A 
ATOM     22  C   UNL A   1      36.541  20.534  25.010  1.00  0.00     0.007 A 
ATOM     23  C   UNL A   1      35.497  23.371  25.536  1.00  0.00     0.007 A 
ATOM     24  C   UNL A   1      38.248  21.055  25.443  1.00  0.00     0.000 A 
ATOM     25  C   UNL A   1      37.143  23.887  25.991  1.00  0.00     0.000 A 
ATOM     26  C   UNL A   1      38.509  22.736  26.004  1.00  0.00     0.000 A 
ENDBRANCH  20  21
ENDBRANCH  19  20
ENDBRANCH  16  19
ENDBRANCH  11  15
ENDBRANCH   8  11
ENDBRANCH   6   7
ENDBRANCH   4   6
ENDBRANCH   3   4
ENDBRANCH   2   3
ENDBRANCH   1   2
BRANCH   1  27
ATOM     27  O   UNL A   1      34.024  31.113  28.159  1.00  0.00    -0.376 OA
BRANCH  27  28
ATOM     28  C   UNL A   1      35.335  31.594  27.790  1.00  0.00     0.188 C 
BRANCH  28  29
ATOM     29  C   UNL A   1      35.750  33.031  28.120  1.00  0.00     0.188 C 
BRANCH  29  30
ATOM     30  O   UNL A   1      34.973  34.046  27.558  1.00  0.00    -0.376 OA
BRANCH  30  31
ATOM     31  C   UNL A   1      34.503  35.093  28.385  1.00  0.00     0.202 C 
BRANCH  31  32
ATOM     32  C   UNL A   1      33.020  35.224  28.778  1.00  0.00     0.261 C 
BRANCH  32  33
ATOM     33  O   UNL A   1      32.599  34.969  30.137  1.00  0.00    -0.460 OA
BRANCH  33  34
ATOM     34  C   UNL A   1      33.022  35.736  31.173  1.00  0.00     0.338 C 
ATOM     35  O   UNL A   1      32.450  36.693  31.659  1.00  0.00    -0.246 OA
BRANCH  34  36
ATOM     36  C   UNL A   1      34.100  34.933  31.849  1.00  0.00     0.060 A 
ATOM     37  C   UNL A   1      35.234  35.591  32.373  1.00  0.00     0.016 A 
ATOM     38  C   UNL A   1      33.910  33.577  32.120  1.00  0.00     0.016 A 
ATOM     39  C   UNL A   1      36.199  34.883  33.100  1.00  0.00     0.010 A 
ATOM     40  C   UNL A   1      34.890  32.862  32.816  1.00  0.00     0.010 A 
ATOM     41  C   UNL A   1      36.065  33.499  33.254  1.00  0.00    -0.014 A 
BRANCH  41  42
ATOM     42  C   UNL A   1      37.266  32.665  33.520  1.00  0.00     0.031 A 
ATOM     43  C   UNL A   1      38.003  32.941  34.807  1.00  0.00     0.074 A 
ATOM     44  C   UNL A   1      37.708  31.715  32.679  1.00  0.00     0.049 A 
ATOM     45  N   UNL A   1      39.139  32.465  35.244  1.00  0.00    -0.248 NA
ATOM     46  C   UNL A   1      37.367  33.909  35.717  1.00  0.00     0.031 C 
ATOM     47  C   UNL A   1      37.060  31.310  31.436  1.00  0.00     0.029 A 
ATOM     48  N   UNL A   1      38.832  30.927  32.746  1.00  0.00    -0.354 N 
ATOM     49  C   UNL A   1      39.358  33.090  36.466  1.00  0.00     0.074 A 
ATOM     50  C   UNL A   1      38.263  34.007  36.682  1.00  0.00     0.031 C 
ATOM     51  C   UNL A   1      37.808  30.359  30.845  1.00  0.00     0.029 A 
ATOM     52  C   UNL A   1      39.008  30.121  31.649  1.00  0.00     0.049 A 
ATOM     53  H   UNL A   1      39.453  30.939  33.510  1.00  0.00     0.167 HD
ATOM     54  C   UNL A   1      40.376  32.910  37.339  1.00  0.00     0.037 A 
ATOM     55  C   UNL A   1      40.037  29.311  31.322  1.00  0.00     0.037 A 
ATOM     56  C   UNL A   1      41.469  32.005  37.113  1.00  0.00     0.049 A 
ATOM     57  C   UNL A   1      41.214  29.196  32.264  1.00  0.00     0.074 A 
ATOM     58  C   UNL A   1      42.550  31.736  37.932  1.00  0.00     0.029 A 
ATOM     59  N   UNL A   1      41.626  31.230  35.972  1.00  0.00    -0.354 N 
ATOM     60  N   UNL A   1      41.410  29.772  33.426  1.00  0.00    -0.248 NA
ATOM     61  C   UNL A   1      42.314  28.313  31.846  1.00  0.00     0.031 C 
ATOM     62  C   UNL A   1      43.401  30.859  37.253  1.00  0.00     0.029 A 
ATOM     63  C   UNL A   1      42.806  30.509  36.051  1.00  0.00     0.049 A 
ATOM     64  H   UNL A   1      40.993  31.197  35.220  1.00  0.00     0.167 HD
ATOM     65  C   UNL A   1      42.628  29.293  33.895  1.00  0.00     0.074 A 
ATOM     66  C   UNL A   1      43.122  28.369  32.895  1.00  0.00     0.031 C 
ATOM     67  C   UNL A   1      43.278  29.586  35.049  1.00  0.00     0.037 A 
BRANCH  54  68
ATOM     68  C   UNL A   1      40.373  33.745  38.589  1.00  0.00     0.064 A 
ATOM     69  C   UNL A   1      41.089  34.950  38.683  1.00  0.00     0.173 A 
ATOM     70  C   UNL A   1      39.640  33.333  39.712  1.00  0.00     0.173 A 
ATOM     71  F   UNL A   1      41.822  35.383  37.646  1.00  0.00    -0.203 F 
ATOM     72  C   UNL A   1      41.102  35.687  39.865  1.00  0.00     0.198 A 
ATOM     73  C   UNL A   1      39.622  34.093  40.877  1.00  0.00     0.198 A 
ATOM     74  F   UNL A   1      38.937  32.190  39.680  1.00  0.00    -0.203 F 
ATOM     75  F   UNL A   1      41.850  36.795  39.952  1.00  0.00    -0.200 F 
ATOM     76  C   UNL A   1      40.363  35.263  40.958  1.00  0.00     0.200 A 
ATOM     77  F   UNL A   1      38.892  33.690  41.926  1.00  0.00    -0.200 F 
ATOM     78  F   UNL A   1      40.371  35.975  42.093  1.00  0.00    -0.200 F 
ENDBRANCH  54  68
BRANCH  55  79
ATOM     79  C   UNL A   1      40.016  28.552  30.041  1.00  0.00     0.064 A 
ATOM     80  C   UNL A   1      39.417  27.286  29.958  1.00  0.00     0.173 A 
ATOM     81  C   UNL A   1      40.613  29.062  28.878  1.00  0.00     0.173 A 
ATOM     82  F   UNL A   1      38.858  26.738  31.047  1.00  0.00    -0.203 F 
ATOM     83  C   UNL A   1      39.435  26.553  28.772  1.00  0.00     0.198 A 
ATOM     84  C   UNL A   1      40.599  28.345  27.683  1.00  0.00     0.198 A 
ATOM     85  F   UNL A   1      41.206  30.265  28.900  1.00  0.00    -0.203 F 
ATOM     86  F   UNL A   1      38.903  25.325  28.738  1.00  0.00    -0.200 F 
ATOM     87  C   UNL A   1      40.018  27.088  27.633  1.00  0.00     0.200 A 
ATOM     88  F   UNL A   1      41.151  28.871  26.582  1.00  0.00    -0.200 F 
ATOM     89  F   UNL A   1      40.029  26.386  26.491  1.00  0.00    -0.200 F 
ENDBRANCH  55  79
BRANCH  67  90
ATOM     90  C   UNL A   1      44.568  28.862  35.329  1.00  0.00     0.064 A 
ATOM     91  C   UNL A   1      44.601  27.630  35.998  1.00  0.00     0.173 A 
ATOM     92  C   UNL A   1      45.787  29.391  34.873  1.00  0.00     0.173 A 
ATOM     93  F   UNL A   1      43.468  27.082  36.463  1.00  0.00    -0.203 F 
ATOM     94  C   UNL A   1      45.808  26.974  36.232  1.00  0.00     0.198 A 
ATOM     95  C   UNL A   1      46.985  28.712  35.070  1.00  0.00     0.198 A 
ATOM     96  F   UNL A   1      45.812  30.560  34.215  1.00  0.00    -0.203 F 
ATOM     97  F   UNL A   1      45.821  25.828  36.926  1.00  0.00    -0.200 F 
ATOM     98  C   UNL A   1      46.996  27.509  35.759  1.00  0.00     0.200 A 
ATOM     99  F   UNL A   1      48.128  29.221  34.591  1.00  0.00    -0.200 F 
ATOM    100  F   UNL A   1      48.154  26.871  35.974  1.00  0.00    -0.200 F 
ENDBRANCH  67  90
ENDBRANCH  41  42
ENDBRANCH  34  36
ENDBRANCH  33  34
ENDBRANCH  32  33
ENDBRANCH  31  32
ENDBRANCH  30  31
ENDBRANCH  29  30
ENDBRANCH  28  29
ENDBRANCH  27  28
ENDBRANCH   1  27
TORSDOF 24
ENDMDL
