MODEL 1
REMARK VINA RESULT:     -11.5      0.000      0.000
REMARK SMILES Cc1ccc(C(F)(F)F)cc1-c1ccc(/C=C/C(=O)OCCOCCOCCOC(=O)c2ccc(-c3c4nc(c(-c5c(F)c(F)c(F)c(F)c5F)c5ccc([nH]5)c(-c5c(F)c(F)c(F)c(F)c5F)c5nc(c(-c6c(F)c(F)c(F)c(F)c6F)c6ccc3[nH]6)C=C5)C=C4)cc2)s1
REMARK SMILES IDX 24 1 23 2 22 3 21 4 20 5 18 6 19 7 17 8 16 9 15 10 12 11
REMARK SMILES IDX 13 12 95 13 14 14 11 15 1 16 2 17 3 18 4 19 10 20 5 21 6 22
REMARK SMILES IDX 7 23 8 24 9 25 25 26 26 27 27 28 28 29 29 30 30 31 31 32
REMARK SMILES IDX 32 33 33 34 94 35 34 36 93 37 35 38 36 39 37 40 87 41 38 42
REMARK SMILES IDX 92 43 86 44 88 45 39 46 91 47 85 48 84 49 40 51 72 52 52 53
REMARK SMILES IDX 71 54 53 55 56 56 70 57 89 58 54 59 55 60 69 62 90 63 57 64
REMARK SMILES IDX 41 65 42 66 50 67 43 68 44 69 48 70 51 71 45 72 46 73 49 74
REMARK SMILES IDX 47 75 73 76 74 77 82 78 75 79 76 80 80 81 83 82 77 83 78 84
REMARK SMILES IDX 81 85 79 86 58 87 59 88 67 89 60 90 61 91 65 92 68 93 62 94
REMARK SMILES IDX 63 95 66 96 64 97
REMARK H PARENT 88 50 56 61
REMARK Flexibility Score: inf
ROOT
ATOM      1  C   UNL A   1      36.091  21.638  25.386  1.00  0.00     0.188 C 
ENDROOT
BRANCH   1   2
ATOM      2  O   UNL A   1      35.590  22.563  26.349  1.00  0.00    -0.376 OA
BRANCH   2   3
ATOM      3  C   UNL A   1      34.383  22.495  27.084  1.00  0.00     0.202 C 
BRANCH   3   4
ATOM      4  C   UNL A   1      32.974  21.846  26.451  1.00  0.00     0.261 C 
BRANCH   4   5
ATOM      5  O   UNL A   1      32.471  21.036  25.124  1.00  0.00    -0.460 OA
BRANCH   5   6
ATOM      6  C   UNL A   1      32.316  21.178  23.756  1.00  0.00     0.330 C 
ATOM      7  O   UNL A   1      32.147  20.316  22.904  1.00  0.00    -0.247 OA
BRANCH   6   8
ATOM      8  C   UNL A   1      32.213  22.496  23.121  1.00  0.00     0.095 C 
ATOM      9  C   UNL A   1      33.385  23.162  23.042  1.00  0.00     0.026 C 
BRANCH   9  10
ATOM     10  C   UNL A   1      33.433  24.576  23.279  1.00  0.00     0.028 A 
ATOM     11  C   UNL A   1      33.361  26.849  24.361  1.00  0.00     0.035 A 
ATOM     12  C   UNL A   1      33.588  26.897  22.997  1.00  0.00     0.021 A 
ATOM     13  S   UNL A   1      33.264  25.216  24.887  1.00  0.00    -0.136 S 
ATOM     14  C   UNL A   1      33.611  25.610  22.381  1.00  0.00     0.020 A 
BRANCH  11  15
ATOM     15  C   UNL A   1      33.217  27.999  25.286  1.00  0.00    -0.005 A 
ATOM     16  C   UNL A   1      30.817  28.444  24.496  1.00  0.00     0.045 C 
ATOM     17  C   UNL A   1      32.048  28.799  25.288  1.00  0.00    -0.042 A 
ATOM     18  C   UNL A   1      32.020  29.999  26.023  1.00  0.00     0.005 A 
ATOM     19  C   UNL A   1      33.107  30.387  26.801  1.00  0.00     0.013 A 
ATOM     20  C   UNL A   1      34.293  28.392  26.107  1.00  0.00     0.023 A 
ATOM     21  C   UNL A   1      34.244  29.574  26.876  1.00  0.00     0.056 A 
BRANCH  21  22
ATOM     22  C   UNL A   1      35.407  30.014  27.732  1.00  0.00     0.416 C 
ATOM     23  F   UNL A   1      36.605  29.850  27.101  1.00  0.00    -0.166 F 
ATOM     24  F   UNL A   1      35.347  31.334  28.066  1.00  0.00    -0.166 F 
ATOM     25  F   UNL A   1      35.508  29.337  28.908  1.00  0.00    -0.166 F 
ENDBRANCH  21  22
ENDBRANCH  11  15
ENDBRANCH   9  10
ENDBRANCH   6   8
ENDBRANCH   5   6
ENDBRANCH   4   5
ENDBRANCH   3   4
ENDBRANCH   2   3
ENDBRANCH   1   2
BRANCH   1  26
ATOM     26  C   UNL A   1      37.460  21.820  24.764  1.00  0.00     0.188 C 
BRANCH  26  27
ATOM     27  O   UNL A   1      38.375  22.281  25.738  1.00  0.00    -0.376 OA
BRANCH  27  28
ATOM     28  C   UNL A   1      39.344  21.313  26.113  1.00  0.00     0.202 C 
BRANCH  28  29
ATOM     29  C   UNL A   1      40.491  21.897  26.960  1.00  0.00     0.261 C 
BRANCH  29  30
ATOM     30  O   UNL A   1      40.200  23.271  27.297  1.00  0.00    -0.460 OA
BRANCH  30  31
ATOM     31  C   UNL A   1      40.891  24.240  26.620  1.00  0.00     0.338 C 
ATOM     32  O   UNL A   1      41.987  24.085  26.099  1.00  0.00    -0.246 OA
BRANCH  31  33
ATOM     33  C   UNL A   1      40.256  25.574  26.872  1.00  0.00     0.060 A 
ATOM     34  C   UNL A   1      40.785  26.794  26.437  1.00  0.00     0.016 A 
ATOM     35  C   UNL A   1      39.312  25.651  27.848  1.00  0.00     0.016 A 
ATOM     36  C   UNL A   1      40.548  28.023  27.163  1.00  0.00     0.010 A 
ATOM     37  C   UNL A   1      39.251  26.838  28.586  1.00  0.00     0.010 A 
ATOM     38  C   UNL A   1      39.869  28.079  28.379  1.00  0.00    -0.014 A 
BRANCH  38  39
ATOM     39  C   UNL A   1      39.993  29.258  29.473  1.00  0.00     0.031 A 
ATOM     40  C   UNL A   1      39.000  30.396  29.888  1.00  0.00     0.074 A 
ATOM     41  C   UNL A   1      41.104  29.326  30.241  1.00  0.00     0.049 A 
ATOM     42  N   UNL A   1      39.013  31.652  29.488  1.00  0.00    -0.248 NA
ATOM     43  C   UNL A   1      37.916  30.220  30.880  1.00  0.00     0.031 C 
ATOM     44  C   UNL A   1      41.393  30.255  31.338  1.00  0.00     0.029 A 
ATOM     45  N   UNL A   1      42.300  28.615  30.084  1.00  0.00    -0.354 N 
ATOM     46  C   UNL A   1      37.930  32.304  30.100  1.00  0.00     0.074 A 
ATOM     47  C   UNL A   1      37.147  31.298  30.751  1.00  0.00     0.031 C 
ATOM     48  C   UNL A   1      42.726  30.312  31.496  1.00  0.00     0.029 A 
ATOM     49  C   UNL A   1      43.320  29.505  30.441  1.00  0.00     0.049 A 
ATOM     50  H   UNL A   1      42.403  27.684  29.784  1.00  0.00     0.167 HD
ATOM     51  C   UNL A   1      37.905  33.580  30.597  1.00  0.00     0.037 A 
ATOM     52  C   UNL A   1      44.203  29.925  29.493  1.00  0.00     0.037 A 
ATOM     53  C   UNL A   1      39.244  33.983  30.925  1.00  0.00     0.049 A 
ATOM     54  C   UNL A   1      44.155  31.418  29.298  1.00  0.00     0.074 A 
ATOM     55  C   UNL A   1      39.963  33.827  32.098  1.00  0.00     0.029 A 
ATOM     56  N   UNL A   1      40.148  34.239  29.918  1.00  0.00    -0.354 N 
ATOM     57  N   UNL A   1      43.150  32.171  29.653  1.00  0.00    -0.248 NA
ATOM     58  C   UNL A   1      45.239  32.181  28.690  1.00  0.00     0.031 C 
ATOM     59  C   UNL A   1      41.333  33.913  31.773  1.00  0.00     0.029 A 
ATOM     60  C   UNL A   1      41.429  34.186  30.422  1.00  0.00     0.049 A 
ATOM     61  H   UNL A   1      39.913  34.430  28.981  1.00  0.00     0.167 HD
ATOM     62  C   UNL A   1      43.425  33.471  29.331  1.00  0.00     0.074 A 
ATOM     63  C   UNL A   1      44.749  33.430  28.747  1.00  0.00     0.031 C 
ATOM     64  C   UNL A   1      42.545  34.484  29.558  1.00  0.00     0.037 A 
BRANCH  51  65
ATOM     65  C   UNL A   1      36.641  34.129  31.249  1.00  0.00     0.064 A 
ATOM     66  C   UNL A   1      36.462  34.254  32.640  1.00  0.00     0.173 A 
ATOM     67  C   UNL A   1      35.531  34.512  30.460  1.00  0.00     0.173 A 
ATOM     68  F   UNL A   1      37.455  33.987  33.499  1.00  0.00    -0.203 F 
ATOM     69  C   UNL A   1      35.234  34.630  33.202  1.00  0.00     0.198 A 
ATOM     70  C   UNL A   1      34.300  34.871  31.023  1.00  0.00     0.198 A 
ATOM     71  F   UNL A   1      35.613  34.488  29.120  1.00  0.00    -0.203 F 
ATOM     72  F   UNL A   1      35.100  34.687  34.536  1.00  0.00    -0.200 F 
ATOM     73  C   UNL A   1      34.148  34.912  32.396  1.00  0.00     0.200 A 
ATOM     74  F   UNL A   1      33.253  35.142  30.231  1.00  0.00    -0.200 F 
ATOM     75  F   UNL A   1      32.959  35.214  32.939  1.00  0.00    -0.200 F 
ENDBRANCH  51  65
BRANCH  52  76
ATOM     76  C   UNL A   1      44.510  28.900  28.443  1.00  0.00     0.064 A 
ATOM     77  C   UNL A   1      45.070  27.669  28.863  1.00  0.00     0.173 A 
ATOM     78  C   UNL A   1      44.005  28.948  27.137  1.00  0.00     0.173 A 
ATOM     79  F   UNL A   1      45.572  27.549  30.103  1.00  0.00    -0.203 F 
ATOM     80  C   UNL A   1      45.013  26.522  28.073  1.00  0.00     0.198 A 
ATOM     81  C   UNL A   1      43.978  27.798  26.332  1.00  0.00     0.198 A 
ATOM     82  F   UNL A   1      43.409  30.058  26.681  1.00  0.00    -0.203 F 
ATOM     83  F   UNL A   1      45.420  25.346  28.572  1.00  0.00    -0.200 F 
ATOM     84  C   UNL A   1      44.456  26.585  26.811  1.00  0.00     0.200 A 
ATOM     85  F   UNL A   1      43.361  27.830  25.140  1.00  0.00    -0.200 F 
ATOM     86  F   UNL A   1      44.302  25.463  26.092  1.00  0.00    -0.200 F 
ENDBRANCH  52  76
BRANCH  64  87
ATOM     87  C   UNL A   1      42.655  35.881  29.023  1.00  0.00     0.064 A 
ATOM     88  C   UNL A   1      41.913  36.332  27.924  1.00  0.00     0.173 A 
ATOM     89  C   UNL A   1      43.369  36.869  29.744  1.00  0.00     0.173 A 
ATOM     90  F   UNL A   1      41.119  35.500  27.236  1.00  0.00    -0.203 F 
ATOM     91  C   UNL A   1      41.921  37.671  27.540  1.00  0.00     0.198 A 
ATOM     92  C   UNL A   1      43.324  38.214  29.395  1.00  0.00     0.198 A 
ATOM     93  F   UNL A   1      44.098  36.557  30.827  1.00  0.00    -0.203 F 
ATOM     94  F   UNL A   1      41.224  38.053  26.461  1.00  0.00    -0.200 F 
ATOM     95  C   UNL A   1      42.610  38.613  28.283  1.00  0.00     0.200 A 
ATOM     96  F   UNL A   1      43.951  39.123  30.155  1.00  0.00    -0.200 F 
ATOM     97  F   UNL A   1      42.570  39.906  27.939  1.00  0.00    -0.200 F 
ENDBRANCH  64  87
ENDBRANCH  38  39
ENDBRANCH  31  33
ENDBRANCH  30  31
ENDBRANCH  29  30
ENDBRANCH  28  29
ENDBRANCH  27  28
ENDBRANCH  26  27
ENDBRANCH   1  26
TORSDOF 20
ENDMDL
MODEL 2
REMARK VINA RESULT:     -11.3      1.049      2.246
REMARK SMILES Cc1ccc(C(F)(F)F)cc1-c1ccc(/C=C/C(=O)OCCOCCOCCOC(=O)c2ccc(-c3c4nc(c(-c5c(F)c(F)c(F)c(F)c5F)c5ccc([nH]5)c(-c5c(F)c(F)c(F)c(F)c5F)c5nc(c(-c6c(F)c(F)c(F)c(F)c6F)c6ccc3[nH]6)C=C5)C=C4)cc2)s1
REMARK SMILES IDX 24 1 23 2 22 3 21 4 20 5 18 6 19 7 17 8 16 9 15 10 12 11
REMARK SMILES IDX 13 12 95 13 14 14 11 15 1 16 2 17 3 18 4 19 10 20 5 21 6 22
REMARK SMILES IDX 7 23 8 24 9 25 25 26 26 27 27 28 28 29 29 30 30 31 31 32
REMARK SMILES IDX 32 33 33 34 94 35 34 36 93 37 35 38 36 39 37 40 87 41 38 42
REMARK SMILES IDX 92 43 86 44 88 45 39 46 91 47 85 48 84 49 40 51 72 52 52 53
REMARK SMILES IDX 71 54 53 55 56 56 70 57 89 58 54 59 55 60 69 62 90 63 57 64
REMARK SMILES IDX 41 65 42 66 50 67 43 68 44 69 48 70 51 71 45 72 46 73 49 74
REMARK SMILES IDX 47 75 73 76 74 77 82 78 75 79 76 80 80 81 83 82 77 83 78 84
REMARK SMILES IDX 81 85 79 86 58 87 59 88 67 89 60 90 61 91 65 92 68 93 62 94
REMARK SMILES IDX 63 95 66 96 64 97
REMARK H PARENT 88 50 56 61
REMARK Flexibility Score: inf
ROOT
ATOM      1  C   UNL A   1      36.214  22.689  25.807  1.00  0.00     0.188 C 
ENDROOT
BRANCH   1   2
ATOM      2  O   UNL A   1      35.392  21.730  26.470  1.00  0.00    -0.376 OA
BRANCH   2   3
ATOM      3  C   UNL A   1      34.146  21.936  27.106  1.00  0.00     0.202 C 
BRANCH   3   4
ATOM      4  C   UNL A   1      32.696  21.415  26.445  1.00  0.00     0.261 C 
BRANCH   4   5
ATOM      5  O   UNL A   1      32.147  20.666  25.101  1.00  0.00    -0.460 OA
BRANCH   5   6
ATOM      6  C   UNL A   1      32.276  20.671  23.723  1.00  0.00     0.330 C 
ATOM      7  O   UNL A   1      32.305  19.725  22.947  1.00  0.00    -0.247 OA
BRANCH   6   8
ATOM      8  C   UNL A   1      32.282  21.917  22.950  1.00  0.00     0.095 C 
ATOM      9  C   UNL A   1      33.407  22.650  23.095  1.00  0.00     0.026 C 
BRANCH   9  10
ATOM     10  C   UNL A   1      33.335  24.079  23.190  1.00  0.00     0.028 A 
ATOM     11  C   UNL A   1      33.026  26.433  24.030  1.00  0.00     0.035 A 
ATOM     12  C   UNL A   1      33.331  26.367  22.682  1.00  0.00     0.021 A 
ATOM     13  S   UNL A   1      33.020  24.856  24.713  1.00  0.00    -0.136 S 
ATOM     14  C   UNL A   1      33.489  25.032  22.202  1.00  0.00     0.020 A 
BRANCH  11  15
ATOM     15  C   UNL A   1      32.739  27.652  24.824  1.00  0.00    -0.005 A 
ATOM     16  C   UNL A   1      30.484  27.992  23.650  1.00  0.00     0.045 C 
ATOM     17  C   UNL A   1      31.580  28.429  24.586  1.00  0.00    -0.042 A 
ATOM     18  C   UNL A   1      31.437  29.685  25.206  1.00  0.00     0.005 A 
ATOM     19  C   UNL A   1      32.392  30.153  26.103  1.00  0.00     0.013 A 
ATOM     20  C   UNL A   1      33.678  28.128  25.762  1.00  0.00     0.023 A 
ATOM     21  C   UNL A   1      33.509  29.368  26.414  1.00  0.00     0.056 A 
BRANCH  21  22
ATOM     22  C   UNL A   1      34.528  29.895  27.395  1.00  0.00     0.416 C 
ATOM     23  F   UNL A   1      34.080  30.992  28.068  1.00  0.00    -0.166 F 
ATOM     24  F   UNL A   1      34.856  28.984  28.356  1.00  0.00    -0.166 F 
ATOM     25  F   UNL A   1      35.703  30.264  26.818  1.00  0.00    -0.166 F 
ENDBRANCH  21  22
ENDBRANCH  11  15
ENDBRANCH   9  10
ENDBRANCH   6   8
ENDBRANCH   5   6
ENDBRANCH   4   5
ENDBRANCH   3   4
ENDBRANCH   2   3
ENDBRANCH   1   2
BRANCH   1  26
ATOM     26  C   UNL A   1      37.059  22.302  24.611  1.00  0.00     0.188 C 
BRANCH  26  27
ATOM     27  O   UNL A   1      38.215  21.611  25.042  1.00  0.00    -0.376 OA
BRANCH  27  28
ATOM     28  C   UNL A   1      38.801  22.154  26.215  1.00  0.00     0.202 C 
BRANCH  28  29
ATOM     29  C   UNL A   1      40.327  21.950  26.284  1.00  0.00     0.261 C 
BRANCH  29  30
ATOM     30  O   UNL A   1      40.994  23.230  26.243  1.00  0.00    -0.460 OA
BRANCH  30  31
ATOM     31  C   UNL A   1      41.242  23.845  27.440  1.00  0.00     0.338 C 
ATOM     32  O   UNL A   1      41.842  23.336  28.378  1.00  0.00    -0.246 OA
BRANCH  31  33
ATOM     33  C   UNL A   1      40.418  25.093  27.541  1.00  0.00     0.060 A 
ATOM     34  C   UNL A   1      40.811  26.339  27.040  1.00  0.00     0.016 A 
ATOM     35  C   UNL A   1      39.403  25.110  28.446  1.00  0.00     0.016 A 
ATOM     36  C   UNL A   1      40.359  27.573  27.645  1.00  0.00     0.010 A 
ATOM     37  C   UNL A   1      39.131  26.327  29.078  1.00  0.00     0.010 A 
ATOM     38  C   UNL A   1      39.591  27.623  28.808  1.00  0.00    -0.014 A 
BRANCH  38  39
ATOM     39  C   UNL A   1      39.477  28.886  29.806  1.00  0.00     0.031 A 
ATOM     40  C   UNL A   1      38.451  30.069  29.868  1.00  0.00     0.074 A 
ATOM     41  C   UNL A   1      40.359  29.000  30.824  1.00  0.00     0.049 A 
ATOM     42  N   UNL A   1      38.608  31.288  29.392  1.00  0.00    -0.248 NA
ATOM     43  C   UNL A   1      37.146  29.990  30.563  1.00  0.00     0.031 C 
ATOM     44  C   UNL A   1      40.394  30.010  31.886  1.00  0.00     0.029 A 
ATOM     45  N   UNL A   1      41.531  28.261  31.030  1.00  0.00    -0.354 N 
ATOM     46  C   UNL A   1      37.430  32.003  29.658  1.00  0.00     0.074 A 
ATOM     47  C   UNL A   1      36.473  31.065  30.161  1.00  0.00     0.031 C 
ATOM     48  C   UNL A   1      41.645  30.060  32.372  1.00  0.00     0.029 A 
ATOM     49  C   UNL A   1      42.458  29.161  31.568  1.00  0.00     0.049 A 
ATOM     50  H   UNL A   1      41.673  27.307  30.836  1.00  0.00     0.167 HD
ATOM     51  C   UNL A   1      37.324  33.315  30.035  1.00  0.00     0.037 A 
ATOM     52  C   UNL A   1      43.566  29.489  30.846  1.00  0.00     0.037 A 
ATOM     53  C   UNL A   1      38.550  33.724  30.661  1.00  0.00     0.049 A 
ATOM     54  C   UNL A   1      43.621  30.963  30.534  1.00  0.00     0.074 A 
ATOM     55  C   UNL A   1      38.944  33.653  31.987  1.00  0.00     0.029 A 
ATOM     56  N   UNL A   1      39.687  33.883  29.901  1.00  0.00    -0.354 N 
ATOM     57  N   UNL A   1      42.585  31.756  30.565  1.00  0.00    -0.248 NA
ATOM     58  C   UNL A   1      44.849  31.657  30.167  1.00  0.00     0.031 C 
ATOM     59  C   UNL A   1      40.355  33.692  32.016  1.00  0.00     0.029 A 
ATOM     60  C   UNL A   1      40.798  33.852  30.717  1.00  0.00     0.049 A 
ATOM     61  H   UNL A   1      39.704  34.002  28.924  1.00  0.00     0.167 HD
ATOM     62  C   UNL A   1      42.978  33.022  30.227  1.00  0.00     0.074 A 
ATOM     63  C   UNL A   1      44.405  32.914  30.003  1.00  0.00     0.031 C 
ATOM     64  C   UNL A   1      42.105  34.063  30.146  1.00  0.00     0.037 A 
BRANCH  51  65
ATOM     65  C   UNL A   1      35.957  33.934  30.301  1.00  0.00     0.064 A 
ATOM     66  C   UNL A   1      35.081  34.375  29.291  1.00  0.00     0.173 A 
ATOM     67  C   UNL A   1      35.506  34.142  31.626  1.00  0.00     0.173 A 
ATOM     68  F   UNL A   1      35.356  34.182  27.994  1.00  0.00    -0.203 F 
ATOM     69  C   UNL A   1      33.897  35.067  29.582  1.00  0.00     0.198 A 
ATOM     70  C   UNL A   1      34.330  34.847  31.915  1.00  0.00     0.198 A 
ATOM     71  F   UNL A   1      36.235  33.707  32.665  1.00  0.00    -0.203 F 
ATOM     72  F   UNL A   1      33.120  35.510  28.582  1.00  0.00    -0.200 F 
ATOM     73  C   UNL A   1      33.535  35.325  30.890  1.00  0.00     0.200 A 
ATOM     74  F   UNL A   1      33.991  35.092  33.188  1.00  0.00    -0.200 F 
ATOM     75  F   UNL A   1      32.433  36.038  31.163  1.00  0.00    -0.200 F 
ENDBRANCH  51  65
BRANCH  52  76
ATOM     76  C   UNL A   1      44.091  28.378  29.989  1.00  0.00     0.064 A 
ATOM     77  C   UNL A   1      43.857  28.450  28.595  1.00  0.00     0.173 A 
ATOM     78  C   UNL A   1      45.048  27.449  30.419  1.00  0.00     0.173 A 
ATOM     79  F   UNL A   1      42.954  29.318  28.110  1.00  0.00    -0.203 F 
ATOM     80  C   UNL A   1      44.622  27.730  27.678  1.00  0.00     0.198 A 
ATOM     81  C   UNL A   1      45.796  26.703  29.494  1.00  0.00     0.198 A 
ATOM     82  F   UNL A   1      45.369  27.358  31.717  1.00  0.00    -0.203 F 
ATOM     83  F   UNL A   1      44.465  27.944  26.363  1.00  0.00    -0.200 F 
ATOM     84  C   UNL A   1      45.600  26.865  28.128  1.00  0.00     0.200 A 
ATOM     85  F   UNL A   1      46.804  25.926  29.919  1.00  0.00    -0.200 F 
ATOM     86  F   UNL A   1      46.408  26.255  27.249  1.00  0.00    -0.200 F 
ENDBRANCH  52  76
BRANCH  64  87
ATOM     87  C   UNL A   1      42.395  35.410  29.553  1.00  0.00     0.064 A 
ATOM     88  C   UNL A   1      43.135  36.390  30.226  1.00  0.00     0.173 A 
ATOM     89  C   UNL A   1      42.104  35.670  28.192  1.00  0.00     0.173 A 
ATOM     90  F   UNL A   1      43.555  36.199  31.484  1.00  0.00    -0.203 F 
ATOM     91  C   UNL A   1      43.517  37.574  29.598  1.00  0.00     0.198 A 
ATOM     92  C   UNL A   1      42.541  36.824  27.551  1.00  0.00     0.198 A 
ATOM     93  F   UNL A   1      41.419  34.793  27.441  1.00  0.00    -0.203 F 
ATOM     94  F   UNL A   1      44.195  38.500  30.290  1.00  0.00    -0.200 F 
ATOM     95  C   UNL A   1      43.237  37.783  28.259  1.00  0.00     0.200 A 
ATOM     96  F   UNL A   1      42.310  36.989  26.241  1.00  0.00    -0.200 F 
ATOM     97  F   UNL A   1      43.653  38.899  27.648  1.00  0.00    -0.200 F 
ENDBRANCH  64  87
ENDBRANCH  38  39
ENDBRANCH  31  33
ENDBRANCH  30  31
ENDBRANCH  29  30
ENDBRANCH  28  29
ENDBRANCH  27  28
ENDBRANCH  26  27
ENDBRANCH   1  26
TORSDOF 20
ENDMDL
MODEL 3
REMARK VINA RESULT:     -11.2      1.157      2.070
REMARK SMILES Cc1ccc(C(F)(F)F)cc1-c1ccc(/C=C/C(=O)OCCOCCOCCOC(=O)c2ccc(-c3c4nc(c(-c5c(F)c(F)c(F)c(F)c5F)c5ccc([nH]5)c(-c5c(F)c(F)c(F)c(F)c5F)c5nc(c(-c6c(F)c(F)c(F)c(F)c6F)c6ccc3[nH]6)C=C5)C=C4)cc2)s1
REMARK SMILES IDX 24 1 23 2 22 3 21 4 20 5 18 6 19 7 17 8 16 9 15 10 12 11
REMARK SMILES IDX 13 12 95 13 14 14 11 15 1 16 2 17 3 18 4 19 10 20 5 21 6 22
REMARK SMILES IDX 7 23 8 24 9 25 25 26 26 27 27 28 28 29 29 30 30 31 31 32
REMARK SMILES IDX 32 33 33 34 94 35 34 36 93 37 35 38 36 39 37 40 87 41 38 42
REMARK SMILES IDX 92 43 86 44 88 45 39 46 91 47 85 48 84 49 40 51 72 52 52 53
REMARK SMILES IDX 71 54 53 55 56 56 70 57 89 58 54 59 55 60 69 62 90 63 57 64
REMARK SMILES IDX 41 65 42 66 50 67 43 68 44 69 48 70 51 71 45 72 46 73 49 74
REMARK SMILES IDX 47 75 73 76 74 77 82 78 75 79 76 80 80 81 83 82 77 83 78 84
REMARK SMILES IDX 81 85 79 86 58 87 59 88 67 89 60 90 61 91 65 92 68 93 62 94
REMARK SMILES IDX 63 95 66 96 64 97
REMARK H PARENT 88 50 56 61
REMARK Flexibility Score: inf
ROOT
ATOM      1  C   UNL A   1      34.696  23.068  27.175  1.00  0.00     0.188 C 
ENDROOT
BRANCH   1   2
ATOM      2  O   UNL A   1      33.382  23.613  27.065  1.00  0.00    -0.376 OA
BRANCH   2   3
ATOM      3  C   UNL A   1      32.160  22.924  26.882  1.00  0.00     0.202 C 
BRANCH   3   4
ATOM      4  C   UNL A   1      31.928  21.803  25.658  1.00  0.00     0.261 C 
BRANCH   4   5
ATOM      5  O   UNL A   1      32.434  21.513  24.132  1.00  0.00    -0.460 OA
BRANCH   5   6
ATOM      6  C   UNL A   1      32.154  21.830  22.814  1.00  0.00     0.330 C 
ATOM      7  O   UNL A   1      31.780  21.099  21.907  1.00  0.00    -0.247 OA
BRANCH   6   8
ATOM      8  C   UNL A   1      32.162  23.215  22.332  1.00  0.00     0.095 C 
ATOM      9  C   UNL A   1      33.352  23.839  22.468  1.00  0.00     0.026 C 
BRANCH   9  10
ATOM     10  C   UNL A   1      33.410  25.213  22.874  1.00  0.00     0.028 A 
ATOM     11  C   UNL A   1      33.430  27.332  24.235  1.00  0.00     0.035 A 
ATOM     12  C   UNL A   1      33.504  27.554  22.871  1.00  0.00     0.021 A 
ATOM     13  S   UNL A   1      33.411  25.644  24.558  1.00  0.00    -0.136 S 
ATOM     14  C   UNL A   1      33.475  26.354  22.100  1.00  0.00     0.020 A 
BRANCH  11  15
ATOM     15  C   UNL A   1      33.374  28.354  25.308  1.00  0.00    -0.005 A 
ATOM     16  C   UNL A   1      31.005  29.065  24.627  1.00  0.00     0.045 C 
ATOM     17  C   UNL A   1      32.265  29.224  25.437  1.00  0.00    -0.042 A 
ATOM     18  C   UNL A   1      32.327  30.315  26.326  1.00  0.00     0.005 A 
ATOM     19  C   UNL A   1      33.445  30.519  27.129  1.00  0.00     0.013 A 
ATOM     20  C   UNL A   1      34.482  28.559  26.154  1.00  0.00     0.023 A 
ATOM     21  C   UNL A   1      34.523  29.628  27.075  1.00  0.00     0.056 A 
BRANCH  21  22
ATOM     22  C   UNL A   1      35.721  29.868  27.961  1.00  0.00     0.416 C 
ATOM     23  F   UNL A   1      35.964  31.195  28.154  1.00  0.00    -0.166 F 
ATOM     24  F   UNL A   1      35.570  29.338  29.208  1.00  0.00    -0.166 F 
ATOM     25  F   UNL A   1      36.877  29.343  27.472  1.00  0.00    -0.166 F 
ENDBRANCH  21  22
ENDBRANCH  11  15
ENDBRANCH   9  10
ENDBRANCH   6   8
ENDBRANCH   5   6
ENDBRANCH   4   5
ENDBRANCH   3   4
ENDBRANCH   2   3
ENDBRANCH   1   2
BRANCH   1  26
ATOM     26  C   UNL A   1      35.626  23.019  25.980  1.00  0.00     0.188 C 
BRANCH  26  27
ATOM     27  O   UNL A   1      36.915  22.607  26.389  1.00  0.00    -0.376 OA
BRANCH  27  28
ATOM     28  C   UNL A   1      37.477  21.594  25.569  1.00  0.00     0.202 C 
BRANCH  28  29
ATOM     29  C   UNL A   1      39.013  21.519  25.660  1.00  0.00     0.261 C 
BRANCH  29  30
ATOM     30  O   UNL A   1      39.476  22.305  26.780  1.00  0.00    -0.460 OA
BRANCH  30  31
ATOM     31  C   UNL A   1      40.428  23.254  26.526  1.00  0.00     0.338 C 
ATOM     32  O   UNL A   1      41.602  23.019  26.274  1.00  0.00    -0.246 OA
BRANCH  31  33
ATOM     33  C   UNL A   1      39.898  24.607  26.897  1.00  0.00     0.060 A 
ATOM     34  C   UNL A   1      40.438  25.816  26.447  1.00  0.00     0.016 A 
ATOM     35  C   UNL A   1      39.077  24.689  27.978  1.00  0.00     0.016 A 
ATOM     36  C   UNL A   1      40.351  27.024  27.240  1.00  0.00     0.010 A 
ATOM     37  C   UNL A   1      39.163  25.845  28.760  1.00  0.00     0.010 A 
ATOM     38  C   UNL A   1      39.818  27.062  28.527  1.00  0.00    -0.014 A 
BRANCH  38  39
ATOM     39  C   UNL A   1      40.129  28.187  29.641  1.00  0.00     0.031 A 
ATOM     40  C   UNL A   1      39.268  29.381  30.177  1.00  0.00     0.074 A 
ATOM     41  C   UNL A   1      41.304  28.143  30.309  1.00  0.00     0.049 A 
ATOM     42  N   UNL A   1      39.344  30.646  29.816  1.00  0.00    -0.248 NA
ATOM     43  C   UNL A   1      38.263  29.249  31.257  1.00  0.00     0.031 C 
ATOM     44  C   UNL A   1      41.758  29.006  31.403  1.00  0.00     0.029 A 
ATOM     45  N   UNL A   1      42.423  27.351  30.024  1.00  0.00    -0.354 N 
ATOM     46  C   UNL A   1      38.372  31.354  30.542  1.00  0.00     0.074 A 
ATOM     47  C   UNL A   1      37.572  30.386  31.229  1.00  0.00     0.031 C 
ATOM     48  C   UNL A   1      43.100  28.957  31.443  1.00  0.00     0.029 A 
ATOM     49  C   UNL A   1      43.536  28.147  30.316  1.00  0.00     0.049 A 
ATOM     50  H   UNL A   1      42.426  26.426  29.688  1.00  0.00     0.167 HD
ATOM     51  C   UNL A   1      38.489  32.609  31.078  1.00  0.00     0.037 A 
ATOM     52  C   UNL A   1      44.364  28.534  29.306  1.00  0.00     0.037 A 
ATOM     53  C   UNL A   1      39.879  32.898  31.297  1.00  0.00     0.049 A 
ATOM     54  C   UNL A   1      44.416  30.034  29.161  1.00  0.00     0.074 A 
ATOM     55  C   UNL A   1      40.683  32.645  32.396  1.00  0.00     0.029 A 
ATOM     56  N   UNL A   1      40.709  33.122  30.222  1.00  0.00    -0.354 N 
ATOM     57  N   UNL A   1      43.507  30.846  29.627  1.00  0.00    -0.248 NA
ATOM     58  C   UNL A   1      45.500  30.734  28.483  1.00  0.00     0.031 C 
ATOM     59  C   UNL A   1      42.023  32.639  31.953  1.00  0.00     0.029 A 
ATOM     60  C   UNL A   1      42.022  32.954  30.607  1.00  0.00     0.049 A 
ATOM     61  H   UNL A   1      40.410  33.365  29.316  1.00  0.00     0.167 HD
ATOM     62  C   UNL A   1      43.854  32.133  29.322  1.00  0.00     0.074 A 
ATOM     63  C   UNL A   1      45.115  32.014  28.620  1.00  0.00     0.031 C 
ATOM     64  C   UNL A   1      43.079  33.200  29.657  1.00  0.00     0.037 A 
BRANCH  51  65
ATOM     65  C   UNL A   1      37.333  33.227  31.857  1.00  0.00     0.064 A 
ATOM     66  C   UNL A   1      36.280  33.948  31.263  1.00  0.00     0.173 A 
ATOM     67  C   UNL A   1      37.287  33.138  33.268  1.00  0.00     0.173 A 
ATOM     68  F   UNL A   1      36.167  34.054  29.933  1.00  0.00    -0.203 F 
ATOM     69  C   UNL A   1      35.315  34.619  32.027  1.00  0.00     0.198 A 
ATOM     70  C   UNL A   1      36.331  33.823  34.029  1.00  0.00     0.198 A 
ATOM     71  F   UNL A   1      38.210  32.425  33.931  1.00  0.00    -0.203 F 
ATOM     72  F   UNL A   1      34.359  35.334  31.415  1.00  0.00    -0.200 F 
ATOM     73  C   UNL A   1      35.356  34.578  33.408  1.00  0.00     0.200 A 
ATOM     74  F   UNL A   1      36.383  33.776  35.368  1.00  0.00    -0.200 F 
ATOM     75  F   UNL A   1      34.466  35.270  34.135  1.00  0.00    -0.200 F 
ENDBRANCH  51  65
BRANCH  52  76
ATOM     76  C   UNL A   1      44.498  27.529  28.202  1.00  0.00     0.064 A 
ATOM     77  C   UNL A   1      43.843  27.800  26.977  1.00  0.00     0.173 A 
ATOM     78  C   UNL A   1      45.459  26.510  28.190  1.00  0.00     0.173 A 
ATOM     79  F   UNL A   1      42.910  28.764  26.914  1.00  0.00    -0.203 F 
ATOM     80  C   UNL A   1      44.217  27.180  25.785  1.00  0.00     0.198 A 
ATOM     81  C   UNL A   1      45.812  25.866  26.993  1.00  0.00     0.198 A 
ATOM     82  F   UNL A   1      46.164  26.229  29.294  1.00  0.00    -0.203 F 
ATOM     83  F   UNL A   1      43.673  27.578  24.626  1.00  0.00    -0.200 F 
ATOM     84  C   UNL A   1      45.211  26.221  25.793  1.00  0.00     0.200 A 
ATOM     85  F   UNL A   1      46.834  24.997  26.977  1.00  0.00    -0.200 F 
ATOM     86  F   UNL A   1      45.646  25.702  24.635  1.00  0.00    -0.200 F 
ENDBRANCH  52  76
BRANCH  64  87
ATOM     87  C   UNL A   1      43.250  34.603  29.157  1.00  0.00     0.064 A 
ATOM     88  C   UNL A   1      43.034  34.963  27.821  1.00  0.00     0.173 A 
ATOM     89  C   UNL A   1      43.440  35.669  30.070  1.00  0.00     0.173 A 
ATOM     90  F   UNL A   1      42.739  34.042  26.894  1.00  0.00    -0.203 F 
ATOM     91  C   UNL A   1      43.054  36.295  27.413  1.00  0.00     0.198 A 
ATOM     92  C   UNL A   1      43.397  37.000  29.669  1.00  0.00     0.198 A 
ATOM     93  F   UNL A   1      43.636  35.445  31.379  1.00  0.00    -0.203 F 
ATOM     94  F   UNL A   1      42.877  36.593  26.118  1.00  0.00    -0.200 F 
ATOM     95  C   UNL A   1      43.218  37.313  28.337  1.00  0.00     0.200 A 
ATOM     96  F   UNL A   1      43.503  37.976  30.581  1.00  0.00    -0.200 F 
ATOM     97  F   UNL A   1      43.184  38.593  27.945  1.00  0.00    -0.200 F 
ENDBRANCH  64  87
ENDBRANCH  38  39
ENDBRANCH  31  33
ENDBRANCH  30  31
ENDBRANCH  29  30
ENDBRANCH  28  29
ENDBRANCH  27  28
ENDBRANCH  26  27
ENDBRANCH   1  26
TORSDOF 20
ENDMDL
