MODEL 1
REMARK VINA RESULT:     -11.3      0.000      0.000
REMARK SMILES CCc1n[nH]c(C(=O)N[C@@]2(C(=O)OCCOCCOCCOC(=O)c3ccc(-c4c5nc(c(-c6c(F)c(F)c(F)c(F)c6F)c6ccc([nH]6)c(-c6c(F)c(F)c(F)c(F)c6F)c6nc(c(-c7c(F)c(F)c(F)c(F)c7F)c7ccc4[nH]7)C=C6)C=C5)cc3)CCCC[C@H]2C)n1
REMARK SMILES IDX 17 1 16 2 15 3 14 4 13 5 11 6 12 7 10 8 88 9 92 10 89 11
REMARK SMILES IDX 91 12 93 13 90 14 9 15 7 16 8 17 6 19 3 20 4 21 94 22 5 23
REMARK SMILES IDX 2 25 1 26 18 27 19 28 20 29 21 30 22 31 23 32 24 33 25 34
REMARK SMILES IDX 26 35 87 36 27 37 86 38 28 39 29 40 30 41 80 42 31 43 85 44
REMARK SMILES IDX 79 45 81 46 32 47 84 48 78 49 77 50 33 52 65 53 45 54 64 55
REMARK SMILES IDX 46 56 49 57 63 58 82 59 47 60 48 61 62 63 83 64 50 65 34 66
REMARK SMILES IDX 35 67 43 68 36 69 37 70 41 71 44 72 38 73 39 74 42 75 40 76
REMARK SMILES IDX 66 77 67 78 75 79 68 80 69 81 73 82 76 83 70 84 71 85 74 86
REMARK SMILES IDX 72 87 51 88 52 89 60 90 53 91 54 92 58 93 61 94 55 95 56 96
REMARK SMILES IDX 59 97 57 98
REMARK H PARENT 9 18 5 24 81 51 49 62
REMARK Flexibility Score: inf
ROOT
ATOM      1  C   UNL A   1      41.189  21.748  26.192  1.00  0.00     0.188 C 
ENDROOT
BRANCH   1   2
ATOM      2  O   UNL A   1      39.905  22.354  26.269  1.00  0.00    -0.376 OA
BRANCH   2   3
ATOM      3  C   UNL A   1      38.774  21.701  25.708  1.00  0.00     0.202 C 
BRANCH   3   4
ATOM      4  C   UNL A   1      37.544  22.572  25.414  1.00  0.00     0.261 C 
BRANCH   4   5
ATOM      5  O   UNL A   1      36.473  21.969  24.652  1.00  0.00    -0.461 OA
BRANCH   5   6
ATOM      6  C   UNL A   1      35.785  22.757  23.773  1.00  0.00     0.332 C 
ATOM      7  O   UNL A   1      36.261  23.188  22.724  1.00  0.00    -0.249 OA
BRANCH   6   8
ATOM      8  C   UNL A   1      34.342  23.191  24.285  1.00  0.00     0.141 C 
ATOM      9  C   UNL A   1      33.477  22.343  23.329  1.00  0.00     0.041 C 
ATOM     10  C   UNL A   1      34.102  24.741  24.161  1.00  0.00     0.023 C 
ATOM     11  C   UNL A   1      32.021  22.725  23.287  1.00  0.00     0.003 C 
ATOM     12  C   UNL A   1      32.713  25.170  23.652  1.00  0.00     0.006 C 
ATOM     13  C   UNL A   1      34.461  25.609  25.396  1.00  0.00     0.011 C 
ATOM     14  C   UNL A   1      31.871  24.175  22.868  1.00  0.00     0.000 C 
BRANCH   8  15
ATOM     15  N   UNL A   1      34.310  22.632  25.685  1.00  0.00    -0.333 N 
ATOM     16  C   UNL A   1      34.011  21.459  26.340  1.00  0.00     0.289 C 
ATOM     17  O   UNL A   1      34.066  21.510  27.574  1.00  0.00    -0.266 OA
ATOM     18  H   UNL A   1      34.592  23.319  26.331  1.00  0.00     0.165 HD
BRANCH  16  19
ATOM     19  C   UNL A   1      33.546  20.262  25.682  1.00  0.00     0.214 A 
ATOM     20  C   UNL A   1      33.262  18.600  24.381  1.00  0.00     0.151 A 
ATOM     21  N   UNL A   1      32.037  18.792  24.881  1.00  0.00    -0.158 NA
ATOM     22  N   UNL A   1      34.212  19.452  24.896  1.00  0.00    -0.207 NA
ATOM     23  N   UNL A   1      32.257  19.803  25.751  1.00  0.00    -0.255 N 
ATOM     24  H   UNL A   1      31.574  20.165  26.359  1.00  0.00     0.192 HD
BRANCH  20  25
ATOM     25  C   UNL A   1      33.602  17.753  23.201  1.00  0.00     0.076 C 
ATOM     26  C   UNL A   1      34.183  16.381  23.453  1.00  0.00     0.012 C 
ENDBRANCH  20  25
ENDBRANCH  16  19
ENDBRANCH   8  15
ENDBRANCH   6   8
ENDBRANCH   5   6
ENDBRANCH   4   5
ENDBRANCH   3   4
ENDBRANCH   2   3
ENDBRANCH   1   2
BRANCH   1  27
ATOM     27  C   UNL A   1      41.818  21.187  27.462  1.00  0.00     0.188 C 
BRANCH  27  28
ATOM     28  O   UNL A   1      42.207  19.835  27.348  1.00  0.00    -0.376 OA
BRANCH  28  29
ATOM     29  C   UNL A   1      42.021  19.224  26.085  1.00  0.00     0.202 C 
BRANCH  29  30
ATOM     30  C   UNL A   1      43.269  18.478  25.596  1.00  0.00     0.261 C 
BRANCH  30  31
ATOM     31  O   UNL A   1      43.758  18.872  24.298  1.00  0.00    -0.460 OA
BRANCH  31  32
ATOM     32  C   UNL A   1      44.994  19.427  24.236  1.00  0.00     0.338 C 
ATOM     33  O   UNL A   1      45.987  18.947  23.731  1.00  0.00    -0.246 OA
BRANCH  32  34
ATOM     34  C   UNL A   1      44.868  20.841  24.673  1.00  0.00     0.060 A 
ATOM     35  C   UNL A   1      44.332  21.793  23.790  1.00  0.00     0.016 A 
ATOM     36  C   UNL A   1      45.253  21.219  25.959  1.00  0.00     0.016 A 
ATOM     37  C   UNL A   1      44.203  23.129  24.183  1.00  0.00     0.010 A 
ATOM     38  C   UNL A   1      45.145  22.558  26.342  1.00  0.00     0.010 A 
ATOM     39  C   UNL A   1      44.647  23.527  25.450  1.00  0.00    -0.014 A 
BRANCH  39  40
ATOM     40  C   UNL A   1      44.779  24.962  25.809  1.00  0.00     0.031 A 
ATOM     41  C   UNL A   1      46.141  25.592  25.709  1.00  0.00     0.074 A 
ATOM     42  C   UNL A   1      43.738  25.684  26.261  1.00  0.00     0.049 A 
ATOM     43  N   UNL A   1      46.565  26.745  26.159  1.00  0.00    -0.248 NA
ATOM     44  C   UNL A   1      47.168  24.801  25.014  1.00  0.00     0.031 C 
ATOM     45  C   UNL A   1      42.356  25.221  26.340  1.00  0.00     0.029 A 
ATOM     46  N   UNL A   1      43.698  26.961  26.769  1.00  0.00    -0.354 N 
ATOM     47  C   UNL A   1      47.913  26.804  25.828  1.00  0.00     0.074 A 
ATOM     48  C   UNL A   1      48.240  25.566  25.157  1.00  0.00     0.031 C 
ATOM     49  C   UNL A   1      41.605  26.191  26.893  1.00  0.00     0.029 A 
ATOM     50  C   UNL A   1      42.463  27.317  27.255  1.00  0.00     0.049 A 
ATOM     51  H   UNL A   1      44.478  27.562  26.782  1.00  0.00     0.167 HD
ATOM     52  C   UNL A   1      48.796  27.803  26.066  1.00  0.00     0.037 A 
ATOM     53  C   UNL A   1      42.085  28.408  27.954  1.00  0.00     0.037 A 
ATOM     54  C   UNL A   1      48.462  29.035  26.728  1.00  0.00     0.049 A 
ATOM     55  C   UNL A   1      43.107  29.467  28.293  1.00  0.00     0.074 A 
ATOM     56  C   UNL A   1      49.282  30.114  27.004  1.00  0.00     0.029 A 
ATOM     57  N   UNL A   1      47.205  29.349  27.223  1.00  0.00    -0.354 N 
ATOM     58  N   UNL A   1      44.380  29.520  27.984  1.00  0.00    -0.248 NA
ATOM     59  C   UNL A   1      42.640  30.615  29.084  1.00  0.00     0.031 C 
ATOM     60  C   UNL A   1      48.538  31.055  27.722  1.00  0.00     0.029 A 
ATOM     61  C   UNL A   1      47.236  30.594  27.830  1.00  0.00     0.049 A 
ATOM     62  H   UNL A   1      46.410  28.773  27.154  1.00  0.00     0.167 HD
ATOM     63  C   UNL A   1      44.854  30.719  28.504  1.00  0.00     0.074 A 
ATOM     64  C   UNL A   1      43.732  31.366  29.151  1.00  0.00     0.031 C 
ATOM     65  C   UNL A   1      46.104  31.239  28.446  1.00  0.00     0.037 A 
BRANCH  52  66
ATOM     66  C   UNL A   1      50.220  27.586  25.643  1.00  0.00     0.064 A 
ATOM     67  C   UNL A   1      51.217  27.212  26.556  1.00  0.00     0.173 A 
ATOM     68  C   UNL A   1      50.585  27.725  24.295  1.00  0.00     0.173 A 
ATOM     69  F   UNL A   1      50.925  27.080  27.859  1.00  0.00    -0.203 F 
ATOM     70  C   UNL A   1      52.531  27.012  26.140  1.00  0.00     0.198 A 
ATOM     71  C   UNL A   1      51.892  27.490  23.876  1.00  0.00     0.198 A 
ATOM     72  F   UNL A   1      49.671  28.077  23.379  1.00  0.00    -0.203 F 
ATOM     73  F   UNL A   1      53.478  26.707  27.037  1.00  0.00    -0.200 F 
ATOM     74  C   UNL A   1      52.866  27.143  24.800  1.00  0.00     0.200 A 
ATOM     75  F   UNL A   1      52.209  27.602  22.579  1.00  0.00    -0.200 F 
ATOM     76  F   UNL A   1      54.128  26.943  24.400  1.00  0.00    -0.200 F 
ENDBRANCH  52  66
BRANCH  53  77
ATOM     77  C   UNL A   1      40.676  28.547  28.415  1.00  0.00     0.064 A 
ATOM     78  C   UNL A   1      39.687  29.066  27.568  1.00  0.00     0.173 A 
ATOM     79  C   UNL A   1      40.295  28.191  29.718  1.00  0.00     0.173 A 
ATOM     80  F   UNL A   1      40.006  29.452  26.324  1.00  0.00    -0.203 F 
ATOM     81  C   UNL A   1      38.377  29.243  28.012  1.00  0.00     0.198 A 
ATOM     82  C   UNL A   1      38.979  28.338  30.151  1.00  0.00     0.198 A 
ATOM     83  F   UNL A   1      41.203  27.699  30.573  1.00  0.00    -0.203 F 
ATOM     84  F   UNL A   1      37.465  29.795  27.200  1.00  0.00    -0.200 F 
ATOM     85  C   UNL A   1      38.023  28.872  29.301  1.00  0.00     0.200 A 
ATOM     86  F   UNL A   1      38.639  27.970  31.394  1.00  0.00    -0.200 F 
ATOM     87  F   UNL A   1      36.764  29.042  29.727  1.00  0.00    -0.200 F 
ENDBRANCH  53  77
BRANCH  65  88
ATOM     88  C   UNL A   1      46.328  32.604  29.035  1.00  0.00     0.064 A 
ATOM     89  C   UNL A   1      46.114  33.776  28.298  1.00  0.00     0.173 A 
ATOM     90  C   UNL A   1      46.678  32.735  30.389  1.00  0.00     0.173 A 
ATOM     91  F   UNL A   1      45.790  33.706  26.998  1.00  0.00    -0.203 F 
ATOM     92  C   UNL A   1      46.254  35.030  28.890  1.00  0.00     0.198 A 
ATOM     93  C   UNL A   1      46.786  33.987  30.986  1.00  0.00     0.198 A 
ATOM     94  F   UNL A   1      46.885  31.643  31.143  1.00  0.00    -0.203 F 
ATOM     95  F   UNL A   1      46.078  36.138  28.158  1.00  0.00    -0.200 F 
ATOM     96  C   UNL A   1      46.578  35.134  30.235  1.00  0.00     0.200 A 
ATOM     97  F   UNL A   1      47.080  34.084  32.289  1.00  0.00    -0.200 F 
ATOM     98  F   UNL A   1      46.690  36.340  30.808  1.00  0.00    -0.200 F 
ENDBRANCH  65  88
ENDBRANCH  39  40
ENDBRANCH  32  34
ENDBRANCH  31  32
ENDBRANCH  30  31
ENDBRANCH  29  30
ENDBRANCH  28  29
ENDBRANCH  27  28
ENDBRANCH   1  27
TORSDOF 20
ENDMDL
MODEL 2
REMARK VINA RESULT:     -11.2      1.323      2.663
REMARK SMILES CCc1n[nH]c(C(=O)N[C@@]2(C(=O)OCCOCCOCCOC(=O)c3ccc(-c4c5nc(c(-c6c(F)c(F)c(F)c(F)c6F)c6ccc([nH]6)c(-c6c(F)c(F)c(F)c(F)c6F)c6nc(c(-c7c(F)c(F)c(F)c(F)c7F)c7ccc4[nH]7)C=C6)C=C5)cc3)CCCC[C@H]2C)n1
REMARK SMILES IDX 17 1 16 2 15 3 14 4 13 5 11 6 12 7 10 8 88 9 92 10 89 11
REMARK SMILES IDX 91 12 93 13 90 14 9 15 7 16 8 17 6 19 3 20 4 21 94 22 5 23
REMARK SMILES IDX 2 25 1 26 18 27 19 28 20 29 21 30 22 31 23 32 24 33 25 34
REMARK SMILES IDX 26 35 87 36 27 37 86 38 28 39 29 40 30 41 80 42 31 43 85 44
REMARK SMILES IDX 79 45 81 46 32 47 84 48 78 49 77 50 33 52 65 53 45 54 64 55
REMARK SMILES IDX 46 56 49 57 63 58 82 59 47 60 48 61 62 63 83 64 50 65 34 66
REMARK SMILES IDX 35 67 43 68 36 69 37 70 41 71 44 72 38 73 39 74 42 75 40 76
REMARK SMILES IDX 66 77 67 78 75 79 68 80 69 81 73 82 76 83 70 84 71 85 74 86
REMARK SMILES IDX 72 87 51 88 52 89 60 90 53 91 54 92 58 93 61 94 55 95 56 96
REMARK SMILES IDX 59 97 57 98
REMARK H PARENT 9 18 5 24 81 51 49 62
REMARK Flexibility Score: inf
ROOT
ATOM      1  C   UNL A   1      40.847  21.750  26.216  1.00  0.00     0.188 C 
ENDROOT
BRANCH   1   2
ATOM      2  O   UNL A   1      39.518  22.151  26.524  1.00  0.00    -0.376 OA
BRANCH   2   3
ATOM      3  C   UNL A   1      38.431  21.672  25.743  1.00  0.00     0.202 C 
BRANCH   3   4
ATOM      4  C   UNL A   1      37.192  22.574  25.651  1.00  0.00     0.261 C 
BRANCH   4   5
ATOM      5  O   UNL A   1      36.106  22.123  24.808  1.00  0.00    -0.461 OA
BRANCH   5   6
ATOM      6  C   UNL A   1      35.759  22.895  23.737  1.00  0.00     0.332 C 
ATOM      7  O   UNL A   1      36.504  23.121  22.785  1.00  0.00    -0.249 OA
BRANCH   6   8
ATOM      8  C   UNL A   1      34.340  23.603  23.883  1.00  0.00     0.141 C 
ATOM      9  C   UNL A   1      33.759  23.276  22.490  1.00  0.00     0.041 C 
ATOM     10  C   UNL A   1      34.464  25.143  24.178  1.00  0.00     0.023 C 
ATOM     11  C   UNL A   1      32.530  24.062  22.117  1.00  0.00     0.003 C 
ATOM     12  C   UNL A   1      33.481  26.057  23.423  1.00  0.00     0.006 C 
ATOM     13  C   UNL A   1      34.484  25.572  25.670  1.00  0.00     0.011 C 
ATOM     14  C   UNL A   1      32.828  25.548  22.147  1.00  0.00     0.000 C 
BRANCH   8  15
ATOM     15  N   UNL A   1      33.673  22.779  24.955  1.00  0.00    -0.333 N 
ATOM     16  C   UNL A   1      32.552  22.806  25.754  1.00  0.00     0.289 C 
ATOM     17  O   UNL A   1      32.468  21.892  26.582  1.00  0.00    -0.266 OA
ATOM     18  H   UNL A   1      34.203  21.970  25.140  1.00  0.00     0.165 HD
BRANCH  16  19
ATOM     19  C   UNL A   1      31.577  23.870  25.743  1.00  0.00     0.214 A 
ATOM     20  C   UNL A   1      30.206  25.406  25.201  1.00  0.00     0.151 A 
ATOM     21  N   UNL A   1      30.568  25.761  26.438  1.00  0.00    -0.158 NA
ATOM     22  N   UNL A   1      30.769  24.225  24.775  1.00  0.00    -0.207 NA
ATOM     23  N   UNL A   1      31.382  24.739  26.784  1.00  0.00    -0.255 N 
ATOM     24  H   UNL A   1      31.785  24.632  27.675  1.00  0.00     0.192 HD
BRANCH  20  25
ATOM     25  C   UNL A   1      29.481  26.267  24.221  1.00  0.00     0.076 C 
ATOM     26  C   UNL A   1      30.137  27.556  23.785  1.00  0.00     0.012 C 
ENDBRANCH  20  25
ENDBRANCH  16  19
ENDBRANCH   8  15
ENDBRANCH   6   8
ENDBRANCH   5   6
ENDBRANCH   4   5
ENDBRANCH   3   4
ENDBRANCH   2   3
ENDBRANCH   1   2
BRANCH   1  27
ATOM     27  C   UNL A   1      41.777  21.340  27.353  1.00  0.00     0.188 C 
BRANCH  27  28
ATOM     28  O   UNL A   1      42.193  19.993  27.281  1.00  0.00    -0.376 OA
BRANCH  28  29
ATOM     29  C   UNL A   1      42.003  19.334  26.042  1.00  0.00     0.202 C 
BRANCH  29  30
ATOM     30  C   UNL A   1      43.232  18.528  25.603  1.00  0.00     0.261 C 
BRANCH  30  31
ATOM     31  O   UNL A   1      43.764  18.867  24.306  1.00  0.00    -0.460 OA
BRANCH  31  32
ATOM     32  C   UNL A   1      45.002  19.418  24.261  1.00  0.00     0.338 C 
ATOM     33  O   UNL A   1      46.001  18.936  23.768  1.00  0.00    -0.246 OA
BRANCH  32  34
ATOM     34  C   UNL A   1      44.875  20.832  24.699  1.00  0.00     0.060 A 
ATOM     35  C   UNL A   1      44.299  21.775  23.831  1.00  0.00     0.016 A 
ATOM     36  C   UNL A   1      45.298  21.218  25.970  1.00  0.00     0.016 A 
ATOM     37  C   UNL A   1      44.168  23.111  24.225  1.00  0.00     0.010 A 
ATOM     38  C   UNL A   1      45.187  22.556  26.354  1.00  0.00     0.010 A 
ATOM     39  C   UNL A   1      44.649  23.517  25.476  1.00  0.00    -0.014 A 
BRANCH  39  40
ATOM     40  C   UNL A   1      44.776  24.955  25.827  1.00  0.00     0.031 A 
ATOM     41  C   UNL A   1      46.137  25.589  25.724  1.00  0.00     0.074 A 
ATOM     42  C   UNL A   1      43.733  25.676  26.274  1.00  0.00     0.049 A 
ATOM     43  N   UNL A   1      46.557  26.745  26.167  1.00  0.00    -0.248 NA
ATOM     44  C   UNL A   1      47.167  24.797  25.034  1.00  0.00     0.031 C 
ATOM     45  C   UNL A   1      42.352  25.210  26.356  1.00  0.00     0.029 A 
ATOM     46  N   UNL A   1      43.689  26.956  26.775  1.00  0.00    -0.354 N 
ATOM     47  C   UNL A   1      47.905  26.807  25.836  1.00  0.00     0.074 A 
ATOM     48  C   UNL A   1      48.236  25.565  25.172  1.00  0.00     0.031 C 
ATOM     49  C   UNL A   1      41.599  26.180  26.903  1.00  0.00     0.029 A 
ATOM     50  C   UNL A   1      42.453  27.311  27.259  1.00  0.00     0.049 A 
ATOM     51  H   UNL A   1      44.467  27.559  26.785  1.00  0.00     0.167 HD
ATOM     52  C   UNL A   1      48.785  27.810  26.068  1.00  0.00     0.037 A 
ATOM     53  C   UNL A   1      42.071  28.404  27.952  1.00  0.00     0.037 A 
ATOM     54  C   UNL A   1      48.447  29.045  26.724  1.00  0.00     0.049 A 
ATOM     55  C   UNL A   1      43.090  29.469  28.284  1.00  0.00     0.074 A 
ATOM     56  C   UNL A   1      49.263  30.128  26.994  1.00  0.00     0.029 A 
ATOM     57  N   UNL A   1      47.188  29.357  27.217  1.00  0.00    -0.354 N 
ATOM     58  N   UNL A   1      44.363  29.524  27.975  1.00  0.00    -0.248 NA
ATOM     59  C   UNL A   1      42.619  30.620  29.069  1.00  0.00     0.031 C 
ATOM     60  C   UNL A   1      48.516  31.071  27.706  1.00  0.00     0.029 A 
ATOM     61  C   UNL A   1      47.215  30.606  27.816  1.00  0.00     0.049 A 
ATOM     62  H   UNL A   1      46.395  28.778  27.151  1.00  0.00     0.167 HD
ATOM     63  C   UNL A   1      44.832  30.727  28.489  1.00  0.00     0.074 A 
ATOM     64  C   UNL A   1      43.708  31.374  29.132  1.00  0.00     0.031 C 
ATOM     65  C   UNL A   1      46.081  31.251  28.428  1.00  0.00     0.037 A 
BRANCH  52  66
ATOM     66  C   UNL A   1      50.209  27.595  25.647  1.00  0.00     0.064 A 
ATOM     67  C   UNL A   1      50.627  27.775  24.320  1.00  0.00     0.173 A 
ATOM     68  C   UNL A   1      51.179  27.234  26.595  1.00  0.00     0.173 A 
ATOM     69  F   UNL A   1      49.738  28.106  23.371  1.00  0.00    -0.203 F 
ATOM     70  C   UNL A   1      51.956  27.575  23.953  1.00  0.00     0.198 A 
ATOM     71  C   UNL A   1      52.513  27.068  26.233  1.00  0.00     0.198 A 
ATOM     72  F   UNL A   1      50.836  27.053  27.879  1.00  0.00    -0.203 F 
ATOM     73  F   UNL A   1      52.322  27.700  22.671  1.00  0.00    -0.200 F 
ATOM     74  C   UNL A   1      52.898  27.230  24.911  1.00  0.00     0.200 A 
ATOM     75  F   UNL A   1      53.424  26.750  27.163  1.00  0.00    -0.200 F 
ATOM     76  F   UNL A   1      54.177  27.044  24.558  1.00  0.00    -0.200 F 
ENDBRANCH  52  66
BRANCH  53  77
ATOM     77  C   UNL A   1      40.662  28.541  28.411  1.00  0.00     0.064 A 
ATOM     78  C   UNL A   1      39.673  29.063  27.564  1.00  0.00     0.173 A 
ATOM     79  C   UNL A   1      40.280  28.183  29.713  1.00  0.00     0.173 A 
ATOM     80  F   UNL A   1      39.993  29.452  26.322  1.00  0.00    -0.203 F 
ATOM     81  C   UNL A   1      38.362  29.238  28.008  1.00  0.00     0.198 A 
ATOM     82  C   UNL A   1      38.963  28.328  30.145  1.00  0.00     0.198 A 
ATOM     83  F   UNL A   1      41.187  27.688  30.568  1.00  0.00    -0.203 F 
ATOM     84  F   UNL A   1      37.451  29.791  27.196  1.00  0.00    -0.200 F 
ATOM     85  C   UNL A   1      38.007  28.863  29.295  1.00  0.00     0.200 A 
ATOM     86  F   UNL A   1      38.622  27.957  31.386  1.00  0.00    -0.200 F 
ATOM     87  F   UNL A   1      36.748  29.032  29.720  1.00  0.00    -0.200 F 
ENDBRANCH  53  77
BRANCH  65  88
ATOM     88  C   UNL A   1      46.301  32.619  29.010  1.00  0.00     0.064 A 
ATOM     89  C   UNL A   1      46.781  32.805  30.314  1.00  0.00     0.173 A 
ATOM     90  C   UNL A   1      46.110  33.760  28.213  1.00  0.00     0.173 A 
ATOM     91  F   UNL A   1      46.969  31.749  31.121  1.00  0.00    -0.203 F 
ATOM     92  C   UNL A   1      47.049  34.081  30.803  1.00  0.00     0.198 A 
ATOM     93  C   UNL A   1      46.409  35.031  28.694  1.00  0.00     0.198 A 
ATOM     94  F   UNL A   1      45.661  33.637  26.954  1.00  0.00    -0.203 F 
ATOM     95  F   UNL A   1      47.475  34.238  32.064  1.00  0.00    -0.200 F 
ATOM     96  C   UNL A   1      46.874  35.191  29.990  1.00  0.00     0.200 A 
ATOM     97  F   UNL A   1      46.258  36.099  27.899  1.00  0.00    -0.200 F 
ATOM     98  F   UNL A   1      47.155  36.417  30.455  1.00  0.00    -0.200 F 
ENDBRANCH  65  88
ENDBRANCH  39  40
ENDBRANCH  32  34
ENDBRANCH  31  32
ENDBRANCH  30  31
ENDBRANCH  29  30
ENDBRANCH  28  29
ENDBRANCH  27  28
ENDBRANCH   1  27
TORSDOF 20
ENDMDL
MODEL 3
REMARK VINA RESULT:     -10.8      1.497      3.114
REMARK SMILES CCc1n[nH]c(C(=O)N[C@@]2(C(=O)OCCOCCOCCOC(=O)c3ccc(-c4c5nc(c(-c6c(F)c(F)c(F)c(F)c6F)c6ccc([nH]6)c(-c6c(F)c(F)c(F)c(F)c6F)c6nc(c(-c7c(F)c(F)c(F)c(F)c7F)c7ccc4[nH]7)C=C6)C=C5)cc3)CCCC[C@H]2C)n1
REMARK SMILES IDX 17 1 16 2 15 3 14 4 13 5 11 6 12 7 10 8 88 9 92 10 89 11
REMARK SMILES IDX 91 12 93 13 90 14 9 15 7 16 8 17 6 19 3 20 4 21 94 22 5 23
REMARK SMILES IDX 2 25 1 26 18 27 19 28 20 29 21 30 22 31 23 32 24 33 25 34
REMARK SMILES IDX 26 35 87 36 27 37 86 38 28 39 29 40 30 41 80 42 31 43 85 44
REMARK SMILES IDX 79 45 81 46 32 47 84 48 78 49 77 50 33 52 65 53 45 54 64 55
REMARK SMILES IDX 46 56 49 57 63 58 82 59 47 60 48 61 62 63 83 64 50 65 34 66
REMARK SMILES IDX 35 67 43 68 36 69 37 70 41 71 44 72 38 73 39 74 42 75 40 76
REMARK SMILES IDX 66 77 67 78 75 79 68 80 69 81 73 82 76 83 70 84 71 85 74 86
REMARK SMILES IDX 72 87 51 88 52 89 60 90 53 91 54 92 58 93 61 94 55 95 56 96
REMARK SMILES IDX 59 97 57 98
REMARK H PARENT 9 18 5 24 81 51 49 62
REMARK Flexibility Score: inf
ROOT
ATOM      1  C   UNL A   1      38.378  21.854  25.710  1.00  0.00     0.188 C 
ENDROOT
BRANCH   1   2
ATOM      2  O   UNL A   1      37.753  23.131  25.680  1.00  0.00    -0.376 OA
BRANCH   2   3
ATOM      3  C   UNL A   1      36.652  23.364  24.811  1.00  0.00     0.202 C 
BRANCH   3   4
ATOM      4  C   UNL A   1      35.488  24.193  25.373  1.00  0.00     0.261 C 
BRANCH   4   5
ATOM      5  O   UNL A   1      34.148  23.712  25.116  1.00  0.00    -0.461 OA
BRANCH   5   6
ATOM      6  C   UNL A   1      33.564  22.905  26.050  1.00  0.00     0.332 C 
ATOM      7  O   UNL A   1      33.902  22.869  27.231  1.00  0.00    -0.249 OA
BRANCH   6   8
ATOM      8  C   UNL A   1      32.483  21.900  25.452  1.00  0.00     0.141 C 
ATOM      9  C   UNL A   1      33.140  20.563  25.856  1.00  0.00     0.041 C 
ATOM     10  C   UNL A   1      32.294  22.076  23.900  1.00  0.00     0.023 C 
ATOM     11  C   UNL A   1      32.569  19.347  25.178  1.00  0.00     0.003 C 
ATOM     12  C   UNL A   1      32.167  20.776  23.083  1.00  0.00     0.006 C 
ATOM     13  C   UNL A   1      31.184  23.056  23.434  1.00  0.00     0.011 C 
ATOM     14  C   UNL A   1      32.696  19.477  23.672  1.00  0.00     0.000 C 
BRANCH   8  15
ATOM     15  N   UNL A   1      31.268  22.185  26.298  1.00  0.00    -0.333 N 
ATOM     16  C   UNL A   1      30.511  23.253  26.722  1.00  0.00     0.289 C 
ATOM     17  O   UNL A   1      29.602  22.980  27.514  1.00  0.00    -0.266 OA
ATOM     18  H   UNL A   1      30.902  21.345  26.658  1.00  0.00     0.165 HD
BRANCH  16  19
ATOM     19  C   UNL A   1      30.794  24.628  26.388  1.00  0.00     0.214 A 
ATOM     20  C   UNL A   1      30.918  26.544  25.465  1.00  0.00     0.151 A 
ATOM     21  N   UNL A   1      32.032  26.502  26.204  1.00  0.00    -0.158 NA
ATOM     22  N   UNL A   1      30.120  25.432  25.602  1.00  0.00    -0.207 NA
ATOM     23  N   UNL A   1      31.896  25.312  26.829  1.00  0.00    -0.255 N 
ATOM     24  H   UNL A   1      32.514  24.977  27.517  1.00  0.00     0.192 HD
BRANCH  20  25
ATOM     25  C   UNL A   1      30.622  27.529  24.385  1.00  0.00     0.076 C 
ATOM     26  C   UNL A   1      31.196  28.921  24.515  1.00  0.00     0.012 C 
ENDBRANCH  20  25
ENDBRANCH  16  19
ENDBRANCH   8  15
ENDBRANCH   6   8
ENDBRANCH   5   6
ENDBRANCH   4   5
ENDBRANCH   3   4
ENDBRANCH   2   3
ENDBRANCH   1   2
BRANCH   1  27
ATOM     27  C   UNL A   1      39.644  21.670  26.540  1.00  0.00     0.188 C 
BRANCH  27  28
ATOM     28  O   UNL A   1      40.354  20.491  26.228  1.00  0.00    -0.376 OA
BRANCH  28  29
ATOM     29  C   UNL A   1      41.764  20.549  26.339  1.00  0.00     0.202 C 
BRANCH  29  30
ATOM     30  C   UNL A   1      42.451  19.261  25.870  1.00  0.00     0.261 C 
BRANCH  30  31
ATOM     31  O   UNL A   1      43.102  19.338  24.585  1.00  0.00    -0.460 OA
BRANCH  31  32
ATOM     32  C   UNL A   1      44.452  19.465  24.574  1.00  0.00     0.338 C 
ATOM     33  O   UNL A   1      45.262  18.637  24.213  1.00  0.00    -0.246 OA
BRANCH  32  34
ATOM     34  C   UNL A   1      44.766  20.892  24.842  1.00  0.00     0.060 A 
ATOM     35  C   UNL A   1      45.373  21.250  26.057  1.00  0.00     0.016 A 
ATOM     36  C   UNL A   1      44.488  21.868  23.886  1.00  0.00     0.016 A 
ATOM     37  C   UNL A   1      45.681  22.587  26.328  1.00  0.00     0.010 A 
ATOM     38  C   UNL A   1      44.774  23.206  24.166  1.00  0.00     0.010 A 
ATOM     39  C   UNL A   1      45.345  23.579  25.399  1.00  0.00    -0.014 A 
BRANCH  39  40
ATOM     40  C   UNL A   1      45.404  25.021  25.750  1.00  0.00     0.031 A 
ATOM     41  C   UNL A   1      46.734  25.718  25.656  1.00  0.00     0.074 A 
ATOM     42  C   UNL A   1      44.325  25.693  26.190  1.00  0.00     0.049 A 
ATOM     43  N   UNL A   1      47.097  26.892  26.101  1.00  0.00    -0.248 NA
ATOM     44  C   UNL A   1      47.804  24.975  24.973  1.00  0.00     0.031 C 
ATOM     45  C   UNL A   1      42.967  25.163  26.262  1.00  0.00     0.029 A 
ATOM     46  N   UNL A   1      44.218  26.969  26.690  1.00  0.00    -0.354 N 
ATOM     47  C   UNL A   1      48.442  27.017  25.780  1.00  0.00     0.074 A 
ATOM     48  C   UNL A   1      48.835  25.792  25.118  1.00  0.00     0.031 C 
ATOM     49  C   UNL A   1      42.165  26.097  26.804  1.00  0.00     0.029 A 
ATOM     50  C   UNL A   1      42.964  27.267  27.165  1.00  0.00     0.049 A 
ATOM     51  H   UNL A   1      44.967  27.609  26.705  1.00  0.00     0.167 HD
ATOM     52  C   UNL A   1      49.273  28.059  26.017  1.00  0.00     0.037 A 
ATOM     53  C   UNL A   1      42.526  28.341  27.855  1.00  0.00     0.037 A 
ATOM     54  C   UNL A   1      48.874  29.277  26.669  1.00  0.00     0.049 A 
ATOM     55  C   UNL A   1      43.493  29.452  28.194  1.00  0.00     0.074 A 
ATOM     56  C   UNL A   1      49.637  30.398  26.944  1.00  0.00     0.029 A 
ATOM     57  N   UNL A   1      47.598  29.531  27.154  1.00  0.00    -0.354 N 
ATOM     58  N   UNL A   1      44.764  29.567  27.893  1.00  0.00    -0.248 NA
ATOM     59  C   UNL A   1      42.963  30.580  28.975  1.00  0.00     0.031 C 
ATOM     60  C   UNL A   1      48.841  31.305  27.651  1.00  0.00     0.029 A 
ATOM     61  C   UNL A   1      47.563  30.780  27.752  1.00  0.00     0.049 A 
ATOM     62  H   UNL A   1      46.834  28.916  27.083  1.00  0.00     0.167 HD
ATOM     63  C   UNL A   1      45.173  30.791  28.409  1.00  0.00     0.074 A 
ATOM     64  C   UNL A   1      44.016  31.384  29.044  1.00  0.00     0.031 C 
ATOM     65  C   UNL A   1      46.397  31.372  28.357  1.00  0.00     0.037 A 
BRANCH  52  66
ATOM     66  C   UNL A   1      50.709  27.911  25.606  1.00  0.00     0.064 A 
ATOM     67  C   UNL A   1      51.128  28.119  24.282  1.00  0.00     0.173 A 
ATOM     68  C   UNL A   1      51.686  27.587  26.559  1.00  0.00     0.173 A 
ATOM     69  F   UNL A   1      50.232  28.417  23.329  1.00  0.00    -0.203 F 
ATOM     70  C   UNL A   1      52.467  27.980  23.925  1.00  0.00     0.198 A 
ATOM     71  C   UNL A   1      53.029  27.483  26.205  1.00  0.00     0.198 A 
ATOM     72  F   UNL A   1      51.342  27.381  27.839  1.00  0.00    -0.203 F 
ATOM     73  F   UNL A   1      52.837  28.131  22.646  1.00  0.00    -0.200 F 
ATOM     74  C   UNL A   1      53.417  27.671  24.888  1.00  0.00     0.200 A 
ATOM     75  F   UNL A   1      53.947  27.199  27.140  1.00  0.00    -0.200 F 
ATOM     76  F   UNL A   1      54.706  27.545  24.544  1.00  0.00    -0.200 F 
ENDBRANCH  52  66
BRANCH  53  77
ATOM     77  C   UNL A   1      41.109  28.413  28.304  1.00  0.00     0.064 A 
ATOM     78  C   UNL A   1      40.114  28.950  27.476  1.00  0.00     0.173 A 
ATOM     79  C   UNL A   1      40.725  27.974  29.581  1.00  0.00     0.173 A 
ATOM     80  F   UNL A   1      40.435  29.415  26.260  1.00  0.00    -0.203 F 
ATOM     81  C   UNL A   1      38.795  29.063  27.913  1.00  0.00     0.198 A 
ATOM     82  C   UNL A   1      39.400  28.057  30.005  1.00  0.00     0.198 A 
ATOM     83  F   UNL A   1      41.638  27.461  30.418  1.00  0.00    -0.203 F 
ATOM     84  F   UNL A   1      37.876  29.633  27.121  1.00  0.00    -0.200 F 
ATOM     85  C   UNL A   1      38.438  28.610  29.174  1.00  0.00     0.200 A 
ATOM     86  F   UNL A   1      39.058  27.610  31.221  1.00  0.00    -0.200 F 
ATOM     87  F   UNL A   1      37.170  28.719  29.593  1.00  0.00    -0.200 F 
ENDBRANCH  53  77
BRANCH  65  88
ATOM     88  C   UNL A   1      46.548  32.749  28.939  1.00  0.00     0.064 A 
ATOM     89  C   UNL A   1      46.300  33.906  28.187  1.00  0.00     0.173 A 
ATOM     90  C   UNL A   1      46.862  32.906  30.299  1.00  0.00     0.173 A 
ATOM     91  F   UNL A   1      46.009  33.812  26.881  1.00  0.00    -0.203 F 
ATOM     92  C   UNL A   1      46.373  35.168  28.772  1.00  0.00     0.198 A 
ATOM     93  C   UNL A   1      46.903  34.166  30.887  1.00  0.00     0.198 A 
ATOM     94  F   UNL A   1      47.099  31.830  31.066  1.00  0.00    -0.203 F 
ATOM     95  F   UNL A   1      46.166  36.263  28.026  1.00  0.00    -0.200 F 
ATOM     96  C   UNL A   1      46.662  35.297  30.122  1.00  0.00     0.200 A 
ATOM     97  F   UNL A   1      47.162  34.286  32.196  1.00  0.00    -0.200 F 
ATOM     98  F   UNL A   1      46.709  36.511  30.687  1.00  0.00    -0.200 F 
ENDBRANCH  65  88
ENDBRANCH  39  40
ENDBRANCH  32  34
ENDBRANCH  31  32
ENDBRANCH  30  31
ENDBRANCH  29  30
ENDBRANCH  28  29
ENDBRANCH  27  28
ENDBRANCH   1  27
TORSDOF 20
ENDMDL
