MODEL 1
REMARK VINA RESULT:      -9.8      0.000      0.000
REMARK SMILES CC(C)(C)OC(=O)N1CCC[C@H]1C(=O)N[C@@H](Cc1ccccc1)C(=O)OCCOCCOCCOC(=O)c1ccc(-c2c3nc(c(-c4c(F)c(F)c(F)c(F)c4F)c4ccc([nH]4)c(-c4c(F)c(F)c(F)c(F)c4F)c4nc(c(-c5c(F)c(F)c(F)c(F)c5F)c5ccc2[nH]5)C=C4)C=C3)cc1
REMARK SMILES IDX 29 1 28 2 27 3 26 4 24 5 25 6 16 7 15 8 13 9 14 10 12 12
REMARK SMILES IDX 8 13 9 14 10 15 11 16 6 17 7 18 5 19 2 20 1 21 3 22 4 23
REMARK SMILES IDX 17 24 18 25 19 26 23 27 20 28 22 29 21 30 30 31 31 32 32 33
REMARK SMILES IDX 33 34 34 35 35 36 36 37 37 38 38 39 39 40 100 41 40 42 99 43
REMARK SMILES IDX 41 44 42 45 43 46 93 47 44 48 98 49 92 50 94 51 45 52 97 53
REMARK SMILES IDX 91 54 90 55 46 57 78 58 58 59 77 60 59 61 62 62 76 63 95 64
REMARK SMILES IDX 60 65 61 66 75 68 96 69 63 70 47 71 48 72 56 73 49 74 50 75
REMARK SMILES IDX 54 76 57 77 51 78 52 79 55 80 53 81 79 82 80 83 88 84 81 85
REMARK SMILES IDX 82 86 86 87 89 88 83 89 84 90 87 91 85 92 64 93 65 94 73 95
REMARK SMILES IDX 66 96 67 97 71 98 74 99 68 100 69 101 72 102 70 103
REMARK H PARENT 15 11 94 56 62 67
REMARK Flexibility Score: inf
ROOT
ATOM      1  O   UNL A   1      35.377  33.238  28.845  1.00  0.00    -0.376 OA
ENDROOT
BRANCH   1   2
ATOM      2  C   UNL A   1      34.422  32.220  28.609  1.00  0.00     0.202 C 
BRANCH   2   3
ATOM      3  C   UNL A   1      34.838  31.251  27.506  1.00  0.00     0.261 C 
BRANCH   3   4
ATOM      4  O   UNL A   1      33.823  30.289  27.145  1.00  0.00    -0.462 OA
BRANCH   4   5
ATOM      5  C   UNL A   1      34.229  29.020  26.883  1.00  0.00     0.329 C 
ATOM      6  O   UNL A   1      35.323  28.579  27.218  1.00  0.00    -0.250 OA
BRANCH   5   7
ATOM      7  C   UNL A   1      33.245  28.267  25.954  1.00  0.00     0.196 C 
BRANCH   7   8
ATOM      8  N   UNL A   1      33.003  26.860  26.306  1.00  0.00    -0.341 N 
ATOM      9  C   UNL A   1      33.308  25.691  25.674  1.00  0.00     0.243 C 
ATOM     10  O   UNL A   1      33.015  24.650  26.272  1.00  0.00    -0.273 OA
ATOM     11  H   UNL A   1      32.531  26.739  27.162  1.00  0.00     0.164 HD
BRANCH   9  12
ATOM     12  C   UNL A   1      34.033  25.662  24.303  1.00  0.00     0.178 C 
ATOM     13  N   UNL A   1      33.749  24.396  23.617  1.00  0.00    -0.296 N 
ATOM     14  C   UNL A   1      32.694  24.601  22.647  1.00  0.00     0.124 C 
ATOM     15  C   UNL A   1      32.895  26.024  22.161  1.00  0.00     0.024 C 
ATOM     16  C   UNL A   1      33.488  26.757  23.359  1.00  0.00     0.037 C 
BRANCH  13  17
ATOM     17  C   UNL A   1      34.708  23.419  23.491  1.00  0.00     0.410 C 
ATOM     18  O   UNL A   1      35.857  23.700  23.104  1.00  0.00    -0.224 OA
BRANCH  17  19
ATOM     19  O   UNL A   1      34.340  22.198  23.965  1.00  0.00    -0.444 OA
BRANCH  19  20
ATOM     20  C   UNL A   1      34.841  21.659  25.247  1.00  0.00     0.106 C 
ATOM     21  C   UNL A   1      35.716  20.440  25.001  1.00  0.00     0.056 C 
ATOM     22  C   UNL A   1      33.622  21.161  26.034  1.00  0.00     0.056 C 
ATOM     23  C   UNL A   1      35.636  22.627  26.132  1.00  0.00     0.056 C 
ENDBRANCH  19  20
ENDBRANCH  17  19
ENDBRANCH  13  17
ENDBRANCH   9  12
ENDBRANCH   7   8
BRANCH   7  24
ATOM     24  C   UNL A   1      31.922  29.065  25.930  1.00  0.00     0.072 C 
BRANCH  24  25
ATOM     25  C   UNL A   1      30.989  28.650  24.807  1.00  0.00    -0.045 A 
ATOM     26  C   UNL A   1      30.666  29.541  23.772  1.00  0.00     0.004 A 
ATOM     27  C   UNL A   1      30.370  27.395  24.827  1.00  0.00     0.004 A 
ATOM     28  C   UNL A   1      29.666  29.237  22.850  1.00  0.00     0.000 A 
ATOM     29  C   UNL A   1      29.406  27.069  23.870  1.00  0.00     0.000 A 
ATOM     30  C   UNL A   1      29.034  27.999  22.902  1.00  0.00     0.000 A 
ENDBRANCH  24  25
ENDBRANCH   7  24
ENDBRANCH   5   7
ENDBRANCH   4   5
ENDBRANCH   3   4
ENDBRANCH   2   3
ENDBRANCH   1   2
BRANCH   1  31
ATOM     31  C   UNL A   1      34.852  34.430  29.408  1.00  0.00     0.188 C 
BRANCH  31  32
ATOM     32  C   UNL A   1      34.028  34.237  30.697  1.00  0.00     0.188 C 
BRANCH  32  33
ATOM     33  O   UNL A   1      34.432  34.924  31.866  1.00  0.00    -0.376 OA
BRANCH  33  34
ATOM     34  C   UNL A   1      34.445  34.168  33.070  1.00  0.00     0.202 C 
BRANCH  34  35
ATOM     35  C   UNL A   1      34.959  32.720  32.983  1.00  0.00     0.261 C 
BRANCH  35  36
ATOM     36  O   UNL A   1      36.091  32.430  33.840  1.00  0.00    -0.460 OA
BRANCH  36  37
ATOM     37  C   UNL A   1      37.279  32.941  33.435  1.00  0.00     0.338 C 
ATOM     38  O   UNL A   1      37.752  34.022  33.786  1.00  0.00    -0.246 OA
BRANCH  37  39
ATOM     39  C   UNL A   1      38.030  32.046  32.511  1.00  0.00     0.060 A 
ATOM     40  C   UNL A   1      38.991  31.149  32.965  1.00  0.00     0.016 A 
ATOM     41  C   UNL A   1      37.924  32.241  31.133  1.00  0.00     0.016 A 
ATOM     42  C   UNL A   1      39.881  30.533  32.079  1.00  0.00     0.010 A 
ATOM     43  C   UNL A   1      38.814  31.604  30.241  1.00  0.00     0.010 A 
ATOM     44  C   UNL A   1      39.864  30.798  30.709  1.00  0.00    -0.014 A 
BRANCH  44  45
ATOM     45  C   UNL A   1      41.037  30.409  29.844  1.00  0.00     0.031 A 
ATOM     46  C   UNL A   1      41.010  29.099  29.105  1.00  0.00     0.074 A 
ATOM     47  C   UNL A   1      42.074  31.227  29.560  1.00  0.00     0.049 A 
ATOM     48  N   UNL A   1      41.997  28.448  28.545  1.00  0.00    -0.248 NA
ATOM     49  C   UNL A   1      39.706  28.433  28.984  1.00  0.00     0.031 C 
ATOM     50  C   UNL A   1      42.211  32.584  30.054  1.00  0.00     0.029 A 
ATOM     51  N   UNL A   1      43.192  31.063  28.767  1.00  0.00    -0.354 N 
ATOM     52  C   UNL A   1      41.457  27.248  28.110  1.00  0.00     0.074 A 
ATOM     53  C   UNL A   1      40.045  27.278  28.428  1.00  0.00     0.031 C 
ATOM     54  C   UNL A   1      43.276  33.165  29.486  1.00  0.00     0.029 A 
ATOM     55  C   UNL A   1      44.011  32.169  28.728  1.00  0.00     0.049 A 
ATOM     56  H   UNL A   1      43.385  30.232  28.274  1.00  0.00     0.167 HD
ATOM     57  C   UNL A   1      42.098  26.208  27.527  1.00  0.00     0.037 A 
ATOM     58  C   UNL A   1      45.255  32.363  28.238  1.00  0.00     0.037 A 
ATOM     59  C   UNL A   1      43.482  26.227  27.126  1.00  0.00     0.049 A 
ATOM     60  C   UNL A   1      45.982  31.182  27.667  1.00  0.00     0.074 A 
ATOM     61  C   UNL A   1      44.234  25.207  26.568  1.00  0.00     0.029 A 
ATOM     62  N   UNL A   1      44.316  27.334  27.208  1.00  0.00    -0.354 N 
ATOM     63  N   UNL A   1      45.538  29.969  27.454  1.00  0.00    -0.248 NA
ATOM     64  C   UNL A   1      47.399  31.374  27.329  1.00  0.00     0.031 C 
ATOM     65  C   UNL A   1      45.532  25.684  26.351  1.00  0.00     0.029 A 
ATOM     66  C   UNL A   1      45.575  27.018  26.720  1.00  0.00     0.049 A 
ATOM     67  H   UNL A   1      44.051  28.214  27.560  1.00  0.00     0.167 HD
ATOM     68  C   UNL A   1      46.617  29.250  26.964  1.00  0.00     0.074 A 
ATOM     69  C   UNL A   1      47.731  30.173  26.876  1.00  0.00     0.031 C 
ATOM     70  C   UNL A   1      46.679  27.938  26.635  1.00  0.00     0.037 A 
BRANCH  57  71
ATOM     71  C   UNL A   1      41.334  24.926  27.382  1.00  0.00     0.064 A 
ATOM     72  C   UNL A   1      41.588  23.795  28.168  1.00  0.00     0.173 A 
ATOM     73  C   UNL A   1      40.309  24.845  26.424  1.00  0.00     0.173 A 
ATOM     74  F   UNL A   1      42.574  23.813  29.077  1.00  0.00    -0.203 F 
ATOM     75  C   UNL A   1      40.859  22.622  27.986  1.00  0.00     0.198 A 
ATOM     76  C   UNL A   1      39.561  23.683  26.268  1.00  0.00     0.198 A 
ATOM     77  F   UNL A   1      40.028  25.899  25.643  1.00  0.00    -0.203 F 
ATOM     78  F   UNL A   1      41.154  21.534  28.710  1.00  0.00    -0.200 F 
ATOM     79  C   UNL A   1      39.842  22.570  27.043  1.00  0.00     0.200 A 
ATOM     80  F   UNL A   1      38.572  23.642  25.365  1.00  0.00    -0.200 F 
ATOM     81  F   UNL A   1      39.138  21.442  26.876  1.00  0.00    -0.200 F 
ENDBRANCH  57  71
BRANCH  58  82
ATOM     82  C   UNL A   1      45.946  33.679  28.397  1.00  0.00     0.064 A 
ATOM     83  C   UNL A   1      46.675  33.991  29.553  1.00  0.00     0.173 A 
ATOM     84  C   UNL A   1      45.876  34.666  27.398  1.00  0.00     0.173 A 
ATOM     85  F   UNL A   1      46.740  33.111  30.563  1.00  0.00    -0.203 F 
ATOM     86  C   UNL A   1      47.305  35.229  29.700  1.00  0.00     0.198 A 
ATOM     87  C   UNL A   1      46.546  35.880  27.524  1.00  0.00     0.198 A 
ATOM     88  F   UNL A   1      45.173  34.441  26.277  1.00  0.00    -0.203 F 
ATOM     89  F   UNL A   1      47.950  35.520  30.839  1.00  0.00    -0.200 F 
ATOM     90  C   UNL A   1      47.254  36.166  28.679  1.00  0.00     0.200 A 
ATOM     91  F   UNL A   1      46.509  36.770  26.522  1.00  0.00    -0.200 F 
ATOM     92  F   UNL A   1      47.876  37.345  28.813  1.00  0.00    -0.200 F 
ENDBRANCH  58  82
BRANCH  70  93
ATOM     93  C   UNL A   1      47.988  27.434  26.107  1.00  0.00     0.064 A 
ATOM     94  C   UNL A   1      48.274  27.420  24.734  1.00  0.00     0.173 A 
ATOM     95  C   UNL A   1      48.970  26.958  26.990  1.00  0.00     0.173 A 
ATOM     96  F   UNL A   1      47.359  27.842  23.849  1.00  0.00    -0.203 F 
ATOM     97  C   UNL A   1      49.485  26.921  24.262  1.00  0.00     0.198 A 
ATOM     98  C   UNL A   1      50.191  26.490  26.516  1.00  0.00     0.198 A 
ATOM     99  F   UNL A   1      48.744  26.951  28.312  1.00  0.00    -0.203 F 
ATOM    100  F   UNL A   1      49.715  26.862  22.943  1.00  0.00    -0.200 F 
ATOM    101  C   UNL A   1      50.444  26.461  25.153  1.00  0.00     0.200 A 
ATOM    102  F   UNL A   1      51.119  26.056  27.379  1.00  0.00    -0.200 F 
ATOM    103  F   UNL A   1      51.608  25.980  24.697  1.00  0.00    -0.200 F 
ENDBRANCH  70  93
ENDBRANCH  44  45
ENDBRANCH  37  39
ENDBRANCH  36  37
ENDBRANCH  35  36
ENDBRANCH  34  35
ENDBRANCH  33  34
ENDBRANCH  32  33
ENDBRANCH  31  32
ENDBRANCH   1  31
TORSDOF 24
ENDMDL
MODEL 2
REMARK VINA RESULT:      -9.4      7.914     14.794
REMARK SMILES CC(C)(C)OC(=O)N1CCC[C@H]1C(=O)N[C@@H](Cc1ccccc1)C(=O)OCCOCCOCCOC(=O)c1ccc(-c2c3nc(c(-c4c(F)c(F)c(F)c(F)c4F)c4ccc([nH]4)c(-c4c(F)c(F)c(F)c(F)c4F)c4nc(c(-c5c(F)c(F)c(F)c(F)c5F)c5ccc2[nH]5)C=C4)C=C3)cc1
REMARK SMILES IDX 29 1 28 2 27 3 26 4 24 5 25 6 16 7 15 8 13 9 14 10 12 12
REMARK SMILES IDX 8 13 9 14 10 15 11 16 6 17 7 18 5 19 2 20 1 21 3 22 4 23
REMARK SMILES IDX 17 24 18 25 19 26 23 27 20 28 22 29 21 30 30 31 31 32 32 33
REMARK SMILES IDX 33 34 34 35 35 36 36 37 37 38 38 39 39 40 100 41 40 42 99 43
REMARK SMILES IDX 41 44 42 45 43 46 93 47 44 48 98 49 92 50 94 51 45 52 97 53
REMARK SMILES IDX 91 54 90 55 46 57 78 58 58 59 77 60 59 61 62 62 76 63 95 64
REMARK SMILES IDX 60 65 61 66 75 68 96 69 63 70 47 71 48 72 56 73 49 74 50 75
REMARK SMILES IDX 54 76 57 77 51 78 52 79 55 80 53 81 79 82 80 83 88 84 81 85
REMARK SMILES IDX 82 86 86 87 89 88 83 89 84 90 87 91 85 92 64 93 65 94 73 95
REMARK SMILES IDX 66 96 67 97 71 98 74 99 68 100 69 101 72 102 70 103
REMARK H PARENT 15 11 94 56 62 67
REMARK Flexibility Score: inf
ROOT
ATOM      1  O   UNL A   1      41.942  41.584  22.106  1.00  0.00    -0.376 OA
ENDROOT
BRANCH   1   2
ATOM      2  C   UNL A   1      42.675  42.104  21.012  1.00  0.00     0.202 C 
BRANCH   2   3
ATOM      3  C   UNL A   1      42.378  43.574  20.735  1.00  0.00     0.261 C 
BRANCH   3   4
ATOM      4  O   UNL A   1      41.997  43.858  19.371  1.00  0.00    -0.462 OA
BRANCH   4   5
ATOM      5  C   UNL A   1      42.912  43.605  18.400  1.00  0.00     0.329 C 
ATOM      6  O   UNL A   1      42.749  42.764  17.522  1.00  0.00    -0.250 OA
BRANCH   5   7
ATOM      7  C   UNL A   1      44.248  44.349  18.643  1.00  0.00     0.196 C 
BRANCH   7   8
ATOM      8  N   UNL A   1      45.409  43.483  18.903  1.00  0.00    -0.341 N 
ATOM      9  C   UNL A   1      46.192  43.307  20.005  1.00  0.00     0.243 C 
ATOM     10  O   UNL A   1      47.071  42.442  19.923  1.00  0.00    -0.273 OA
ATOM     11  H   UNL A   1      45.669  42.925  18.135  1.00  0.00     0.164 HD
BRANCH   9  12
ATOM     12  C   UNL A   1      45.962  44.106  21.314  1.00  0.00     0.178 C 
ATOM     13  N   UNL A   1      46.825  43.578  22.378  1.00  0.00    -0.296 N 
ATOM     14  C   UNL A   1      48.000  44.414  22.502  1.00  0.00     0.124 C 
ATOM     15  C   UNL A   1      47.515  45.808  22.154  1.00  0.00     0.024 C 
ATOM     16  C   UNL A   1      46.389  45.582  21.152  1.00  0.00     0.037 C 
BRANCH  13  17
ATOM     17  C   UNL A   1      46.310  42.844  23.419  1.00  0.00     0.410 C 
ATOM     18  O   UNL A   1      45.518  41.906  23.208  1.00  0.00    -0.224 OA
BRANCH  17  19
ATOM     19  O   UNL A   1      46.850  43.125  24.635  1.00  0.00    -0.444 OA
BRANCH  19  20
ATOM     20  C   UNL A   1      46.150  43.944  25.647  1.00  0.00     0.106 C 
ATOM     21  C   UNL A   1      44.953  44.645  25.022  1.00  0.00     0.056 C 
ATOM     22  C   UNL A   1      47.118  45.052  26.080  1.00  0.00     0.056 C 
ATOM     23  C   UNL A   1      45.653  43.209  26.897  1.00  0.00     0.056 C 
ENDBRANCH  19  20
ENDBRANCH  17  19
ENDBRANCH  13  17
ENDBRANCH   9  12
ENDBRANCH   7   8
BRANCH   7  24
ATOM     24  C   UNL A   1      44.505  45.261  17.421  1.00  0.00     0.072 C 
BRANCH  24  25
ATOM     25  C   UNL A   1      43.751  46.576  17.483  1.00  0.00    -0.045 A 
ATOM     26  C   UNL A   1      42.638  46.809  16.660  1.00  0.00     0.004 A 
ATOM     27  C   UNL A   1      44.201  47.613  18.308  1.00  0.00     0.004 A 
ATOM     28  C   UNL A   1      42.064  48.076  16.572  1.00  0.00     0.000 A 
ATOM     29  C   UNL A   1      43.591  48.868  18.259  1.00  0.00     0.000 A 
ATOM     30  C   UNL A   1      42.544  49.107  17.372  1.00  0.00     0.000 A 
ENDBRANCH  24  25
ENDBRANCH   7  24
ENDBRANCH   5   7
ENDBRANCH   4   5
ENDBRANCH   3   4
ENDBRANCH   2   3
ENDBRANCH   1   2
BRANCH   1  31
ATOM     31  C   UNL A   1      41.913  42.415  23.255  1.00  0.00     0.188 C 
BRANCH  31  32
ATOM     32  C   UNL A   1      41.927  41.669  24.603  1.00  0.00     0.188 C 
BRANCH  32  33
ATOM     33  O   UNL A   1      43.149  41.119  25.058  1.00  0.00    -0.376 OA
BRANCH  33  34
ATOM     34  C   UNL A   1      43.132  40.526  26.350  1.00  0.00     0.202 C 
BRANCH  34  35
ATOM     35  C   UNL A   1      42.050  39.466  26.621  1.00  0.00     0.261 C 
BRANCH  35  36
ATOM     36  O   UNL A   1      42.500  38.095  26.480  1.00  0.00    -0.460 OA
BRANCH  36  37
ATOM     37  C   UNL A   1      42.052  37.231  27.422  1.00  0.00     0.338 C 
ATOM     38  O   UNL A   1      41.230  37.492  28.301  1.00  0.00    -0.246 OA
BRANCH  37  39
ATOM     39  C   UNL A   1      42.627  35.863  27.300  1.00  0.00     0.060 A 
ATOM     40  C   UNL A   1      42.837  35.045  28.406  1.00  0.00     0.016 A 
ATOM     41  C   UNL A   1      43.160  35.451  26.077  1.00  0.00     0.016 A 
ATOM     42  C   UNL A   1      43.631  33.897  28.315  1.00  0.00     0.010 A 
ATOM     43  C   UNL A   1      43.948  34.283  25.988  1.00  0.00     0.010 A 
ATOM     44  C   UNL A   1      44.265  33.527  27.128  1.00  0.00    -0.014 A 
BRANCH  44  45
ATOM     45  C   UNL A   1      45.381  32.512  27.145  1.00  0.00     0.031 A 
ATOM     46  C   UNL A   1      46.805  32.980  27.268  1.00  0.00     0.074 A 
ATOM     47  C   UNL A   1      45.190  31.175  27.203  1.00  0.00     0.049 A 
ATOM     48  N   UNL A   1      47.912  32.325  27.026  1.00  0.00    -0.248 NA
ATOM     49  C   UNL A   1      47.012  34.364  27.716  1.00  0.00     0.031 C 
ATOM     50  C   UNL A   1      43.892  30.531  27.244  1.00  0.00     0.029 A 
ATOM     51  N   UNL A   1      46.073  30.117  27.271  1.00  0.00    -0.354 N 
ATOM     52  C   UNL A   1      48.936  33.246  27.179  1.00  0.00     0.074 A 
ATOM     53  C   UNL A   1      48.324  34.496  27.580  1.00  0.00     0.031 C 
ATOM     54  C   UNL A   1      44.047  29.214  27.432  1.00  0.00     0.029 A 
ATOM     55  C   UNL A   1      45.459  28.886  27.338  1.00  0.00     0.049 A 
ATOM     56  H   UNL A   1      47.052  30.231  27.272  1.00  0.00     0.167 HD
ATOM     57  C   UNL A   1      50.260  33.063  26.971  1.00  0.00     0.037 A 
ATOM     58  C   UNL A   1      45.934  27.626  27.236  1.00  0.00     0.037 A 
ATOM     59  C   UNL A   1      50.868  31.792  26.667  1.00  0.00     0.049 A 
ATOM     60  C   UNL A   1      47.390  27.442  26.926  1.00  0.00     0.074 A 
ATOM     61  C   UNL A   1      52.197  31.513  26.395  1.00  0.00     0.029 A 
ATOM     62  N   UNL A   1      50.193  30.580  26.631  1.00  0.00    -0.354 N 
ATOM     63  N   UNL A   1      48.334  28.346  26.851  1.00  0.00    -0.248 NA
ATOM     64  C   UNL A   1      47.837  26.076  26.621  1.00  0.00     0.031 C 
ATOM     65  C   UNL A   1      52.317  30.140  26.153  1.00  0.00     0.029 A 
ATOM     66  C   UNL A   1      51.076  29.553  26.331  1.00  0.00     0.049 A 
ATOM     67  H   UNL A   1      49.230  30.466  26.794  1.00  0.00     0.167 HD
ATOM     68  C   UNL A   1      49.484  27.664  26.485  1.00  0.00     0.074 A 
ATOM     69  C   UNL A   1      49.128  26.263  26.389  1.00  0.00     0.031 C 
ATOM     70  C   UNL A   1      50.718  28.162  26.235  1.00  0.00     0.037 A 
BRANCH  57  71
ATOM     71  C   UNL A   1      51.128  34.286  26.962  1.00  0.00     0.064 A 
ATOM     72  C   UNL A   1      51.823  34.735  28.093  1.00  0.00     0.173 A 
ATOM     73  C   UNL A   1      51.264  35.020  25.772  1.00  0.00     0.173 A 
ATOM     74  F   UNL A   1      51.704  34.085  29.260  1.00  0.00    -0.203 F 
ATOM     75  C   UNL A   1      52.606  35.886  28.038  1.00  0.00     0.198 A 
ATOM     76  C   UNL A   1      52.073  36.150  25.712  1.00  0.00     0.198 A 
ATOM     77  F   UNL A   1      50.616  34.635  24.662  1.00  0.00    -0.203 F 
ATOM     78  F   UNL A   1      53.219  36.329  29.144  1.00  0.00    -0.200 F 
ATOM     79  C   UNL A   1      52.737  36.587  26.847  1.00  0.00     0.200 A 
ATOM     80  F   UNL A   1      52.207  36.816  24.557  1.00  0.00    -0.200 F 
ATOM     81  F   UNL A   1      53.497  37.689  26.796  1.00  0.00    -0.200 F 
ENDBRANCH  57  71
BRANCH  58  82
ATOM     82  C   UNL A   1      45.010  26.452  27.280  1.00  0.00     0.064 A 
ATOM     83  C   UNL A   1      44.377  25.971  26.124  1.00  0.00     0.173 A 
ATOM     84  C   UNL A   1      44.724  25.792  28.488  1.00  0.00     0.173 A 
ATOM     85  F   UNL A   1      44.570  26.587  24.949  1.00  0.00    -0.203 F 
ATOM     86  C   UNL A   1      43.503  24.883  26.176  1.00  0.00     0.198 A 
ATOM     87  C   UNL A   1      43.892  24.676  28.530  1.00  0.00     0.198 A 
ATOM     88  F   UNL A   1      45.277  26.216  29.634  1.00  0.00    -0.203 F 
ATOM     89  F   UNL A   1      42.870  24.480  25.066  1.00  0.00    -0.200 F 
ATOM     90  C   UNL A   1      43.274  24.227  27.377  1.00  0.00     0.200 A 
ATOM     91  F   UNL A   1      43.695  24.035  29.691  1.00  0.00    -0.200 F 
ATOM     92  F   UNL A   1      42.452  23.170  27.422  1.00  0.00    -0.200 F 
ENDBRANCH  58  82
BRANCH  70  93
ATOM     93  C   UNL A   1      51.787  27.174  25.875  1.00  0.00     0.064 A 
ATOM     94  C   UNL A   1      52.554  26.527  26.855  1.00  0.00     0.173 A 
ATOM     95  C   UNL A   1      52.044  26.872  24.530  1.00  0.00     0.173 A 
ATOM     96  F   UNL A   1      52.362  26.801  28.154  1.00  0.00    -0.203 F 
ATOM     97  C   UNL A   1      53.561  25.634  26.498  1.00  0.00     0.198 A 
ATOM     98  C   UNL A   1      53.030  25.955  24.179  1.00  0.00     0.198 A 
ATOM     99  F   UNL A   1      51.337  27.465  23.556  1.00  0.00    -0.203 F 
ATOM    100  F   UNL A   1      54.323  25.072  27.447  1.00  0.00    -0.200 F 
ATOM    101  C   UNL A   1      53.795  25.346  25.162  1.00  0.00     0.200 A 
ATOM    102  F   UNL A   1      53.247  25.670  22.888  1.00  0.00    -0.200 F 
ATOM    103  F   UNL A   1      54.766  24.487  24.821  1.00  0.00    -0.200 F 
ENDBRANCH  70  93
ENDBRANCH  44  45
ENDBRANCH  37  39
ENDBRANCH  36  37
ENDBRANCH  35  36
ENDBRANCH  34  35
ENDBRANCH  33  34
ENDBRANCH  32  33
ENDBRANCH  31  32
ENDBRANCH   1  31
TORSDOF 24
ENDMDL
MODEL 3
REMARK VINA RESULT:      -9.2      8.205     14.422
REMARK SMILES CC(C)(C)OC(=O)N1CCC[C@H]1C(=O)N[C@@H](Cc1ccccc1)C(=O)OCCOCCOCCOC(=O)c1ccc(-c2c3nc(c(-c4c(F)c(F)c(F)c(F)c4F)c4ccc([nH]4)c(-c4c(F)c(F)c(F)c(F)c4F)c4nc(c(-c5c(F)c(F)c(F)c(F)c5F)c5ccc2[nH]5)C=C4)C=C3)cc1
REMARK SMILES IDX 29 1 28 2 27 3 26 4 24 5 25 6 16 7 15 8 13 9 14 10 12 12
REMARK SMILES IDX 8 13 9 14 10 15 11 16 6 17 7 18 5 19 2 20 1 21 3 22 4 23
REMARK SMILES IDX 17 24 18 25 19 26 23 27 20 28 22 29 21 30 30 31 31 32 32 33
REMARK SMILES IDX 33 34 34 35 35 36 36 37 37 38 38 39 39 40 100 41 40 42 99 43
REMARK SMILES IDX 41 44 42 45 43 46 93 47 44 48 98 49 92 50 94 51 45 52 97 53
REMARK SMILES IDX 91 54 90 55 46 57 78 58 58 59 77 60 59 61 62 62 76 63 95 64
REMARK SMILES IDX 60 65 61 66 75 68 96 69 63 70 47 71 48 72 56 73 49 74 50 75
REMARK SMILES IDX 54 76 57 77 51 78 52 79 55 80 53 81 79 82 80 83 88 84 81 85
REMARK SMILES IDX 82 86 86 87 89 88 83 89 84 90 87 91 85 92 64 93 65 94 73 95
REMARK SMILES IDX 66 96 67 97 71 98 74 99 68 100 69 101 72 102 70 103
REMARK H PARENT 15 11 94 56 62 67
REMARK Flexibility Score: inf
ROOT
ATOM      1  O   UNL A   1      44.274  42.970  25.939  1.00  0.00    -0.376 OA
ENDROOT
BRANCH   1   2
ATOM      2  C   UNL A   1      44.359  43.882  24.859  1.00  0.00     0.202 C 
BRANCH   2   3
ATOM      3  C   UNL A   1      43.357  43.589  23.746  1.00  0.00     0.261 C 
BRANCH   3   4
ATOM      4  O   UNL A   1      43.722  44.132  22.459  1.00  0.00    -0.462 OA
BRANCH   4   5
ATOM      5  C   UNL A   1      44.196  43.267  21.525  1.00  0.00     0.329 C 
ATOM      6  O   UNL A   1      44.024  42.054  21.581  1.00  0.00    -0.250 OA
BRANCH   5   7
ATOM      7  C   UNL A   1      45.133  43.957  20.504  1.00  0.00     0.196 C 
BRANCH   7   8
ATOM      8  N   UNL A   1      44.886  43.615  19.096  1.00  0.00    -0.341 N 
ATOM      9  C   UNL A   1      43.909  43.988  18.220  1.00  0.00     0.243 C 
ATOM     10  O   UNL A   1      44.017  43.566  17.063  1.00  0.00    -0.273 OA
ATOM     11  H   UNL A   1      45.552  43.001  18.712  1.00  0.00     0.164 HD
BRANCH   9  12
ATOM     12  C   UNL A   1      42.752  44.936  18.632  1.00  0.00     0.178 C 
ATOM     13  N   UNL A   1      42.111  45.489  17.433  1.00  0.00    -0.296 N 
ATOM     14  C   UNL A   1      40.909  44.739  17.141  1.00  0.00     0.124 C 
ATOM     15  C   UNL A   1      40.382  44.319  18.500  1.00  0.00     0.024 C 
ATOM     16  C   UNL A   1      41.630  44.165  19.362  1.00  0.00     0.037 C 
BRANCH  13  17
ATOM     17  C   UNL A   1      42.285  46.804  17.071  1.00  0.00     0.410 C 
ATOM     18  O   UNL A   1      41.403  47.651  17.303  1.00  0.00    -0.224 OA
BRANCH  17  19
ATOM     19  O   UNL A   1      43.526  47.104  16.603  1.00  0.00    -0.444 OA
BRANCH  19  20
ATOM     20  C   UNL A   1      44.482  47.938  17.362  1.00  0.00     0.106 C 
ATOM     21  C   UNL A   1      44.829  49.193  16.576  1.00  0.00     0.056 C 
ATOM     22  C   UNL A   1      45.784  47.135  17.484  1.00  0.00     0.056 C 
ATOM     23  C   UNL A   1      44.043  48.378  18.764  1.00  0.00     0.056 C 
ENDBRANCH  19  20
ENDBRANCH  17  19
ENDBRANCH  13  17
ENDBRANCH   9  12
ENDBRANCH   7   8
BRANCH   7  24
ATOM     24  C   UNL A   1      45.026  45.483  20.728  1.00  0.00     0.072 C 
BRANCH  24  25
ATOM     25  C   UNL A   1      46.262  46.086  21.370  1.00  0.00    -0.045 A 
ATOM     26  C   UNL A   1      46.700  47.373  21.021  1.00  0.00     0.004 A 
ATOM     27  C   UNL A   1      47.032  45.337  22.266  1.00  0.00     0.004 A 
ATOM     28  C   UNL A   1      47.934  47.853  21.458  1.00  0.00     0.000 A 
ATOM     29  C   UNL A   1      48.242  45.841  22.747  1.00  0.00     0.000 A 
ATOM     30  C   UNL A   1      48.706  47.084  22.321  1.00  0.00     0.000 A 
ENDBRANCH  24  25
ENDBRANCH   7  24
ENDBRANCH   5   7
ENDBRANCH   4   5
ENDBRANCH   3   4
ENDBRANCH   2   3
ENDBRANCH   1   2
BRANCH   1  31
ATOM     31  C   UNL A   1      43.700  41.714  25.616  1.00  0.00     0.188 C 
BRANCH  31  32
ATOM     32  C   UNL A   1      44.200  40.529  26.465  1.00  0.00     0.188 C 
BRANCH  32  33
ATOM     33  O   UNL A   1      43.405  40.095  27.553  1.00  0.00    -0.376 OA
BRANCH  33  34
ATOM     34  C   UNL A   1      44.103  39.694  28.725  1.00  0.00     0.202 C 
BRANCH  34  35
ATOM     35  C   UNL A   1      43.952  38.227  29.164  1.00  0.00     0.261 C 
BRANCH  35  36
ATOM     36  O   UNL A   1      44.415  37.949  30.509  1.00  0.00    -0.460 OA
BRANCH  36  37
ATOM     37  C   UNL A   1      45.650  37.399  30.602  1.00  0.00     0.338 C 
ATOM     38  O   UNL A   1      46.672  37.987  30.952  1.00  0.00    -0.246 OA
BRANCH  37  39
ATOM     39  C   UNL A   1      45.685  35.950  30.261  1.00  0.00     0.060 A 
ATOM     40  C   UNL A   1      45.928  35.497  28.969  1.00  0.00     0.016 A 
ATOM     41  C   UNL A   1      45.266  35.014  31.209  1.00  0.00     0.016 A 
ATOM     42  C   UNL A   1      45.676  34.169  28.609  1.00  0.00     0.010 A 
ATOM     43  C   UNL A   1      45.028  33.671  30.844  1.00  0.00     0.010 A 
ATOM     44  C   UNL A   1      45.152  33.243  29.513  1.00  0.00    -0.014 A 
BRANCH  44  45
ATOM     45  C   UNL A   1      44.563  31.945  29.018  1.00  0.00     0.031 A 
ATOM     46  C   UNL A   1      43.115  31.640  29.286  1.00  0.00     0.074 A 
ATOM     47  C   UNL A   1      45.211  31.077  28.210  1.00  0.00     0.049 A 
ATOM     48  N   UNL A   1      42.484  30.497  29.205  1.00  0.00    -0.248 NA
ATOM     49  C   UNL A   1      42.267  32.766  29.703  1.00  0.00     0.031 C 
ATOM     50  C   UNL A   1      46.562  31.263  27.718  1.00  0.00     0.029 A 
ATOM     51  N   UNL A   1      44.823  29.886  27.631  1.00  0.00    -0.354 N 
ATOM     52  C   UNL A   1      41.202  30.740  29.670  1.00  0.00     0.074 A 
ATOM     53  C   UNL A   1      41.128  32.151  29.989  1.00  0.00     0.031 C 
ATOM     54  C   UNL A   1      46.860  30.296  26.841  1.00  0.00     0.029 A 
ATOM     55  C   UNL A   1      45.794  29.310  26.843  1.00  0.00     0.049 A 
ATOM     56  H   UNL A   1      43.933  29.485  27.769  1.00  0.00     0.167 HD
ATOM     57  C   UNL A   1      40.194  29.853  29.842  1.00  0.00     0.037 A 
ATOM     58  C   UNL A   1      45.891  28.095  26.261  1.00  0.00     0.037 A 
ATOM     59  C   UNL A   1      40.247  28.472  29.431  1.00  0.00     0.049 A 
ATOM     60  C   UNL A   1      44.804  27.096  26.526  1.00  0.00     0.074 A 
ATOM     61  C   UNL A   1      39.294  27.483  29.601  1.00  0.00     0.029 A 
ATOM     62  N   UNL A   1      41.299  27.893  28.734  1.00  0.00    -0.354 N 
ATOM     63  N   UNL A   1      43.673  27.262  27.164  1.00  0.00    -0.248 NA
ATOM     64  C   UNL A   1      45.033  25.724  26.051  1.00  0.00     0.031 C 
ATOM     65  C   UNL A   1      39.786  26.297  29.045  1.00  0.00     0.029 A 
ATOM     66  C   UNL A   1      41.021  26.559  28.476  1.00  0.00     0.049 A 
ATOM     67  H   UNL A   1      42.120  28.361  28.462  1.00  0.00     0.167 HD
ATOM     68  C   UNL A   1      43.057  26.021  27.174  1.00  0.00     0.074 A 
ATOM     69  C   UNL A   1      43.923  25.116  26.445  1.00  0.00     0.031 C 
ATOM     70  C   UNL A   1      41.885  25.664  27.753  1.00  0.00     0.037 A 
BRANCH  57  71
ATOM     71  C   UNL A   1      38.988  30.323  30.597  1.00  0.00     0.064 A 
ATOM     72  C   UNL A   1      37.863  30.873  29.969  1.00  0.00     0.173 A 
ATOM     73  C   UNL A   1      38.968  30.208  31.997  1.00  0.00     0.173 A 
ATOM     74  F   UNL A   1      37.843  31.030  28.637  1.00  0.00    -0.203 F 
ATOM     75  C   UNL A   1      36.770  31.309  30.716  1.00  0.00     0.198 A 
ATOM     76  C   UNL A   1      37.863  30.613  32.737  1.00  0.00     0.198 A 
ATOM     77  F   UNL A   1      40.022  29.692  32.647  1.00  0.00    -0.203 F 
ATOM     78  F   UNL A   1      35.727  31.882  30.101  1.00  0.00    -0.200 F 
ATOM     79  C   UNL A   1      36.768  31.171  32.097  1.00  0.00     0.200 A 
ATOM     80  F   UNL A   1      37.860  30.467  34.069  1.00  0.00    -0.200 F 
ATOM     81  F   UNL A   1      35.713  31.585  32.812  1.00  0.00    -0.200 F 
ENDBRANCH  57  71
BRANCH  58  82
ATOM     82  C   UNL A   1      47.116  27.705  25.500  1.00  0.00     0.064 A 
ATOM     83  C   UNL A   1      48.264  27.228  26.150  1.00  0.00     0.173 A 
ATOM     84  C   UNL A   1      47.173  27.816  24.100  1.00  0.00     0.173 A 
ATOM     85  F   UNL A   1      48.291  27.143  27.488  1.00  0.00    -0.203 F 
ATOM     86  C   UNL A   1      49.411  26.879  25.432  1.00  0.00     0.198 A 
ATOM     87  C   UNL A   1      48.299  27.421  23.381  1.00  0.00     0.198 A 
ATOM     88  F   UNL A   1      46.118  28.289  23.419  1.00  0.00    -0.203 F 
ATOM     89  F   UNL A   1      50.511  26.479  26.084  1.00  0.00    -0.200 F 
ATOM     90  C   UNL A   1      49.421  26.961  24.047  1.00  0.00     0.200 A 
ATOM     91  F   UNL A   1      48.291  27.483  22.042  1.00  0.00    -0.200 F 
ATOM     92  F   UNL A   1      50.514  26.607  23.359  1.00  0.00    -0.200 F 
ENDBRANCH  58  82
BRANCH  70  93
ATOM     93  C   UNL A   1      41.452  24.238  27.581  1.00  0.00     0.064 A 
ATOM     94  C   UNL A   1      42.102  23.185  28.240  1.00  0.00     0.173 A 
ATOM     95  C   UNL A   1      40.371  23.925  26.744  1.00  0.00     0.173 A 
ATOM     96  F   UNL A   1      43.157  23.432  29.032  1.00  0.00    -0.203 F 
ATOM     97  C   UNL A   1      41.703  21.866  28.045  1.00  0.00     0.198 A 
ATOM     98  C   UNL A   1      39.955  22.608  26.576  1.00  0.00     0.198 A 
ATOM     99  F   UNL A   1      39.717  24.898  26.091  1.00  0.00    -0.203 F 
ATOM    100  F   UNL A   1      42.375  20.869  28.638  1.00  0.00    -0.200 F 
ATOM    101  C   UNL A   1      40.627  21.579  27.218  1.00  0.00     0.200 A 
ATOM    102  F   UNL A   1      38.909  22.335  25.784  1.00  0.00    -0.200 F 
ATOM    103  F   UNL A   1      40.245  20.309  27.029  1.00  0.00    -0.200 F 
ENDBRANCH  70  93
ENDBRANCH  44  45
ENDBRANCH  37  39
ENDBRANCH  36  37
ENDBRANCH  35  36
ENDBRANCH  34  35
ENDBRANCH  33  34
ENDBRANCH  32  33
ENDBRANCH  31  32
ENDBRANCH   1  31
TORSDOF 24
ENDMDL
