MODEL 1
REMARK VINA RESULT:      -9.7      0.000      0.000
REMARK SMILES Cn1ccnc1NCCOCC(=O)OCCOCCOCCOC(=O)c1ccc(-c2c3nc(c(-c4c(F)c(F)c(F)c(F)c4F)c4ccc([nH]4)c(-c4c(F)c(F)c(F)c(F)c4F)c4nc(c(-c5c(F)c(F)c(F)c(F)c5F)c5ccc2[nH]5)C=C4)C=C3)cc1
REMARK SMILES IDX 17 1 16 2 15 3 14 4 12 5 13 6 11 7 10 8 9 9 8 10 7 11 6 13
REMARK SMILES IDX 1 14 2 15 3 16 4 17 5 18 18 19 19 20 20 21 21 22 22 23 23 24
REMARK SMILES IDX 24 25 25 26 26 27 27 28 88 29 28 30 87 31 29 32 30 33 31 34
REMARK SMILES IDX 81 35 32 36 86 37 80 38 82 39 33 40 85 41 79 42 78 43 34 45
REMARK SMILES IDX 66 46 46 47 65 48 47 49 50 50 64 51 83 52 48 53 49 54 63 56
REMARK SMILES IDX 84 57 51 58 35 59 36 60 44 61 37 62 38 63 42 64 45 65 39 66
REMARK SMILES IDX 40 67 43 68 41 69 67 70 68 71 76 72 69 73 70 74 74 75 77 76
REMARK SMILES IDX 71 77 72 78 75 79 73 80 52 81 53 82 61 83 54 84 55 85 59 86
REMARK SMILES IDX 62 87 56 88 57 89 60 90 58 91
REMARK H PARENT 7 12 82 44 50 55
REMARK Flexibility Score: inf
ROOT
ATOM      1  O   UNL A   1      32.258  21.821  24.321  1.00  0.00    -0.376 OA
ENDROOT
BRANCH   1   2
ATOM      2  C   UNL A   1      31.905  22.844  23.398  1.00  0.00     0.202 C 
BRANCH   2   3
ATOM      3  C   UNL A   1      30.800  23.802  23.855  1.00  0.00     0.261 C 
BRANCH   3   4
ATOM      4  O   UNL A   1      30.888  24.220  25.236  1.00  0.00    -0.462 OA
BRANCH   4   5
ATOM      5  C   UNL A   1      30.270  25.396  25.547  1.00  0.00     0.332 C 
ATOM      6  O   UNL A   1      29.688  25.631  26.603  1.00  0.00    -0.250 OA
BRANCH   5   7
ATOM      7  C   UNL A   1      30.257  26.387  24.372  1.00  0.00     0.282 C 
BRANCH   7   8
ATOM      8  O   UNL A   1      31.349  27.201  24.002  1.00  0.00    -0.368 OA
BRANCH   8   9
ATOM      9  C   UNL A   1      31.178  28.608  24.195  1.00  0.00     0.182 C 
BRANCH   9  10
ATOM     10  C   UNL A   1      30.791  29.405  22.937  1.00  0.00     0.144 C 
BRANCH  10  11
ATOM     11  N   UNL A   1      29.752  30.395  23.186  1.00  0.00    -0.353 N 
ATOM     12  H   UNL A   1      29.556  30.664  24.113  1.00  0.00     0.163 HD
BRANCH  11  13
ATOM     13  C   UNL A   1      29.054  30.950  22.178  1.00  0.00     0.202 A 
ATOM     14  C   UNL A   1      29.064  33.292  23.136  1.00  0.00     0.153 C 
ATOM     15  N   UNL A   1      28.708  32.283  22.172  1.00  0.00    -0.321 N 
ATOM     16  C   UNL A   1      27.964  32.527  21.048  1.00  0.00     0.109 A 
ATOM     17  C   UNL A   1      27.906  31.321  20.397  1.00  0.00     0.133 A 
ATOM     18  N   UNL A   1      28.607  30.364  21.091  1.00  0.00    -0.222 NA
ENDBRANCH  11  13
ENDBRANCH  10  11
ENDBRANCH   9  10
ENDBRANCH   8   9
ENDBRANCH   7   8
ENDBRANCH   5   7
ENDBRANCH   4   5
ENDBRANCH   3   4
ENDBRANCH   2   3
ENDBRANCH   1   2
BRANCH   1  19
ATOM     19  C   UNL A   1      33.458  22.037  25.050  1.00  0.00     0.188 C 
BRANCH  19  20
ATOM     20  C   UNL A   1      34.736  21.483  24.425  1.00  0.00     0.188 C 
BRANCH  20  21
ATOM     21  O   UNL A   1      35.153  20.257  25.012  1.00  0.00    -0.376 OA
BRANCH  21  22
ATOM     22  C   UNL A   1      36.535  19.918  24.889  1.00  0.00     0.202 C 
BRANCH  22  23
ATOM     23  C   UNL A   1      37.529  21.074  24.669  1.00  0.00     0.261 C 
BRANCH  23  24
ATOM     24  O   UNL A   1      37.985  21.708  25.884  1.00  0.00    -0.460 OA
BRANCH  24  25
ATOM     25  C   UNL A   1      39.251  21.434  26.298  1.00  0.00     0.338 C 
ATOM     26  O   UNL A   1      39.838  20.387  26.163  1.00  0.00    -0.246 OA
BRANCH  25  27
ATOM     27  C   UNL A   1      39.879  22.691  26.807  1.00  0.00     0.060 A 
ATOM     28  C   UNL A   1      39.375  23.916  26.351  1.00  0.00     0.016 A 
ATOM     29  C   UNL A   1      40.922  22.686  27.739  1.00  0.00     0.016 A 
ATOM     30  C   UNL A   1      39.905  25.130  26.818  1.00  0.00     0.010 A 
ATOM     31  C   UNL A   1      41.462  23.898  28.194  1.00  0.00     0.010 A 
ATOM     32  C   UNL A   1      40.965  25.133  27.732  1.00  0.00    -0.014 A 
BRANCH  32  33
ATOM     33  C   UNL A   1      41.720  26.379  28.053  1.00  0.00     0.031 A 
ATOM     34  C   UNL A   1      40.971  27.501  28.698  1.00  0.00     0.074 A 
ATOM     35  C   UNL A   1      43.025  26.562  27.773  1.00  0.00     0.049 A 
ATOM     36  N   UNL A   1      41.374  28.714  28.971  1.00  0.00    -0.248 NA
ATOM     37  C   UNL A   1      39.601  27.199  29.140  1.00  0.00     0.031 C 
ATOM     38  C   UNL A   1      43.945  25.526  27.352  1.00  0.00     0.029 A 
ATOM     39  N   UNL A   1      43.801  27.699  27.772  1.00  0.00    -0.354 N 
ATOM     40  C   UNL A   1      40.330  29.302  29.664  1.00  0.00     0.074 A 
ATOM     41  C   UNL A   1      39.252  28.338  29.716  1.00  0.00     0.031 C 
ATOM     42  C   UNL A   1      45.113  26.075  26.977  1.00  0.00     0.029 A 
ATOM     43  C   UNL A   1      45.036  27.515  27.188  1.00  0.00     0.049 A 
ATOM     44  H   UNL A   1      43.504  28.559  28.149  1.00  0.00     0.167 HD
ATOM     45  C   UNL A   1      40.290  30.526  30.233  1.00  0.00     0.037 A 
ATOM     46  C   UNL A   1      45.993  28.404  26.858  1.00  0.00     0.037 A 
ATOM     47  C   UNL A   1      41.337  31.505  30.138  1.00  0.00     0.049 A 
ATOM     48  C   UNL A   1      45.828  29.839  27.280  1.00  0.00     0.074 A 
ATOM     49  C   UNL A   1      41.362  32.789  30.651  1.00  0.00     0.029 A 
ATOM     50  N   UNL A   1      42.535  31.318  29.465  1.00  0.00    -0.354 N 
ATOM     51  N   UNL A   1      44.850  30.386  27.959  1.00  0.00    -0.248 NA
ATOM     52  C   UNL A   1      46.912  30.771  26.937  1.00  0.00     0.031 C 
ATOM     53  C   UNL A   1      42.548  33.402  30.233  1.00  0.00     0.029 A 
ATOM     54  C   UNL A   1      43.289  32.479  29.513  1.00  0.00     0.049 A 
ATOM     55  H   UNL A   1      42.810  30.484  29.020  1.00  0.00     0.167 HD
ATOM     56  C   UNL A   1      45.236  31.696  28.196  1.00  0.00     0.074 A 
ATOM     57  C   UNL A   1      46.523  31.876  27.560  1.00  0.00     0.031 C 
ATOM     58  C   UNL A   1      44.585  32.649  28.906  1.00  0.00     0.037 A 
BRANCH  45  59
ATOM     59  C   UNL A   1      39.038  30.874  30.973  1.00  0.00     0.064 A 
ATOM     60  C   UNL A   1      37.931  31.431  30.316  1.00  0.00     0.173 A 
ATOM     61  C   UNL A   1      38.956  30.672  32.357  1.00  0.00     0.173 A 
ATOM     62  F   UNL A   1      37.976  31.665  28.995  1.00  0.00    -0.203 F 
ATOM     63  C   UNL A   1      36.794  31.802  31.027  1.00  0.00     0.198 A 
ATOM     64  C   UNL A   1      37.807  31.019  33.060  1.00  0.00     0.198 A 
ATOM     65  F   UNL A   1      39.994  30.148  33.027  1.00  0.00    -0.203 F 
ATOM     66  F   UNL A   1      35.769  32.386  30.391  1.00  0.00    -0.200 F 
ATOM     67  C   UNL A   1      36.732  31.593  32.396  1.00  0.00     0.200 A 
ATOM     68  F   UNL A   1      37.747  30.813  34.382  1.00  0.00    -0.200 F 
ATOM     69  F   UNL A   1      35.639  31.956  33.081  1.00  0.00    -0.200 F 
ENDBRANCH  45  59
BRANCH  46  70
ATOM     70  C   UNL A   1      47.201  27.976  26.103  1.00  0.00     0.064 A 
ATOM     71  C   UNL A   1      47.185  27.854  24.708  1.00  0.00     0.173 A 
ATOM     72  C   UNL A   1      48.382  27.618  26.773  1.00  0.00     0.173 A 
ATOM     73  F   UNL A   1      46.073  28.159  24.022  1.00  0.00    -0.203 F 
ATOM     74  C   UNL A   1      48.290  27.363  24.013  1.00  0.00     0.198 A 
ATOM     75  C   UNL A   1      49.494  27.147  26.076  1.00  0.00     0.198 A 
ATOM     76  F   UNL A   1      48.450  27.709  28.109  1.00  0.00    -0.203 F 
ATOM     77  F   UNL A   1      48.227  27.206  22.684  1.00  0.00    -0.200 F 
ATOM     78  C   UNL A   1      49.443  27.010  24.697  1.00  0.00     0.200 A 
ATOM     79  F   UNL A   1      50.607  26.810  26.740  1.00  0.00    -0.200 F 
ATOM     80  F   UNL A   1      50.500  26.526  24.029  1.00  0.00    -0.200 F 
ENDBRANCH  46  70
BRANCH  58  81
ATOM     81  C   UNL A   1      45.277  33.965  29.110  1.00  0.00     0.064 A 
ATOM     82  C   UNL A   1      44.979  35.089  28.331  1.00  0.00     0.173 A 
ATOM     83  C   UNL A   1      46.190  34.117  30.166  1.00  0.00     0.173 A 
ATOM     84  F   UNL A   1      44.127  34.990  27.299  1.00  0.00    -0.203 F 
ATOM     85  C   UNL A   1      45.574  36.320  28.597  1.00  0.00     0.198 A 
ATOM     86  C   UNL A   1      46.760  35.354  30.447  1.00  0.00     0.198 A 
ATOM     87  F   UNL A   1      46.507  33.070  30.943  1.00  0.00    -0.203 F 
ATOM     88  F   UNL A   1      45.297  37.378  27.821  1.00  0.00    -0.200 F 
ATOM     89  C   UNL A   1      46.453  36.455  29.662  1.00  0.00     0.200 A 
ATOM     90  F   UNL A   1      47.597  35.486  31.486  1.00  0.00    -0.200 F 
ATOM     91  F   UNL A   1      47.005  37.645  29.929  1.00  0.00    -0.200 F 
ENDBRANCH  58  81
ENDBRANCH  32  33
ENDBRANCH  25  27
ENDBRANCH  24  25
ENDBRANCH  23  24
ENDBRANCH  22  23
ENDBRANCH  21  22
ENDBRANCH  20  21
ENDBRANCH  19  20
ENDBRANCH   1  19
TORSDOF 22
ENDMDL
MODEL 2
REMARK VINA RESULT:      -9.6      4.907     10.025
REMARK SMILES Cn1ccnc1NCCOCC(=O)OCCOCCOCCOC(=O)c1ccc(-c2c3nc(c(-c4c(F)c(F)c(F)c(F)c4F)c4ccc([nH]4)c(-c4c(F)c(F)c(F)c(F)c4F)c4nc(c(-c5c(F)c(F)c(F)c(F)c5F)c5ccc2[nH]5)C=C4)C=C3)cc1
REMARK SMILES IDX 17 1 16 2 15 3 14 4 12 5 13 6 11 7 10 8 9 9 8 10 7 11 6 13
REMARK SMILES IDX 1 14 2 15 3 16 4 17 5 18 18 19 19 20 20 21 21 22 22 23 23 24
REMARK SMILES IDX 24 25 25 26 26 27 27 28 88 29 28 30 87 31 29 32 30 33 31 34
REMARK SMILES IDX 81 35 32 36 86 37 80 38 82 39 33 40 85 41 79 42 78 43 34 45
REMARK SMILES IDX 66 46 46 47 65 48 47 49 50 50 64 51 83 52 48 53 49 54 63 56
REMARK SMILES IDX 84 57 51 58 35 59 36 60 44 61 37 62 38 63 42 64 45 65 39 66
REMARK SMILES IDX 40 67 43 68 41 69 67 70 68 71 76 72 69 73 70 74 74 75 77 76
REMARK SMILES IDX 71 77 72 78 75 79 73 80 52 81 53 82 61 83 54 84 55 85 59 86
REMARK SMILES IDX 62 87 56 88 57 89 60 90 58 91
REMARK H PARENT 7 12 82 44 50 55
REMARK Flexibility Score: inf
ROOT
ATOM      1  O   UNL A   1      33.597  27.177  22.818  1.00  0.00    -0.376 OA
ENDROOT
BRANCH   1   2
ATOM      2  C   UNL A   1      32.788  26.319  22.023  1.00  0.00     0.202 C 
BRANCH   2   3
ATOM      3  C   UNL A   1      31.293  26.652  21.994  1.00  0.00     0.261 C 
BRANCH   3   4
ATOM      4  O   UNL A   1      30.460  25.787  22.799  1.00  0.00    -0.462 OA
BRANCH   4   5
ATOM      5  C   UNL A   1      29.770  26.390  23.810  1.00  0.00     0.332 C 
ATOM      6  O   UNL A   1      29.094  27.410  23.695  1.00  0.00    -0.250 OA
BRANCH   5   7
ATOM      7  C   UNL A   1      30.023  25.731  25.175  1.00  0.00     0.282 C 
BRANCH   7   8
ATOM      8  O   UNL A   1      30.776  24.553  25.366  1.00  0.00    -0.368 OA
BRANCH   8   9
ATOM      9  C   UNL A   1      31.701  24.567  26.458  1.00  0.00     0.182 C 
BRANCH   9  10
ATOM     10  C   UNL A   1      32.161  23.185  26.950  1.00  0.00     0.144 C 
BRANCH  10  11
ATOM     11  N   UNL A   1      32.855  22.416  25.926  1.00  0.00    -0.353 N 
ATOM     12  H   UNL A   1      32.526  21.518  25.693  1.00  0.00     0.163 HD
BRANCH  11  13
ATOM     13  C   UNL A   1      33.936  22.905  25.291  1.00  0.00     0.202 A 
ATOM     14  C   UNL A   1      32.971  22.686  22.963  1.00  0.00     0.153 C 
ATOM     15  N   UNL A   1      34.002  22.999  23.919  1.00  0.00    -0.321 N 
ATOM     16  C   UNL A   1      35.238  23.481  23.581  1.00  0.00     0.109 A 
ATOM     17  C   UNL A   1      35.875  23.685  24.779  1.00  0.00     0.133 A 
ATOM     18  N   UNL A   1      35.049  23.352  25.827  1.00  0.00    -0.222 NA
ENDBRANCH  11  13
ENDBRANCH  10  11
ENDBRANCH   9  10
ENDBRANCH   8   9
ENDBRANCH   7   8
ENDBRANCH   5   7
ENDBRANCH   4   5
ENDBRANCH   3   4
ENDBRANCH   2   3
ENDBRANCH   1   2
BRANCH   1  19
ATOM     19  C   UNL A   1      33.734  26.805  24.182  1.00  0.00     0.188 C 
BRANCH  19  20
ATOM     20  C   UNL A   1      33.538  27.918  25.208  1.00  0.00     0.188 C 
BRANCH  20  21
ATOM     21  O   UNL A   1      32.171  28.255  25.405  1.00  0.00    -0.376 OA
BRANCH  21  22
ATOM     22  C   UNL A   1      31.735  29.516  24.895  1.00  0.00     0.202 C 
BRANCH  22  23
ATOM     23  C   UNL A   1      31.598  30.674  25.900  1.00  0.00     0.261 C 
BRANCH  23  24
ATOM     24  O   UNL A   1      32.545  30.632  26.991  1.00  0.00    -0.460 OA
BRANCH  24  25
ATOM     25  C   UNL A   1      33.206  31.781  27.292  1.00  0.00     0.338 C 
ATOM     26  O   UNL A   1      32.771  32.904  27.202  1.00  0.00    -0.246 OA
BRANCH  25  27
ATOM     27  C   UNL A   1      34.520  31.437  27.918  1.00  0.00     0.060 A 
ATOM     28  C   UNL A   1      34.737  30.112  28.317  1.00  0.00     0.016 A 
ATOM     29  C   UNL A   1      35.542  32.376  28.085  1.00  0.00     0.016 A 
ATOM     30  C   UNL A   1      35.963  29.722  28.882  1.00  0.00     0.010 A 
ATOM     31  C   UNL A   1      36.761  31.992  28.664  1.00  0.00     0.010 A 
ATOM     32  C   UNL A   1      36.981  30.662  29.076  1.00  0.00    -0.014 A 
BRANCH  32  33
ATOM     33  C   UNL A   1      38.187  30.353  29.898  1.00  0.00     0.031 A 
ATOM     34  C   UNL A   1      39.127  29.308  29.390  1.00  0.00     0.074 A 
ATOM     35  C   UNL A   1      38.464  30.939  31.078  1.00  0.00     0.049 A 
ATOM     36  N   UNL A   1      40.177  28.788  29.971  1.00  0.00    -0.248 NA
ATOM     37  C   UNL A   1      38.881  28.820  28.024  1.00  0.00     0.031 C 
ATOM     38  C   UNL A   1      37.791  32.105  31.614  1.00  0.00     0.029 A 
ATOM     39  N   UNL A   1      39.370  30.613  32.063  1.00  0.00    -0.354 N 
ATOM     40  C   UNL A   1      40.747  27.955  29.024  1.00  0.00     0.074 A 
ATOM     41  C   UNL A   1      39.895  27.987  27.854  1.00  0.00     0.031 C 
ATOM     42  C   UNL A   1      38.178  32.315  32.884  1.00  0.00     0.029 A 
ATOM     43  C   UNL A   1      39.179  31.315  33.233  1.00  0.00     0.049 A 
ATOM     44  H   UNL A   1      40.083  29.945  31.943  1.00  0.00     0.167 HD
ATOM     45  C   UNL A   1      41.895  27.250  29.115  1.00  0.00     0.037 A 
ATOM     46  C   UNL A   1      39.744  31.167  34.448  1.00  0.00     0.037 A 
ATOM     47  C   UNL A   1      42.715  27.173  30.292  1.00  0.00     0.049 A 
ATOM     48  C   UNL A   1      40.874  30.187  34.609  1.00  0.00     0.074 A 
ATOM     49  C   UNL A   1      43.877  26.448  30.485  1.00  0.00     0.029 A 
ATOM     50  N   UNL A   1      42.446  27.824  31.487  1.00  0.00    -0.354 N 
ATOM     51  N   UNL A   1      41.428  29.420  33.704  1.00  0.00    -0.248 NA
ATOM     52  C   UNL A   1      41.491  30.084  35.939  1.00  0.00     0.031 C 
ATOM     53  C   UNL A   1      44.275  26.609  31.816  1.00  0.00     0.029 A 
ATOM     54  C   UNL A   1      43.396  27.484  32.434  1.00  0.00     0.049 A 
ATOM     55  H   UNL A   1      41.691  28.438  31.638  1.00  0.00     0.167 HD
ATOM     56  C   UNL A   1      42.504  28.807  34.328  1.00  0.00     0.074 A 
ATOM     57  C   UNL A   1      42.508  29.266  35.701  1.00  0.00     0.031 C 
ATOM     58  C   UNL A   1      43.419  27.965  33.793  1.00  0.00     0.037 A 
BRANCH  45  59
ATOM     59  C   UNL A   1      42.296  26.474  27.901  1.00  0.00     0.064 A 
ATOM     60  C   UNL A   1      41.785  25.192  27.651  1.00  0.00     0.173 A 
ATOM     61  C   UNL A   1      43.221  27.008  26.994  1.00  0.00     0.173 A 
ATOM     62  F   UNL A   1      40.916  24.632  28.508  1.00  0.00    -0.203 F 
ATOM     63  C   UNL A   1      42.210  24.458  26.548  1.00  0.00     0.198 A 
ATOM     64  C   UNL A   1      43.622  26.282  25.877  1.00  0.00     0.198 A 
ATOM     65  F   UNL A   1      43.741  28.228  27.197  1.00  0.00    -0.203 F 
ATOM     66  F   UNL A   1      41.754  23.212  26.358  1.00  0.00    -0.200 F 
ATOM     67  C   UNL A   1      43.125  25.005  25.661  1.00  0.00     0.200 A 
ATOM     68  F   UNL A   1      44.504  26.813  25.020  1.00  0.00    -0.200 F 
ATOM     69  F   UNL A   1      43.538  24.296  24.603  1.00  0.00    -0.200 F 
ENDBRANCH  45  59
BRANCH  46  70
ATOM     70  C   UNL A   1      39.271  31.969  35.609  1.00  0.00     0.064 A 
ATOM     71  C   UNL A   1      39.779  33.248  35.868  1.00  0.00     0.173 A 
ATOM     72  C   UNL A   1      38.342  31.441  36.519  1.00  0.00     0.173 A 
ATOM     73  F   UNL A   1      40.688  33.787  35.043  1.00  0.00    -0.203 F 
ATOM     74  C   UNL A   1      39.402  33.957  37.008  1.00  0.00     0.198 A 
ATOM     75  C   UNL A   1      37.949  32.159  37.648  1.00  0.00     0.198 A 
ATOM     76  F   UNL A   1      37.829  30.218  36.323  1.00  0.00    -0.203 F 
ATOM     77  F   UNL A   1      39.945  35.156  37.260  1.00  0.00    -0.200 F 
ATOM     78  C   UNL A   1      38.487  33.412  37.897  1.00  0.00     0.200 A 
ATOM     79  F   UNL A   1      37.064  31.630  38.503  1.00  0.00    -0.200 F 
ATOM     80  F   UNL A   1      38.136  34.089  38.999  1.00  0.00    -0.200 F 
ENDBRANCH  46  70
BRANCH  58  81
ATOM     81  C   UNL A   1      44.562  27.528  34.661  1.00  0.00     0.064 A 
ATOM     82  C   UNL A   1      45.753  28.260  34.744  1.00  0.00     0.173 A 
ATOM     83  C   UNL A   1      44.420  26.404  35.490  1.00  0.00     0.173 A 
ATOM     84  F   UNL A   1      45.945  29.331  33.959  1.00  0.00    -0.203 F 
ATOM     85  C   UNL A   1      46.765  27.878  35.622  1.00  0.00     0.198 A 
ATOM     86  C   UNL A   1      45.419  26.043  36.387  1.00  0.00     0.198 A 
ATOM     87  F   UNL A   1      43.296  25.671  35.449  1.00  0.00    -0.203 F 
ATOM     88  F   UNL A   1      47.910  28.575  35.666  1.00  0.00    -0.200 F 
ATOM     89  C   UNL A   1      46.592  26.779  36.451  1.00  0.00     0.200 A 
ATOM     90  F   UNL A   1      45.244  24.990  37.198  1.00  0.00    -0.200 F 
ATOM     91  F   UNL A   1      47.558  26.429  37.312  1.00  0.00    -0.200 F 
ENDBRANCH  58  81
ENDBRANCH  32  33
ENDBRANCH  25  27
ENDBRANCH  24  25
ENDBRANCH  23  24
ENDBRANCH  22  23
ENDBRANCH  21  22
ENDBRANCH  20  21
ENDBRANCH  19  20
ENDBRANCH   1  19
TORSDOF 22
ENDMDL
MODEL 3
REMARK VINA RESULT:      -9.5      5.216     10.219
REMARK SMILES Cn1ccnc1NCCOCC(=O)OCCOCCOCCOC(=O)c1ccc(-c2c3nc(c(-c4c(F)c(F)c(F)c(F)c4F)c4ccc([nH]4)c(-c4c(F)c(F)c(F)c(F)c4F)c4nc(c(-c5c(F)c(F)c(F)c(F)c5F)c5ccc2[nH]5)C=C4)C=C3)cc1
REMARK SMILES IDX 17 1 16 2 15 3 14 4 12 5 13 6 11 7 10 8 9 9 8 10 7 11 6 13
REMARK SMILES IDX 1 14 2 15 3 16 4 17 5 18 18 19 19 20 20 21 21 22 22 23 23 24
REMARK SMILES IDX 24 25 25 26 26 27 27 28 88 29 28 30 87 31 29 32 30 33 31 34
REMARK SMILES IDX 81 35 32 36 86 37 80 38 82 39 33 40 85 41 79 42 78 43 34 45
REMARK SMILES IDX 66 46 46 47 65 48 47 49 50 50 64 51 83 52 48 53 49 54 63 56
REMARK SMILES IDX 84 57 51 58 35 59 36 60 44 61 37 62 38 63 42 64 45 65 39 66
REMARK SMILES IDX 40 67 43 68 41 69 67 70 68 71 76 72 69 73 70 74 74 75 77 76
REMARK SMILES IDX 71 77 72 78 75 79 73 80 52 81 53 82 61 83 54 84 55 85 59 86
REMARK SMILES IDX 62 87 56 88 57 89 60 90 58 91
REMARK H PARENT 7 12 82 44 50 55
REMARK Flexibility Score: inf
ROOT
ATOM      1  O   UNL A   1      44.063  23.275  24.659  1.00  0.00    -0.376 OA
ENDROOT
BRANCH   1   2
ATOM      2  C   UNL A   1      44.941  24.124  25.388  1.00  0.00     0.202 C 
BRANCH   2   3
ATOM      3  C   UNL A   1      44.783  25.626  25.127  1.00  0.00     0.261 C 
BRANCH   3   4
ATOM      4  O   UNL A   1      43.652  26.243  25.781  1.00  0.00    -0.462 OA
BRANCH   4   5
ATOM      5  C   UNL A   1      43.391  27.537  25.435  1.00  0.00     0.332 C 
ATOM      6  O   UNL A   1      42.742  27.890  24.454  1.00  0.00    -0.250 OA
BRANCH   5   7
ATOM      7  C   UNL A   1      44.113  28.549  26.340  1.00  0.00     0.282 C 
BRANCH   7   8
ATOM      8  O   UNL A   1      43.830  29.930  26.380  1.00  0.00    -0.368 OA
BRANCH   8   9
ATOM      9  C   UNL A   1      44.701  30.728  27.188  1.00  0.00     0.182 C 
BRANCH   9  10
ATOM     10  C   UNL A   1      44.027  31.896  27.928  1.00  0.00     0.144 C 
BRANCH  10  11
ATOM     11  N   UNL A   1      44.503  33.201  27.488  1.00  0.00    -0.353 N 
ATOM     12  H   UNL A   1      45.424  33.288  27.150  1.00  0.00     0.163 HD
BRANCH  11  13
ATOM     13  C   UNL A   1      43.714  34.290  27.537  1.00  0.00     0.202 A 
ATOM     14  C   UNL A   1      43.388  34.464  25.034  1.00  0.00     0.153 C 
ATOM     15  N   UNL A   1      43.226  34.893  26.399  1.00  0.00    -0.321 N 
ATOM     16  C   UNL A   1      42.507  35.997  26.774  1.00  0.00     0.109 A 
ATOM     17  C   UNL A   1      42.571  36.008  28.145  1.00  0.00     0.133 A 
ATOM     18  N   UNL A   1      43.295  34.933  28.603  1.00  0.00    -0.222 NA
ENDBRANCH  11  13
ENDBRANCH  10  11
ENDBRANCH   9  10
ENDBRANCH   8   9
ENDBRANCH   7   8
ENDBRANCH   5   7
ENDBRANCH   4   5
ENDBRANCH   3   4
ENDBRANCH   2   3
ENDBRANCH   1   2
BRANCH   1  19
ATOM     19  C   UNL A   1      44.618  22.041  24.226  1.00  0.00     0.188 C 
BRANCH  19  20
ATOM     20  C   UNL A   1      44.394  20.842  25.143  1.00  0.00     0.188 C 
BRANCH  20  21
ATOM     21  O   UNL A   1      43.044  20.398  25.153  1.00  0.00    -0.376 OA
BRANCH  21  22
ATOM     22  C   UNL A   1      42.336  20.508  26.389  1.00  0.00     0.202 C 
BRANCH  22  23
ATOM     23  C   UNL A   1      40.885  21.018  26.329  1.00  0.00     0.261 C 
BRANCH  23  24
ATOM     24  O   UNL A   1      40.763  22.449  26.170  1.00  0.00    -0.460 OA
BRANCH  24  25
ATOM     25  C   UNL A   1      39.541  23.003  26.394  1.00  0.00     0.338 C 
ATOM     26  O   UNL A   1      38.471  22.467  26.235  1.00  0.00    -0.246 OA
BRANCH  25  27
ATOM     27  C   UNL A   1      39.724  24.342  27.035  1.00  0.00     0.060 A 
ATOM     28  C   UNL A   1      40.264  25.378  26.262  1.00  0.00     0.016 A 
ATOM     29  C   UNL A   1      39.348  24.600  28.356  1.00  0.00     0.016 A 
ATOM     30  C   UNL A   1      40.430  26.665  26.800  1.00  0.00     0.010 A 
ATOM     31  C   UNL A   1      39.528  25.881  28.899  1.00  0.00     0.010 A 
ATOM     32  C   UNL A   1      40.079  26.925  28.130  1.00  0.00    -0.014 A 
BRANCH  32  33
ATOM     33  C   UNL A   1      40.474  28.192  28.812  1.00  0.00     0.031 A 
ATOM     34  C   UNL A   1      41.825  28.248  29.450  1.00  0.00     0.074 A 
ATOM     35  C   UNL A   1      39.679  29.275  28.908  1.00  0.00     0.049 A 
ATOM     36  N   UNL A   1      42.350  29.188  30.191  1.00  0.00    -0.248 NA
ATOM     37  C   UNL A   1      42.722  27.115  29.175  1.00  0.00     0.031 C 
ATOM     38  C   UNL A   1      38.443  29.475  28.179  1.00  0.00     0.029 A 
ATOM     39  N   UNL A   1      39.776  30.405  29.687  1.00  0.00    -0.354 N 
ATOM     40  C   UNL A   1      43.654  28.788  30.425  1.00  0.00     0.074 A 
ATOM     41  C   UNL A   1      43.823  27.491  29.803  1.00  0.00     0.031 C 
ATOM     42  C   UNL A   1      37.807  30.563  28.644  1.00  0.00     0.029 A 
ATOM     43  C   UNL A   1      38.632  31.173  29.680  1.00  0.00     0.049 A 
ATOM     44  H   UNL A   1      40.583  30.642  30.200  1.00  0.00     0.167 HD
ATOM     45  C   UNL A   1      44.630  29.458  31.076  1.00  0.00     0.037 A 
ATOM     46  C   UNL A   1      38.286  32.242  30.425  1.00  0.00     0.037 A 
ATOM     47  C   UNL A   1      44.451  30.719  31.739  1.00  0.00     0.049 A 
ATOM     48  C   UNL A   1      39.309  32.845  31.348  1.00  0.00     0.074 A 
ATOM     49  C   UNL A   1      45.378  31.451  32.459  1.00  0.00     0.029 A 
ATOM     50  N   UNL A   1      43.257  31.425  31.788  1.00  0.00    -0.354 N 
ATOM     51  N   UNL A   1      40.551  32.479  31.546  1.00  0.00    -0.248 NA
ATOM     52  C   UNL A   1      38.907  34.034  32.113  1.00  0.00     0.031 C 
ATOM     53  C   UNL A   1      44.729  32.567  32.997  1.00  0.00     0.029 A 
ATOM     54  C   UNL A   1      43.413  32.563  32.561  1.00  0.00     0.049 A 
ATOM     55  H   UNL A   1      42.423  31.156  31.338  1.00  0.00     0.167 HD
ATOM     56  C   UNL A   1      41.100  33.432  32.389  1.00  0.00     0.074 A 
ATOM     57  C   UNL A   1      40.049  34.379  32.693  1.00  0.00     0.031 C 
ATOM     58  C   UNL A   1      42.375  33.522  32.839  1.00  0.00     0.037 A 
BRANCH  45  59
ATOM     59  C   UNL A   1      45.970  28.797  31.124  1.00  0.00     0.064 A 
ATOM     60  C   UNL A   1      46.989  29.143  30.225  1.00  0.00     0.173 A 
ATOM     61  C   UNL A   1      46.227  27.789  32.063  1.00  0.00     0.173 A 
ATOM     62  F   UNL A   1      46.777  30.086  29.293  1.00  0.00    -0.203 F 
ATOM     63  C   UNL A   1      48.212  28.480  30.245  1.00  0.00     0.198 A 
ATOM     64  C   UNL A   1      47.461  27.147  32.097  1.00  0.00     0.198 A 
ATOM     65  F   UNL A   1      45.279  27.421  32.937  1.00  0.00    -0.203 F 
ATOM     66  F   UNL A   1      49.152  28.785  29.339  1.00  0.00    -0.200 F 
ATOM     67  C   UNL A   1      48.448  27.486  31.182  1.00  0.00     0.200 A 
ATOM     68  F   UNL A   1      47.689  26.190  33.005  1.00  0.00    -0.200 F 
ATOM     69  F   UNL A   1      49.623  26.843  31.197  1.00  0.00    -0.200 F 
ENDBRANCH  45  59
BRANCH  46  70
ATOM     70  C   UNL A   1      36.921  32.826  30.327  1.00  0.00     0.064 A 
ATOM     71  C   UNL A   1      36.575  33.703  29.290  1.00  0.00     0.173 A 
ATOM     72  C   UNL A   1      35.953  32.566  31.309  1.00  0.00     0.173 A 
ATOM     73  F   UNL A   1      37.473  34.004  28.341  1.00  0.00    -0.203 F 
ATOM     74  C   UNL A   1      35.325  34.321  29.255  1.00  0.00     0.198 A 
ATOM     75  C   UNL A   1      34.696  33.168  31.261  1.00  0.00     0.198 A 
ATOM     76  F   UNL A   1      36.233  31.740  32.328  1.00  0.00    -0.203 F 
ATOM     77  F   UNL A   1      35.041  35.196  28.281  1.00  0.00    -0.200 F 
ATOM     78  C   UNL A   1      34.387  34.053  30.240  1.00  0.00     0.200 A 
ATOM     79  F   UNL A   1      33.791  32.905  32.214  1.00  0.00    -0.200 F 
ATOM     80  F   UNL A   1      33.191  34.658  30.212  1.00  0.00    -0.200 F 
ENDBRANCH  46  70
BRANCH  58  81
ATOM     81  C   UNL A   1      42.746  34.726  33.655  1.00  0.00     0.064 A 
ATOM     82  C   UNL A   1      42.785  34.691  35.055  1.00  0.00     0.173 A 
ATOM     83  C   UNL A   1      43.154  35.906  33.013  1.00  0.00     0.173 A 
ATOM     84  F   UNL A   1      42.386  33.592  35.715  1.00  0.00    -0.203 F 
ATOM     85  C   UNL A   1      43.214  35.797  35.784  1.00  0.00     0.198 A 
ATOM     86  C   UNL A   1      43.610  36.998  33.744  1.00  0.00     0.198 A 
ATOM     87  F   UNL A   1      43.137  35.989  31.674  1.00  0.00    -0.203 F 
ATOM     88  F   UNL A   1      43.217  35.753  37.124  1.00  0.00    -0.200 F 
ATOM     89  C   UNL A   1      43.639  36.943  35.129  1.00  0.00     0.200 A 
ATOM     90  F   UNL A   1      44.034  38.099  33.108  1.00  0.00    -0.200 F 
ATOM     91  F   UNL A   1      44.074  37.997  35.833  1.00  0.00    -0.200 F 
ENDBRANCH  58  81
ENDBRANCH  32  33
ENDBRANCH  25  27
ENDBRANCH  24  25
ENDBRANCH  23  24
ENDBRANCH  22  23
ENDBRANCH  21  22
ENDBRANCH  20  21
ENDBRANCH  19  20
ENDBRANCH   1  19
TORSDOF 22
ENDMDL
