MODEL 1
REMARK VINA RESULT:     -12.0      0.000      0.000
REMARK SMILES O=C(OCCOCCOCCOC(=O)[C@@H]1CCn2c(C(=O)c3ccccc3)ccc21)c1ccc(-c2c3nc(c(-c4c(F)c(F)c(F)c(F)c4F)c4ccc([nH]4)c(-c4c(F)c(F)c(F)c(F)c4F)c4nc(c(-c5c(F)c(F)c(F)c(F)c5F)c5ccc2[nH]5)C=C4)C=C3)cc1
REMARK SMILES IDX 7 1 6 2 5 3 4 4 3 5 2 6 1 7 31 8 32 9 93 10 33 11 92 12
REMARK SMILES IDX 34 13 35 14 36 15 86 16 37 17 91 18 85 19 87 20 38 21 90 22
REMARK SMILES IDX 84 23 83 24 39 26 71 27 51 28 70 29 52 30 55 31 69 32 88 33
REMARK SMILES IDX 53 34 54 35 68 37 89 38 56 39 40 40 41 41 49 42 42 43 43 44
REMARK SMILES IDX 47 45 50 46 44 47 45 48 48 49 46 50 72 51 73 52 81 53 74 54
REMARK SMILES IDX 75 55 79 56 82 57 76 58 77 59 80 60 78 61 57 62 58 63 66 64
REMARK SMILES IDX 59 65 60 66 64 67 67 68 61 69 62 70 65 71 63 72 8 73 9 74
REMARK SMILES IDX 10 75 11 76 12 77 13 78 14 79 15 80 16 81 30 82 17 83 18 84
REMARK SMILES IDX 29 85 19 86 28 87 20 88 21 89 22 90 23 91 27 92 24 93 26 94
REMARK SMILES IDX 25 95
REMARK H PARENT 87 25 55 36
REMARK Flexibility Score: inf
ROOT
ATOM      1  C   UNL A   1      41.201  19.640  26.367  1.00  0.00     0.188 C 
ENDROOT
BRANCH   1   2
ATOM      2  O   UNL A   1      42.086  19.597  25.238  1.00  0.00    -0.376 OA
BRANCH   2   3
ATOM      3  C   UNL A   1      43.465  19.508  25.615  1.00  0.00     0.202 C 
BRANCH   3   4
ATOM      4  C   UNL A   1      44.329  20.701  25.189  1.00  0.00     0.261 C 
BRANCH   4   5
ATOM      5  O   UNL A   1      43.556  21.848  24.809  1.00  0.00    -0.460 OA
BRANCH   5   6
ATOM      6  C   UNL A   1      43.946  23.141  24.702  1.00  0.00     0.338 C 
ATOM      7  O   UNL A   1      44.803  23.405  23.857  1.00  0.00    -0.246 OA
BRANCH   6   8
ATOM      8  C   UNL A   1      43.405  24.281  25.520  1.00  0.00     0.060 A 
ATOM      9  C   UNL A   1      43.904  25.584  25.573  1.00  0.00     0.016 A 
ATOM     10  C   UNL A   1      42.268  23.998  26.300  1.00  0.00     0.016 A 
ATOM     11  C   UNL A   1      43.380  26.538  26.449  1.00  0.00     0.010 A 
ATOM     12  C   UNL A   1      41.702  24.964  27.138  1.00  0.00     0.010 A 
ATOM     13  C   UNL A   1      42.288  26.233  27.255  1.00  0.00    -0.014 A 
BRANCH  13  14
ATOM     14  C   UNL A   1      41.866  27.164  28.327  1.00  0.00     0.031 A 
ATOM     15  C   UNL A   1      42.549  27.054  29.662  1.00  0.00     0.074 A 
ATOM     16  C   UNL A   1      40.955  28.135  28.121  1.00  0.00     0.049 A 
ATOM     17  N   UNL A   1      42.321  27.707  30.771  1.00  0.00    -0.248 NA
ATOM     18  C   UNL A   1      43.673  26.103  29.745  1.00  0.00     0.031 C 
ATOM     19  C   UNL A   1      40.318  28.465  26.847  1.00  0.00     0.029 A 
ATOM     20  N   UNL A   1      40.377  29.009  29.011  1.00  0.00    -0.354 N 
ATOM     21  C   UNL A   1      43.310  27.296  31.653  1.00  0.00     0.074 A 
ATOM     22  C   UNL A   1      44.065  26.252  31.000  1.00  0.00     0.031 C 
ATOM     23  C   UNL A   1      39.362  29.385  27.063  1.00  0.00     0.029 A 
ATOM     24  C   UNL A   1      39.290  29.667  28.485  1.00  0.00     0.049 A 
ATOM     25  H   UNL A   1      40.707  29.149  29.929  1.00  0.00     0.167 HD
ATOM     26  C   UNL A   1      43.611  27.800  32.872  1.00  0.00     0.037 A 
ATOM     27  C   UNL A   1      38.314  30.347  29.112  1.00  0.00     0.037 A 
ATOM     28  C   UNL A   1      42.845  28.823  33.526  1.00  0.00     0.049 A 
ATOM     29  C   UNL A   1      38.485  30.660  30.568  1.00  0.00     0.074 A 
ATOM     30  C   UNL A   1      43.084  29.456  34.732  1.00  0.00     0.029 A 
ATOM     31  N   UNL A   1      41.662  29.342  33.025  1.00  0.00    -0.354 N 
ATOM     32  N   UNL A   1      39.423  30.280  31.397  1.00  0.00    -0.248 NA
ATOM     33  C   UNL A   1      37.491  31.573  31.151  1.00  0.00     0.031 C 
ATOM     34  C   UNL A   1      42.017  30.327  34.983  1.00  0.00     0.029 A 
ATOM     35  C   UNL A   1      41.139  30.265  33.915  1.00  0.00     0.049 A 
ATOM     36  H   UNL A   1      41.254  29.093  32.165  1.00  0.00     0.167 HD
ATOM     37  C   UNL A   1      39.166  30.950  32.582  1.00  0.00     0.074 A 
ATOM     38  C   UNL A   1      37.954  31.717  32.381  1.00  0.00     0.031 C 
ATOM     39  C   UNL A   1      39.911  30.983  33.712  1.00  0.00     0.037 A 
BRANCH  26  40
ATOM     40  C   UNL A   1      44.837  27.256  33.536  1.00  0.00     0.064 A 
ATOM     41  C   UNL A   1      46.100  27.826  33.305  1.00  0.00     0.173 A 
ATOM     42  C   UNL A   1      44.764  26.138  34.375  1.00  0.00     0.173 A 
ATOM     43  F   UNL A   1      46.224  28.887  32.490  1.00  0.00    -0.203 F 
ATOM     44  C   UNL A   1      47.250  27.270  33.856  1.00  0.00     0.198 A 
ATOM     45  C   UNL A   1      45.913  25.599  34.947  1.00  0.00     0.198 A 
ATOM     46  F   UNL A   1      43.582  25.554  34.624  1.00  0.00    -0.203 F 
ATOM     47  F   UNL A   1      48.450  27.792  33.569  1.00  0.00    -0.200 F 
ATOM     48  C   UNL A   1      47.155  26.158  34.679  1.00  0.00     0.200 A 
ATOM     49  F   UNL A   1      45.823  24.524  35.742  1.00  0.00    -0.200 F 
ATOM     50  F   UNL A   1      48.263  25.615  35.199  1.00  0.00    -0.200 F 
ENDBRANCH  26  40
BRANCH  27  51
ATOM     51  C   UNL A   1      37.047  30.748  28.452  1.00  0.00     0.064 A 
ATOM     52  C   UNL A   1      36.700  32.084  28.238  1.00  0.00     0.173 A 
ATOM     53  C   UNL A   1      36.069  29.766  28.205  1.00  0.00     0.173 A 
ATOM     54  F   UNL A   1      37.586  33.058  28.490  1.00  0.00    -0.203 F 
ATOM     55  C   UNL A   1      35.414  32.429  27.822  1.00  0.00     0.198 A 
ATOM     56  C   UNL A   1      34.784  30.112  27.800  1.00  0.00     0.198 A 
ATOM     57  F   UNL A   1      36.345  28.475  28.437  1.00  0.00    -0.203 F 
ATOM     58  F   UNL A   1      35.088  33.719  27.655  1.00  0.00    -0.200 F 
ATOM     59  C   UNL A   1      34.455  31.446  27.615  1.00  0.00     0.200 A 
ATOM     60  F   UNL A   1      33.857  29.162  27.617  1.00  0.00    -0.200 F 
ATOM     61  F   UNL A   1      33.212  31.785  27.244  1.00  0.00    -0.200 F 
ENDBRANCH  27  51
BRANCH  39  62
ATOM     62  C   UNL A   1      39.456  31.944  34.762  1.00  0.00     0.064 A 
ATOM     63  C   UNL A   1      39.856  33.286  34.763  1.00  0.00     0.173 A 
ATOM     64  C   UNL A   1      38.664  31.484  35.824  1.00  0.00     0.173 A 
ATOM     65  F   UNL A   1      40.652  33.756  33.790  1.00  0.00    -0.203 F 
ATOM     66  C   UNL A   1      39.503  34.130  35.812  1.00  0.00     0.198 A 
ATOM     67  C   UNL A   1      38.291  32.336  36.855  1.00  0.00     0.198 A 
ATOM     68  F   UNL A   1      38.276  30.200  35.872  1.00  0.00    -0.203 F 
ATOM     69  F   UNL A   1      39.956  35.391  35.837  1.00  0.00    -0.200 F 
ATOM     70  C   UNL A   1      38.720  33.655  36.855  1.00  0.00     0.200 A 
ATOM     71  F   UNL A   1      37.537  31.875  37.863  1.00  0.00    -0.200 F 
ATOM     72  F   UNL A   1      38.397  34.464  37.872  1.00  0.00    -0.200 F 
ENDBRANCH  39  62
ENDBRANCH  13  14
ENDBRANCH   6   8
ENDBRANCH   5   6
ENDBRANCH   4   5
ENDBRANCH   3   4
ENDBRANCH   2   3
ENDBRANCH   1   2
BRANCH   1  73
ATOM     73  C   UNL A   1      39.808  20.147  25.997  1.00  0.00     0.188 C 
BRANCH  73  74
ATOM     74  O   UNL A   1      39.560  21.548  26.118  1.00  0.00    -0.376 OA
BRANCH  74  75
ATOM     75  C   UNL A   1      38.296  22.043  25.691  1.00  0.00     0.202 C 
BRANCH  75  76
ATOM     76  C   UNL A   1      37.445  21.174  24.749  1.00  0.00     0.261 C 
BRANCH  76  77
ATOM     77  O   UNL A   1      36.233  21.787  24.294  1.00  0.00    -0.463 OA
BRANCH  77  78
ATOM     78  C   UNL A   1      35.100  21.127  24.655  1.00  0.00     0.315 C 
ATOM     79  O   UNL A   1      35.062  19.929  24.923  1.00  0.00    -0.251 OA
BRANCH  78  80
ATOM     80  C   UNL A   1      33.888  22.027  24.821  1.00  0.00     0.148 C 
ATOM     81  C   UNL A   1      32.975  21.914  23.571  1.00  0.00     0.043 C 
ATOM     82  C   UNL A   1      34.129  23.499  24.870  1.00  0.00     0.033 A 
ATOM     83  C   UNL A   1      33.290  23.141  22.718  1.00  0.00     0.124 C 
ATOM     84  N   UNL A   1      33.776  24.101  23.693  1.00  0.00    -0.341 N 
ATOM     85  C   UNL A   1      34.427  24.481  25.775  1.00  0.00     0.025 A 
ATOM     86  C   UNL A   1      33.785  25.459  23.789  1.00  0.00     0.090 A 
ATOM     87  C   UNL A   1      34.183  25.712  25.101  1.00  0.00     0.032 A 
BRANCH  86  88
ATOM     88  C   UNL A   1      33.410  26.460  22.798  1.00  0.00     0.209 C 
ATOM     89  O   UNL A   1      33.835  26.481  21.654  1.00  0.00    -0.287 OA
BRANCH  88  90
ATOM     90  C   UNL A   1      32.507  27.560  23.200  1.00  0.00     0.024 A 
ATOM     91  C   UNL A   1      31.200  27.643  22.706  1.00  0.00     0.012 A 
ATOM     92  C   UNL A   1      32.959  28.461  24.164  1.00  0.00     0.012 A 
ATOM     93  C   UNL A   1      30.322  28.593  23.224  1.00  0.00     0.001 A 
ATOM     94  C   UNL A   1      32.077  29.408  24.680  1.00  0.00     0.001 A 
ATOM     95  C   UNL A   1      30.759  29.466  24.220  1.00  0.00     0.000 A 
ENDBRANCH  88  90
ENDBRANCH  86  88
ENDBRANCH  78  80
ENDBRANCH  77  78
ENDBRANCH  76  77
ENDBRANCH  75  76
ENDBRANCH  74  75
ENDBRANCH  73  74
ENDBRANCH   1  73
TORSDOF 19
ENDMDL
MODEL 2
REMARK VINA RESULT:     -11.6      0.934      1.981
REMARK SMILES O=C(OCCOCCOCCOC(=O)[C@@H]1CCn2c(C(=O)c3ccccc3)ccc21)c1ccc(-c2c3nc(c(-c4c(F)c(F)c(F)c(F)c4F)c4ccc([nH]4)c(-c4c(F)c(F)c(F)c(F)c4F)c4nc(c(-c5c(F)c(F)c(F)c(F)c5F)c5ccc2[nH]5)C=C4)C=C3)cc1
REMARK SMILES IDX 7 1 6 2 5 3 4 4 3 5 2 6 1 7 31 8 32 9 93 10 33 11 92 12
REMARK SMILES IDX 34 13 35 14 36 15 86 16 37 17 91 18 85 19 87 20 38 21 90 22
REMARK SMILES IDX 84 23 83 24 39 26 71 27 51 28 70 29 52 30 55 31 69 32 88 33
REMARK SMILES IDX 53 34 54 35 68 37 89 38 56 39 40 40 41 41 49 42 42 43 43 44
REMARK SMILES IDX 47 45 50 46 44 47 45 48 48 49 46 50 72 51 73 52 81 53 74 54
REMARK SMILES IDX 75 55 79 56 82 57 76 58 77 59 80 60 78 61 57 62 58 63 66 64
REMARK SMILES IDX 59 65 60 66 64 67 67 68 61 69 62 70 65 71 63 72 8 73 9 74
REMARK SMILES IDX 10 75 11 76 12 77 13 78 14 79 15 80 16 81 30 82 17 83 18 84
REMARK SMILES IDX 29 85 19 86 28 87 20 88 21 89 22 90 23 91 27 92 24 93 26 94
REMARK SMILES IDX 25 95
REMARK H PARENT 87 25 55 36
REMARK Flexibility Score: inf
ROOT
ATOM      1  C   UNL A   1      40.773  20.653  26.557  1.00  0.00     0.188 C 
ENDROOT
BRANCH   1   2
ATOM      2  O   UNL A   1      41.538  20.203  25.428  1.00  0.00    -0.376 OA
BRANCH   2   3
ATOM      3  C   UNL A   1      42.850  19.755  25.788  1.00  0.00     0.202 C 
BRANCH   3   4
ATOM      4  C   UNL A   1      43.985  20.713  25.408  1.00  0.00     0.261 C 
BRANCH   4   5
ATOM      5  O   UNL A   1      43.530  21.868  24.689  1.00  0.00    -0.460 OA
BRANCH   5   6
ATOM      6  C   UNL A   1      44.033  23.126  24.693  1.00  0.00     0.338 C 
ATOM      7  O   UNL A   1      44.980  23.359  23.940  1.00  0.00    -0.246 OA
BRANCH   6   8
ATOM      8  C   UNL A   1      43.516  24.265  25.528  1.00  0.00     0.060 A 
ATOM      9  C   UNL A   1      44.052  25.552  25.613  1.00  0.00     0.016 A 
ATOM     10  C   UNL A   1      42.363  24.000  26.289  1.00  0.00     0.016 A 
ATOM     11  C   UNL A   1      43.547  26.503  26.503  1.00  0.00     0.010 A 
ATOM     12  C   UNL A   1      41.816  24.966  27.140  1.00  0.00     0.010 A 
ATOM     13  C   UNL A   1      42.437  26.214  27.289  1.00  0.00    -0.014 A 
BRANCH  13  14
ATOM     14  C   UNL A   1      42.030  27.136  28.376  1.00  0.00     0.031 A 
ATOM     15  C   UNL A   1      42.712  26.994  29.709  1.00  0.00     0.074 A 
ATOM     16  C   UNL A   1      41.136  28.125  28.185  1.00  0.00     0.049 A 
ATOM     17  N   UNL A   1      42.494  27.633  30.828  1.00  0.00    -0.248 NA
ATOM     18  C   UNL A   1      43.820  26.024  29.778  1.00  0.00     0.031 C 
ATOM     19  C   UNL A   1      40.505  28.484  26.916  1.00  0.00     0.029 A 
ATOM     20  N   UNL A   1      40.573  28.995  29.088  1.00  0.00    -0.354 N 
ATOM     21  C   UNL A   1      43.476  27.192  31.704  1.00  0.00     0.074 A 
ATOM     22  C   UNL A   1      44.213  26.146  31.035  1.00  0.00     0.031 C 
ATOM     23  C   UNL A   1      39.564  29.417  27.146  1.00  0.00     0.029 A 
ATOM     24  C   UNL A   1      39.496  29.678  28.572  1.00  0.00     0.049 A 
ATOM     25  H   UNL A   1      40.904  29.115  30.008  1.00  0.00     0.167 HD
ATOM     26  C   UNL A   1      43.785  27.673  32.930  1.00  0.00     0.037 A 
ATOM     27  C   UNL A   1      38.532  30.365  29.210  1.00  0.00     0.037 A 
ATOM     28  C   UNL A   1      43.036  28.698  33.600  1.00  0.00     0.049 A 
ATOM     29  C   UNL A   1      38.708  30.652  30.670  1.00  0.00     0.074 A 
ATOM     30  C   UNL A   1      43.284  29.308  34.815  1.00  0.00     0.029 A 
ATOM     31  N   UNL A   1      41.861  29.245  33.107  1.00  0.00    -0.354 N 
ATOM     32  N   UNL A   1      39.639  30.245  31.494  1.00  0.00    -0.248 NA
ATOM     33  C   UNL A   1      37.728  31.573  31.267  1.00  0.00     0.031 C 
ATOM     34  C   UNL A   1      42.232  30.194  35.080  1.00  0.00     0.029 A 
ATOM     35  C   UNL A   1      41.353  30.162  34.011  1.00  0.00     0.049 A 
ATOM     36  H   UNL A   1      41.449  29.016  32.243  1.00  0.00     0.167 HD
ATOM     37  C   UNL A   1      39.393  30.900  32.688  1.00  0.00     0.074 A 
ATOM     38  C   UNL A   1      38.193  31.690  32.499  1.00  0.00     0.031 C 
ATOM     39  C   UNL A   1      40.137  30.903  33.818  1.00  0.00     0.037 A 
BRANCH  26  40
ATOM     40  C   UNL A   1      45.001  27.098  33.586  1.00  0.00     0.064 A 
ATOM     41  C   UNL A   1      44.934  25.894  34.308  1.00  0.00     0.173 A 
ATOM     42  C   UNL A   1      46.231  27.765  33.532  1.00  0.00     0.173 A 
ATOM     43  F   UNL A   1      43.771  25.229  34.407  1.00  0.00    -0.203 F 
ATOM     44  C   UNL A   1      46.044  25.402  34.986  1.00  0.00     0.198 A 
ATOM     45  C   UNL A   1      47.347  27.256  34.190  1.00  0.00     0.198 A 
ATOM     46  F   UNL A   1      46.345  28.920  32.859  1.00  0.00    -0.203 F 
ATOM     47  F   UNL A   1      45.939  24.287  35.722  1.00  0.00    -0.200 F 
ATOM     48  C   UNL A   1      47.251  26.083  34.925  1.00  0.00     0.200 A 
ATOM     49  F   UNL A   1      48.514  27.913  34.132  1.00  0.00    -0.200 F 
ATOM     50  F   UNL A   1      48.316  25.616  35.589  1.00  0.00    -0.200 F 
ENDBRANCH  26  40
BRANCH  27  51
ATOM     51  C   UNL A   1      37.272  30.797  28.555  1.00  0.00     0.064 A 
ATOM     52  C   UNL A   1      36.957  32.141  28.343  1.00  0.00     0.173 A 
ATOM     53  C   UNL A   1      36.269  29.840  28.315  1.00  0.00     0.173 A 
ATOM     54  F   UNL A   1      37.868  33.093  28.589  1.00  0.00    -0.203 F 
ATOM     55  C   UNL A   1      35.678  32.517  27.933  1.00  0.00     0.198 A 
ATOM     56  C   UNL A   1      34.990  30.217  27.916  1.00  0.00     0.198 A 
ATOM     57  F   UNL A   1      36.513  28.542  28.546  1.00  0.00    -0.203 F 
ATOM     58  F   UNL A   1      35.384  33.815  27.766  1.00  0.00    -0.200 F 
ATOM     59  C   UNL A   1      34.693  31.559  27.731  1.00  0.00     0.200 A 
ATOM     60  F   UNL A   1      34.039  29.290  27.738  1.00  0.00    -0.200 F 
ATOM     61  F   UNL A   1      33.458  31.929  27.366  1.00  0.00    -0.200 F 
ENDBRANCH  27  51
BRANCH  39  62
ATOM     62  C   UNL A   1      39.698  31.856  34.884  1.00  0.00     0.064 A 
ATOM     63  C   UNL A   1      38.829  31.471  35.911  1.00  0.00     0.173 A 
ATOM     64  C   UNL A   1      40.107  33.196  34.823  1.00  0.00     0.173 A 
ATOM     65  F   UNL A   1      38.378  30.209  35.978  1.00  0.00    -0.203 F 
ATOM     66  C   UNL A   1      38.354  32.407  36.825  1.00  0.00     0.198 A 
ATOM     67  C   UNL A   1      39.653  34.122  35.753  1.00  0.00     0.198 A 
ATOM     68  F   UNL A   1      40.924  33.611  33.843  1.00  0.00    -0.203 F 
ATOM     69  F   UNL A   1      37.463  32.039  37.756  1.00  0.00    -0.200 F 
ATOM     70  C   UNL A   1      38.768  33.729  36.747  1.00  0.00     0.200 A 
ATOM     71  F   UNL A   1      40.051  35.399  35.674  1.00  0.00    -0.200 F 
ATOM     72  F   UNL A   1      38.297  34.632  37.617  1.00  0.00    -0.200 F 
ENDBRANCH  39  62
ENDBRANCH  13  14
ENDBRANCH   6   8
ENDBRANCH   5   6
ENDBRANCH   4   5
ENDBRANCH   3   4
ENDBRANCH   2   3
ENDBRANCH   1   2
BRANCH   1  73
ATOM     73  C   UNL A   1      39.552  21.473  26.144  1.00  0.00     0.188 C 
BRANCH  73  74
ATOM     74  O   UNL A   1      39.400  22.771  26.720  1.00  0.00    -0.376 OA
BRANCH  74  75
ATOM     75  C   UNL A   1      38.199  23.484  26.453  1.00  0.00     0.202 C 
BRANCH  75  76
ATOM     76  C   UNL A   1      37.471  23.229  25.122  1.00  0.00     0.261 C 
BRANCH  76  77
ATOM     77  O   UNL A   1      36.105  23.664  25.088  1.00  0.00    -0.463 OA
BRANCH  77  78
ATOM     78  C   UNL A   1      35.488  23.483  23.890  1.00  0.00     0.315 C 
ATOM     79  O   UNL A   1      36.040  23.011  22.900  1.00  0.00    -0.251 OA
BRANCH  78  80
ATOM     80  C   UNL A   1      34.004  23.803  23.907  1.00  0.00     0.148 C 
ATOM     81  C   UNL A   1      33.458  23.835  22.455  1.00  0.00     0.043 C 
ATOM     82  C   UNL A   1      33.599  25.154  24.397  1.00  0.00     0.033 A 
ATOM     83  C   UNL A   1      33.380  25.313  22.076  1.00  0.00     0.124 C 
ATOM     84  N   UNL A   1      33.243  25.973  23.361  1.00  0.00    -0.341 N 
ATOM     85  C   UNL A   1      33.297  25.794  25.567  1.00  0.00     0.025 A 
ATOM     86  C   UNL A   1      32.671  27.129  23.796  1.00  0.00     0.090 A 
ATOM     87  C   UNL A   1      32.687  27.024  25.186  1.00  0.00     0.032 A 
BRANCH  86  88
ATOM     88  C   UNL A   1      32.096  28.225  23.026  1.00  0.00     0.209 C 
ATOM     89  O   UNL A   1      32.753  29.110  22.501  1.00  0.00    -0.287 OA
BRANCH  88  90
ATOM     90  C   UNL A   1      30.624  28.323  22.910  1.00  0.00     0.024 A 
ATOM     91  C   UNL A   1      29.787  27.333  23.435  1.00  0.00     0.012 A 
ATOM     92  C   UNL A   1      30.087  29.483  22.349  1.00  0.00     0.012 A 
ATOM     93  C   UNL A   1      28.408  27.529  23.455  1.00  0.00     0.001 A 
ATOM     94  C   UNL A   1      28.707  29.676  22.375  1.00  0.00     0.001 A 
ATOM     95  C   UNL A   1      27.872  28.707  22.936  1.00  0.00     0.000 A 
ENDBRANCH  88  90
ENDBRANCH  86  88
ENDBRANCH  78  80
ENDBRANCH  77  78
ENDBRANCH  76  77
ENDBRANCH  75  76
ENDBRANCH  74  75
ENDBRANCH  73  74
ENDBRANCH   1  73
TORSDOF 19
ENDMDL
MODEL 3
REMARK VINA RESULT:     -11.4      3.154      9.241
REMARK SMILES O=C(OCCOCCOCCOC(=O)[C@@H]1CCn2c(C(=O)c3ccccc3)ccc21)c1ccc(-c2c3nc(c(-c4c(F)c(F)c(F)c(F)c4F)c4ccc([nH]4)c(-c4c(F)c(F)c(F)c(F)c4F)c4nc(c(-c5c(F)c(F)c(F)c(F)c5F)c5ccc2[nH]5)C=C4)C=C3)cc1
REMARK SMILES IDX 7 1 6 2 5 3 4 4 3 5 2 6 1 7 31 8 32 9 93 10 33 11 92 12
REMARK SMILES IDX 34 13 35 14 36 15 86 16 37 17 91 18 85 19 87 20 38 21 90 22
REMARK SMILES IDX 84 23 83 24 39 26 71 27 51 28 70 29 52 30 55 31 69 32 88 33
REMARK SMILES IDX 53 34 54 35 68 37 89 38 56 39 40 40 41 41 49 42 42 43 43 44
REMARK SMILES IDX 47 45 50 46 44 47 45 48 48 49 46 50 72 51 73 52 81 53 74 54
REMARK SMILES IDX 75 55 79 56 82 57 76 58 77 59 80 60 78 61 57 62 58 63 66 64
REMARK SMILES IDX 59 65 60 66 64 67 67 68 61 69 62 70 65 71 63 72 8 73 9 74
REMARK SMILES IDX 10 75 11 76 12 77 13 78 14 79 15 80 16 81 30 82 17 83 18 84
REMARK SMILES IDX 29 85 19 86 28 87 20 88 21 89 22 90 23 91 27 92 24 93 26 94
REMARK SMILES IDX 25 95
REMARK H PARENT 87 25 55 36
REMARK Flexibility Score: inf
ROOT
ATOM      1  C   UNL A   1      31.821  30.083  25.378  1.00  0.00     0.188 C 
ENDROOT
BRANCH   1   2
ATOM      2  O   UNL A   1      31.061  31.243  25.749  1.00  0.00    -0.376 OA
BRANCH   2   3
ATOM      3  C   UNL A   1      31.548  31.869  26.941  1.00  0.00     0.202 C 
BRANCH   3   4
ATOM      4  C   UNL A   1      31.841  33.368  26.810  1.00  0.00     0.261 C 
BRANCH   4   5
ATOM      5  O   UNL A   1      32.565  33.900  27.928  1.00  0.00    -0.460 OA
BRANCH   5   6
ATOM      6  C   UNL A   1      33.890  34.165  28.037  1.00  0.00     0.338 C 
ATOM      7  O   UNL A   1      34.260  35.311  27.776  1.00  0.00    -0.246 OA
BRANCH   6   8
ATOM      8  C   UNL A   1      34.939  33.179  28.467  1.00  0.00     0.060 A 
ATOM      9  C   UNL A   1      34.726  31.880  28.936  1.00  0.00     0.016 A 
ATOM     10  C   UNL A   1      36.274  33.613  28.372  1.00  0.00     0.016 A 
ATOM     11  C   UNL A   1      35.774  31.085  29.405  1.00  0.00     0.010 A 
ATOM     12  C   UNL A   1      37.335  32.802  28.787  1.00  0.00     0.010 A 
ATOM     13  C   UNL A   1      37.086  31.544  29.355  1.00  0.00    -0.014 A 
BRANCH  13  14
ATOM     14  C   UNL A   1      38.166  30.796  30.040  1.00  0.00     0.031 A 
ATOM     15  C   UNL A   1      38.559  31.238  31.423  1.00  0.00     0.074 A 
ATOM     16  C   UNL A   1      38.747  29.709  29.496  1.00  0.00     0.049 A 
ATOM     17  N   UNL A   1      39.508  30.790  32.202  1.00  0.00    -0.248 NA
ATOM     18  C   UNL A   1      37.740  32.305  32.025  1.00  0.00     0.031 C 
ATOM     19  C   UNL A   1      38.372  29.070  28.235  1.00  0.00     0.029 A 
ATOM     20  N   UNL A   1      39.816  28.964  29.934  1.00  0.00    -0.354 N 
ATOM     21  C   UNL A   1      39.355  31.471  33.401  1.00  0.00     0.074 A 
ATOM     22  C   UNL A   1      38.307  32.447  33.213  1.00  0.00     0.031 C 
ATOM     23  C   UNL A   1      39.266  28.108  27.951  1.00  0.00     0.029 A 
ATOM     24  C   UNL A   1      40.293  28.100  28.976  1.00  0.00     0.049 A 
ATOM     25  H   UNL A   1      40.200  29.041  30.838  1.00  0.00     0.167 HD
ATOM     26  C   UNL A   1      39.981  31.248  34.580  1.00  0.00     0.037 A 
ATOM     27  C   UNL A   1      41.469  27.449  28.920  1.00  0.00     0.037 A 
ATOM     28  C   UNL A   1      41.036  30.292  34.756  1.00  0.00     0.049 A 
ATOM     29  C   UNL A   1      42.341  27.445  30.139  1.00  0.00     0.074 A 
ATOM     30  C   UNL A   1      41.706  29.935  35.912  1.00  0.00     0.029 A 
ATOM     31  N   UNL A   1      41.595  29.557  33.723  1.00  0.00    -0.354 N 
ATOM     32  N   UNL A   1      42.192  28.079  31.273  1.00  0.00    -0.248 NA
ATOM     33  C   UNL A   1      43.512  26.556  30.088  1.00  0.00     0.031 C 
ATOM     34  C   UNL A   1      42.705  29.015  35.568  1.00  0.00     0.029 A 
ATOM     35  C   UNL A   1      42.627  28.771  34.207  1.00  0.00     0.049 A 
ATOM     36  H   UNL A   1      41.304  29.589  32.784  1.00  0.00     0.167 HD
ATOM     37  C   UNL A   1      43.213  27.627  32.090  1.00  0.00     0.074 A 
ATOM     38  C   UNL A   1      44.008  26.705  31.305  1.00  0.00     0.031 C 
ATOM     39  C   UNL A   1      43.430  27.896  33.399  1.00  0.00     0.037 A 
BRANCH  26  40
ATOM     40  C   UNL A   1      39.499  32.044  35.753  1.00  0.00     0.064 A 
ATOM     41  C   UNL A   1      40.088  33.276  36.082  1.00  0.00     0.173 A 
ATOM     42  C   UNL A   1      38.476  31.562  36.578  1.00  0.00     0.173 A 
ATOM     43  F   UNL A   1      41.088  33.770  35.333  1.00  0.00    -0.203 F 
ATOM     44  C   UNL A   1      39.697  33.977  37.219  1.00  0.00     0.198 A 
ATOM     45  C   UNL A   1      38.070  32.278  37.700  1.00  0.00     0.198 A 
ATOM     46  F   UNL A   1      37.886  30.388  36.308  1.00  0.00    -0.203 F 
ATOM     47  F   UNL A   1      40.318  35.118  37.548  1.00  0.00    -0.200 F 
ATOM     48  C   UNL A   1      38.687  33.478  38.026  1.00  0.00     0.200 A 
ATOM     49  F   UNL A   1      37.093  31.797  38.481  1.00  0.00    -0.200 F 
ATOM     50  F   UNL A   1      38.319  34.145  39.128  1.00  0.00    -0.200 F 
ENDBRANCH  26  40
BRANCH  27  51
ATOM     51  C   UNL A   1      41.976  26.790  27.691  1.00  0.00     0.064 A 
ATOM     52  C   UNL A   1      41.780  25.431  27.431  1.00  0.00     0.173 A 
ATOM     53  C   UNL A   1      42.850  27.502  26.848  1.00  0.00     0.173 A 
ATOM     54  F   UNL A   1      40.984  24.702  28.224  1.00  0.00    -0.203 F 
ATOM     55  C   UNL A   1      42.457  24.801  26.385  1.00  0.00     0.198 A 
ATOM     56  C   UNL A   1      43.531  26.870  25.812  1.00  0.00     0.198 A 
ATOM     57  F   UNL A   1      43.099  28.798  27.086  1.00  0.00    -0.203 F 
ATOM     58  F   UNL A   1      42.283  23.489  26.172  1.00  0.00    -0.200 F 
ATOM     59  C   UNL A   1      43.338  25.517  25.586  1.00  0.00     0.200 A 
ATOM     60  F   UNL A   1      44.393  27.561  25.053  1.00  0.00    -0.200 F 
ATOM     61  F   UNL A   1      44.007  24.899  24.602  1.00  0.00    -0.200 F 
ENDBRANCH  27  51
BRANCH  39  62
ATOM     62  C   UNL A   1      44.521  27.111  34.053  1.00  0.00     0.064 A 
ATOM     63  C   UNL A   1      44.284  25.867  34.651  1.00  0.00     0.173 A 
ATOM     64  C   UNL A   1      45.809  27.657  34.138  1.00  0.00     0.173 A 
ATOM     65  F   UNL A   1      43.055  25.330  34.632  1.00  0.00    -0.203 F 
ATOM     66  C   UNL A   1      45.297  25.211  35.344  1.00  0.00     0.198 A 
ATOM     67  C   UNL A   1      46.825  26.986  34.807  1.00  0.00     0.198 A 
ATOM     68  F   UNL A   1      46.074  28.856  33.595  1.00  0.00    -0.203 F 
ATOM     69  F   UNL A   1      45.036  24.058  35.976  1.00  0.00    -0.200 F 
ATOM     70  C   UNL A   1      46.565  25.769  35.419  1.00  0.00     0.200 A 
ATOM     71  F   UNL A   1      48.048  27.529  34.882  1.00  0.00    -0.200 F 
ATOM     72  F   UNL A   1      47.534  25.144  36.102  1.00  0.00    -0.200 F 
ENDBRANCH  39  62
ENDBRANCH  13  14
ENDBRANCH   6   8
ENDBRANCH   5   6
ENDBRANCH   4   5
ENDBRANCH   3   4
ENDBRANCH   2   3
ENDBRANCH   1   2
BRANCH   1  73
ATOM     73  C   UNL A   1      33.115  29.953  26.181  1.00  0.00     0.188 C 
BRANCH  73  74
ATOM     74  O   UNL A   1      33.238  28.835  27.061  1.00  0.00    -0.376 OA
BRANCH  74  75
ATOM     75  C   UNL A   1      32.932  27.544  26.547  1.00  0.00     0.202 C 
BRANCH  75  76
ATOM     76  C   UNL A   1      31.535  26.957  26.817  1.00  0.00     0.261 C 
BRANCH  76  77
ATOM     77  O   UNL A   1      31.438  25.536  26.659  1.00  0.00    -0.463 OA
BRANCH  77  78
ATOM     78  C   UNL A   1      30.869  25.138  25.490  1.00  0.00     0.315 C 
ATOM     79  O   UNL A   1      30.640  25.894  24.548  1.00  0.00    -0.251 OA
BRANCH  78  80
ATOM     80  C   UNL A   1      30.646  23.640  25.391  1.00  0.00     0.148 C 
ATOM     81  C   UNL A   1      30.922  22.976  26.766  1.00  0.00     0.043 C 
ATOM     82  C   UNL A   1      31.567  22.866  24.507  1.00  0.00     0.033 A 
ATOM     83  C   UNL A   1      32.328  22.386  26.664  1.00  0.00     0.124 C 
ATOM     84  N   UNL A   1      32.487  22.166  25.237  1.00  0.00    -0.341 N 
ATOM     85  C   UNL A   1      31.686  22.486  23.198  1.00  0.00     0.025 A 
ATOM     86  C   UNL A   1      33.194  21.293  24.469  1.00  0.00     0.090 A 
ATOM     87  C   UNL A   1      32.691  21.476  23.182  1.00  0.00     0.032 A 
BRANCH  86  88
ATOM     88  C   UNL A   1      34.207  20.321  24.864  1.00  0.00     0.209 C 
ATOM     89  O   UNL A   1      35.341  20.618  25.206  1.00  0.00    -0.287 OA
BRANCH  88  90
ATOM     90  C   UNL A   1      33.881  18.880  24.796  1.00  0.00     0.024 A 
ATOM     91  C   UNL A   1      34.784  17.955  24.261  1.00  0.00     0.012 A 
ATOM     92  C   UNL A   1      32.685  18.451  25.373  1.00  0.00     0.012 A 
ATOM     93  C   UNL A   1      34.520  16.591  24.358  1.00  0.00     0.001 A 
ATOM     94  C   UNL A   1      32.427  17.085  25.470  1.00  0.00     0.001 A 
ATOM     95  C   UNL A   1      33.346  16.158  24.974  1.00  0.00     0.000 A 
ENDBRANCH  88  90
ENDBRANCH  86  88
ENDBRANCH  78  80
ENDBRANCH  77  78
ENDBRANCH  76  77
ENDBRANCH  75  76
ENDBRANCH  74  75
ENDBRANCH  73  74
ENDBRANCH   1  73
TORSDOF 19
ENDMDL
