MODEL 1
REMARK VINA RESULT:     -11.4      0.000      0.000
REMARK SMILES O=C(OCCOCCOCCOC(=O)[C@@H](Cc1ccncc1)c1ccc(Cl)cc1)c1ccc(-c2c3nc(c(-c4c(F)c(F)c(F)c(F)c4F)c4ccc([nH]4)c(-c4c(F)c(F)c(F)c(F)c4F)c4nc(c(-c5c(F)c(F)c(F)c(F)c5F)c5ccc2[nH]5)C=C4)C=C3)cc1
REMARK SMILES IDX 7 1 6 2 5 3 4 4 3 5 2 6 1 7 30 8 31 9 92 10 32 11 91 12
REMARK SMILES IDX 33 13 34 14 35 15 85 16 36 17 90 18 84 19 86 20 37 21 89 22
REMARK SMILES IDX 83 23 82 24 38 26 70 27 50 28 69 29 51 30 54 31 68 32 87 33
REMARK SMILES IDX 52 34 53 35 67 37 88 38 55 39 39 40 40 41 48 42 41 43 42 44
REMARK SMILES IDX 46 45 49 46 43 47 44 48 47 49 45 50 71 51 72 52 80 53 73 54
REMARK SMILES IDX 74 55 78 56 81 57 75 58 76 59 79 60 77 61 56 62 57 63 65 64
REMARK SMILES IDX 58 65 59 66 63 67 66 68 60 69 61 70 64 71 62 72 8 73 9 74
REMARK SMILES IDX 10 75 11 76 12 77 13 78 14 79 15 80 16 81 17 82 18 83 22 84
REMARK SMILES IDX 19 85 21 86 20 87 23 88 24 89 29 90 25 91 28 92 26 93 27 94
REMARK H PARENT 86 25 54 36
REMARK Flexibility Score: inf
ROOT
ATOM      1  C   UNL A   1      32.156  26.887  25.813  1.00  0.00     0.188 C 
ENDROOT
BRANCH   1   2
ATOM      2  O   UNL A   1      31.371  27.496  24.783  1.00  0.00    -0.376 OA
BRANCH   2   3
ATOM      3  C   UNL A   1      31.281  28.917  24.855  1.00  0.00     0.202 C 
BRANCH   3   4
ATOM      4  C   UNL A   1      32.507  29.694  25.361  1.00  0.00     0.261 C 
BRANCH   4   5
ATOM      5  O   UNL A   1      32.328  30.528  26.520  1.00  0.00    -0.460 OA
BRANCH   5   6
ATOM      6  C   UNL A   1      33.140  31.392  27.165  1.00  0.00     0.338 C 
ATOM      7  O   UNL A   1      32.773  32.563  27.266  1.00  0.00    -0.246 OA
BRANCH   6   8
ATOM      8  C   UNL A   1      34.478  31.040  27.726  1.00  0.00     0.060 A 
ATOM      9  C   UNL A   1      34.888  29.754  28.055  1.00  0.00     0.016 A 
ATOM     10  C   UNL A   1      35.382  32.100  27.972  1.00  0.00     0.016 A 
ATOM     11  C   UNL A   1      36.158  29.525  28.570  1.00  0.00     0.010 A 
ATOM     12  C   UNL A   1      36.660  31.876  28.506  1.00  0.00     0.010 A 
ATOM     13  C   UNL A   1      37.059  30.576  28.794  1.00  0.00    -0.014 A 
BRANCH  13  14
ATOM     14  C   UNL A   1      38.332  30.223  29.467  1.00  0.00     0.031 A 
ATOM     15  C   UNL A   1      38.465  30.597  30.908  1.00  0.00     0.074 A 
ATOM     16  C   UNL A   1      39.242  29.425  28.878  1.00  0.00     0.049 A 
ATOM     17  N   UNL A   1      39.359  30.228  31.783  1.00  0.00    -0.248 NA
ATOM     18  C   UNL A   1      37.427  31.498  31.437  1.00  0.00     0.031 C 
ATOM     19  C   UNL A   1      39.190  28.991  27.489  1.00  0.00     0.029 A 
ATOM     20  N   UNL A   1      40.338  28.773  29.388  1.00  0.00    -0.354 N 
ATOM     21  C   UNL A   1      39.017  30.883  32.954  1.00  0.00     0.074 A 
ATOM     22  C   UNL A   1      37.789  31.605  32.703  1.00  0.00     0.031 C 
ATOM     23  C   UNL A   1      40.133  28.056  27.285  1.00  0.00     0.029 A 
ATOM     24  C   UNL A   1      40.910  27.879  28.507  1.00  0.00     0.049 A 
ATOM     25  H   UNL A   1      40.683  28.928  30.297  1.00  0.00     0.167 HD
ATOM     26  C   UNL A   1      39.715  30.945  34.109  1.00  0.00     0.037 A 
ATOM     27  C   UNL A   1      41.950  27.033  28.671  1.00  0.00     0.037 A 
ATOM     28  C   UNL A   1      40.987  30.306  34.299  1.00  0.00     0.049 A 
ATOM     29  C   UNL A   1      42.711  27.114  29.973  1.00  0.00     0.074 A 
ATOM     30  C   UNL A   1      41.854  30.407  35.369  1.00  0.00     0.029 A 
ATOM     31  N   UNL A   1      41.588  29.466  33.369  1.00  0.00    -0.354 N 
ATOM     32  N   UNL A   1      42.425  27.797  31.057  1.00  0.00    -0.248 NA
ATOM     33  C   UNL A   1      43.979  26.374  30.051  1.00  0.00     0.031 C 
ATOM     34  C   UNL A   1      43.011  29.682  35.058  1.00  0.00     0.029 A 
ATOM     35  C   UNL A   1      42.829  29.063  33.829  1.00  0.00     0.049 A 
ATOM     36  H   UNL A   1      41.190  29.197  32.510  1.00  0.00     0.167 HD
ATOM     37  C   UNL A   1      43.491  27.603  31.924  1.00  0.00     0.074 A 
ATOM     38  C   UNL A   1      44.400  26.686  31.268  1.00  0.00     0.031 C 
ATOM     39  C   UNL A   1      43.718  28.161  33.139  1.00  0.00     0.037 A 
BRANCH  26  40
ATOM     40  C   UNL A   1      39.186  31.891  35.142  1.00  0.00     0.064 A 
ATOM     41  C   UNL A   1      39.502  33.258  35.140  1.00  0.00     0.173 A 
ATOM     42  C   UNL A   1      38.458  31.384  36.230  1.00  0.00     0.173 A 
ATOM     43  F   UNL A   1      40.240  33.779  34.148  1.00  0.00    -0.203 F 
ATOM     44  C   UNL A   1      39.153  34.070  36.217  1.00  0.00     0.198 A 
ATOM     45  C   UNL A   1      38.082  32.206  37.287  1.00  0.00     0.198 A 
ATOM     46  F   UNL A   1      38.151  30.080  36.289  1.00  0.00    -0.203 F 
ATOM     47  F   UNL A   1      39.552  35.350  36.244  1.00  0.00    -0.200 F 
ATOM     48  C   UNL A   1      38.445  33.544  37.288  1.00  0.00     0.200 A 
ATOM     49  F   UNL A   1      37.406  31.692  38.323  1.00  0.00    -0.200 F 
ATOM     50  F   UNL A   1      38.140  34.319  38.338  1.00  0.00    -0.200 F 
ENDBRANCH  26  40
BRANCH  27  51
ATOM     51  C   UNL A   1      42.397  26.112  27.582  1.00  0.00     0.064 A 
ATOM     52  C   UNL A   1      41.857  24.822  27.439  1.00  0.00     0.173 A 
ATOM     53  C   UNL A   1      43.411  26.476  26.680  1.00  0.00     0.173 A 
ATOM     54  F   UNL A   1      40.912  24.395  28.290  1.00  0.00    -0.203 F 
ATOM     55  C   UNL A   1      42.316  23.941  26.457  1.00  0.00     0.198 A 
ATOM     56  C   UNL A   1      43.837  25.614  25.670  1.00  0.00     0.198 A 
ATOM     57  F   UNL A   1      43.991  27.682  26.773  1.00  0.00    -0.203 F 
ATOM     58  F   UNL A   1      41.816  22.700  26.384  1.00  0.00    -0.200 F 
ATOM     59  C   UNL A   1      43.300  24.342  25.566  1.00  0.00     0.200 A 
ATOM     60  F   UNL A   1      44.768  26.022  24.797  1.00  0.00    -0.200 F 
ATOM     61  F   UNL A   1      43.728  23.506  24.611  1.00  0.00    -0.200 F 
ENDBRANCH  27  51
BRANCH  39  62
ATOM     62  C   UNL A   1      45.003  27.807  33.830  1.00  0.00     0.064 A 
ATOM     63  C   UNL A   1      45.085  26.723  34.716  1.00  0.00     0.173 A 
ATOM     64  C   UNL A   1      46.178  28.513  33.537  1.00  0.00     0.173 A 
ATOM     65  F   UNL A   1      43.985  26.025  35.036  1.00  0.00    -0.203 F 
ATOM     66  C   UNL A   1      46.300  26.367  35.296  1.00  0.00     0.198 A 
ATOM     67  C   UNL A   1      47.396  28.134  34.094  1.00  0.00     0.198 A 
ATOM     68  F   UNL A   1      46.150  29.552  32.689  1.00  0.00    -0.203 F 
ATOM     69  F   UNL A   1      46.352  25.350  36.167  1.00  0.00    -0.200 F 
ATOM     70  C   UNL A   1      47.454  27.066  34.975  1.00  0.00     0.200 A 
ATOM     71  F   UNL A   1      48.514  28.799  33.770  1.00  0.00    -0.200 F 
ATOM     72  F   UNL A   1      48.627  26.709  35.518  1.00  0.00    -0.200 F 
ENDBRANCH  39  62
ENDBRANCH  13  14
ENDBRANCH   6   8
ENDBRANCH   5   6
ENDBRANCH   4   5
ENDBRANCH   3   4
ENDBRANCH   2   3
ENDBRANCH   1   2
BRANCH   1  73
ATOM     73  C   UNL A   1      31.686  25.477  26.177  1.00  0.00     0.188 C 
BRANCH  73  74
ATOM     74  O   UNL A   1      32.694  24.482  26.353  1.00  0.00    -0.376 OA
BRANCH  74  75
ATOM     75  C   UNL A   1      32.365  23.315  27.092  1.00  0.00     0.202 C 
BRANCH  75  76
ATOM     76  C   UNL A   1      33.522  22.517  27.693  1.00  0.00     0.261 C 
BRANCH  76  77
ATOM     77  O   UNL A   1      33.727  21.250  27.064  1.00  0.00    -0.463 OA
BRANCH  77  78
ATOM     78  C   UNL A   1      34.499  21.254  25.946  1.00  0.00     0.313 C 
ATOM     79  O   UNL A   1      35.705  21.502  25.958  1.00  0.00    -0.252 OA
BRANCH  78  80
ATOM     80  C   UNL A   1      33.717  20.865  24.680  1.00  0.00     0.133 C 
BRANCH  80  81
ATOM     81  C   UNL A   1      32.623  19.806  24.980  1.00  0.00     0.055 C 
BRANCH  81  82
ATOM     82  C   UNL A   1      32.935  18.322  24.847  1.00  0.00    -0.044 A 
ATOM     83  C   UNL A   1      32.528  17.328  25.736  1.00  0.00     0.024 A 
ATOM     84  C   UNL A   1      33.690  17.909  23.751  1.00  0.00     0.024 A 
ATOM     85  C   UNL A   1      32.906  16.012  25.499  1.00  0.00     0.111 A 
ATOM     86  C   UNL A   1      34.022  16.575  23.585  1.00  0.00     0.111 A 
ATOM     87  N   UNL A   1      33.651  15.614  24.448  1.00  0.00    -0.265 NA
ENDBRANCH  81  82
ENDBRANCH  80  81
BRANCH  80  88
ATOM     88  C   UNL A   1      33.248  22.073  23.855  1.00  0.00    -0.033 A 
ATOM     89  C   UNL A   1      34.172  23.003  23.351  1.00  0.00     0.006 A 
ATOM     90  C   UNL A   1      31.890  22.313  23.591  1.00  0.00     0.006 A 
ATOM     91  C   UNL A   1      33.753  24.196  22.758  1.00  0.00     0.021 A 
ATOM     92  C   UNL A   1      31.465  23.502  23.001  1.00  0.00     0.021 A 
ATOM     93  C   UNL A   1      32.396  24.454  22.613  1.00  0.00     0.041 A 
ATOM     94  Cl  UNL A   1      31.861  25.956  21.974  1.00  0.00    -0.084 Cl
ENDBRANCH  80  88
ENDBRANCH  78  80
ENDBRANCH  77  78
ENDBRANCH  76  77
ENDBRANCH  75  76
ENDBRANCH  74  75
ENDBRANCH  73  74
ENDBRANCH   1  73
TORSDOF 20
ENDMDL
MODEL 2
REMARK VINA RESULT:     -11.3      1.292      2.409
REMARK SMILES O=C(OCCOCCOCCOC(=O)[C@@H](Cc1ccncc1)c1ccc(Cl)cc1)c1ccc(-c2c3nc(c(-c4c(F)c(F)c(F)c(F)c4F)c4ccc([nH]4)c(-c4c(F)c(F)c(F)c(F)c4F)c4nc(c(-c5c(F)c(F)c(F)c(F)c5F)c5ccc2[nH]5)C=C4)C=C3)cc1
REMARK SMILES IDX 7 1 6 2 5 3 4 4 3 5 2 6 1 7 30 8 31 9 92 10 32 11 91 12
REMARK SMILES IDX 33 13 34 14 35 15 85 16 36 17 90 18 84 19 86 20 37 21 89 22
REMARK SMILES IDX 83 23 82 24 38 26 70 27 50 28 69 29 51 30 54 31 68 32 87 33
REMARK SMILES IDX 52 34 53 35 67 37 88 38 55 39 39 40 40 41 48 42 41 43 42 44
REMARK SMILES IDX 46 45 49 46 43 47 44 48 47 49 45 50 71 51 72 52 80 53 73 54
REMARK SMILES IDX 74 55 78 56 81 57 75 58 76 59 79 60 77 61 56 62 57 63 65 64
REMARK SMILES IDX 58 65 59 66 63 67 66 68 60 69 61 70 64 71 62 72 8 73 9 74
REMARK SMILES IDX 10 75 11 76 12 77 13 78 14 79 15 80 16 81 17 82 18 83 22 84
REMARK SMILES IDX 19 85 21 86 20 87 23 88 24 89 29 90 25 91 28 92 26 93 27 94
REMARK H PARENT 86 25 54 36
REMARK Flexibility Score: inf
ROOT
ATOM      1  C   UNL A   1      32.601  28.022  23.138  1.00  0.00     0.188 C 
ENDROOT
BRANCH   1   2
ATOM      2  O   UNL A   1      31.384  28.184  23.873  1.00  0.00    -0.376 OA
BRANCH   2   3
ATOM      3  C   UNL A   1      31.299  29.382  24.640  1.00  0.00     0.202 C 
BRANCH   3   4
ATOM      4  C   UNL A   1      32.530  29.805  25.459  1.00  0.00     0.261 C 
BRANCH   4   5
ATOM      5  O   UNL A   1      32.317  30.722  26.547  1.00  0.00    -0.460 OA
BRANCH   5   6
ATOM      6  C   UNL A   1      33.132  31.572  27.206  1.00  0.00     0.338 C 
ATOM      7  O   UNL A   1      32.774  32.745  27.318  1.00  0.00    -0.246 OA
BRANCH   6   8
ATOM      8  C   UNL A   1      34.465  31.203  27.770  1.00  0.00     0.060 A 
ATOM      9  C   UNL A   1      34.831  29.925  28.172  1.00  0.00     0.016 A 
ATOM     10  C   UNL A   1      35.411  32.240  27.940  1.00  0.00     0.016 A 
ATOM     11  C   UNL A   1      36.099  29.678  28.684  1.00  0.00     0.010 A 
ATOM     12  C   UNL A   1      36.688  32.000  28.471  1.00  0.00     0.010 A 
ATOM     13  C   UNL A   1      37.042  30.705  28.832  1.00  0.00    -0.014 A 
BRANCH  13  14
ATOM     14  C   UNL A   1      38.310  30.344  29.510  1.00  0.00     0.031 A 
ATOM     15  C   UNL A   1      38.444  30.725  30.949  1.00  0.00     0.074 A 
ATOM     16  C   UNL A   1      39.215  29.536  28.926  1.00  0.00     0.049 A 
ATOM     17  N   UNL A   1      39.334  30.352  31.827  1.00  0.00    -0.248 NA
ATOM     18  C   UNL A   1      37.413  31.638  31.471  1.00  0.00     0.031 C 
ATOM     19  C   UNL A   1      39.162  29.096  27.539  1.00  0.00     0.029 A 
ATOM     20  N   UNL A   1      40.304  28.877  29.441  1.00  0.00    -0.354 N 
ATOM     21  C   UNL A   1      38.994  31.016  32.994  1.00  0.00     0.074 A 
ATOM     22  C   UNL A   1      37.773  31.747  32.738  1.00  0.00     0.031 C 
ATOM     23  C   UNL A   1      40.097  28.152  27.341  1.00  0.00     0.029 A 
ATOM     24  C   UNL A   1      40.870  27.974  28.566  1.00  0.00     0.049 A 
ATOM     25  H   UNL A   1      40.648  29.034  30.351  1.00  0.00     0.167 HD
ATOM     26  C   UNL A   1      39.691  31.077  34.150  1.00  0.00     0.037 A 
ATOM     27  C   UNL A   1      41.903  27.120  28.736  1.00  0.00     0.037 A 
ATOM     28  C   UNL A   1      40.957  30.429  34.346  1.00  0.00     0.049 A 
ATOM     29  C   UNL A   1      42.662  27.201  30.039  1.00  0.00     0.074 A 
ATOM     30  C   UNL A   1      41.823  30.528  35.417  1.00  0.00     0.029 A 
ATOM     31  N   UNL A   1      41.552  29.579  33.421  1.00  0.00    -0.354 N 
ATOM     32  N   UNL A   1      42.380  27.891  31.119  1.00  0.00    -0.248 NA
ATOM     33  C   UNL A   1      43.923  26.450  30.123  1.00  0.00     0.031 C 
ATOM     34  C   UNL A   1      42.974  29.792  35.111  1.00  0.00     0.029 A 
ATOM     35  C   UNL A   1      42.789  29.168  33.886  1.00  0.00     0.049 A 
ATOM     36  H   UNL A   1      41.154  29.309  32.563  1.00  0.00     0.167 HD
ATOM     37  C   UNL A   1      43.442  27.693  31.989  1.00  0.00     0.074 A 
ATOM     38  C   UNL A   1      44.345  26.765  31.339  1.00  0.00     0.031 C 
ATOM     39  C   UNL A   1      43.672  28.255  33.202  1.00  0.00     0.037 A 
BRANCH  26  40
ATOM     40  C   UNL A   1      39.168  32.034  35.178  1.00  0.00     0.064 A 
ATOM     41  C   UNL A   1      39.487  33.399  35.163  1.00  0.00     0.173 A 
ATOM     42  C   UNL A   1      38.444  31.537  36.272  1.00  0.00     0.173 A 
ATOM     43  F   UNL A   1      40.223  33.911  34.164  1.00  0.00    -0.203 F 
ATOM     44  C   UNL A   1      39.145  34.222  36.235  1.00  0.00     0.198 A 
ATOM     45  C   UNL A   1      38.074  32.369  37.325  1.00  0.00     0.198 A 
ATOM     46  F   UNL A   1      38.134  30.234  36.343  1.00  0.00    -0.203 F 
ATOM     47  F   UNL A   1      39.546  35.501  36.250  1.00  0.00    -0.200 F 
ATOM     48  C   UNL A   1      38.439  33.706  37.313  1.00  0.00     0.200 A 
ATOM     49  F   UNL A   1      37.400  31.865  38.367  1.00  0.00    -0.200 F 
ATOM     50  F   UNL A   1      38.140  34.490  38.357  1.00  0.00    -0.200 F 
ENDBRANCH  26  40
BRANCH  27  51
ATOM     51  C   UNL A   1      42.344  26.189  27.652  1.00  0.00     0.064 A 
ATOM     52  C   UNL A   1      43.338  26.554  26.728  1.00  0.00     0.173 A 
ATOM     53  C   UNL A   1      41.752  24.927  27.479  1.00  0.00     0.173 A 
ATOM     54  F   UNL A   1      43.919  27.761  26.810  1.00  0.00    -0.203 F 
ATOM     55  C   UNL A   1      43.709  25.707  25.680  1.00  0.00     0.198 A 
ATOM     56  C   UNL A   1      42.155  24.063  26.462  1.00  0.00     0.198 A 
ATOM     57  F   UNL A   1      40.778  24.523  28.308  1.00  0.00    -0.203 F 
ATOM     58  F   UNL A   1      44.622  26.109  24.786  1.00  0.00    -0.200 F 
ATOM     59  C   UNL A   1      43.123  24.457  25.555  1.00  0.00     0.200 A 
ATOM     60  F   UNL A   1      41.602  22.845  26.367  1.00  0.00    -0.200 F 
ATOM     61  F   UNL A   1      43.491  23.635  24.563  1.00  0.00    -0.200 F 
ENDBRANCH  27  51
BRANCH  39  62
ATOM     62  C   UNL A   1      44.952  27.894  33.897  1.00  0.00     0.064 A 
ATOM     63  C   UNL A   1      46.115  28.663  33.741  1.00  0.00     0.173 A 
ATOM     64  C   UNL A   1      44.989  26.812  34.789  1.00  0.00     0.173 A 
ATOM     65  F   UNL A   1      46.131  29.700  32.891  1.00  0.00    -0.203 F 
ATOM     66  C   UNL A   1      47.274  28.354  34.446  1.00  0.00     0.198 A 
ATOM     67  C   UNL A   1      46.141  26.525  35.515  1.00  0.00     0.198 A 
ATOM     68  F   UNL A   1      43.900  26.052  34.976  1.00  0.00    -0.203 F 
ATOM     69  F   UNL A   1      48.385  29.080  34.259  1.00  0.00    -0.200 F 
ATOM     70  C   UNL A   1      47.282  27.292  35.340  1.00  0.00     0.200 A 
ATOM     71  F   UNL A   1      46.142  25.511  36.391  1.00  0.00    -0.200 F 
ATOM     72  F   UNL A   1      48.393  27.008  36.033  1.00  0.00    -0.200 F 
ENDBRANCH  39  62
ENDBRANCH  13  14
ENDBRANCH   6   8
ENDBRANCH   5   6
ENDBRANCH   4   5
ENDBRANCH   3   4
ENDBRANCH   2   3
ENDBRANCH   1   2
BRANCH   1  73
ATOM     73  C   UNL A   1      32.684  26.687  22.393  1.00  0.00     0.188 C 
BRANCH  73  74
ATOM     74  O   UNL A   1      31.607  25.770  22.583  1.00  0.00    -0.376 OA
BRANCH  74  75
ATOM     75  C   UNL A   1      31.919  24.398  22.777  1.00  0.00     0.202 C 
BRANCH  75  76
ATOM     76  C   UNL A   1      31.075  23.625  23.790  1.00  0.00     0.261 C 
BRANCH  76  77
ATOM     77  O   UNL A   1      31.479  22.263  23.946  1.00  0.00    -0.463 OA
BRANCH  77  78
ATOM     78  C   UNL A   1      31.850  21.887  25.198  1.00  0.00     0.313 C 
ATOM     79  O   UNL A   1      31.259  22.250  26.215  1.00  0.00    -0.252 OA
BRANCH  78  80
ATOM     80  C   UNL A   1      33.049  20.923  25.201  1.00  0.00     0.133 C 
BRANCH  80  81
ATOM     81  C   UNL A   1      32.930  19.851  24.085  1.00  0.00     0.055 C 
BRANCH  81  82
ATOM     82  C   UNL A   1      33.120  18.377  24.414  1.00  0.00    -0.044 A 
ATOM     83  C   UNL A   1      32.503  17.698  25.462  1.00  0.00     0.024 A 
ATOM     84  C   UNL A   1      33.982  17.635  23.609  1.00  0.00     0.024 A 
ATOM     85  C   UNL A   1      32.790  16.352  25.658  1.00  0.00     0.111 A 
ATOM     86  C   UNL A   1      34.211  16.294  23.868  1.00  0.00     0.111 A 
ATOM     87  N   UNL A   1      33.636  15.636  24.889  1.00  0.00    -0.265 NA
ENDBRANCH  81  82
ENDBRANCH  80  81
BRANCH  80  88
ATOM     88  C   UNL A   1      34.407  21.636  25.281  1.00  0.00    -0.033 A 
ATOM     89  C   UNL A   1      35.606  20.919  25.138  1.00  0.00     0.006 A 
ATOM     90  C   UNL A   1      34.511  23.016  25.521  1.00  0.00     0.006 A 
ATOM     91  C   UNL A   1      36.844  21.516  25.387  1.00  0.00     0.021 A 
ATOM     92  C   UNL A   1      35.744  23.617  25.772  1.00  0.00     0.021 A 
ATOM     93  C   UNL A   1      36.905  22.859  25.734  1.00  0.00     0.041 A 
ATOM     94  Cl  UNL A   1      38.408  23.586  26.136  1.00  0.00    -0.084 Cl
ENDBRANCH  80  88
ENDBRANCH  78  80
ENDBRANCH  77  78
ENDBRANCH  76  77
ENDBRANCH  75  76
ENDBRANCH  74  75
ENDBRANCH  73  74
ENDBRANCH   1  73
TORSDOF 20
ENDMDL
MODEL 3
REMARK VINA RESULT:     -11.2      1.777      2.704
REMARK SMILES O=C(OCCOCCOCCOC(=O)[C@@H](Cc1ccncc1)c1ccc(Cl)cc1)c1ccc(-c2c3nc(c(-c4c(F)c(F)c(F)c(F)c4F)c4ccc([nH]4)c(-c4c(F)c(F)c(F)c(F)c4F)c4nc(c(-c5c(F)c(F)c(F)c(F)c5F)c5ccc2[nH]5)C=C4)C=C3)cc1
REMARK SMILES IDX 7 1 6 2 5 3 4 4 3 5 2 6 1 7 30 8 31 9 92 10 32 11 91 12
REMARK SMILES IDX 33 13 34 14 35 15 85 16 36 17 90 18 84 19 86 20 37 21 89 22
REMARK SMILES IDX 83 23 82 24 38 26 70 27 50 28 69 29 51 30 54 31 68 32 87 33
REMARK SMILES IDX 52 34 53 35 67 37 88 38 55 39 39 40 40 41 48 42 41 43 42 44
REMARK SMILES IDX 46 45 49 46 43 47 44 48 47 49 45 50 71 51 72 52 80 53 73 54
REMARK SMILES IDX 74 55 78 56 81 57 75 58 76 59 79 60 77 61 56 62 57 63 65 64
REMARK SMILES IDX 58 65 59 66 63 67 66 68 60 69 61 70 64 71 62 72 8 73 9 74
REMARK SMILES IDX 10 75 11 76 12 77 13 78 14 79 15 80 16 81 17 82 18 83 22 84
REMARK SMILES IDX 19 85 21 86 20 87 23 88 24 89 29 90 25 91 28 92 26 93 27 94
REMARK H PARENT 86 25 54 36
REMARK Flexibility Score: inf
ROOT
ATOM      1  C   UNL A   1      33.694  27.905  26.282  1.00  0.00     0.188 C 
ENDROOT
BRANCH   1   2
ATOM      2  O   UNL A   1      32.560  28.024  27.146  1.00  0.00    -0.376 OA
BRANCH   2   3
ATOM      3  C   UNL A   1      31.780  29.202  26.956  1.00  0.00     0.202 C 
BRANCH   3   4
ATOM      4  C   UNL A   1      32.437  30.398  26.247  1.00  0.00     0.261 C 
BRANCH   4   5
ATOM      5  O   UNL A   1      32.358  31.678  26.899  1.00  0.00    -0.460 OA
BRANCH   5   6
ATOM      6  C   UNL A   1      33.270  32.443  27.535  1.00  0.00     0.338 C 
ATOM      7  O   UNL A   1      33.047  33.651  27.626  1.00  0.00    -0.246 OA
BRANCH   6   8
ATOM      8  C   UNL A   1      34.558  31.938  28.096  1.00  0.00     0.060 A 
ATOM      9  C   UNL A   1      34.762  30.653  28.584  1.00  0.00     0.016 A 
ATOM     10  C   UNL A   1      35.639  32.846  28.167  1.00  0.00     0.016 A 
ATOM     11  C   UNL A   1      36.001  30.274  29.085  1.00  0.00     0.010 A 
ATOM     12  C   UNL A   1      36.888  32.473  28.687  1.00  0.00     0.010 A 
ATOM     13  C   UNL A   1      37.078  31.171  29.136  1.00  0.00    -0.014 A 
BRANCH  13  14
ATOM     14  C   UNL A   1      38.307  30.691  29.811  1.00  0.00     0.031 A 
ATOM     15  C   UNL A   1      38.428  30.962  31.276  1.00  0.00     0.074 A 
ATOM     16  C   UNL A   1      39.177  29.874  29.189  1.00  0.00     0.049 A 
ATOM     17  N   UNL A   1      39.274  30.478  32.143  1.00  0.00    -0.248 NA
ATOM     18  C   UNL A   1      37.439  31.896  31.841  1.00  0.00     0.031 C 
ATOM     19  C   UNL A   1      39.132  29.534  27.774  1.00  0.00     0.029 A 
ATOM     20  N   UNL A   1      40.215  29.117  29.678  1.00  0.00    -0.354 N 
ATOM     21  C   UNL A   1      38.946  31.079  33.347  1.00  0.00     0.074 A 
ATOM     22  C   UNL A   1      37.775  31.896  33.119  1.00  0.00     0.031 C 
ATOM     23  C   UNL A   1      40.016  28.552  27.529  1.00  0.00     0.029 A 
ATOM     24  C   UNL A   1      40.749  28.245  28.753  1.00  0.00     0.049 A 
ATOM     25  H   UNL A   1      40.546  29.191  30.603  1.00  0.00     0.167 HD
ATOM     26  C   UNL A   1      39.618  31.019  34.518  1.00  0.00     0.037 A 
ATOM     27  C   UNL A   1      41.726  27.323  28.882  1.00  0.00     0.037 A 
ATOM     28  C   UNL A   1      40.840  30.285  34.691  1.00  0.00     0.049 A 
ATOM     29  C   UNL A   1      42.458  27.269  30.203  1.00  0.00     0.074 A 
ATOM     30  C   UNL A   1      41.685  30.259  35.783  1.00  0.00     0.029 A 
ATOM     31  N   UNL A   1      41.407  29.468  33.721  1.00  0.00    -0.354 N 
ATOM     32  N   UNL A   1      42.191  27.898  31.323  1.00  0.00    -0.248 NA
ATOM     33  C   UNL A   1      43.672  26.442  30.257  1.00  0.00     0.031 C 
ATOM     34  C   UNL A   1      42.798  29.479  35.449  1.00  0.00     0.029 A 
ATOM     35  C   UNL A   1      42.607  28.954  34.180  1.00  0.00     0.049 A 
ATOM     36  H   UNL A   1      41.014  29.282  32.839  1.00  0.00     0.167 HD
ATOM     37  C   UNL A   1      43.219  27.578  32.197  1.00  0.00     0.074 A 
ATOM     38  C   UNL A   1      44.082  26.646  31.501  1.00  0.00     0.031 C 
ATOM     39  C   UNL A   1      43.452  28.040  33.450  1.00  0.00     0.037 A 
BRANCH  26  40
ATOM     40  C   UNL A   1      39.126  31.931  35.600  1.00  0.00     0.064 A 
ATOM     41  C   UNL A   1      39.563  33.258  35.719  1.00  0.00     0.173 A 
ATOM     42  C   UNL A   1      38.304  31.414  36.613  1.00  0.00     0.173 A 
ATOM     43  F   UNL A   1      40.393  33.781  34.803  1.00  0.00    -0.203 F 
ATOM     44  C   UNL A   1      39.238  34.017  36.841  1.00  0.00     0.198 A 
ATOM     45  C   UNL A   1      37.953  32.186  37.715  1.00  0.00     0.198 A 
ATOM     46  F   UNL A   1      37.879  30.143  36.555  1.00  0.00    -0.203 F 
ATOM     47  F   UNL A   1      39.748  35.248  36.986  1.00  0.00    -0.200 F 
ATOM     48  C   UNL A   1      38.434  33.480  37.837  1.00  0.00     0.200 A 
ATOM     49  F   UNL A   1      37.183  31.661  38.678  1.00  0.00    -0.200 F 
ATOM     50  F   UNL A   1      38.149  34.200  38.931  1.00  0.00    -0.200 F 
ENDBRANCH  26  40
BRANCH  27  51
ATOM     51  C   UNL A   1      42.139  26.445  27.744  1.00  0.00     0.064 A 
ATOM     52  C   UNL A   1      41.551  25.186  27.535  1.00  0.00     0.173 A 
ATOM     53  C   UNL A   1      43.166  26.819  26.861  1.00  0.00     0.173 A 
ATOM     54  F   UNL A   1      40.592  24.748  28.363  1.00  0.00    -0.203 F 
ATOM     55  C   UNL A   1      41.978  24.342  26.505  1.00  0.00     0.198 A 
ATOM     56  C   UNL A   1      43.559  25.998  25.805  1.00  0.00     0.198 A 
ATOM     57  F   UNL A   1      43.789  27.996  27.017  1.00  0.00    -0.203 F 
ATOM     58  F   UNL A   1      41.432  23.126  26.367  1.00  0.00    -0.200 F 
ATOM     59  C   UNL A   1      42.975  24.754  25.635  1.00  0.00     0.200 A 
ATOM     60  F   UNL A   1      44.504  26.418  24.953  1.00  0.00    -0.200 F 
ATOM     61  F   UNL A   1      43.373  23.955  24.636  1.00  0.00    -0.200 F 
ENDBRANCH  27  51
BRANCH  39  62
ATOM     62  C   UNL A   1      44.693  27.557  34.143  1.00  0.00     0.064 A 
ATOM     63  C   UNL A   1      45.899  28.271  34.072  1.00  0.00     0.173 A 
ATOM     64  C   UNL A   1      44.649  26.412  34.950  1.00  0.00     0.173 A 
ATOM     65  F   UNL A   1      45.993  29.366  33.303  1.00  0.00    -0.203 F 
ATOM     66  C   UNL A   1      47.022  27.845  34.775  1.00  0.00     0.198 A 
ATOM     67  C   UNL A   1      45.765  26.008  35.677  1.00  0.00     0.198 A 
ATOM     68  F   UNL A   1      43.516  25.701  35.056  1.00  0.00    -0.203 F 
ATOM     69  F   UNL A   1      48.174  28.520  34.668  1.00  0.00    -0.200 F 
ATOM     70  C   UNL A   1      46.950  26.721  35.585  1.00  0.00     0.200 A 
ATOM     71  F   UNL A   1      45.689  24.932  36.473  1.00  0.00    -0.200 F 
ATOM     72  F   UNL A   1      48.026  26.324  36.279  1.00  0.00    -0.200 F 
ENDBRANCH  39  62
ENDBRANCH  13  14
ENDBRANCH   6   8
ENDBRANCH   5   6
ENDBRANCH   4   5
ENDBRANCH   3   4
ENDBRANCH   2   3
ENDBRANCH   1   2
BRANCH   1  73
ATOM     73  C   UNL A   1      33.328  27.472  24.860  1.00  0.00     0.188 C 
BRANCH  73  74
ATOM     74  O   UNL A   1      33.923  28.201  23.787  1.00  0.00    -0.376 OA
BRANCH  74  75
ATOM     75  C   UNL A   1      33.323  28.117  22.502  1.00  0.00     0.202 C 
BRANCH  75  76
ATOM     76  C   UNL A   1      32.733  26.768  22.092  1.00  0.00     0.261 C 
BRANCH  76  77
ATOM     77  O   UNL A   1      33.711  25.836  21.627  1.00  0.00    -0.463 OA
BRANCH  77  78
ATOM     78  C   UNL A   1      33.409  24.521  21.783  1.00  0.00     0.313 C 
ATOM     79  O   UNL A   1      33.256  23.746  20.838  1.00  0.00    -0.252 OA
BRANCH  78  80
ATOM     80  C   UNL A   1      33.331  24.097  23.260  1.00  0.00     0.133 C 
BRANCH  80  81
ATOM     81  C   UNL A   1      32.222  23.037  23.497  1.00  0.00     0.055 C 
BRANCH  81  82
ATOM     82  C   UNL A   1      32.563  21.703  24.147  1.00  0.00    -0.044 A 
ATOM     83  C   UNL A   1      32.908  21.522  25.484  1.00  0.00     0.024 A 
ATOM     84  C   UNL A   1      32.531  20.562  23.349  1.00  0.00     0.024 A 
ATOM     85  C   UNL A   1      33.218  20.244  25.936  1.00  0.00     0.111 A 
ATOM     86  C   UNL A   1      32.849  19.322  23.877  1.00  0.00     0.111 A 
ATOM     87  N   UNL A   1      33.204  19.141  25.160  1.00  0.00    -0.265 NA
ENDBRANCH  81  82
ENDBRANCH  80  81
BRANCH  80  88
ATOM     88  C   UNL A   1      34.698  23.763  23.874  1.00  0.00    -0.033 A 
ATOM     89  C   UNL A   1      35.602  22.922  23.205  1.00  0.00     0.006 A 
ATOM     90  C   UNL A   1      35.091  24.255  25.129  1.00  0.00     0.006 A 
ATOM     91  C   UNL A   1      36.766  22.464  23.827  1.00  0.00     0.021 A 
ATOM     92  C   UNL A   1      36.251  23.801  25.755  1.00  0.00     0.021 A 
ATOM     93  C   UNL A   1      37.070  22.884  25.115  1.00  0.00     0.041 A 
ATOM     94  Cl  UNL A   1      38.446  22.257  25.931  1.00  0.00    -0.084 Cl
ENDBRANCH  80  88
ENDBRANCH  78  80
ENDBRANCH  77  78
ENDBRANCH  76  77
ENDBRANCH  75  76
ENDBRANCH  74  75
ENDBRANCH  73  74
ENDBRANCH   1  73
TORSDOF 20
ENDMDL
