MODEL 1
REMARK VINA RESULT:     -12.0      0.000      0.000
REMARK SMILES Cc1cccc(O[C@H]2CC[C@@]([NH2+]C(C)C)(C(=O)OCCOCCOCCOC(=O)c3ccc(-c4c5nc(c(-c6c(F)c(F)c(F)c(F)c6F)c6ccc([nH]6)c(-c6c(F)c(F)c(F)c(F)c6F)c6nc(c(-c7c(F)c(F)c(F)c(F)c7F)c7ccc4[nH]7)C=C6)C=C5)cc3)C2)c1
REMARK SMILES IDX 22 1 21 2 20 3 19 4 18 5 16 6 17 7 11 8 8 9 9 10 93 11 10 12
REMARK SMILES IDX 7 13 6 14 1 15 2 16 3 17 94 18 4 19 5 20 12 21 13 24 14 25
REMARK SMILES IDX 15 26 23 27 24 28 25 29 26 30 27 31 28 32 29 33 30 34 31 35
REMARK SMILES IDX 92 36 32 37 91 38 33 39 34 40 35 41 85 42 36 43 90 44 84 45
REMARK SMILES IDX 86 46 37 47 89 48 83 49 82 50 38 52 70 53 50 54 69 55 51 56
REMARK SMILES IDX 54 57 68 58 87 59 52 60 53 61 67 63 88 64 55 65 39 66 40 67
REMARK SMILES IDX 48 68 41 69 42 70 46 71 49 72 43 73 44 74 47 75 45 76 71 77
REMARK SMILES IDX 72 78 80 79 73 80 74 81 78 82 81 83 75 84 76 85 79 86 77 87
REMARK SMILES IDX 56 88 57 89 65 90 58 91 59 92 63 93 66 94 60 95 61 96 64 97
REMARK SMILES IDX 62 98
REMARK H PARENT 12 22 12 23 86 51 54 62
REMARK Flexibility Score: inf
ROOT
ATOM      1  C   UNL A   1      34.961  22.160  24.567  1.00  0.00     0.188 C 
ENDROOT
BRANCH   1   2
ATOM      2  O   UNL A   1      34.783  23.525  24.107  1.00  0.00    -0.376 OA
BRANCH   2   3
ATOM      3  C   UNL A   1      34.404  24.706  24.866  1.00  0.00     0.202 C 
BRANCH   3   4
ATOM      4  C   UNL A   1      32.961  25.127  25.859  1.00  0.00     0.261 C 
BRANCH   4   5
ATOM      5  O   UNL A   1      31.464  26.028  25.535  1.00  0.00    -0.459 OA
BRANCH   5   6
ATOM      6  C   UNL A   1      30.649  26.560  24.434  1.00  0.00     0.368 C 
ATOM      7  O   UNL A   1      29.733  25.970  23.846  1.00  0.00    -0.245 OA
BRANCH   6   8
ATOM      8  C   UNL A   1      31.038  27.842  23.641  1.00  0.00     0.198 C 
ATOM      9  C   UNL A   1      32.590  29.323  24.982  1.00  0.00     0.180 C 
ATOM     10  C   UNL A   1      33.376  28.311  24.149  1.00  0.00     0.052 C 
ATOM     11  C   UNL A   1      31.137  29.102  24.575  1.00  0.00     0.126 C 
ATOM     12  C   UNL A   1      32.441  27.741  23.073  1.00  0.00     0.085 C 
BRANCH   9  13
ATOM     13  O   UNL A   1      32.676  29.166  26.403  1.00  0.00    -0.490 OA
BRANCH  13  14
ATOM     14  C   UNL A   1      33.534  29.944  27.131  1.00  0.00     0.119 A 
ATOM     15  C   UNL A   1      37.219  29.474  27.997  1.00  0.00     0.044 C 
ATOM     16  C   UNL A   1      35.840  30.072  27.922  1.00  0.00    -0.047 A 
ATOM     17  C   UNL A   1      35.661  31.435  28.169  1.00  0.00     0.003 A 
ATOM     18  C   UNL A   1      34.740  29.325  27.480  1.00  0.00     0.049 A 
ATOM     19  C   UNL A   1      34.414  32.028  27.971  1.00  0.00     0.004 A 
ATOM     20  C   UNL A   1      33.351  31.285  27.449  1.00  0.00     0.046 A 
ENDBRANCH  13  14
ENDBRANCH   9  13
BRANCH   8  21
ATOM     21  N   UNL A   1      29.960  28.153  22.614  1.00  0.00    -0.330 N 
ATOM     22  H   UNL A   1      29.328  27.352  22.587  1.00  0.00     0.347 HD
ATOM     23  H   UNL A   1      30.480  28.345  21.757  1.00  0.00     0.347 HD
BRANCH  21  24
ATOM     24  C   UNL A   1      29.113  29.378  22.813  1.00  0.00     0.176 C 
ATOM     25  C   UNL A   1      29.082  30.453  21.720  1.00  0.00     0.075 C 
ATOM     26  C   UNL A   1      27.670  28.903  23.051  1.00  0.00     0.075 C 
ENDBRANCH  21  24
ENDBRANCH   8  21
ENDBRANCH   6   8
ENDBRANCH   5   6
ENDBRANCH   4   5
ENDBRANCH   3   4
ENDBRANCH   2   3
ENDBRANCH   1   2
BRANCH   1  27
ATOM     27  C   UNL A   1      35.800  21.713  25.768  1.00  0.00     0.188 C 
BRANCH  27  28
ATOM     28  O   UNL A   1      37.081  21.278  25.376  1.00  0.00    -0.376 OA
BRANCH  28  29
ATOM     29  C   UNL A   1      38.128  22.196  25.641  1.00  0.00     0.202 C 
BRANCH  29  30
ATOM     30  C   UNL A   1      39.283  21.607  26.457  1.00  0.00     0.261 C 
BRANCH  30  31
ATOM     31  O   UNL A   1      40.375  21.184  25.618  1.00  0.00    -0.460 OA
BRANCH  31  32
ATOM     32  C   UNL A   1      41.510  20.771  26.261  1.00  0.00     0.338 C 
ATOM     33  O   UNL A   1      42.005  19.674  26.053  1.00  0.00    -0.246 OA
BRANCH  32  34
ATOM     34  C   UNL A   1      42.186  21.901  26.952  1.00  0.00     0.060 A 
ATOM     35  C   UNL A   1      42.445  22.122  28.313  1.00  0.00     0.016 A 
ATOM     36  C   UNL A   1      42.534  22.901  26.118  1.00  0.00     0.016 A 
ATOM     37  C   UNL A   1      42.937  23.393  28.849  1.00  0.00     0.010 A 
ATOM     38  C   UNL A   1      42.859  24.127  26.690  1.00  0.00     0.010 A 
ATOM     39  C   UNL A   1      43.060  24.546  28.061  1.00  0.00    -0.014 A 
BRANCH  39  40
ATOM     40  C   UNL A   1      43.261  26.189  28.692  1.00  0.00     0.031 A 
ATOM     41  C   UNL A   1      42.164  27.524  28.969  1.00  0.00     0.074 A 
ATOM     42  C   UNL A   1      44.492  26.603  29.090  1.00  0.00     0.049 A 
ATOM     43  N   UNL A   1      42.242  28.329  30.013  1.00  0.00    -0.248 NA
ATOM     44  C   UNL A   1      40.907  27.976  28.245  1.00  0.00     0.031 C 
ATOM     45  C   UNL A   1      44.770  27.560  30.170  1.00  0.00     0.029 A 
ATOM     46  N   UNL A   1      45.771  26.286  28.619  1.00  0.00    -0.354 N 
ATOM     47  C   UNL A   1      41.103  29.110  30.129  1.00  0.00     0.074 A 
ATOM     48  C   UNL A   1      40.257  28.820  29.038  1.00  0.00     0.031 C 
ATOM     49  C   UNL A   1      46.021  28.010  30.070  1.00  0.00     0.029 A 
ATOM     50  C   UNL A   1      46.547  27.453  28.853  1.00  0.00     0.049 A 
ATOM     51  H   UNL A   1      46.067  25.439  28.213  1.00  0.00     0.167 HD
ATOM     52  C   UNL A   1      40.946  30.159  30.968  1.00  0.00     0.037 A 
ATOM     53  C   UNL A   1      47.112  28.168  27.845  1.00  0.00     0.037 A 
ATOM     54  C   UNL A   1      42.185  30.876  31.040  1.00  0.00     0.049 A 
ATOM     55  C   UNL A   1      46.748  29.630  27.835  1.00  0.00     0.074 A 
ATOM     56  C   UNL A   1      43.264  30.845  31.891  1.00  0.00     0.029 A 
ATOM     57  N   UNL A   1      42.590  31.530  29.881  1.00  0.00    -0.354 N 
ATOM     58  N   UNL A   1      45.790  30.155  28.552  1.00  0.00    -0.248 NA
ATOM     59  C   UNL A   1      47.418  30.616  26.994  1.00  0.00     0.031 C 
ATOM     60  C   UNL A   1      44.380  31.334  31.154  1.00  0.00     0.029 A 
ATOM     61  C   UNL A   1      43.952  31.723  29.891  1.00  0.00     0.049 A 
ATOM     62  H   UNL A   1      41.986  31.814  29.156  1.00  0.00     0.167 HD
ATOM     63  C   UNL A   1      45.646  31.475  28.221  1.00  0.00     0.074 A 
ATOM     64  C   UNL A   1      46.717  31.727  27.277  1.00  0.00     0.031 C 
ATOM     65  C   UNL A   1      44.632  32.246  28.712  1.00  0.00     0.037 A 
BRANCH  52  66
ATOM     66  C   UNL A   1      39.631  30.515  31.621  1.00  0.00     0.064 A 
ATOM     67  C   UNL A   1      38.716  31.372  30.983  1.00  0.00     0.173 A 
ATOM     68  C   UNL A   1      39.316  30.198  32.968  1.00  0.00     0.173 A 
ATOM     69  F   UNL A   1      38.915  31.764  29.716  1.00  0.00    -0.203 F 
ATOM     70  C   UNL A   1      37.588  31.885  31.640  1.00  0.00     0.198 A 
ATOM     71  C   UNL A   1      38.170  30.680  33.609  1.00  0.00     0.198 A 
ATOM     72  F   UNL A   1      40.135  29.451  33.723  1.00  0.00    -0.203 F 
ATOM     73  F   UNL A   1      36.779  32.745  31.005  1.00  0.00    -0.200 F 
ATOM     74  C   UNL A   1      37.314  31.537  32.951  1.00  0.00     0.200 A 
ATOM     75  F   UNL A   1      37.921  30.335  34.882  1.00  0.00    -0.200 F 
ATOM     76  F   UNL A   1      36.245  32.042  33.582  1.00  0.00    -0.200 F 
ENDBRANCH  52  66
BRANCH  53  77
ATOM     77  C   UNL A   1      47.426  27.295  26.685  1.00  0.00     0.064 A 
ATOM     78  C   UNL A   1      46.742  27.597  25.487  1.00  0.00     0.173 A 
ATOM     79  C   UNL A   1      48.667  26.650  26.587  1.00  0.00     0.173 A 
ATOM     80  F   UNL A   1      45.560  28.235  25.536  1.00  0.00    -0.203 F 
ATOM     81  C   UNL A   1      47.358  27.442  24.252  1.00  0.00     0.198 A 
ATOM     82  C   UNL A   1      49.265  26.462  25.339  1.00  0.00     0.198 A 
ATOM     83  F   UNL A   1      49.350  26.328  27.694  1.00  0.00    -0.203 F 
ATOM     84  F   UNL A   1      46.771  27.926  23.148  1.00  0.00    -0.200 F 
ATOM     85  C   UNL A   1      48.630  26.901  24.181  1.00  0.00     0.200 A 
ATOM     86  F   UNL A   1      50.500  25.949  25.257  1.00  0.00    -0.200 F 
ATOM     87  F   UNL A   1      49.270  26.871  23.003  1.00  0.00    -0.200 F 
ENDBRANCH  53  77
BRANCH  65  88
ATOM     88  C   UNL A   1      44.234  33.581  28.126  1.00  0.00     0.064 A 
ATOM     89  C   UNL A   1      44.398  34.806  28.800  1.00  0.00     0.173 A 
ATOM     90  C   UNL A   1      43.783  33.682  26.790  1.00  0.00     0.173 A 
ATOM     91  F   UNL A   1      44.974  34.863  30.009  1.00  0.00    -0.203 F 
ATOM     92  C   UNL A   1      44.025  36.024  28.230  1.00  0.00     0.198 A 
ATOM     93  C   UNL A   1      43.475  34.908  26.198  1.00  0.00     0.198 A 
ATOM     94  F   UNL A   1      43.660  32.595  26.014  1.00  0.00    -0.203 F 
ATOM     95  F   UNL A   1      44.138  37.153  28.944  1.00  0.00    -0.200 F 
ATOM     96  C   UNL A   1      43.566  36.077  26.929  1.00  0.00     0.200 A 
ATOM     97  F   UNL A   1      43.104  34.953  24.911  1.00  0.00    -0.200 F 
ATOM     98  F   UNL A   1      43.240  37.250  26.372  1.00  0.00    -0.200 F 
ENDBRANCH  65  88
ENDBRANCH  39  40
ENDBRANCH  32  34
ENDBRANCH  31  32
ENDBRANCH  30  31
ENDBRANCH  29  30
ENDBRANCH  28  29
ENDBRANCH  27  28
ENDBRANCH   1  27
TORSDOF 21
ENDMDL
MODEL 2
REMARK VINA RESULT:     -12.0      4.451      9.947
REMARK SMILES Cc1cccc(O[C@H]2CC[C@@]([NH2+]C(C)C)(C(=O)OCCOCCOCCOC(=O)c3ccc(-c4c5nc(c(-c6c(F)c(F)c(F)c(F)c6F)c6ccc([nH]6)c(-c6c(F)c(F)c(F)c(F)c6F)c6nc(c(-c7c(F)c(F)c(F)c(F)c7F)c7ccc4[nH]7)C=C6)C=C5)cc3)C2)c1
REMARK SMILES IDX 22 1 21 2 20 3 19 4 18 5 16 6 17 7 11 8 8 9 9 10 93 11 10 12
REMARK SMILES IDX 7 13 6 14 1 15 2 16 3 17 94 18 4 19 5 20 12 21 13 24 14 25
REMARK SMILES IDX 15 26 23 27 24 28 25 29 26 30 27 31 28 32 29 33 30 34 31 35
REMARK SMILES IDX 92 36 32 37 91 38 33 39 34 40 35 41 85 42 36 43 90 44 84 45
REMARK SMILES IDX 86 46 37 47 89 48 83 49 82 50 38 52 70 53 50 54 69 55 51 56
REMARK SMILES IDX 54 57 68 58 87 59 52 60 53 61 67 63 88 64 55 65 39 66 40 67
REMARK SMILES IDX 48 68 41 69 42 70 46 71 49 72 43 73 44 74 47 75 45 76 71 77
REMARK SMILES IDX 72 78 80 79 73 80 74 81 78 82 81 83 75 84 76 85 79 86 77 87
REMARK SMILES IDX 56 88 57 89 65 90 58 91 59 92 63 93 66 94 60 95 61 96 64 97
REMARK SMILES IDX 62 98
REMARK H PARENT 12 22 12 23 86 51 54 62
REMARK Flexibility Score: inf
ROOT
ATOM      1  C   UNL A   1      33.418  35.390  28.973  1.00  0.00     0.188 C 
ENDROOT
BRANCH   1   2
ATOM      2  O   UNL A   1      32.823  34.754  27.813  1.00  0.00    -0.376 OA
BRANCH   2   3
ATOM      3  C   UNL A   1      32.445  33.362  27.625  1.00  0.00     0.202 C 
BRANCH   3   4
ATOM      4  C   UNL A   1      31.407  32.514  26.421  1.00  0.00     0.261 C 
BRANCH   4   5
ATOM      5  O   UNL A   1      31.106  30.805  26.041  1.00  0.00    -0.459 OA
BRANCH   5   6
ATOM      6  C   UNL A   1      31.312  29.801  24.988  1.00  0.00     0.368 C 
ATOM      7  O   UNL A   1      30.652  29.682  23.947  1.00  0.00    -0.245 OA
BRANCH   6   8
ATOM      8  C   UNL A   1      32.204  28.541  25.188  1.00  0.00     0.198 C 
ATOM      9  C   UNL A   1      33.799  28.836  27.129  1.00  0.00     0.180 C 
ATOM     10  C   UNL A   1      32.472  28.234  27.592  1.00  0.00     0.052 C 
ATOM     11  C   UNL A   1      33.668  28.919  25.611  1.00  0.00     0.126 C 
ATOM     12  C   UNL A   1      31.727  27.702  26.360  1.00  0.00     0.085 C 
BRANCH   9  13
ATOM     13  O   UNL A   1      34.096  30.150  27.616  1.00  0.00    -0.490 OA
BRANCH  13  14
ATOM     14  C   UNL A   1      35.393  30.534  27.817  1.00  0.00     0.119 A 
ATOM     15  C   UNL A   1      36.866  33.810  29.099  1.00  0.00     0.044 C 
ATOM     16  C   UNL A   1      36.768  32.403  28.574  1.00  0.00    -0.047 A 
ATOM     17  C   UNL A   1      37.840  31.524  28.743  1.00  0.00     0.003 A 
ATOM     18  C   UNL A   1      35.576  31.905  28.032  1.00  0.00     0.049 A 
ATOM     19  C   UNL A   1      37.712  30.182  28.381  1.00  0.00     0.004 A 
ATOM     20  C   UNL A   1      36.489  29.685  27.922  1.00  0.00     0.046 A 
ENDBRANCH  13  14
ENDBRANCH   9  13
BRANCH   8  21
ATOM     21  N   UNL A   1      32.319  27.784  23.874  1.00  0.00    -0.330 N 
ATOM     22  H   UNL A   1      33.243  27.984  23.490  1.00  0.00     0.347 HD
ATOM     23  H   UNL A   1      31.523  28.112  23.326  1.00  0.00     0.347 HD
BRANCH  21  24
ATOM     24  C   UNL A   1      32.161  26.289  23.892  1.00  0.00     0.176 C 
ATOM     25  C   UNL A   1      31.368  25.607  22.772  1.00  0.00     0.075 C 
ATOM     26  C   UNL A   1      33.574  25.681  23.911  1.00  0.00     0.075 C 
ENDBRANCH  21  24
ENDBRANCH   8  21
ENDBRANCH   6   8
ENDBRANCH   5   6
ENDBRANCH   4   5
ENDBRANCH   3   4
ENDBRANCH   2   3
ENDBRANCH   1   2
BRANCH   1  27
ATOM     27  C   UNL A   1      32.680  35.824  30.245  1.00  0.00     0.188 C 
BRANCH  27  28
ATOM     28  O   UNL A   1      33.079  37.107  30.666  1.00  0.00    -0.376 OA
BRANCH  28  29
ATOM     29  C   UNL A   1      33.416  37.204  32.040  1.00  0.00     0.202 C 
BRANCH  29  30
ATOM     30  C   UNL A   1      34.546  36.264  32.473  1.00  0.00     0.261 C 
BRANCH  30  31
ATOM     31  O   UNL A   1      34.166  35.443  33.593  1.00  0.00    -0.460 OA
BRANCH  31  32
ATOM     32  C   UNL A   1      33.749  34.173  33.302  1.00  0.00     0.338 C 
ATOM     33  O   UNL A   1      32.627  33.944  32.877  1.00  0.00    -0.246 OA
BRANCH  32  34
ATOM     34  C   UNL A   1      34.891  33.221  33.265  1.00  0.00     0.060 A 
ATOM     35  C   UNL A   1      35.981  33.062  34.135  1.00  0.00     0.016 A 
ATOM     36  C   UNL A   1      34.898  32.442  32.167  1.00  0.00     0.016 A 
ATOM     37  C   UNL A   1      37.136  32.212  33.839  1.00  0.00     0.010 A 
ATOM     38  C   UNL A   1      36.078  31.766  31.868  1.00  0.00     0.010 A 
ATOM     39  C   UNL A   1      37.316  31.591  32.596  1.00  0.00    -0.014 A 
BRANCH  39  40
ATOM     40  C   UNL A   1      38.839  30.888  32.024  1.00  0.00     0.031 A 
ATOM     41  C   UNL A   1      39.323  29.280  31.532  1.00  0.00     0.074 A 
ATOM     42  C   UNL A   1      39.931  31.686  31.888  1.00  0.00     0.049 A 
ATOM     43  N   UNL A   1      40.148  29.041  30.528  1.00  0.00    -0.248 NA
ATOM     44  C   UNL A   1      38.878  27.899  31.984  1.00  0.00     0.031 C 
ATOM     45  C   UNL A   1      40.997  31.521  30.891  1.00  0.00     0.029 A 
ATOM     46  N   UNL A   1      40.350  32.808  32.612  1.00  0.00    -0.354 N 
ATOM     47  C   UNL A   1      40.140  27.698  30.183  1.00  0.00     0.074 A 
ATOM     48  C   UNL A   1      39.285  27.020  31.076  1.00  0.00     0.031 C 
ATOM     49  C   UNL A   1      42.068  32.232  31.248  1.00  0.00     0.029 A 
ATOM     50  C   UNL A   1      41.769  32.776  32.545  1.00  0.00     0.049 A 
ATOM     51  H   UNL A   1      39.786  33.473  33.067  1.00  0.00     0.167 HD
ATOM     52  C   UNL A   1      41.002  27.096  29.332  1.00  0.00     0.037 A 
ATOM     53  C   UNL A   1      42.549  32.637  33.650  1.00  0.00     0.037 A 
ATOM     54  C   UNL A   1      42.303  27.668  29.519  1.00  0.00     0.049 A 
ATOM     55  C   UNL A   1      43.522  31.488  33.589  1.00  0.00     0.074 A 
ATOM     56  C   UNL A   1      43.002  28.682  28.908  1.00  0.00     0.029 A 
ATOM     57  N   UNL A   1      42.922  27.414  30.738  1.00  0.00    -0.354 N 
ATOM     58  N   UNL A   1      43.484  30.539  32.692  1.00  0.00    -0.248 NA
ATOM     59  C   UNL A   1      44.601  31.301  34.553  1.00  0.00     0.031 C 
ATOM     60  C   UNL A   1      43.948  29.157  29.860  1.00  0.00     0.029 A 
ATOM     61  C   UNL A   1      43.862  28.382  31.009  1.00  0.00     0.049 A 
ATOM     62  H   UNL A   1      42.716  26.650  31.324  1.00  0.00     0.167 HD
ATOM     63  C   UNL A   1      44.429  29.595  32.990  1.00  0.00     0.074 A 
ATOM     64  C   UNL A   1      45.132  30.140  34.135  1.00  0.00     0.031 C 
ATOM     65  C   UNL A   1      44.531  28.419  32.304  1.00  0.00     0.037 A 
BRANCH  52  66
ATOM     66  C   UNL A   1      40.615  25.952  28.424  1.00  0.00     0.064 A 
ATOM     67  C   UNL A   1      39.380  25.951  27.751  1.00  0.00     0.173 A 
ATOM     68  C   UNL A   1      41.343  24.737  28.344  1.00  0.00     0.173 A 
ATOM     69  F   UNL A   1      38.588  27.032  27.771  1.00  0.00    -0.203 F 
ATOM     70  C   UNL A   1      38.902  24.822  27.068  1.00  0.00     0.198 A 
ATOM     71  C   UNL A   1      40.881  23.626  27.630  1.00  0.00     0.198 A 
ATOM     72  F   UNL A   1      42.503  24.570  28.997  1.00  0.00    -0.203 F 
ATOM     73  F   UNL A   1      37.692  24.853  26.493  1.00  0.00    -0.200 F 
ATOM     74  C   UNL A   1      39.654  23.662  27.006  1.00  0.00     0.200 A 
ATOM     75  F   UNL A   1      41.622  22.508  27.583  1.00  0.00    -0.200 F 
ATOM     76  F   UNL A   1      39.186  22.580  26.367  1.00  0.00    -0.200 F 
ENDBRANCH  52  66
BRANCH  53  77
ATOM     77  C   UNL A   1      41.880  33.208  34.847  1.00  0.00     0.064 A 
ATOM     78  C   UNL A   1      41.735  34.613  34.857  1.00  0.00     0.173 A 
ATOM     79  C   UNL A   1      40.964  32.449  35.588  1.00  0.00     0.173 A 
ATOM     80  F   UNL A   1      42.579  35.376  34.141  1.00  0.00    -0.203 F 
ATOM     81  C   UNL A   1      40.613  35.213  35.416  1.00  0.00     0.198 A 
ATOM     82  C   UNL A   1      39.858  33.063  36.180  1.00  0.00     0.198 A 
ATOM     83  F   UNL A   1      41.066  31.113  35.623  1.00  0.00    -0.203 F 
ATOM     84  F   UNL A   1      40.397  36.523  35.232  1.00  0.00    -0.200 F 
ATOM     85  C   UNL A   1      39.662  34.435  36.052  1.00  0.00     0.200 A 
ATOM     86  F   UNL A   1      38.925  32.320  36.790  1.00  0.00    -0.200 F 
ATOM     87  F   UNL A   1      38.522  35.000  36.476  1.00  0.00    -0.200 F 
ENDBRANCH  53  77
BRANCH  65  88
ATOM     88  C   UNL A   1      45.311  27.223  32.800  1.00  0.00     0.064 A 
ATOM     89  C   UNL A   1      44.767  26.236  33.643  1.00  0.00     0.173 A 
ATOM     90  C   UNL A   1      46.618  26.965  32.329  1.00  0.00     0.173 A 
ATOM     91  F   UNL A   1      43.483  26.276  34.024  1.00  0.00    -0.203 F 
ATOM     92  C   UNL A   1      45.513  25.141  34.081  1.00  0.00     0.198 A 
ATOM     93  C   UNL A   1      47.338  25.833  32.715  1.00  0.00     0.198 A 
ATOM     94  F   UNL A   1      47.219  27.789  31.458  1.00  0.00    -0.203 F 
ATOM     95  F   UNL A   1      44.968  24.268  34.940  1.00  0.00    -0.200 F 
ATOM     96  C   UNL A   1      46.797  24.936  33.615  1.00  0.00     0.200 A 
ATOM     97  F   UNL A   1      48.553  25.606  32.196  1.00  0.00    -0.200 F 
ATOM     98  F   UNL A   1      47.499  23.867  34.011  1.00  0.00    -0.200 F 
ENDBRANCH  65  88
ENDBRANCH  39  40
ENDBRANCH  32  34
ENDBRANCH  31  32
ENDBRANCH  30  31
ENDBRANCH  29  30
ENDBRANCH  28  29
ENDBRANCH  27  28
ENDBRANCH   1  27
TORSDOF 21
ENDMDL
MODEL 3
REMARK VINA RESULT:     -11.8      4.034      8.256
REMARK SMILES Cc1cccc(O[C@H]2CC[C@@]([NH2+]C(C)C)(C(=O)OCCOCCOCCOC(=O)c3ccc(-c4c5nc(c(-c6c(F)c(F)c(F)c(F)c6F)c6ccc([nH]6)c(-c6c(F)c(F)c(F)c(F)c6F)c6nc(c(-c7c(F)c(F)c(F)c(F)c7F)c7ccc4[nH]7)C=C6)C=C5)cc3)C2)c1
REMARK SMILES IDX 22 1 21 2 20 3 19 4 18 5 16 6 17 7 11 8 8 9 9 10 93 11 10 12
REMARK SMILES IDX 7 13 6 14 1 15 2 16 3 17 94 18 4 19 5 20 12 21 13 24 14 25
REMARK SMILES IDX 15 26 23 27 24 28 25 29 26 30 27 31 28 32 29 33 30 34 31 35
REMARK SMILES IDX 92 36 32 37 91 38 33 39 34 40 35 41 85 42 36 43 90 44 84 45
REMARK SMILES IDX 86 46 37 47 89 48 83 49 82 50 38 52 70 53 50 54 69 55 51 56
REMARK SMILES IDX 54 57 68 58 87 59 52 60 53 61 67 63 88 64 55 65 39 66 40 67
REMARK SMILES IDX 48 68 41 69 42 70 46 71 49 72 43 73 44 74 47 75 45 76 71 77
REMARK SMILES IDX 72 78 80 79 73 80 74 81 78 82 81 83 75 84 76 85 79 86 77 87
REMARK SMILES IDX 56 88 57 89 65 90 58 91 59 92 63 93 66 94 60 95 61 96 64 97
REMARK SMILES IDX 62 98
REMARK H PARENT 12 22 12 23 86 51 54 62
REMARK Flexibility Score: inf
ROOT
ATOM      1  C   UNL A   1      40.768  22.760  27.616  1.00  0.00     0.188 C 
ENDROOT
BRANCH   1   2
ATOM      2  O   UNL A   1      39.620  22.000  27.157  1.00  0.00    -0.376 OA
BRANCH   2   3
ATOM      3  C   UNL A   1      39.081  21.877  25.812  1.00  0.00     0.202 C 
BRANCH   3   4
ATOM      4  C   UNL A   1      37.410  21.715  25.160  1.00  0.00     0.261 C 
BRANCH   4   5
ATOM      5  O   UNL A   1      36.184  22.877  24.611  1.00  0.00    -0.459 OA
BRANCH   5   6
ATOM      6  C   UNL A   1      34.892  22.953  23.915  1.00  0.00     0.368 C 
ATOM      7  O   UNL A   1      34.714  23.236  22.722  1.00  0.00    -0.245 OA
BRANCH   6   8
ATOM      8  C   UNL A   1      33.530  22.988  24.668  1.00  0.00     0.198 C 
ATOM      9  C   UNL A   1      32.539  20.671  24.895  1.00  0.00     0.180 C 
ATOM     10  C   UNL A   1      33.447  21.002  26.080  1.00  0.00     0.052 C 
ATOM     11  C   UNL A   1      32.504  21.957  24.075  1.00  0.00     0.126 C 
ATOM     12  C   UNL A   1      33.676  22.520  26.104  1.00  0.00     0.085 C 
BRANCH   9  13
ATOM     13  O   UNL A   1      32.987  19.615  24.038  1.00  0.00    -0.490 OA
BRANCH  13  14
ATOM     14  C   UNL A   1      33.553  18.490  24.570  1.00  0.00     0.119 A 
ATOM     15  C   UNL A   1      31.991  15.206  25.720  1.00  0.00     0.044 C 
ATOM     16  C   UNL A   1      33.017  16.263  25.414  1.00  0.00    -0.047 A 
ATOM     17  C   UNL A   1      34.360  15.905  25.272  1.00  0.00     0.003 A 
ATOM     18  C   UNL A   1      32.646  17.585  25.135  1.00  0.00     0.049 A 
ATOM     19  C   UNL A   1      35.299  16.850  24.856  1.00  0.00     0.004 A 
ATOM     20  C   UNL A   1      34.897  18.141  24.502  1.00  0.00     0.046 A 
ENDBRANCH  13  14
ENDBRANCH   9  13
BRANCH   8  21
ATOM     21  N   UNL A   1      32.896  24.362  24.512  1.00  0.00    -0.330 N 
ATOM     22  H   UNL A   1      32.117  24.263  23.861  1.00  0.00     0.347 HD
ATOM     23  H   UNL A   1      33.665  24.958  24.206  1.00  0.00     0.347 HD
BRANCH  21  24
ATOM     24  C   UNL A   1      32.364  25.048  25.739  1.00  0.00     0.176 C 
ATOM     25  C   UNL A   1      32.904  26.432  26.116  1.00  0.00     0.075 C 
ATOM     26  C   UNL A   1      30.839  25.164  25.572  1.00  0.00     0.075 C 
ENDBRANCH  21  24
ENDBRANCH   8  21
ENDBRANCH   6   8
ENDBRANCH   5   6
ENDBRANCH   4   5
ENDBRANCH   3   4
ENDBRANCH   2   3
ENDBRANCH   1   2
BRANCH   1  27
ATOM     27  C   UNL A   1      42.233  22.488  27.260  1.00  0.00     0.188 C 
BRANCH  27  28
ATOM     28  O   UNL A   1      42.539  22.910  25.952  1.00  0.00    -0.376 OA
BRANCH  28  29
ATOM     29  C   UNL A   1      43.705  23.709  25.842  1.00  0.00     0.202 C 
BRANCH  29  30
ATOM     30  C   UNL A   1      43.487  25.035  25.106  1.00  0.00     0.261 C 
BRANCH  30  31
ATOM     31  O   UNL A   1      43.077  26.087  26.000  1.00  0.00    -0.460 OA
BRANCH  31  32
ATOM     32  C   UNL A   1      42.835  27.308  25.431  1.00  0.00     0.338 C 
ATOM     33  O   UNL A   1      42.757  27.451  24.221  1.00  0.00    -0.246 OA
BRANCH  32  34
ATOM     34  C   UNL A   1      42.385  28.299  26.443  1.00  0.00     0.060 A 
ATOM     35  C   UNL A   1      43.116  29.073  27.358  1.00  0.00     0.016 A 
ATOM     36  C   UNL A   1      41.045  28.401  26.529  1.00  0.00     0.016 A 
ATOM     37  C   UNL A   1      42.501  29.850  28.437  1.00  0.00     0.010 A 
ATOM     38  C   UNL A   1      40.520  29.034  27.651  1.00  0.00     0.010 A 
ATOM     39  C   UNL A   1      41.133  29.777  28.732  1.00  0.00    -0.014 A 
BRANCH  39  40
ATOM     40  C   UNL A   1      40.386  30.357  30.231  1.00  0.00     0.031 A 
ATOM     41  C   UNL A   1      39.515  31.810  30.668  1.00  0.00     0.074 A 
ATOM     42  C   UNL A   1      40.430  29.576  31.342  1.00  0.00     0.049 A 
ATOM     43  N   UNL A   1      38.471  31.819  31.478  1.00  0.00    -0.248 NA
ATOM     44  C   UNL A   1      39.628  33.248  30.190  1.00  0.00     0.031 C 
ATOM     45  C   UNL A   1      39.407  29.521  32.395  1.00  0.00     0.029 A 
ATOM     46  N   UNL A   1      41.396  28.671  31.797  1.00  0.00    -0.354 N 
ATOM     47  C   UNL A   1      37.813  33.039  31.431  1.00  0.00     0.074 A 
ATOM     48  C   UNL A   1      38.529  33.892  30.566  1.00  0.00     0.031 C 
ATOM     49  C   UNL A   1      39.909  28.942  33.487  1.00  0.00     0.029 A 
ATOM     50  C   UNL A   1      41.303  28.720  33.214  1.00  0.00     0.049 A 
ATOM     51  H   UNL A   1      42.006  28.122  31.254  1.00  0.00     0.167 HD
ATOM     52  C   UNL A   1      36.830  33.439  32.269  1.00  0.00     0.037 A 
ATOM     53  C   UNL A   1      42.331  29.139  34.000  1.00  0.00     0.037 A 
ATOM     54  C   UNL A   1      37.130  32.960  33.586  1.00  0.00     0.049 A 
ATOM     55  C   UNL A   1      41.981  30.262  34.941  1.00  0.00     0.074 A 
ATOM     56  C   UNL A   1      36.770  31.846  34.307  1.00  0.00     0.029 A 
ATOM     57  N   UNL A   1      38.242  33.514  34.209  1.00  0.00    -0.354 N 
ATOM     58  N   UNL A   1      40.883  30.966  34.870  1.00  0.00    -0.248 NA
ATOM     59  C   UNL A   1      42.855  30.701  36.023  1.00  0.00     0.031 C 
ATOM     60  C   UNL A   1      37.794  31.636  35.274  1.00  0.00     0.029 A 
ATOM     61  C   UNL A   1      38.724  32.663  35.177  1.00  0.00     0.049 A 
ATOM     62  H   UNL A   1      38.631  34.392  33.988  1.00  0.00     0.167 HD
ATOM     63  C   UNL A   1      40.931  31.976  35.793  1.00  0.00     0.074 A 
ATOM     64  C   UNL A   1      42.163  31.739  36.520  1.00  0.00     0.031 C 
ATOM     65  C   UNL A   1      39.980  32.955  35.857  1.00  0.00     0.037 A 
BRANCH  52  66
ATOM     66  C   UNL A   1      35.680  34.321  31.844  1.00  0.00     0.064 A 
ATOM     67  C   UNL A   1      35.120  35.256  32.734  1.00  0.00     0.173 A 
ATOM     68  C   UNL A   1      34.960  34.139  30.635  1.00  0.00     0.173 A 
ATOM     69  F   UNL A   1      35.694  35.501  33.920  1.00  0.00    -0.203 F 
ATOM     70  C   UNL A   1      33.930  35.941  32.447  1.00  0.00     0.198 A 
ATOM     71  C   UNL A   1      33.794  34.852  30.335  1.00  0.00     0.198 A 
ATOM     72  F   UNL A   1      35.336  33.228  29.725  1.00  0.00    -0.203 F 
ATOM     73  F   UNL A   1      33.406  36.778  33.354  1.00  0.00    -0.200 F 
ATOM     74  C   UNL A   1      33.269  35.741  31.248  1.00  0.00     0.200 A 
ATOM     75  F   UNL A   1      33.165  34.643  29.168  1.00  0.00    -0.200 F 
ATOM     76  F   UNL A   1      32.123  36.384  30.984  1.00  0.00    -0.200 F 
ENDBRANCH  52  66
BRANCH  53  77
ATOM     77  C   UNL A   1      43.639  28.857  33.356  1.00  0.00     0.064 A 
ATOM     78  C   UNL A   1      44.041  27.503  33.349  1.00  0.00     0.173 A 
ATOM     79  C   UNL A   1      44.139  29.695  32.349  1.00  0.00     0.173 A 
ATOM     80  F   UNL A   1      43.566  26.662  34.284  1.00  0.00    -0.203 F 
ATOM     81  C   UNL A   1      44.745  26.971  32.277  1.00  0.00     0.198 A 
ATOM     82  C   UNL A   1      44.879  29.159  31.293  1.00  0.00     0.198 A 
ATOM     83  F   UNL A   1      43.800  30.991  32.319  1.00  0.00    -0.203 F 
ATOM     84  F   UNL A   1      44.934  25.646  32.195  1.00  0.00    -0.200 F 
ATOM     85  C   UNL A   1      45.139  27.793  31.236  1.00  0.00     0.200 A 
ATOM     86  F   UNL A   1      45.258  29.943  30.274  1.00  0.00    -0.200 F 
ATOM     87  F   UNL A   1      45.704  27.255  30.146  1.00  0.00    -0.200 F 
ENDBRANCH  53  77
BRANCH  65  88
ATOM     88  C   UNL A   1      40.163  34.252  36.610  1.00  0.00     0.064 A 
ATOM     89  C   UNL A   1      39.430  34.592  37.762  1.00  0.00     0.173 A 
ATOM     90  C   UNL A   1      41.190  35.157  36.258  1.00  0.00     0.173 A 
ATOM     91  F   UNL A   1      38.542  33.743  38.298  1.00  0.00    -0.203 F 
ATOM     92  C   UNL A   1      39.624  35.797  38.438  1.00  0.00     0.198 A 
ATOM     93  C   UNL A   1      41.428  36.330  36.976  1.00  0.00     0.198 A 
ATOM     94  F   UNL A   1      42.010  34.910  35.225  1.00  0.00    -0.203 F 
ATOM     95  F   UNL A   1      38.850  36.101  39.489  1.00  0.00    -0.200 F 
ATOM     96  C   UNL A   1      40.625  36.666  38.048  1.00  0.00     0.200 A 
ATOM     97  F   UNL A   1      42.450  37.125  36.633  1.00  0.00    -0.200 F 
ATOM     98  F   UNL A   1      40.831  37.807  38.717  1.00  0.00    -0.200 F 
ENDBRANCH  65  88
ENDBRANCH  39  40
ENDBRANCH  32  34
ENDBRANCH  31  32
ENDBRANCH  30  31
ENDBRANCH  29  30
ENDBRANCH  28  29
ENDBRANCH  27  28
ENDBRANCH   1  27
TORSDOF 21
ENDMDL
