MODEL 1
REMARK VINA RESULT:     -10.9      0.000      0.000
REMARK SMILES CC[C@@H]1CCCN1C(=O)N1CC[C@@H](C(=O)OCCOCCOCCOC(=O)c2ccc(-c3c4nc(c(-c5c(F)c(F)c(F)c(F)c5F)c5ccc([nH]5)c(-c5c(F)c(F)c(F)c(F)c5F)c5nc(c(-c6c(F)c(F)c(F)c(F)c6F)c6ccc3[nH]6)C=C5)C=C4)cc2)[C@@H]1C
REMARK SMILES IDX 20 1 19 2 18 3 17 4 16 5 14 6 15 7 13 8 10 9 11 10 91 11
REMARK SMILES IDX 12 12 92 13 8 14 9 15 7 16 3 17 4 18 5 19 6 20 2 21 1 22
REMARK SMILES IDX 21 23 22 24 23 25 24 26 25 27 26 28 27 29 28 30 29 31 90 32
REMARK SMILES IDX 30 33 89 34 31 35 32 36 33 37 83 38 34 39 88 40 82 41 84 42
REMARK SMILES IDX 35 43 87 44 81 45 80 46 36 48 68 49 48 50 67 51 49 52 52 53
REMARK SMILES IDX 66 54 85 55 50 56 51 57 65 59 86 60 53 61 37 62 38 63 46 64
REMARK SMILES IDX 39 65 40 66 44 67 47 68 41 69 42 70 45 71 43 72 69 73 70 74
REMARK SMILES IDX 78 75 71 76 72 77 76 78 79 79 73 80 74 81 77 82 75 83 54 84
REMARK SMILES IDX 55 85 63 86 56 87 57 88 61 89 64 90 58 91 59 92 62 93 60 94
REMARK H PARENT 84 47 52 58
REMARK Flexibility Score: inf
ROOT
ATOM      1  C   UNL A   1      38.716  21.963  26.187  1.00  0.00     0.188 C 
ENDROOT
BRANCH   1   2
ATOM      2  O   UNL A   1      38.348  21.391  24.936  1.00  0.00    -0.376 OA
BRANCH   2   3
ATOM      3  C   UNL A   1      37.414  20.324  24.900  1.00  0.00     0.202 C 
BRANCH   3   4
ATOM      4  C   UNL A   1      35.974  20.644  25.304  1.00  0.00     0.261 C 
BRANCH   4   5
ATOM      5  O   UNL A   1      35.366  21.733  24.587  1.00  0.00    -0.463 OA
BRANCH   5   6
ATOM      6  C   UNL A   1      34.051  21.999  24.808  1.00  0.00     0.311 C 
ATOM      7  O   UNL A   1      33.256  21.219  25.318  1.00  0.00    -0.252 OA
BRANCH   6   8
ATOM      8  C   UNL A   1      33.652  23.397  24.355  1.00  0.00     0.123 C 
ATOM      9  N   UNL A   1      32.603  25.341  25.198  1.00  0.00    -0.321 N 
ATOM     10  C   UNL A   1      33.993  25.475  25.565  1.00  0.00     0.122 C 
ATOM     11  C   UNL A   1      32.335  23.917  24.978  1.00  0.00     0.098 C 
ATOM     12  C   UNL A   1      34.702  24.492  24.654  1.00  0.00     0.039 C 
ATOM     13  C   UNL A   1      31.100  23.674  24.113  1.00  0.00     0.032 C 
BRANCH   9  14
ATOM     14  C   UNL A   1      31.675  26.180  25.755  1.00  0.00     0.320 C 
ATOM     15  O   UNL A   1      31.059  25.838  26.766  1.00  0.00    -0.248 OA
BRANCH  14  16
ATOM     16  N   UNL A   1      31.483  27.408  25.152  1.00  0.00    -0.322 N 
ATOM     17  C   UNL A   1      30.481  27.856  24.159  1.00  0.00     0.086 C 
ATOM     18  C   UNL A   1      30.984  29.273  23.834  1.00  0.00     0.027 C 
ATOM     19  C   UNL A   1      31.402  29.799  25.192  1.00  0.00     0.024 C 
ATOM     20  C   UNL A   1      31.997  28.574  25.873  1.00  0.00     0.122 C 
BRANCH  17  21
ATOM     21  C   UNL A   1      30.218  27.121  22.840  1.00  0.00     0.022 C 
ATOM     22  C   UNL A   1      31.487  26.763  22.082  1.00  0.00     0.006 C 
ENDBRANCH  17  21
ENDBRANCH  14  16
ENDBRANCH   9  14
ENDBRANCH   6   8
ENDBRANCH   5   6
ENDBRANCH   4   5
ENDBRANCH   3   4
ENDBRANCH   2   3
ENDBRANCH   1   2
BRANCH   1  23
ATOM     23  C   UNL A   1      40.045  21.557  26.853  1.00  0.00     0.188 C 
BRANCH  23  24
ATOM     24  O   UNL A   1      40.869  20.786  26.002  1.00  0.00    -0.376 OA
BRANCH  24  25
ATOM     25  C   UNL A   1      42.219  20.641  26.389  1.00  0.00     0.202 C 
BRANCH  25  26
ATOM     26  C   UNL A   1      43.225  21.495  25.606  1.00  0.00     0.261 C 
BRANCH  26  27
ATOM     27  O   UNL A   1      42.705  22.699  25.011  1.00  0.00    -0.460 OA
BRANCH  27  28
ATOM     28  C   UNL A   1      43.515  23.785  24.988  1.00  0.00     0.338 C 
ATOM     29  O   UNL A   1      44.474  23.960  24.270  1.00  0.00    -0.246 OA
BRANCH  28  30
ATOM     30  C   UNL A   1      42.939  24.809  25.903  1.00  0.00     0.060 A 
ATOM     31  C   UNL A   1      43.443  26.116  25.879  1.00  0.00     0.016 A 
ATOM     32  C   UNL A   1      41.910  24.475  26.785  1.00  0.00     0.016 A 
ATOM     33  C   UNL A   1      42.938  27.085  26.758  1.00  0.00     0.010 A 
ATOM     34  C   UNL A   1      41.420  25.438  27.677  1.00  0.00     0.010 A 
ATOM     35  C   UNL A   1      41.949  26.743  27.692  1.00  0.00    -0.014 A 
BRANCH  35  36
ATOM     36  C   UNL A   1      41.589  27.668  28.803  1.00  0.00     0.031 A 
ATOM     37  C   UNL A   1      42.378  27.594  30.083  1.00  0.00     0.074 A 
ATOM     38  C   UNL A   1      40.568  28.539  28.706  1.00  0.00     0.049 A 
ATOM     39  N   UNL A   1      42.175  28.196  31.229  1.00  0.00    -0.248 NA
ATOM     40  C   UNL A   1      43.555  26.713  30.066  1.00  0.00     0.031 C 
ATOM     41  C   UNL A   1      39.746  28.751  27.520  1.00  0.00     0.029 A 
ATOM     42  N   UNL A   1      40.035  29.394  29.645  1.00  0.00    -0.354 N 
ATOM     43  C   UNL A   1      43.183  27.747  32.073  1.00  0.00     0.074 A 
ATOM     44  C   UNL A   1      43.983  26.809  31.315  1.00  0.00     0.031 C 
ATOM     45  C   UNL A   1      38.795  29.659  27.806  1.00  0.00     0.029 A 
ATOM     46  C   UNL A   1      38.915  30.059  29.209  1.00  0.00     0.049 A 
ATOM     47  H   UNL A   1      40.420  29.517  30.543  1.00  0.00     0.167 HD
ATOM     48  C   UNL A   1      43.423  28.085  33.364  1.00  0.00     0.037 A 
ATOM     49  C   UNL A   1      38.062  30.867  29.875  1.00  0.00     0.037 A 
ATOM     50  C   UNL A   1      42.631  29.020  34.120  1.00  0.00     0.049 A 
ATOM     51  C   UNL A   1      38.305  31.176  31.333  1.00  0.00     0.074 A 
ATOM     52  C   UNL A   1      42.817  29.450  35.423  1.00  0.00     0.029 A 
ATOM     53  N   UNL A   1      41.494  29.659  33.648  1.00  0.00    -0.354 N 
ATOM     54  N   UNL A   1      39.272  30.771  32.119  1.00  0.00    -0.248 NA
ATOM     55  C   UNL A   1      37.333  32.059  31.997  1.00  0.00     0.031 C 
ATOM     56  C   UNL A   1      41.754  30.293  35.762  1.00  0.00     0.029 A 
ATOM     57  C   UNL A   1      40.947  30.451  34.647  1.00  0.00     0.049 A 
ATOM     58  H   UNL A   1      41.130  29.565  32.739  1.00  0.00     0.167 HD
ATOM     59  C   UNL A   1      39.044  31.368  33.354  1.00  0.00     0.074 A 
ATOM     60  C   UNL A   1      37.853  32.175  33.212  1.00  0.00     0.031 C 
ATOM     61  C   UNL A   1      39.762  31.258  34.500  1.00  0.00     0.037 A 
BRANCH  48  62
ATOM     62  C   UNL A   1      44.565  27.399  34.059  1.00  0.00     0.064 A 
ATOM     63  C   UNL A   1      44.451  26.101  34.579  1.00  0.00     0.173 A 
ATOM     64  C   UNL A   1      45.804  28.049  34.184  1.00  0.00     0.173 A 
ATOM     65  F   UNL A   1      43.288  25.439  34.495  1.00  0.00    -0.203 F 
ATOM     66  C   UNL A   1      45.523  25.495  35.232  1.00  0.00     0.198 A 
ATOM     67  C   UNL A   1      46.882  27.424  34.804  1.00  0.00     0.198 A 
ATOM     68  F   UNL A   1      45.973  29.286  33.697  1.00  0.00    -0.203 F 
ATOM     69  F   UNL A   1      45.372  24.277  35.773  1.00  0.00    -0.200 F 
ATOM     70  C   UNL A   1      46.738  26.153  35.338  1.00  0.00     0.200 A 
ATOM     71  F   UNL A   1      48.061  28.056  34.889  1.00  0.00    -0.200 F 
ATOM     72  F   UNL A   1      47.769  25.565  35.960  1.00  0.00    -0.200 F 
ENDBRANCH  48  62
BRANCH  49  73
ATOM     73  C   UNL A   1      36.870  31.424  29.176  1.00  0.00     0.064 A 
ATOM     74  C   UNL A   1      36.816  32.770  28.787  1.00  0.00     0.173 A 
ATOM     75  C   UNL A   1      35.749  30.624  28.906  1.00  0.00     0.173 A 
ATOM     76  F   UNL A   1      37.846  33.586  29.056  1.00  0.00    -0.203 F 
ATOM     77  C   UNL A   1      35.684  33.298  28.169  1.00  0.00     0.198 A 
ATOM     78  C   UNL A   1      34.631  31.144  28.257  1.00  0.00     0.198 A 
ATOM     79  F   UNL A   1      35.742  29.333  29.267  1.00  0.00    -0.203 F 
ATOM     80  F   UNL A   1      35.638  34.600  27.857  1.00  0.00    -0.200 F 
ATOM     81  C   UNL A   1      34.596  32.483  27.897  1.00  0.00     0.200 A 
ATOM     82  F   UNL A   1      33.584  30.351  27.990  1.00  0.00    -0.200 F 
ATOM     83  F   UNL A   1      33.509  32.988  27.299  1.00  0.00    -0.200 F 
ENDBRANCH  49  73
BRANCH  61  84
ATOM     84  C   UNL A   1      39.312  32.063  35.689  1.00  0.00     0.064 A 
ATOM     85  C   UNL A   1      39.713  33.394  35.881  1.00  0.00     0.173 A 
ATOM     86  C   UNL A   1      38.419  31.510  36.621  1.00  0.00     0.173 A 
ATOM     87  F   UNL A   1      40.574  33.970  35.029  1.00  0.00    -0.203 F 
ATOM     88  C   UNL A   1      39.259  34.130  36.974  1.00  0.00     0.198 A 
ATOM     89  C   UNL A   1      37.940  32.259  37.693  1.00  0.00     0.198 A 
ATOM     90  F   UNL A   1      37.994  30.245  36.483  1.00  0.00    -0.203 F 
ATOM     91  F   UNL A   1      39.694  35.383  37.163  1.00  0.00    -0.200 F 
ATOM     92  C   UNL A   1      38.366  33.565  37.873  1.00  0.00     0.200 A 
ATOM     93  F   UNL A   1      37.062  31.717  38.549  1.00  0.00    -0.200 F 
ATOM     94  F   UNL A   1      37.920  34.279  38.917  1.00  0.00    -0.200 F 
ENDBRANCH  61  84
ENDBRANCH  35  36
ENDBRANCH  28  30
ENDBRANCH  27  28
ENDBRANCH  26  27
ENDBRANCH  25  26
ENDBRANCH  24  25
ENDBRANCH  23  24
ENDBRANCH   1  23
TORSDOF 20
ENDMDL
MODEL 2
REMARK VINA RESULT:     -10.4      5.145      7.395
REMARK SMILES CC[C@@H]1CCCN1C(=O)N1CC[C@@H](C(=O)OCCOCCOCCOC(=O)c2ccc(-c3c4nc(c(-c5c(F)c(F)c(F)c(F)c5F)c5ccc([nH]5)c(-c5c(F)c(F)c(F)c(F)c5F)c5nc(c(-c6c(F)c(F)c(F)c(F)c6F)c6ccc3[nH]6)C=C5)C=C4)cc2)[C@@H]1C
REMARK SMILES IDX 20 1 19 2 18 3 17 4 16 5 14 6 15 7 13 8 10 9 11 10 91 11
REMARK SMILES IDX 12 12 92 13 8 14 9 15 7 16 3 17 4 18 5 19 6 20 2 21 1 22
REMARK SMILES IDX 21 23 22 24 23 25 24 26 25 27 26 28 27 29 28 30 29 31 90 32
REMARK SMILES IDX 30 33 89 34 31 35 32 36 33 37 83 38 34 39 88 40 82 41 84 42
REMARK SMILES IDX 35 43 87 44 81 45 80 46 36 48 68 49 48 50 67 51 49 52 52 53
REMARK SMILES IDX 66 54 85 55 50 56 51 57 65 59 86 60 53 61 37 62 38 63 46 64
REMARK SMILES IDX 39 65 40 66 44 67 47 68 41 69 42 70 45 71 43 72 69 73 70 74
REMARK SMILES IDX 78 75 71 76 72 77 76 78 79 79 73 80 74 81 77 82 75 83 54 84
REMARK SMILES IDX 55 85 63 86 56 87 57 88 61 89 64 90 58 91 59 92 62 93 60 94
REMARK H PARENT 84 47 52 58
REMARK Flexibility Score: inf
ROOT
ATOM      1  C   UNL A   1      39.069  21.959  26.060  1.00  0.00     0.188 C 
ENDROOT
BRANCH   1   2
ATOM      2  O   UNL A   1      38.274  21.023  25.339  1.00  0.00    -0.376 OA
BRANCH   2   3
ATOM      3  C   UNL A   1      37.059  21.447  24.743  1.00  0.00     0.202 C 
BRANCH   3   4
ATOM      4  C   UNL A   1      35.765  20.850  25.299  1.00  0.00     0.261 C 
BRANCH   4   5
ATOM      5  O   UNL A   1      34.586  21.112  24.517  1.00  0.00    -0.463 OA
BRANCH   5   6
ATOM      6  C   UNL A   1      33.443  20.443  24.825  1.00  0.00     0.311 C 
ATOM      7  O   UNL A   1      33.395  19.401  25.466  1.00  0.00    -0.252 OA
BRANCH   6   8
ATOM      8  C   UNL A   1      32.198  21.134  24.288  1.00  0.00     0.123 C 
ATOM      9  N   UNL A   1      31.382  23.310  23.851  1.00  0.00    -0.321 N 
ATOM     10  C   UNL A   1      32.114  22.937  22.663  1.00  0.00     0.122 C 
ATOM     11  C   UNL A   1      31.884  22.493  24.959  1.00  0.00     0.098 C 
ATOM     12  C   UNL A   1      32.230  21.430  22.771  1.00  0.00     0.039 C 
ATOM     13  C   UNL A   1      30.896  22.400  26.120  1.00  0.00     0.032 C 
BRANCH   9  14
ATOM     14  C   UNL A   1      30.995  24.613  24.023  1.00  0.00     0.320 C 
ATOM     15  O   UNL A   1      30.012  25.051  23.424  1.00  0.00    -0.248 OA
BRANCH  14  16
ATOM     16  N   UNL A   1      31.733  25.385  24.899  1.00  0.00    -0.322 N 
ATOM     17  C   UNL A   1      33.062  26.020  24.751  1.00  0.00     0.086 C 
ATOM     18  C   UNL A   1      33.302  26.564  26.170  1.00  0.00     0.027 C 
ATOM     19  C   UNL A   1      31.938  27.097  26.558  1.00  0.00     0.024 C 
ATOM     20  C   UNL A   1      30.979  26.090  25.938  1.00  0.00     0.122 C 
BRANCH  17  21
ATOM     21  C   UNL A   1      34.313  25.255  24.308  1.00  0.00     0.022 C 
ATOM     22  C   UNL A   1      35.013  24.524  25.444  1.00  0.00     0.006 C 
ENDBRANCH  17  21
ENDBRANCH  14  16
ENDBRANCH   9  14
ENDBRANCH   6   8
ENDBRANCH   5   6
ENDBRANCH   4   5
ENDBRANCH   3   4
ENDBRANCH   2   3
ENDBRANCH   1   2
BRANCH   1  23
ATOM     23  C   UNL A   1      40.414  21.515  26.665  1.00  0.00     0.188 C 
BRANCH  23  24
ATOM     24  O   UNL A   1      40.655  20.131  26.504  1.00  0.00    -0.376 OA
BRANCH  24  25
ATOM     25  C   UNL A   1      41.878  19.638  27.009  1.00  0.00     0.202 C 
BRANCH  25  26
ATOM     26  C   UNL A   1      42.692  18.774  26.036  1.00  0.00     0.261 C 
BRANCH  26  27
ATOM     27  O   UNL A   1      43.030  19.386  24.777  1.00  0.00    -0.460 OA
BRANCH  27  28
ATOM     28  C   UNL A   1      44.345  19.549  24.495  1.00  0.00     0.338 C 
ATOM     29  O   UNL A   1      45.081  18.744  23.969  1.00  0.00    -0.246 OA
BRANCH  28  30
ATOM     30  C   UNL A   1      44.713  20.957  24.810  1.00  0.00     0.060 A 
ATOM     31  C   UNL A   1      45.248  21.265  26.068  1.00  0.00     0.016 A 
ATOM     32  C   UNL A   1      44.523  21.969  23.867  1.00  0.00     0.016 A 
ATOM     33  C   UNL A   1      45.565  22.591  26.396  1.00  0.00     0.010 A 
ATOM     34  C   UNL A   1      44.822  23.296  24.203  1.00  0.00     0.010 A 
ATOM     35  C   UNL A   1      45.319  23.622  25.480  1.00  0.00    -0.014 A 
BRANCH  35  36
ATOM     36  C   UNL A   1      45.395  25.052  25.893  1.00  0.00     0.031 A 
ATOM     37  C   UNL A   1      46.731  25.743  25.844  1.00  0.00     0.074 A 
ATOM     38  C   UNL A   1      44.318  25.728  26.333  1.00  0.00     0.049 A 
ATOM     39  N   UNL A   1      47.077  26.932  26.272  1.00  0.00    -0.248 NA
ATOM     40  C   UNL A   1      47.830  24.982  25.232  1.00  0.00     0.031 C 
ATOM     41  C   UNL A   1      42.958  25.205  26.395  1.00  0.00     0.029 A 
ATOM     42  N   UNL A   1      44.213  27.005  26.838  1.00  0.00    -0.354 N 
ATOM     43  C   UNL A   1      48.435  27.049  26.003  1.00  0.00     0.074 A 
ATOM     44  C   UNL A   1      48.854  25.805  25.394  1.00  0.00     0.031 C 
ATOM     45  C   UNL A   1      42.155  26.143  26.931  1.00  0.00     0.029 A 
ATOM     46  C   UNL A   1      42.954  27.315  27.290  1.00  0.00     0.049 A 
ATOM     47  H   UNL A   1      44.968  27.636  26.871  1.00  0.00     0.167 HD
ATOM     48  C   UNL A   1      49.260  28.099  26.241  1.00  0.00     0.037 A 
ATOM     49  C   UNL A   1      42.505  28.403  27.952  1.00  0.00     0.037 A 
ATOM     50  C   UNL A   1      48.845  29.339  26.843  1.00  0.00     0.049 A 
ATOM     51  C   UNL A   1      43.455  29.532  28.272  1.00  0.00     0.074 A 
ATOM     52  C   UNL A   1      49.603  30.471  27.094  1.00  0.00     0.029 A 
ATOM     53  N   UNL A   1      47.565  29.607  27.304  1.00  0.00    -0.354 N 
ATOM     54  N   UNL A   1      44.730  29.649  27.994  1.00  0.00    -0.248 NA
ATOM     55  C   UNL A   1      42.900  30.684  29.001  1.00  0.00     0.031 C 
ATOM     56  C   UNL A   1      48.800  31.395  27.769  1.00  0.00     0.029 A 
ATOM     57  C   UNL A   1      47.521  30.872  27.872  1.00  0.00     0.049 A 
ATOM     58  H   UNL A   1      46.801  28.991  27.238  1.00  0.00     0.167 HD
ATOM     59  C   UNL A   1      45.121  30.891  28.483  1.00  0.00     0.074 A 
ATOM     60  C   UNL A   1      43.945  31.498  29.066  1.00  0.00     0.031 C 
ATOM     61  C   UNL A   1      46.345  31.475  28.447  1.00  0.00     0.037 A 
BRANCH  48  62
ATOM     62  C   UNL A   1      50.711  27.931  25.892  1.00  0.00     0.064 A 
ATOM     63  C   UNL A   1      51.189  28.105  24.584  1.00  0.00     0.173 A 
ATOM     64  C   UNL A   1      51.644  27.612  26.892  1.00  0.00     0.173 A 
ATOM     65  F   UNL A   1      50.339  28.402  23.588  1.00  0.00    -0.203 F 
ATOM     66  C   UNL A   1      52.538  27.929  24.284  1.00  0.00     0.198 A 
ATOM     67  C   UNL A   1      52.997  27.474  26.595  1.00  0.00     0.198 A 
ATOM     68  F   UNL A   1      51.246  27.443  28.161  1.00  0.00    -0.203 F 
ATOM     69  F   UNL A   1      52.961  28.043  23.017  1.00  0.00    -0.200 F 
ATOM     70  C   UNL A   1      53.441  27.621  25.289  1.00  0.00     0.200 A 
ATOM     71  F   UNL A   1      53.870  27.193  27.571  1.00  0.00    -0.200 F 
ATOM     72  F   UNL A   1      54.739  27.458  25.000  1.00  0.00    -0.200 F 
ENDBRANCH  48  62
BRANCH  49  73
ATOM     73  C   UNL A   1      41.083  28.470  28.391  1.00  0.00     0.064 A 
ATOM     74  C   UNL A   1      40.086  28.991  27.555  1.00  0.00     0.173 A 
ATOM     75  C   UNL A   1      40.697  28.034  29.668  1.00  0.00     0.173 A 
ATOM     76  F   UNL A   1      40.408  29.455  26.338  1.00  0.00    -0.203 F 
ATOM     77  C   UNL A   1      38.763  29.089  27.982  1.00  0.00     0.198 A 
ATOM     78  C   UNL A   1      39.369  28.101  30.083  1.00  0.00     0.198 A 
ATOM     79  F   UNL A   1      41.612  27.539  30.514  1.00  0.00    -0.203 F 
ATOM     80  F   UNL A   1      37.840  29.641  27.183  1.00  0.00    -0.200 F 
ATOM     81  C   UNL A   1      38.404  28.636  29.243  1.00  0.00     0.200 A 
ATOM     82  F   UNL A   1      39.024  27.655  31.299  1.00  0.00    -0.200 F 
ATOM     83  F   UNL A   1      37.131  28.725  29.653  1.00  0.00    -0.200 F 
ENDBRANCH  49  73
BRANCH  61  84
ATOM     84  C   UNL A   1      46.477  32.863  29.014  1.00  0.00     0.064 A 
ATOM     85  C   UNL A   1      46.846  33.089  30.349  1.00  0.00     0.173 A 
ATOM     86  C   UNL A   1      46.286  33.985  28.191  1.00  0.00     0.173 A 
ATOM     87  F   UNL A   1      47.030  32.055  31.183  1.00  0.00    -0.203 F 
ATOM     88  C   UNL A   1      46.991  34.383  30.844  1.00  0.00     0.198 A 
ATOM     89  C   UNL A   1      46.467  35.276  28.680  1.00  0.00     0.198 A 
ATOM     90  F   UNL A   1      45.942  33.829  26.903  1.00  0.00    -0.203 F 
ATOM     91  F   UNL A   1      47.297  34.575  32.134  1.00  0.00    -0.200 F 
ATOM     92  C   UNL A   1      46.811  35.475  30.007  1.00  0.00     0.200 A 
ATOM     93  F   UNL A   1      46.311  36.329  27.864  1.00  0.00    -0.200 F 
ATOM     94  F   UNL A   1      46.964  36.719  30.482  1.00  0.00    -0.200 F 
ENDBRANCH  61  84
ENDBRANCH  35  36
ENDBRANCH  28  30
ENDBRANCH  27  28
ENDBRANCH  26  27
ENDBRANCH  25  26
ENDBRANCH  24  25
ENDBRANCH  23  24
ENDBRANCH   1  23
TORSDOF 20
ENDMDL
MODEL 3
REMARK VINA RESULT:     -10.4      3.269      8.687
REMARK SMILES CC[C@@H]1CCCN1C(=O)N1CC[C@@H](C(=O)OCCOCCOCCOC(=O)c2ccc(-c3c4nc(c(-c5c(F)c(F)c(F)c(F)c5F)c5ccc([nH]5)c(-c5c(F)c(F)c(F)c(F)c5F)c5nc(c(-c6c(F)c(F)c(F)c(F)c6F)c6ccc3[nH]6)C=C5)C=C4)cc2)[C@@H]1C
REMARK SMILES IDX 20 1 19 2 18 3 17 4 16 5 14 6 15 7 13 8 10 9 11 10 91 11
REMARK SMILES IDX 12 12 92 13 8 14 9 15 7 16 3 17 4 18 5 19 6 20 2 21 1 22
REMARK SMILES IDX 21 23 22 24 23 25 24 26 25 27 26 28 27 29 28 30 29 31 90 32
REMARK SMILES IDX 30 33 89 34 31 35 32 36 33 37 83 38 34 39 88 40 82 41 84 42
REMARK SMILES IDX 35 43 87 44 81 45 80 46 36 48 68 49 48 50 67 51 49 52 52 53
REMARK SMILES IDX 66 54 85 55 50 56 51 57 65 59 86 60 53 61 37 62 38 63 46 64
REMARK SMILES IDX 39 65 40 66 44 67 47 68 41 69 42 70 45 71 43 72 69 73 70 74
REMARK SMILES IDX 78 75 71 76 72 77 76 78 79 79 73 80 74 81 77 82 75 83 54 84
REMARK SMILES IDX 55 85 63 86 56 87 57 88 61 89 64 90 58 91 59 92 62 93 60 94
REMARK H PARENT 84 47 52 58
REMARK Flexibility Score: inf
ROOT
ATOM      1  C   UNL A   1      29.851  28.814  23.571  1.00  0.00     0.188 C 
ENDROOT
BRANCH   1   2
ATOM      2  O   UNL A   1      30.761  28.277  22.616  1.00  0.00    -0.376 OA
BRANCH   2   3
ATOM      3  C   UNL A   1      32.091  28.765  22.564  1.00  0.00     0.202 C 
BRANCH   3   4
ATOM      4  C   UNL A   1      33.130  28.054  23.434  1.00  0.00     0.261 C 
BRANCH   4   5
ATOM      5  O   UNL A   1      34.033  27.188  22.722  1.00  0.00    -0.463 OA
BRANCH   5   6
ATOM      6  C   UNL A   1      33.534  26.055  22.160  1.00  0.00     0.311 C 
ATOM      7  O   UNL A   1      33.265  25.925  20.973  1.00  0.00    -0.252 OA
BRANCH   6   8
ATOM      8  C   UNL A   1      33.345  24.934  23.172  1.00  0.00     0.123 C 
ATOM      9  N   UNL A   1      32.966  22.602  23.239  1.00  0.00    -0.321 N 
ATOM     10  C   UNL A   1      34.399  22.746  23.141  1.00  0.00     0.122 C 
ATOM     11  C   UNL A   1      32.357  23.831  22.724  1.00  0.00     0.098 C 
ATOM     12  C   UNL A   1      34.643  24.185  23.551  1.00  0.00     0.039 C 
ATOM     13  C   UNL A   1      30.928  24.037  23.222  1.00  0.00     0.032 C 
BRANCH   9  14
ATOM     14  C   UNL A   1      32.397  21.370  23.044  1.00  0.00     0.320 C 
ATOM     15  O   UNL A   1      31.819  21.116  21.986  1.00  0.00    -0.248 OA
BRANCH  14  16
ATOM     16  N   UNL A   1      32.522  20.443  24.061  1.00  0.00    -0.322 N 
ATOM     17  C   UNL A   1      33.164  19.110  24.086  1.00  0.00     0.086 C 
ATOM     18  C   UNL A   1      32.765  18.604  25.483  1.00  0.00     0.027 C 
ATOM     19  C   UNL A   1      32.917  19.842  26.343  1.00  0.00     0.024 C 
ATOM     20  C   UNL A   1      32.446  20.964  25.427  1.00  0.00     0.122 C 
BRANCH  17  21
ATOM     21  C   UNL A   1      32.854  18.010  23.066  1.00  0.00     0.022 C 
ATOM     22  C   UNL A   1      33.892  16.897  23.039  1.00  0.00     0.006 C 
ENDBRANCH  17  21
ENDBRANCH  14  16
ENDBRANCH   9  14
ENDBRANCH   6   8
ENDBRANCH   5   6
ENDBRANCH   4   5
ENDBRANCH   3   4
ENDBRANCH   2   3
ENDBRANCH   1   2
BRANCH   1  23
ATOM     23  C   UNL A   1      29.388  30.279  23.449  1.00  0.00     0.188 C 
BRANCH  23  24
ATOM     24  O   UNL A   1      29.952  31.114  24.440  1.00  0.00    -0.376 OA
BRANCH  24  25
ATOM     25  C   UNL A   1      30.952  30.543  25.255  1.00  0.00     0.202 C 
BRANCH  25  26
ATOM     26  C   UNL A   1      31.416  31.410  26.434  1.00  0.00     0.261 C 
BRANCH  26  27
ATOM     27  O   UNL A   1      32.786  31.238  26.845  1.00  0.00    -0.460 OA
BRANCH  27  28
ATOM     28  C   UNL A   1      33.405  32.300  27.415  1.00  0.00     0.338 C 
ATOM     29  O   UNL A   1      32.948  33.411  27.566  1.00  0.00    -0.246 OA
BRANCH  28  30
ATOM     30  C   UNL A   1      34.706  31.834  27.966  1.00  0.00     0.060 A 
ATOM     31  C   UNL A   1      34.851  30.496  28.355  1.00  0.00     0.016 A 
ATOM     32  C   UNL A   1      35.778  32.719  28.103  1.00  0.00     0.016 A 
ATOM     33  C   UNL A   1      36.058  30.047  28.911  1.00  0.00     0.010 A 
ATOM     34  C   UNL A   1      36.977  32.274  28.676  1.00  0.00     0.010 A 
ATOM     35  C   UNL A   1      37.118  30.942  29.111  1.00  0.00    -0.014 A 
BRANCH  35  36
ATOM     36  C   UNL A   1      38.300  30.561  29.933  1.00  0.00     0.031 A 
ATOM     37  C   UNL A   1      39.280  29.570  29.365  1.00  0.00     0.074 A 
ATOM     38  C   UNL A   1      38.500  31.052  31.171  1.00  0.00     0.049 A 
ATOM     39  N   UNL A   1      40.307  28.985  29.933  1.00  0.00    -0.248 NA
ATOM     40  C   UNL A   1      39.065  29.179  27.964  1.00  0.00     0.031 C 
ATOM     41  C   UNL A   1      37.664  32.047  31.832  1.00  0.00     0.029 A 
ATOM     42  N   UNL A   1      39.468  30.751  32.103  1.00  0.00    -0.354 N 
ATOM     43  C   UNL A   1      40.842  28.143  28.966  1.00  0.00     0.074 A 
ATOM     44  C   UNL A   1      40.017  28.277  27.785  1.00  0.00     0.031 C 
ATOM     45  C   UNL A   1      38.138  32.259  33.073  1.00  0.00     0.029 A 
ATOM     46  C   UNL A   1      39.285  31.382  33.309  1.00  0.00     0.049 A 
ATOM     47  H   UNL A   1      40.221  30.141  31.921  1.00  0.00     0.167 HD
ATOM     48  C   UNL A   1      41.924  27.331  29.053  1.00  0.00     0.037 A 
ATOM     49  C   UNL A   1      39.943  31.241  34.479  1.00  0.00     0.037 A 
ATOM     50  C   UNL A   1      42.750  27.199  30.226  1.00  0.00     0.049 A 
ATOM     51  C   UNL A   1      41.103  30.279  34.577  1.00  0.00     0.074 A 
ATOM     52  C   UNL A   1      43.886  26.426  30.396  1.00  0.00     0.029 A 
ATOM     53  N   UNL A   1      42.520  27.842  31.433  1.00  0.00    -0.354 N 
ATOM     54  N   UNL A   1      41.621  29.504  33.655  1.00  0.00    -0.248 NA
ATOM     55  C   UNL A   1      41.770  30.171  35.884  1.00  0.00     0.031 C 
ATOM     56  C   UNL A   1      44.302  26.546  31.726  1.00  0.00     0.029 A 
ATOM     57  C   UNL A   1      43.472  27.454  32.364  1.00  0.00     0.049 A 
ATOM     58  H   UNL A   1      41.790  28.479  31.603  1.00  0.00     0.167 HD
ATOM     59  C   UNL A   1      42.687  28.844  34.257  1.00  0.00     0.074 A 
ATOM     60  C   UNL A   1      42.750  29.317  35.623  1.00  0.00     0.031 C 
ATOM     61  C   UNL A   1      43.536  27.931  33.723  1.00  0.00     0.037 A 
BRANCH  48  62
ATOM     62  C   UNL A   1      42.251  26.483  27.857  1.00  0.00     0.064 A 
ATOM     63  C   UNL A   1      41.612  25.257  27.614  1.00  0.00     0.173 A 
ATOM     64  C   UNL A   1      43.207  26.918  26.925  1.00  0.00     0.173 A 
ATOM     65  F   UNL A   1      40.697  24.790  28.477  1.00  0.00    -0.203 F 
ATOM     66  C   UNL A   1      41.944  24.483  26.504  1.00  0.00     0.198 A 
ATOM     67  C   UNL A   1      43.509  26.159  25.798  1.00  0.00     0.198 A 
ATOM     68  F   UNL A   1      43.842  28.085  27.102  1.00  0.00    -0.203 F 
ATOM     69  F   UNL A   1      41.363  23.289  26.325  1.00  0.00    -0.200 F 
ATOM     70  C   UNL A   1      42.887  24.937  25.594  1.00  0.00     0.200 A 
ATOM     71  F   UNL A   1      44.408  26.608  24.911  1.00  0.00    -0.200 F 
ATOM     72  F   UNL A   1      43.201  24.194  24.525  1.00  0.00    -0.200 F 
ENDBRANCH  48  62
BRANCH  49  73
ATOM     73  C   UNL A   1      39.503  32.012  35.675  1.00  0.00     0.064 A 
ATOM     74  C   UNL A   1      38.513  31.518  36.536  1.00  0.00     0.173 A 
ATOM     75  C   UNL A   1      40.048  33.272  35.967  1.00  0.00     0.173 A 
ATOM     76  F   UNL A   1      37.933  30.336  36.281  1.00  0.00    -0.203 F 
ATOM     77  C   UNL A   1      38.074  32.259  37.632  1.00  0.00     0.198 A 
ATOM     78  C   UNL A   1      39.634  33.997  37.083  1.00  0.00     0.198 A 
ATOM     79  F   UNL A   1      40.989  33.798  35.170  1.00  0.00    -0.203 F 
ATOM     80  F   UNL A   1      37.089  31.787  38.407  1.00  0.00    -0.200 F 
ATOM     81  C   UNL A   1      38.641  33.494  37.910  1.00  0.00     0.200 A 
ATOM     82  F   UNL A   1      40.189  35.186  37.351  1.00  0.00    -0.200 F 
ATOM     83  F   UNL A   1      38.223  34.204  38.966  1.00  0.00    -0.200 F 
ENDBRANCH  49  73
BRANCH  61  84
ATOM     84  C   UNL A   1      44.644  27.408  34.597  1.00  0.00     0.064 A 
ATOM     85  C   UNL A   1      44.501  26.238  35.358  1.00  0.00     0.173 A 
ATOM     86  C   UNL A   1      45.888  28.059  34.628  1.00  0.00     0.173 A 
ATOM     87  F   UNL A   1      43.332  25.582  35.375  1.00  0.00    -0.203 F 
ATOM     88  C   UNL A   1      45.551  25.755  36.136  1.00  0.00     0.198 A 
ATOM     89  C   UNL A   1      46.946  27.555  35.380  1.00  0.00     0.198 A 
ATOM     90  F   UNL A   1      46.085  29.177  33.913  1.00  0.00    -0.203 F 
ATOM     91  F   UNL A   1      45.376  24.663  36.892  1.00  0.00    -0.200 F 
ATOM     92  C   UNL A   1      46.775  26.409  36.139  1.00  0.00     0.200 A 
ATOM     93  F   UNL A   1      48.134  28.177  35.365  1.00  0.00    -0.200 F 
ATOM     94  F   UNL A   1      47.788  25.936  36.879  1.00  0.00    -0.200 F 
ENDBRANCH  61  84
ENDBRANCH  35  36
ENDBRANCH  28  30
ENDBRANCH  27  28
ENDBRANCH  26  27
ENDBRANCH  25  26
ENDBRANCH  24  25
ENDBRANCH  23  24
ENDBRANCH   1  23
TORSDOF 20
ENDMDL
