MODEL 1
REMARK VINA RESULT:     -11.2      0.000      0.000
REMARK SMILES C[C@H](C(=O)OCCOCCOCCOC(=O)c1ccc(-c2c3nc(c(-c4c(F)c(F)c(F)c(F)c4F)c4ccc([nH]4)c(-c4c(F)c(F)c(F)c(F)c4F)c4nc(c(-c5c(F)c(F)c(F)c(F)c5F)c5ccc2[nH]5)C=C4)C=C3)cc1)c1ccc2c3cc(Cl)ccc3n(C(=O)c3cocn3)c2c1
REMARK SMILES IDX 9 1 8 2 7 3 6 4 5 5 3 6 4 7 2 8 1 9 80 10 81 11 100 12 82 13
REMARK SMILES IDX 99 14 83 15 91 16 84 17 90 18 85 19 89 20 86 21 88 22 87 23
REMARK SMILES IDX 92 24 93 25 94 26 95 27 98 28 96 29 97 30 10 31 11 32 12 33
REMARK SMILES IDX 13 34 14 35 15 36 16 37 17 38 18 39 79 40 19 41 78 42 20 43
REMARK SMILES IDX 21 44 22 45 72 46 23 47 77 48 71 49 73 50 24 51 76 52 70 53
REMARK SMILES IDX 69 54 25 56 57 57 37 58 56 59 38 60 41 61 55 62 74 63 39 64
REMARK SMILES IDX 40 65 54 67 75 68 42 69 26 70 27 71 35 72 28 73 29 74 33 75
REMARK SMILES IDX 36 76 30 77 31 78 34 79 32 80 58 81 59 82 67 83 60 84 61 85
REMARK SMILES IDX 65 86 68 87 62 88 63 89 66 90 64 91 43 92 44 93 52 94 45 95
REMARK SMILES IDX 46 96 50 97 53 98 47 99 48 100 51 101 49 102
REMARK H PARENT 73 55 41 66
REMARK Flexibility Score: inf
ROOT
ATOM      1  C   UNL A   1      33.904  31.521  27.813  1.00  0.00     0.188 C 
ENDROOT
BRANCH   1   2
ATOM      2  O   UNL A   1      34.654  30.566  27.060  1.00  0.00    -0.376 OA
BRANCH   2   3
ATOM      3  C   UNL A   1      34.750  29.244  27.572  1.00  0.00     0.202 C 
BRANCH   3   4
ATOM      4  C   UNL A   1      33.966  28.189  26.789  1.00  0.00     0.261 C 
BRANCH   4   5
ATOM      5  O   UNL A   1      33.458  28.687  25.534  1.00  0.00    -0.463 OA
BRANCH   5   6
ATOM      6  C   UNL A   1      32.383  28.024  25.039  1.00  0.00     0.313 C 
ATOM      7  O   UNL A   1      31.329  27.877  25.656  1.00  0.00    -0.252 OA
BRANCH   6   8
ATOM      8  C   UNL A   1      32.575  27.435  23.644  1.00  0.00     0.126 C 
ATOM      9  C   UNL A   1      33.813  28.111  23.030  1.00  0.00     0.025 C 
BRANCH   8  10
ATOM     10  C   UNL A   1      32.590  25.911  23.484  1.00  0.00    -0.032 A 
ATOM     11  C   UNL A   1      31.651  25.230  22.706  1.00  0.00     0.005 A 
ATOM     12  C   UNL A   1      33.496  25.150  24.255  1.00  0.00     0.032 A 
ATOM     13  C   UNL A   1      31.616  23.831  22.670  1.00  0.00     0.011 A 
ATOM     14  C   UNL A   1      33.420  23.733  24.256  1.00  0.00     0.058 A 
ATOM     15  C   UNL A   1      32.536  23.074  23.412  1.00  0.00     0.008 A 
ATOM     16  N   UNL A   1      34.085  22.757  25.025  1.00  0.00    -0.274 N 
ATOM     17  C   UNL A   1      32.780  21.680  23.516  1.00  0.00     0.009 A 
ATOM     18  C   UNL A   1      33.677  21.486  24.575  1.00  0.00     0.057 A 
ATOM     19  C   UNL A   1      32.257  20.569  22.817  1.00  0.00     0.031 A 
ATOM     20  C   UNL A   1      33.938  20.174  25.030  1.00  0.00     0.029 A 
ATOM     21  C   UNL A   1      32.601  19.280  23.216  1.00  0.00     0.041 A 
ATOM     22  C   UNL A   1      33.411  19.084  24.323  1.00  0.00     0.023 A 
ATOM     23  Cl  UNL A   1      31.984  17.927  22.350  1.00  0.00    -0.084 Cl
BRANCH  16  24
ATOM     24  C   UNL A   1      34.953  23.067  26.111  1.00  0.00     0.284 C 
ATOM     25  O   UNL A   1      34.403  23.435  27.149  1.00  0.00    -0.266 OA
BRANCH  24  26
ATOM     26  C   UNL A   1      36.409  22.991  26.079  1.00  0.00     0.167 A 
ATOM     27  C   UNL A   1      37.216  21.953  25.666  1.00  0.00     0.231 A 
ATOM     28  N   UNL A   1      37.215  24.085  26.366  1.00  0.00    -0.211 NA
ATOM     29  O   UNL A   1      38.515  22.366  25.722  1.00  0.00    -0.451 OA
ATOM     30  C   UNL A   1      38.433  23.659  26.134  1.00  0.00     0.308 A 
ENDBRANCH  24  26
ENDBRANCH  16  24
ENDBRANCH   8  10
ENDBRANCH   6   8
ENDBRANCH   5   6
ENDBRANCH   4   5
ENDBRANCH   3   4
ENDBRANCH   2   3
ENDBRANCH   1   2
BRANCH   1  31
ATOM     31  C   UNL A   1      34.613  32.351  28.894  1.00  0.00     0.188 C 
BRANCH  31  32
ATOM     32  O   UNL A   1      34.636  33.732  28.537  1.00  0.00    -0.376 OA
BRANCH  32  33
ATOM     33  C   UNL A   1      33.345  34.313  28.387  1.00  0.00     0.202 C 
BRANCH  33  34
ATOM     34  C   UNL A   1      33.188  35.448  29.402  1.00  0.00     0.261 C 
BRANCH  34  35
ATOM     35  O   UNL A   1      32.405  35.084  30.557  1.00  0.00    -0.460 OA
BRANCH  35  36
ATOM     36  C   UNL A   1      32.718  35.730  31.699  1.00  0.00     0.338 C 
ATOM     37  O   UNL A   1      32.134  36.677  32.195  1.00  0.00    -0.246 OA
BRANCH  36  38
ATOM     38  C   UNL A   1      33.810  35.009  32.379  1.00  0.00     0.060 A 
ATOM     39  C   UNL A   1      35.065  35.620  32.405  1.00  0.00     0.016 A 
ATOM     40  C   UNL A   1      33.640  33.737  32.920  1.00  0.00     0.016 A 
ATOM     41  C   UNL A   1      36.175  34.955  32.919  1.00  0.00     0.010 A 
ATOM     42  C   UNL A   1      34.751  33.060  33.433  1.00  0.00     0.010 A 
ATOM     43  C   UNL A   1      36.030  33.652  33.405  1.00  0.00    -0.014 A 
BRANCH  43  44
ATOM     44  C   UNL A   1      37.231  32.844  33.725  1.00  0.00     0.031 A 
ATOM     45  C   UNL A   1      37.945  33.098  35.022  1.00  0.00     0.074 A 
ATOM     46  C   UNL A   1      37.671  31.886  32.891  1.00  0.00     0.049 A 
ATOM     47  N   UNL A   1      39.082  32.616  35.456  1.00  0.00    -0.248 NA
ATOM     48  C   UNL A   1      37.284  34.021  35.959  1.00  0.00     0.031 C 
ATOM     49  C   UNL A   1      37.028  31.488  31.643  1.00  0.00     0.029 A 
ATOM     50  N   UNL A   1      38.781  31.081  32.973  1.00  0.00    -0.354 N 
ATOM     51  C   UNL A   1      39.282  33.192  36.702  1.00  0.00     0.074 A 
ATOM     52  C   UNL A   1      38.156  34.065  36.955  1.00  0.00     0.031 C 
ATOM     53  C   UNL A   1      37.767  30.526  31.061  1.00  0.00     0.029 A 
ATOM     54  C   UNL A   1      38.955  30.275  31.875  1.00  0.00     0.049 A 
ATOM     55  H   UNL A   1      39.393  31.082  33.744  1.00  0.00     0.167 HD
ATOM     56  C   UNL A   1      40.313  33.009  37.560  1.00  0.00     0.037 A 
ATOM     57  C   UNL A   1      39.978  29.460  31.550  1.00  0.00     0.037 A 
ATOM     58  C   UNL A   1      41.432  32.138  37.314  1.00  0.00     0.049 A 
ATOM     59  C   UNL A   1      41.155  29.336  32.482  1.00  0.00     0.074 A 
ATOM     60  C   UNL A   1      42.533  31.898  38.116  1.00  0.00     0.029 A 
ATOM     61  N   UNL A   1      41.587  31.362  36.176  1.00  0.00    -0.354 N 
ATOM     62  N   UNL A   1      41.356  29.906  33.645  1.00  0.00    -0.248 NA
ATOM     63  C   UNL A   1      42.255  28.461  32.048  1.00  0.00     0.031 C 
ATOM     64  C   UNL A   1      43.373  31.002  37.446  1.00  0.00     0.029 A 
ATOM     65  C   UNL A   1      42.774  30.653  36.246  1.00  0.00     0.049 A 
ATOM     66  H   UNL A   1      40.948  31.320  35.428  1.00  0.00     0.167 HD
ATOM     67  C   UNL A   1      42.588  29.444  34.091  1.00  0.00     0.074 A 
ATOM     68  C   UNL A   1      43.086  28.536  33.078  1.00  0.00     0.031 C 
ATOM     69  C   UNL A   1      43.249  29.745  35.235  1.00  0.00     0.037 A 
BRANCH  56  70
ATOM     70  C   UNL A   1      40.296  33.800  38.832  1.00  0.00     0.064 A 
ATOM     71  C   UNL A   1      39.658  33.322  39.986  1.00  0.00     0.173 A 
ATOM     72  C   UNL A   1      40.943  35.042  38.902  1.00  0.00     0.173 A 
ATOM     73  F   UNL A   1      39.010  32.148  39.962  1.00  0.00    -0.203 F 
ATOM     74  C   UNL A   1      39.651  34.071  41.160  1.00  0.00     0.198 A 
ATOM     75  C   UNL A   1      40.954  35.778  40.084  1.00  0.00     0.198 A 
ATOM     76  F   UNL A   1      41.566  35.542  37.825  1.00  0.00    -0.203 F 
ATOM     77  F   UNL A   1      39.000  33.617  42.239  1.00  0.00    -0.200 F 
ATOM     78  C   UNL A   1      40.303  35.295  41.209  1.00  0.00     0.200 A 
ATOM     79  F   UNL A   1      41.590  36.956  40.132  1.00  0.00    -0.200 F 
ATOM     80  F   UNL A   1      40.298  36.013  42.340  1.00  0.00    -0.200 F 
ENDBRANCH  56  70
BRANCH  57  81
ATOM     81  C   UNL A   1      39.959  28.724  30.260  1.00  0.00     0.064 A 
ATOM     82  C   UNL A   1      39.387  27.449  30.163  1.00  0.00     0.173 A 
ATOM     83  C   UNL A   1      40.540  29.269  29.105  1.00  0.00     0.173 A 
ATOM     84  F   UNL A   1      38.848  26.874  31.249  1.00  0.00    -0.203 F 
ATOM     85  C   UNL A   1      39.410  26.739  28.964  1.00  0.00     0.198 A 
ATOM     86  C   UNL A   1      40.541  28.570  27.901  1.00  0.00     0.198 A 
ATOM     87  F   UNL A   1      41.109  30.482  29.148  1.00  0.00    -0.203 F 
ATOM     88  F   UNL A   1      38.900  25.501  28.912  1.00  0.00    -0.200 F 
ATOM     89  C   UNL A   1      39.983  27.301  27.834  1.00  0.00     0.200 A 
ATOM     90  F   UNL A   1      41.090  29.119  26.809  1.00  0.00    -0.200 F 
ATOM     91  F   UNL A   1      40.008  26.618  26.682  1.00  0.00    -0.200 F 
ENDBRANCH  57  81
BRANCH  69  92
ATOM     92  C   UNL A   1      44.565  29.065  35.473  1.00  0.00     0.064 A 
ATOM     93  C   UNL A   1      45.769  29.612  35.008  1.00  0.00     0.173 A 
ATOM     94  C   UNL A   1      44.625  27.878  36.221  1.00  0.00     0.173 A 
ATOM     95  F   UNL A   1      45.762  30.737  34.278  1.00  0.00    -0.203 F 
ATOM     96  C   UNL A   1      46.986  28.985  35.266  1.00  0.00     0.198 A 
ATOM     97  C   UNL A   1      45.846  27.268  36.497  1.00  0.00     0.198 A 
ATOM     98  F   UNL A   1      43.502  27.320  36.693  1.00  0.00    -0.203 F 
ATOM     99  F   UNL A   1      48.122  29.505  34.781  1.00  0.00    -0.200 F 
ATOM    100  C   UNL A   1      47.023  27.818  36.016  1.00  0.00     0.200 A 
ATOM    101  F   UNL A   1      45.881  26.147  37.231  1.00  0.00    -0.200 F 
ATOM    102  F   UNL A   1      48.196  27.222  36.269  1.00  0.00    -0.200 F 
ENDBRANCH  69  92
ENDBRANCH  43  44
ENDBRANCH  36  38
ENDBRANCH  35  36
ENDBRANCH  34  35
ENDBRANCH  33  34
ENDBRANCH  32  33
ENDBRANCH  31  32
ENDBRANCH   1  31
TORSDOF 20
ENDMDL
MODEL 2
REMARK VINA RESULT:     -10.9      6.436     11.670
REMARK SMILES C[C@H](C(=O)OCCOCCOCCOC(=O)c1ccc(-c2c3nc(c(-c4c(F)c(F)c(F)c(F)c4F)c4ccc([nH]4)c(-c4c(F)c(F)c(F)c(F)c4F)c4nc(c(-c5c(F)c(F)c(F)c(F)c5F)c5ccc2[nH]5)C=C4)C=C3)cc1)c1ccc2c3cc(Cl)ccc3n(C(=O)c3cocn3)c2c1
REMARK SMILES IDX 9 1 8 2 7 3 6 4 5 5 3 6 4 7 2 8 1 9 80 10 81 11 100 12 82 13
REMARK SMILES IDX 99 14 83 15 91 16 84 17 90 18 85 19 89 20 86 21 88 22 87 23
REMARK SMILES IDX 92 24 93 25 94 26 95 27 98 28 96 29 97 30 10 31 11 32 12 33
REMARK SMILES IDX 13 34 14 35 15 36 16 37 17 38 18 39 79 40 19 41 78 42 20 43
REMARK SMILES IDX 21 44 22 45 72 46 23 47 77 48 71 49 73 50 24 51 76 52 70 53
REMARK SMILES IDX 69 54 25 56 57 57 37 58 56 59 38 60 41 61 55 62 74 63 39 64
REMARK SMILES IDX 40 65 54 67 75 68 42 69 26 70 27 71 35 72 28 73 29 74 33 75
REMARK SMILES IDX 36 76 30 77 31 78 34 79 32 80 58 81 59 82 67 83 60 84 61 85
REMARK SMILES IDX 65 86 68 87 62 88 63 89 66 90 64 91 43 92 44 93 52 94 45 95
REMARK SMILES IDX 46 96 50 97 53 98 47 99 48 100 51 101 49 102
REMARK H PARENT 73 55 41 66
REMARK Flexibility Score: inf
ROOT
ATOM      1  C   UNL A   1      39.141  21.575  25.754  1.00  0.00     0.188 C 
ENDROOT
BRANCH   1   2
ATOM      2  O   UNL A   1      38.083  20.747  25.268  1.00  0.00    -0.376 OA
BRANCH   2   3
ATOM      3  C   UNL A   1      36.782  21.312  25.180  1.00  0.00     0.202 C 
BRANCH   3   4
ATOM      4  C   UNL A   1      35.635  20.302  25.197  1.00  0.00     0.261 C 
BRANCH   4   5
ATOM      5  O   UNL A   1      34.605  20.610  24.235  1.00  0.00    -0.463 OA
BRANCH   5   6
ATOM      6  C   UNL A   1      33.630  21.446  24.675  1.00  0.00     0.313 C 
ATOM      7  O   UNL A   1      32.983  21.256  25.703  1.00  0.00    -0.252 OA
BRANCH   6   8
ATOM      8  C   UNL A   1      33.363  22.651  23.779  1.00  0.00     0.126 C 
ATOM      9  C   UNL A   1      31.992  22.434  23.117  1.00  0.00     0.025 C 
BRANCH   8  10
ATOM     10  C   UNL A   1      33.521  24.057  24.370  1.00  0.00    -0.032 A 
ATOM     11  C   UNL A   1      34.534  24.380  25.277  1.00  0.00     0.005 A 
ATOM     12  C   UNL A   1      32.531  25.028  24.101  1.00  0.00     0.032 A 
ATOM     13  C   UNL A   1      34.585  25.637  25.890  1.00  0.00     0.011 A 
ATOM     14  C   UNL A   1      32.559  26.281  24.766  1.00  0.00     0.058 A 
ATOM     15  C   UNL A   1      33.619  26.614  25.599  1.00  0.00     0.008 A 
ATOM     16  N   UNL A   1      31.640  27.349  24.797  1.00  0.00    -0.274 N 
ATOM     17  C   UNL A   1      33.458  27.965  26.003  1.00  0.00     0.009 A 
ATOM     18  C   UNL A   1      32.192  28.386  25.575  1.00  0.00     0.057 A 
ATOM     19  C   UNL A   1      34.281  28.838  26.750  1.00  0.00     0.031 A 
ATOM     20  C   UNL A   1      31.689  29.629  26.019  1.00  0.00     0.029 A 
ATOM     21  C   UNL A   1      33.808  30.100  27.098  1.00  0.00     0.041 A 
ATOM     22  C   UNL A   1      32.520  30.482  26.759  1.00  0.00     0.023 A 
ATOM     23  Cl  UNL A   1      34.818  31.173  27.986  1.00  0.00    -0.084 Cl
BRANCH  16  24
ATOM     24  C   UNL A   1      30.353  27.298  24.188  1.00  0.00     0.284 C 
ATOM     25  O   UNL A   1      29.651  26.335  24.497  1.00  0.00    -0.266 OA
BRANCH  24  26
ATOM     26  C   UNL A   1      29.826  28.275  23.242  1.00  0.00     0.167 A 
ATOM     27  C   UNL A   1      30.488  28.973  22.255  1.00  0.00     0.231 A 
ATOM     28  N   UNL A   1      28.468  28.545  23.134  1.00  0.00    -0.211 NA
ATOM     29  O   UNL A   1      29.574  29.702  21.553  1.00  0.00    -0.451 OA
ATOM     30  C   UNL A   1      28.384  29.381  22.127  1.00  0.00     0.308 A 
ENDBRANCH  24  26
ENDBRANCH  16  24
ENDBRANCH   8  10
ENDBRANCH   6   8
ENDBRANCH   5   6
ENDBRANCH   4   5
ENDBRANCH   3   4
ENDBRANCH   2   3
ENDBRANCH   1   2
BRANCH   1  31
ATOM     31  C   UNL A   1      40.302  20.936  26.529  1.00  0.00     0.188 C 
BRANCH  31  32
ATOM     32  O   UNL A   1      40.855  19.841  25.799  1.00  0.00    -0.376 OA
BRANCH  32  33
ATOM     33  C   UNL A   1      41.609  18.935  26.596  1.00  0.00     0.202 C 
BRANCH  33  34
ATOM     34  C   UNL A   1      42.898  18.572  25.854  1.00  0.00     0.261 C 
BRANCH  34  35
ATOM     35  O   UNL A   1      43.095  19.324  24.640  1.00  0.00    -0.460 OA
BRANCH  35  36
ATOM     36  C   UNL A   1      44.317  19.877  24.490  1.00  0.00     0.338 C 
ATOM     37  O   UNL A   1      45.252  19.436  23.847  1.00  0.00    -0.246 OA
BRANCH  36  38
ATOM     38  C   UNL A   1      44.318  21.219  25.102  1.00  0.00     0.060 A 
ATOM     39  C   UNL A   1      44.186  22.314  24.248  1.00  0.00     0.016 A 
ATOM     40  C   UNL A   1      44.512  21.415  26.468  1.00  0.00     0.016 A 
ATOM     41  C   UNL A   1      44.298  23.616  24.730  1.00  0.00     0.010 A 
ATOM     42  C   UNL A   1      44.632  22.720  26.958  1.00  0.00     0.010 A 
ATOM     43  C   UNL A   1      44.559  23.825  26.087  1.00  0.00    -0.014 A 
BRANCH  43  44
ATOM     44  C   UNL A   1      44.923  25.179  26.571  1.00  0.00     0.031 A 
ATOM     45  C   UNL A   1      43.843  26.056  27.138  1.00  0.00     0.074 A 
ATOM     46  C   UNL A   1      46.193  25.617  26.528  1.00  0.00     0.049 A 
ATOM     47  N   UNL A   1      43.894  27.313  27.496  1.00  0.00    -0.248 NA
ATOM     48  C   UNL A   1      42.527  25.426  27.328  1.00  0.00     0.031 C 
ATOM     49  C   UNL A   1      47.343  24.841  26.075  1.00  0.00     0.029 A 
ATOM     50  N   UNL A   1      46.720  26.841  26.864  1.00  0.00    -0.354 N 
ATOM     51  C   UNL A   1      42.615  27.631  27.932  1.00  0.00     0.074 A 
ATOM     52  C   UNL A   1      41.807  26.439  27.788  1.00  0.00     0.031 C 
ATOM     53  C   UNL A   1      48.442  25.614  26.140  1.00  0.00     0.029 A 
ATOM     54  C   UNL A   1      48.062  26.950  26.597  1.00  0.00     0.049 A 
ATOM     55  H   UNL A   1      46.187  27.568  27.257  1.00  0.00     0.167 HD
ATOM     56  C   UNL A   1      42.156  28.811  28.411  1.00  0.00     0.037 A 
ATOM     57  C   UNL A   1      48.878  28.019  26.675  1.00  0.00     0.037 A 
ATOM     58  C   UNL A   1      42.958  29.996  28.560  1.00  0.00     0.049 A 
ATOM     59  C   UNL A   1      48.326  29.345  27.132  1.00  0.00     0.074 A 
ATOM     60  C   UNL A   1      42.578  31.244  29.021  1.00  0.00     0.029 A 
ATOM     61  N   UNL A   1      44.307  30.076  28.250  1.00  0.00    -0.354 N 
ATOM     62  N   UNL A   1      47.110  29.649  27.515  1.00  0.00    -0.248 NA
ATOM     63  C   UNL A   1      49.261  30.480  27.157  1.00  0.00     0.031 C 
ATOM     64  C   UNL A   1      43.692  32.089  28.957  1.00  0.00     0.029 A 
ATOM     65  C   UNL A   1      44.773  31.356  28.495  1.00  0.00     0.049 A 
ATOM     66  H   UNL A   1      44.853  29.332  27.906  1.00  0.00     0.167 HD
ATOM     67  C   UNL A   1      47.137  30.999  27.846  1.00  0.00     0.074 A 
ATOM     68  C   UNL A   1      48.495  31.454  27.630  1.00  0.00     0.031 C 
ATOM     69  C   UNL A   1      46.129  31.790  28.286  1.00  0.00     0.037 A 
BRANCH  56  70
ATOM     70  C   UNL A   1      40.704  28.886  28.772  1.00  0.00     0.064 A 
ATOM     71  C   UNL A   1      39.723  29.179  27.815  1.00  0.00     0.173 A 
ATOM     72  C   UNL A   1      40.289  28.643  30.090  1.00  0.00     0.173 A 
ATOM     73  F   UNL A   1      40.073  29.438  26.546  1.00  0.00    -0.203 F 
ATOM     74  C   UNL A   1      38.378  29.246  28.169  1.00  0.00     0.198 A 
ATOM     75  C   UNL A   1      38.942  28.688  30.435  1.00  0.00     0.198 A 
ATOM     76  F   UNL A   1      41.191  28.360  31.041  1.00  0.00    -0.203 F 
ATOM     77  F   UNL A   1      37.459  29.570  27.248  1.00  0.00    -0.200 F 
ATOM     78  C   UNL A   1      37.988  28.996  29.477  1.00  0.00     0.200 A 
ATOM     79  F   UNL A   1      38.567  28.439  31.697  1.00  0.00    -0.200 F 
ATOM     80  F   UNL A   1      36.693  29.059  29.816  1.00  0.00    -0.200 F 
ENDBRANCH  56  70
BRANCH  57  81
ATOM     81  C   UNL A   1      50.303  27.897  26.273  1.00  0.00     0.064 A 
ATOM     82  C   UNL A   1      50.675  27.892  24.922  1.00  0.00     0.173 A 
ATOM     83  C   UNL A   1      51.317  27.753  27.231  1.00  0.00     0.173 A 
ATOM     84  F   UNL A   1      49.736  27.994  23.970  1.00  0.00    -0.203 F 
ATOM     85  C   UNL A   1      52.007  27.730  24.544  1.00  0.00     0.198 A 
ATOM     86  C   UNL A   1      52.651  27.617  26.853  1.00  0.00     0.198 A 
ATOM     87  F   UNL A   1      51.011  27.742  28.536  1.00  0.00    -0.203 F 
ATOM     88  F   UNL A   1      52.329  27.678  23.244  1.00  0.00    -0.200 F 
ATOM     89  C   UNL A   1      52.993  27.598  25.509  1.00  0.00     0.200 A 
ATOM     90  F   UNL A   1      53.602  27.495  27.789  1.00  0.00    -0.200 F 
ATOM     91  F   UNL A   1      54.273  27.440  25.145  1.00  0.00    -0.200 F 
ENDBRANCH  57  81
BRANCH  69  92
ATOM     92  C   UNL A   1      46.459  33.220  28.599  1.00  0.00     0.064 A 
ATOM     93  C   UNL A   1      46.317  34.232  27.639  1.00  0.00     0.173 A 
ATOM     94  C   UNL A   1      46.872  33.587  29.889  1.00  0.00     0.173 A 
ATOM     95  F   UNL A   1      45.938  33.929  26.389  1.00  0.00    -0.203 F 
ATOM     96  C   UNL A   1      46.596  35.560  27.955  1.00  0.00     0.198 A 
ATOM     97  C   UNL A   1      47.126  34.918  30.207  1.00  0.00     0.198 A 
ATOM     98  F   UNL A   1      47.016  32.655  30.843  1.00  0.00    -0.203 F 
ATOM     99  F   UNL A   1      46.489  36.508  27.013  1.00  0.00    -0.200 F 
ATOM    100  C   UNL A   1      46.992  35.902  29.240  1.00  0.00     0.200 A 
ATOM    101  F   UNL A   1      47.498  35.248  31.452  1.00  0.00    -0.200 F 
ATOM    102  F   UNL A   1      47.252  37.181  29.543  1.00  0.00    -0.200 F 
ENDBRANCH  69  92
ENDBRANCH  43  44
ENDBRANCH  36  38
ENDBRANCH  35  36
ENDBRANCH  34  35
ENDBRANCH  33  34
ENDBRANCH  32  33
ENDBRANCH  31  32
ENDBRANCH   1  31
TORSDOF 20
ENDMDL
MODEL 3
REMARK VINA RESULT:     -10.8      3.670      9.108
REMARK SMILES C[C@H](C(=O)OCCOCCOCCOC(=O)c1ccc(-c2c3nc(c(-c4c(F)c(F)c(F)c(F)c4F)c4ccc([nH]4)c(-c4c(F)c(F)c(F)c(F)c4F)c4nc(c(-c5c(F)c(F)c(F)c(F)c5F)c5ccc2[nH]5)C=C4)C=C3)cc1)c1ccc2c3cc(Cl)ccc3n(C(=O)c3cocn3)c2c1
REMARK SMILES IDX 9 1 8 2 7 3 6 4 5 5 3 6 4 7 2 8 1 9 80 10 81 11 100 12 82 13
REMARK SMILES IDX 99 14 83 15 91 16 84 17 90 18 85 19 89 20 86 21 88 22 87 23
REMARK SMILES IDX 92 24 93 25 94 26 95 27 98 28 96 29 97 30 10 31 11 32 12 33
REMARK SMILES IDX 13 34 14 35 15 36 16 37 17 38 18 39 79 40 19 41 78 42 20 43
REMARK SMILES IDX 21 44 22 45 72 46 23 47 77 48 71 49 73 50 24 51 76 52 70 53
REMARK SMILES IDX 69 54 25 56 57 57 37 58 56 59 38 60 41 61 55 62 74 63 39 64
REMARK SMILES IDX 40 65 54 67 75 68 42 69 26 70 27 71 35 72 28 73 29 74 33 75
REMARK SMILES IDX 36 76 30 77 31 78 34 79 32 80 58 81 59 82 67 83 60 84 61 85
REMARK SMILES IDX 65 86 68 87 62 88 63 89 66 90 64 91 43 92 44 93 52 94 45 95
REMARK SMILES IDX 46 96 50 97 53 98 47 99 48 100 51 101 49 102
REMARK H PARENT 73 55 41 66
REMARK Flexibility Score: inf
ROOT
ATOM      1  C   UNL A   1      39.302  21.799  26.221  1.00  0.00     0.188 C 
ENDROOT
BRANCH   1   2
ATOM      2  O   UNL A   1      38.212  21.601  25.318  1.00  0.00    -0.376 OA
BRANCH   2   3
ATOM      3  C   UNL A   1      37.116  22.502  25.393  1.00  0.00     0.202 C 
BRANCH   3   4
ATOM      4  C   UNL A   1      35.743  21.872  25.156  1.00  0.00     0.261 C 
BRANCH   4   5
ATOM      5  O   UNL A   1      34.675  22.600  25.796  1.00  0.00    -0.463 OA
BRANCH   5   6
ATOM      6  C   UNL A   1      33.435  22.376  25.292  1.00  0.00     0.313 C 
ATOM      7  O   UNL A   1      33.225  21.759  24.249  1.00  0.00    -0.252 OA
BRANCH   6   8
ATOM      8  C   UNL A   1      32.291  22.972  26.107  1.00  0.00     0.126 C 
ATOM      9  C   UNL A   1      32.754  23.025  27.573  1.00  0.00     0.025 C 
BRANCH   8  10
ATOM     10  C   UNL A   1      31.660  24.287  25.636  1.00  0.00    -0.032 A 
ATOM     11  C   UNL A   1      30.417  24.729  26.098  1.00  0.00     0.005 A 
ATOM     12  C   UNL A   1      32.283  25.014  24.599  1.00  0.00     0.032 A 
ATOM     13  C   UNL A   1      29.811  25.872  25.566  1.00  0.00     0.011 A 
ATOM     14  C   UNL A   1      31.638  26.141  24.027  1.00  0.00     0.058 A 
ATOM     15  C   UNL A   1      30.445  26.614  24.556  1.00  0.00     0.008 A 
ATOM     16  N   UNL A   1      31.957  26.940  22.911  1.00  0.00    -0.274 N 
ATOM     17  C   UNL A   1      30.112  27.822  23.890  1.00  0.00     0.009 A 
ATOM     18  C   UNL A   1      31.003  27.973  22.819  1.00  0.00     0.057 A 
ATOM     19  C   UNL A   1      29.082  28.767  24.093  1.00  0.00     0.031 A 
ATOM     20  C   UNL A   1      30.774  28.990  21.865  1.00  0.00     0.029 A 
ATOM     21  C   UNL A   1      28.928  29.822  23.198  1.00  0.00     0.041 A 
ATOM     22  C   UNL A   1      29.747  29.919  22.084  1.00  0.00     0.023 A 
ATOM     23  Cl  UNL A   1      27.688  30.987  23.459  1.00  0.00    -0.084 Cl
BRANCH  16  24
ATOM     24  C   UNL A   1      33.031  26.656  22.019  1.00  0.00     0.284 C 
ATOM     25  O   UNL A   1      33.928  27.498  21.972  1.00  0.00    -0.266 OA
BRANCH  24  26
ATOM     26  C   UNL A   1      33.136  25.473  21.172  1.00  0.00     0.167 A 
ATOM     27  C   UNL A   1      33.375  24.165  21.533  1.00  0.00     0.231 A 
ATOM     28  N   UNL A   1      32.862  25.509  19.811  1.00  0.00    -0.211 NA
ATOM     29  O   UNL A   1      33.291  23.385  20.416  1.00  0.00    -0.451 OA
ATOM     30  C   UNL A   1      32.964  24.260  19.427  1.00  0.00     0.308 A 
ENDBRANCH  24  26
ENDBRANCH  16  24
ENDBRANCH   8  10
ENDBRANCH   6   8
ENDBRANCH   5   6
ENDBRANCH   4   5
ENDBRANCH   3   4
ENDBRANCH   2   3
ENDBRANCH   1   2
BRANCH   1  31
ATOM     31  C   UNL A   1      40.284  20.646  26.480  1.00  0.00     0.188 C 
BRANCH  31  32
ATOM     32  O   UNL A   1      41.581  21.149  26.796  1.00  0.00    -0.376 OA
BRANCH  32  33
ATOM     33  C   UNL A   1      42.639  20.505  26.095  1.00  0.00     0.202 C 
BRANCH  33  34
ATOM     34  C   UNL A   1      43.480  21.564  25.378  1.00  0.00     0.261 C 
BRANCH  34  35
ATOM     35  O   UNL A   1      42.748  22.766  25.065  1.00  0.00    -0.460 OA
BRANCH  35  36
ATOM     36  C   UNL A   1      43.466  23.908  25.091  1.00  0.00     0.338 C 
ATOM     37  O   UNL A   1      44.436  24.185  24.410  1.00  0.00    -0.246 OA
BRANCH  36  38
ATOM     38  C   UNL A   1      42.796  24.879  25.977  1.00  0.00     0.060 A 
ATOM     39  C   UNL A   1      43.297  26.181  25.998  1.00  0.00     0.016 A 
ATOM     40  C   UNL A   1      41.747  24.519  26.820  1.00  0.00     0.016 A 
ATOM     41  C   UNL A   1      42.801  27.125  26.893  1.00  0.00     0.010 A 
ATOM     42  C   UNL A   1      41.248  25.460  27.727  1.00  0.00     0.010 A 
ATOM     43  C   UNL A   1      41.794  26.757  27.790  1.00  0.00    -0.014 A 
BRANCH  43  44
ATOM     44  C   UNL A   1      41.428  27.665  28.904  1.00  0.00     0.031 A 
ATOM     45  C   UNL A   1      42.241  27.620  30.167  1.00  0.00     0.074 A 
ATOM     46  C   UNL A   1      40.404  28.529  28.794  1.00  0.00     0.049 A 
ATOM     47  N   UNL A   1      42.033  28.215  31.313  1.00  0.00    -0.248 NA
ATOM     48  C   UNL A   1      43.457  26.792  30.128  1.00  0.00     0.031 C 
ATOM     49  C   UNL A   1      39.586  28.726  27.601  1.00  0.00     0.029 A 
ATOM     50  N   UNL A   1      39.873  29.397  29.717  1.00  0.00    -0.354 N 
ATOM     51  C   UNL A   1      43.077  27.817  32.137  1.00  0.00     0.074 A 
ATOM     52  C   UNL A   1      43.913  26.924  31.365  1.00  0.00     0.031 C 
ATOM     53  C   UNL A   1      38.639  29.643  27.870  1.00  0.00     0.029 A 
ATOM     54  C   UNL A   1      38.760  30.061  29.266  1.00  0.00     0.049 A 
ATOM     55  H   UNL A   1      40.253  29.528  30.615  1.00  0.00     0.167 HD
ATOM     56  C   UNL A   1      43.316  28.165  33.423  1.00  0.00     0.037 A 
ATOM     57  C   UNL A   1      37.914  30.881  29.920  1.00  0.00     0.037 A 
ATOM     58  C   UNL A   1      42.489  29.057  34.192  1.00  0.00     0.049 A 
ATOM     59  C   UNL A   1      38.154  31.189  31.376  1.00  0.00     0.074 A 
ATOM     60  C   UNL A   1      42.641  29.458  35.507  1.00  0.00     0.029 A 
ATOM     61  N   UNL A   1      41.352  29.687  33.709  1.00  0.00    -0.354 N 
ATOM     62  N   UNL A   1      39.124  30.787  32.160  1.00  0.00    -0.248 NA
ATOM     63  C   UNL A   1      37.171  32.060  32.040  1.00  0.00     0.031 C 
ATOM     64  C   UNL A   1      41.575  30.305  35.831  1.00  0.00     0.029 A 
ATOM     65  C   UNL A   1      40.783  30.462  34.705  1.00  0.00     0.049 A 
ATOM     66  H   UNL A   1      41.001  29.596  32.793  1.00  0.00     0.167 HD
ATOM     67  C   UNL A   1      38.883  31.369  33.398  1.00  0.00     0.074 A 
ATOM     68  C   UNL A   1      37.680  32.164  33.260  1.00  0.00     0.031 C 
ATOM     69  C   UNL A   1      39.593  31.255  34.547  1.00  0.00     0.037 A 
BRANCH  56  70
ATOM     70  C   UNL A   1      44.506  27.547  34.092  1.00  0.00     0.064 A 
ATOM     71  C   UNL A   1      44.394  26.371  34.848  1.00  0.00     0.173 A 
ATOM     72  C   UNL A   1      45.775  28.127  33.956  1.00  0.00     0.173 A 
ATOM     73  F   UNL A   1      43.198  25.790  35.021  1.00  0.00    -0.203 F 
ATOM     74  C   UNL A   1      45.510  25.810  35.463  1.00  0.00     0.198 A 
ATOM     75  C   UNL A   1      46.892  27.551  34.553  1.00  0.00     0.198 A 
ATOM     76  F   UNL A   1      45.931  29.252  33.244  1.00  0.00    -0.203 F 
ATOM     77  F   UNL A   1      45.377  24.711  36.218  1.00  0.00    -0.200 F 
ATOM     78  C   UNL A   1      46.758  26.397  35.312  1.00  0.00     0.200 A 
ATOM     79  F   UNL A   1      48.098  28.115  34.400  1.00  0.00    -0.200 F 
ATOM     80  F   UNL A   1      47.832  25.855  35.903  1.00  0.00    -0.200 F 
ENDBRANCH  56  70
BRANCH  57  81
ATOM     81  C   UNL A   1      36.731  31.442  29.218  1.00  0.00     0.064 A 
ATOM     82  C   UNL A   1      35.643  30.629  28.872  1.00  0.00     0.173 A 
ATOM     83  C   UNL A   1      36.678  32.794  28.852  1.00  0.00     0.173 A 
ATOM     84  F   UNL A   1      35.663  29.322  29.172  1.00  0.00    -0.203 F 
ATOM     85  C   UNL A   1      34.554  31.145  28.172  1.00  0.00     0.198 A 
ATOM     86  C   UNL A   1      35.579  33.316  28.175  1.00  0.00     0.198 A 
ATOM     87  F   UNL A   1      37.699  33.611  29.152  1.00  0.00    -0.203 F 
ATOM     88  F   UNL A   1      33.550  30.335  27.809  1.00  0.00    -0.200 F 
ATOM     89  C   UNL A   1      34.521  32.488  27.828  1.00  0.00     0.200 A 
ATOM     90  F   UNL A   1      35.548  34.615  27.850  1.00  0.00    -0.200 F 
ATOM     91  F   UNL A   1      33.475  32.983  27.153  1.00  0.00    -0.200 F 
ENDBRANCH  57  81
BRANCH  69  92
ATOM     92  C   UNL A   1      39.110  32.031  35.738  1.00  0.00     0.064 A 
ATOM     93  C   UNL A   1      38.286  31.447  36.710  1.00  0.00     0.173 A 
ATOM     94  C   UNL A   1      39.521  33.359  35.932  1.00  0.00     0.173 A 
ATOM     95  F   UNL A   1      37.856  30.185  36.561  1.00  0.00    -0.203 F 
ATOM     96  C   UNL A   1      37.874  32.171  37.826  1.00  0.00     0.198 A 
ATOM     97  C   UNL A   1      39.128  34.071  37.062  1.00  0.00     0.198 A 
ATOM     98  F   UNL A   1      40.316  33.959  35.034  1.00  0.00    -0.203 F 
ATOM     99  F   UNL A   1      37.057  31.606  38.725  1.00  0.00    -0.200 F 
ATOM    100  C   UNL A   1      38.301  33.480  38.004  1.00  0.00     0.200 A 
ATOM    101  F   UNL A   1      39.550  35.331  37.238  1.00  0.00    -0.200 F 
ATOM    102  F   UNL A   1      37.910  34.171  39.084  1.00  0.00    -0.200 F 
ENDBRANCH  69  92
ENDBRANCH  43  44
ENDBRANCH  36  38
ENDBRANCH  35  36
ENDBRANCH  34  35
ENDBRANCH  33  34
ENDBRANCH  32  33
ENDBRANCH  31  32
ENDBRANCH   1  31
TORSDOF 20
ENDMDL
