MODEL 1
REMARK VINA RESULT:     -10.8      0.000      0.000
REMARK SMILES O=C(OCCOCCOCCOC(=O)[C@H](c1c[nH]c2cc(F)ccc12)[NH+]1CC[NH+](CC(=O)N2CCOCC2)CC1)c1ccc(-c2c3nc(c(-c4c(F)c(F)c(F)c(F)c4F)c4ccc([nH]4)c(-c4c(F)c(F)c(F)c(F)c4F)c4nc(c(-c5c(F)c(F)c(F)c(F)c5F)c5ccc2[nH]5)C=C4)C=C3)cc1
REMARK SMILES IDX 8 1 7 2 6 3 5 4 4 5 3 6 2 7 1 8 41 9 42 10 103 11 43 12
REMARK SMILES IDX 102 13 44 14 45 15 46 16 96 17 47 18 101 19 95 20 97 21
REMARK SMILES IDX 48 22 100 23 94 24 93 25 49 27 81 28 61 29 80 30 62 31 65 32
REMARK SMILES IDX 79 33 98 34 63 35 64 36 78 38 99 39 66 40 50 41 51 42 59 43
REMARK SMILES IDX 52 44 53 45 57 46 60 47 54 48 55 49 58 50 56 51 82 52 83 53
REMARK SMILES IDX 91 54 84 55 85 56 89 57 92 58 86 59 87 60 90 61 88 62 67 63
REMARK SMILES IDX 68 64 76 65 69 66 70 67 74 68 77 69 71 70 72 71 75 72 73 73
REMARK SMILES IDX 9 74 10 75 11 76 12 77 13 78 14 79 15 80 26 81 27 82 40 83
REMARK SMILES IDX 28 85 39 86 29 87 30 89 31 90 32 91 33 92 34 93 38 94 35 95
REMARK SMILES IDX 37 96 36 97 16 98 17 99 25 100 18 101 19 102 24 103 20 105
REMARK SMILES IDX 23 106 21 107 22 108
REMARK H PARENT 97 26 65 37 26 84 29 88 18 104
REMARK Flexibility Score: inf
ROOT
ATOM      1  C   UNL A   1      34.044  32.172  27.675  1.00  0.00     0.188 C 
ENDROOT
BRANCH   1   2
ATOM      2  C   UNL A   1      34.320  33.093  28.872  1.00  0.00     0.188 C 
BRANCH   2   3
ATOM      3  O   UNL A   1      34.844  32.438  30.022  1.00  0.00    -0.376 OA
BRANCH   3   4
ATOM      4  C   UNL A   1      34.781  33.164  31.251  1.00  0.00     0.202 C 
BRANCH   4   5
ATOM      5  C   UNL A   1      35.996  33.133  32.202  1.00  0.00     0.261 C 
BRANCH   5   6
ATOM      6  O   UNL A   1      36.316  31.849  32.773  1.00  0.00    -0.460 OA
BRANCH   6   7
ATOM      7  C   UNL A   1      36.959  30.834  32.163  1.00  0.00     0.338 C 
ATOM      8  O   UNL A   1      36.435  29.707  32.127  1.00  0.00    -0.246 OA
BRANCH   7   9
ATOM      9  C   UNL A   1      38.296  31.031  31.555  1.00  0.00     0.060 A 
ATOM     10  C   UNL A   1      39.475  30.979  32.293  1.00  0.00     0.016 A 
ATOM     11  C   UNL A   1      38.397  31.154  30.169  1.00  0.00     0.016 A 
ATOM     12  C   UNL A   1      40.705  31.266  31.716  1.00  0.00     0.010 A 
ATOM     13  C   UNL A   1      39.650  31.274  29.562  1.00  0.00     0.010 A 
ATOM     14  C   UNL A   1      40.814  31.415  30.336  1.00  0.00    -0.014 A 
BRANCH  14  15
ATOM     15  C   UNL A   1      42.110  31.828  29.729  1.00  0.00     0.031 A 
ATOM     16  C   UNL A   1      42.408  33.303  29.610  1.00  0.00     0.074 A 
ATOM     17  C   UNL A   1      43.040  30.919  29.365  1.00  0.00     0.049 A 
ATOM     18  N   UNL A   1      43.431  33.907  29.063  1.00  0.00    -0.248 NA
ATOM     19  C   UNL A   1      41.405  34.228  30.166  1.00  0.00     0.031 C 
ATOM     20  C   UNL A   1      42.895  29.465  29.464  1.00  0.00     0.029 A 
ATOM     21  N   UNL A   1      44.307  31.081  28.860  1.00  0.00    -0.354 N 
ATOM     22  C   UNL A   1      43.168  35.267  29.176  1.00  0.00     0.074 A 
ATOM     23  C   UNL A   1      41.862  35.404  29.772  1.00  0.00     0.031 C 
ATOM     24  C   UNL A   1      44.033  28.872  29.072  1.00  0.00     0.029 A 
ATOM     25  C   UNL A   1      44.976  29.899  28.645  1.00  0.00     0.049 A 
ATOM     26  H   UNL A   1      44.700  31.964  28.668  1.00  0.00     0.167 HD
ATOM     27  C   UNL A   1      43.960  36.316  28.857  1.00  0.00     0.037 A 
ATOM     28  C   UNL A   1      46.208  29.669  28.154  1.00  0.00     0.037 A 
ATOM     29  C   UNL A   1      45.282  36.179  28.317  1.00  0.00     0.049 A 
ATOM     30  C   UNL A   1      47.063  30.853  27.786  1.00  0.00     0.074 A 
ATOM     31  C   UNL A   1      46.169  37.166  27.932  1.00  0.00     0.029 A 
ATOM     32  N   UNL A   1      45.916  34.961  28.111  1.00  0.00    -0.354 N 
ATOM     33  N   UNL A   1      46.788  32.133  27.881  1.00  0.00    -0.248 NA
ATOM     34  C   UNL A   1      48.400  30.566  27.250  1.00  0.00     0.031 C 
ATOM     35  C   UNL A   1      47.334  36.543  27.469  1.00  0.00     0.029 A 
ATOM     36  C   UNL A   1      47.186  35.171  27.606  1.00  0.00     0.049 A 
ATOM     37  H   UNL A   1      45.520  34.079  28.298  1.00  0.00     0.167 HD
ATOM     38  C   UNL A   1      47.920  32.800  27.437  1.00  0.00     0.074 A 
ATOM     39  C   UNL A   1      48.898  31.784  27.103  1.00  0.00     0.031 C 
ATOM     40  C   UNL A   1      48.136  34.133  27.302  1.00  0.00     0.037 A 
BRANCH  27  41
ATOM     41  C   UNL A   1      43.399  37.688  29.094  1.00  0.00     0.064 A 
ATOM     42  C   UNL A   1      43.673  38.401  30.272  1.00  0.00     0.173 A 
ATOM     43  C   UNL A   1      42.540  38.279  28.156  1.00  0.00     0.173 A 
ATOM     44  F   UNL A   1      44.465  37.868  31.215  1.00  0.00    -0.203 F 
ATOM     45  C   UNL A   1      43.072  39.632  30.523  1.00  0.00     0.198 A 
ATOM     46  C   UNL A   1      41.967  39.526  28.395  1.00  0.00     0.198 A 
ATOM     47  F   UNL A   1      42.243  37.642  27.015  1.00  0.00    -0.203 F 
ATOM     48  F   UNL A   1      43.290  40.257  31.689  1.00  0.00    -0.200 F 
ATOM     49  C   UNL A   1      42.223  40.195  29.582  1.00  0.00     0.200 A 
ATOM     50  F   UNL A   1      41.150  40.073  27.484  1.00  0.00    -0.200 F 
ATOM     51  F   UNL A   1      41.637  41.375  29.830  1.00  0.00    -0.200 F 
ENDBRANCH  27  41
BRANCH  28  52
ATOM     52  C   UNL A   1      46.712  28.276  27.976  1.00  0.00     0.064 A 
ATOM     53  C   UNL A   1      47.492  27.651  28.960  1.00  0.00     0.173 A 
ATOM     54  C   UNL A   1      46.450  27.551  26.804  1.00  0.00     0.173 A 
ATOM     55  F   UNL A   1      47.784  28.300  30.097  1.00  0.00    -0.203 F 
ATOM     56  C   UNL A   1      48.021  26.375  28.763  1.00  0.00     0.198 A 
ATOM     57  C   UNL A   1      46.948  26.261  26.623  1.00  0.00     0.198 A 
ATOM     58  F   UNL A   1      45.696  28.090  25.834  1.00  0.00    -0.203 F 
ATOM     59  F   UNL A   1      48.812  25.827  29.696  1.00  0.00    -0.200 F 
ATOM     60  C   UNL A   1      47.745  25.680  27.596  1.00  0.00     0.200 A 
ATOM     61  F   UNL A   1      46.656  25.584  25.504  1.00  0.00    -0.200 F 
ATOM     62  F   UNL A   1      48.251  24.453  27.406  1.00  0.00    -0.200 F 
ENDBRANCH  28  52
BRANCH  40  63
ATOM     63  C   UNL A   1      49.484  34.556  26.806  1.00  0.00     0.064 A 
ATOM     64  C   UNL A   1      50.607  34.559  27.646  1.00  0.00     0.173 A 
ATOM     65  C   UNL A   1      49.661  34.928  25.465  1.00  0.00     0.173 A 
ATOM     66  F   UNL A   1      50.481  34.226  28.940  1.00  0.00    -0.203 F 
ATOM     67  C   UNL A   1      51.854  34.947  27.168  1.00  0.00     0.198 A 
ATOM     68  C   UNL A   1      50.916  35.285  24.982  1.00  0.00     0.198 A 
ATOM     69  F   UNL A   1      48.617  34.936  24.621  1.00  0.00    -0.203 F 
ATOM     70  F   UNL A   1      52.903  34.992  28.001  1.00  0.00    -0.200 F 
ATOM     71  C   UNL A   1      52.009  35.302  25.836  1.00  0.00     0.200 A 
ATOM     72  F   UNL A   1      51.067  35.616  23.693  1.00  0.00    -0.200 F 
ATOM     73  F   UNL A   1      53.213  35.670  25.377  1.00  0.00    -0.200 F 
ENDBRANCH  40  63
ENDBRANCH  14  15
ENDBRANCH   7   9
ENDBRANCH   6   7
ENDBRANCH   5   6
ENDBRANCH   4   5
ENDBRANCH   3   4
ENDBRANCH   2   3
ENDBRANCH   1   2
BRANCH   1  74
ATOM     74  O   UNL A   1      33.892  30.785  27.927  1.00  0.00    -0.376 OA
BRANCH  74  75
ATOM     75  C   UNL A   1      33.459  29.975  26.840  1.00  0.00     0.202 C 
BRANCH  75  76
ATOM     76  C   UNL A   1      33.157  28.486  27.099  1.00  0.00     0.261 C 
BRANCH  76  77
ATOM     77  O   UNL A   1      31.798  28.045  26.879  1.00  0.00    -0.459 OA
BRANCH  77  78
ATOM     78  C   UNL A   1      31.658  26.809  26.295  1.00  0.00     0.370 C 
ATOM     79  O   UNL A   1      31.053  25.877  26.841  1.00  0.00    -0.245 OA
BRANCH  78  80
ATOM     80  C   UNL A   1      32.484  26.689  25.008  1.00  0.00     0.328 C 
BRANCH  80  81
ATOM     81  N   UNL A   1      32.384  25.379  24.359  1.00  0.00    -0.310 N 
ATOM     82  C   UNL A   1      31.216  24.539  24.637  1.00  0.00     0.325 C 
ATOM     83  C   UNL A   1      33.605  24.644  24.145  1.00  0.00     0.325 C 
ATOM     84  H   UNL A   1      32.155  25.739  23.434  1.00  0.00     0.349 HD
ATOM     85  C   UNL A   1      31.009  23.547  23.471  1.00  0.00     0.325 C 
ATOM     86  C   UNL A   1      33.404  23.598  23.031  1.00  0.00     0.325 C 
ATOM     87  N   UNL A   1      32.205  22.763  23.129  1.00  0.00    -0.318 N 
ATOM     88  H   UNL A   1      32.041  22.425  22.181  1.00  0.00     0.348 HD
BRANCH  87  89
ATOM     89  C   UNL A   1      32.360  21.482  23.824  1.00  0.00     0.364 C 
BRANCH  89  90
ATOM     90  C   UNL A   1      32.183  20.198  23.003  1.00  0.00     0.277 C 
ATOM     91  O   UNL A   1      31.782  20.264  21.835  1.00  0.00    -0.268 OA
ATOM     92  N   UNL A   1      32.593  18.990  23.549  1.00  0.00    -0.333 N 
ATOM     93  C   UNL A   1      32.522  18.646  24.966  1.00  0.00     0.148 C 
ATOM     94  C   UNL A   1      32.691  17.828  22.665  1.00  0.00     0.148 C 
ATOM     95  C   UNL A   1      33.551  17.596  25.387  1.00  0.00     0.181 C 
ATOM     96  C   UNL A   1      33.769  16.861  23.159  1.00  0.00     0.181 C 
ATOM     97  O   UNL A   1      33.522  16.458  24.516  1.00  0.00    -0.378 OA
ENDBRANCH  89  90
ENDBRANCH  87  89
ENDBRANCH  80  81
BRANCH  80  98
ATOM     98  C   UNL A   1      32.275  27.631  23.849  1.00  0.00     0.046 A 
ATOM     99  C   UNL A   1      33.149  28.474  23.191  1.00  0.00     0.094 A 
ATOM    100  C   UNL A   1      30.947  28.011  23.416  1.00  0.00     0.009 A 
ATOM    101  N   UNL A   1      32.415  29.330  22.401  1.00  0.00    -0.361 N 
ATOM    102  C   UNL A   1      31.069  29.095  22.554  1.00  0.00     0.049 A 
ATOM    103  C   UNL A   1      29.649  27.572  23.771  1.00  0.00     0.014 A 
ATOM    104  H   UNL A   1      32.801  30.016  21.809  1.00  0.00     0.166 HD
ATOM    105  C   UNL A   1      29.953  29.745  22.007  1.00  0.00     0.065 A 
ATOM    106  C   UNL A   1      28.526  28.194  23.228  1.00  0.00     0.040 A 
ATOM    107  C   UNL A   1      28.690  29.262  22.359  1.00  0.00     0.125 A 
ATOM    108  F   UNL A   1      27.601  29.841  21.835  1.00  0.00    -0.207 F 
ENDBRANCH  80  98
ENDBRANCH  78  80
ENDBRANCH  77  78
ENDBRANCH  76  77
ENDBRANCH  75  76
ENDBRANCH  74  75
ENDBRANCH   1  74
TORSDOF 21
ENDMDL
MODEL 2
REMARK VINA RESULT:     -10.8      6.426      9.589
REMARK SMILES O=C(OCCOCCOCCOC(=O)[C@H](c1c[nH]c2cc(F)ccc12)[NH+]1CC[NH+](CC(=O)N2CCOCC2)CC1)c1ccc(-c2c3nc(c(-c4c(F)c(F)c(F)c(F)c4F)c4ccc([nH]4)c(-c4c(F)c(F)c(F)c(F)c4F)c4nc(c(-c5c(F)c(F)c(F)c(F)c5F)c5ccc2[nH]5)C=C4)C=C3)cc1
REMARK SMILES IDX 8 1 7 2 6 3 5 4 4 5 3 6 2 7 1 8 41 9 42 10 103 11 43 12
REMARK SMILES IDX 102 13 44 14 45 15 46 16 96 17 47 18 101 19 95 20 97 21
REMARK SMILES IDX 48 22 100 23 94 24 93 25 49 27 81 28 61 29 80 30 62 31 65 32
REMARK SMILES IDX 79 33 98 34 63 35 64 36 78 38 99 39 66 40 50 41 51 42 59 43
REMARK SMILES IDX 52 44 53 45 57 46 60 47 54 48 55 49 58 50 56 51 82 52 83 53
REMARK SMILES IDX 91 54 84 55 85 56 89 57 92 58 86 59 87 60 90 61 88 62 67 63
REMARK SMILES IDX 68 64 76 65 69 66 70 67 74 68 77 69 71 70 72 71 75 72 73 73
REMARK SMILES IDX 9 74 10 75 11 76 12 77 13 78 14 79 15 80 26 81 27 82 40 83
REMARK SMILES IDX 28 85 39 86 29 87 30 89 31 90 32 91 33 92 34 93 38 94 35 95
REMARK SMILES IDX 37 96 36 97 16 98 17 99 25 100 18 101 19 102 24 103 20 105
REMARK SMILES IDX 23 106 21 107 22 108
REMARK H PARENT 97 26 65 37 26 84 29 88 18 104
REMARK Flexibility Score: inf
ROOT
ATOM      1  C   UNL A   1      38.088  31.542  37.084  1.00  0.00     0.188 C 
ENDROOT
BRANCH   1   2
ATOM      2  C   UNL A   1      37.838  32.819  37.898  1.00  0.00     0.188 C 
BRANCH   2   3
ATOM      3  O   UNL A   1      38.816  33.094  38.894  1.00  0.00    -0.376 OA
BRANCH   3   4
ATOM      4  C   UNL A   1      38.461  34.062  39.884  1.00  0.00     0.202 C 
BRANCH   4   5
ATOM      5  C   UNL A   1      39.465  35.183  40.227  1.00  0.00     0.261 C 
BRANCH   5   6
ATOM      6  O   UNL A   1      39.561  36.256  39.271  1.00  0.00    -0.460 OA
BRANCH   6   7
ATOM      7  C   UNL A   1      40.656  36.614  38.570  1.00  0.00     0.338 C 
ATOM      8  O   UNL A   1      41.334  37.587  38.943  1.00  0.00    -0.246 OA
BRANCH   7   9
ATOM      9  C   UNL A   1      41.052  35.883  37.344  1.00  0.00     0.060 A 
ATOM     10  C   UNL A   1      40.138  35.498  36.367  1.00  0.00     0.016 A 
ATOM     11  C   UNL A   1      42.407  35.674  37.089  1.00  0.00     0.016 A 
ATOM     12  C   UNL A   1      40.522  34.727  35.277  1.00  0.00     0.010 A 
ATOM     13  C   UNL A   1      42.814  35.046  35.909  1.00  0.00     0.010 A 
ATOM     14  C   UNL A   1      41.871  34.491  35.027  1.00  0.00    -0.014 A 
BRANCH  14  15
ATOM     15  C   UNL A   1      42.277  33.577  33.924  1.00  0.00     0.031 A 
ATOM     16  C   UNL A   1      42.611  34.177  32.580  1.00  0.00     0.074 A 
ATOM     17  C   UNL A   1      42.425  32.250  34.127  1.00  0.00     0.049 A 
ATOM     18  N   UNL A   1      42.925  33.587  31.456  1.00  0.00    -0.248 NA
ATOM     19  C   UNL A   1      42.567  35.647  32.483  1.00  0.00     0.031 C 
ATOM     20  C   UNL A   1      42.174  31.547  35.387  1.00  0.00     0.029 A 
ATOM     21  N   UNL A   1      42.850  31.253  33.283  1.00  0.00    -0.354 N 
ATOM     22  C   UNL A   1      43.070  34.608  30.524  1.00  0.00     0.074 A 
ATOM     23  C   UNL A   1      42.740  35.845  31.188  1.00  0.00     0.031 C 
ATOM     24  C   UNL A   1      42.482  30.248  35.247  1.00  0.00     0.029 A 
ATOM     25  C   UNL A   1      42.907  30.011  33.873  1.00  0.00     0.049 A 
ATOM     26  H   UNL A   1      43.091  31.412  32.341  1.00  0.00     0.167 HD
ATOM     27  C   UNL A   1      43.488  34.535  29.240  1.00  0.00     0.037 A 
ATOM     28  C   UNL A   1      43.258  28.816  33.360  1.00  0.00     0.037 A 
ATOM     29  C   UNL A   1      43.872  33.311  28.597  1.00  0.00     0.049 A 
ATOM     30  C   UNL A   1      43.699  28.757  31.921  1.00  0.00     0.074 A 
ATOM     31  C   UNL A   1      44.287  33.107  27.295  1.00  0.00     0.029 A 
ATOM     32  N   UNL A   1      43.908  32.077  29.233  1.00  0.00    -0.354 N 
ATOM     33  N   UNL A   1      43.810  29.732  31.050  1.00  0.00    -0.248 NA
ATOM     34  C   UNL A   1      44.070  27.437  31.395  1.00  0.00     0.031 C 
ATOM     35  C   UNL A   1      44.553  31.743  27.135  1.00  0.00     0.029 A 
ATOM     36  C   UNL A   1      44.342  31.105  28.349  1.00  0.00     0.049 A 
ATOM     37  H   UNL A   1      43.661  31.918  30.172  1.00  0.00     0.167 HD
ATOM     38  C   UNL A   1      44.281  29.148  29.883  1.00  0.00     0.074 A 
ATOM     39  C   UNL A   1      44.465  27.739  30.167  1.00  0.00     0.031 C 
ATOM     40  C   UNL A   1      44.529  29.716  28.676  1.00  0.00     0.037 A 
BRANCH  27  41
ATOM     41  C   UNL A   1      43.546  35.822  28.469  1.00  0.00     0.064 A 
ATOM     42  C   UNL A   1      42.398  36.378  27.881  1.00  0.00     0.173 A 
ATOM     43  C   UNL A   1      44.767  36.483  28.275  1.00  0.00     0.173 A 
ATOM     44  F   UNL A   1      41.209  35.769  28.012  1.00  0.00    -0.203 F 
ATOM     45  C   UNL A   1      42.479  37.521  27.090  1.00  0.00     0.198 A 
ATOM     46  C   UNL A   1      44.839  37.645  27.511  1.00  0.00     0.198 A 
ATOM     47  F   UNL A   1      45.893  35.994  28.813  1.00  0.00    -0.203 F 
ATOM     48  F   UNL A   1      41.382  37.988  26.476  1.00  0.00    -0.200 F 
ATOM     49  C   UNL A   1      43.699  38.156  26.909  1.00  0.00     0.200 A 
ATOM     50  F   UNL A   1      46.016  38.262  27.340  1.00  0.00    -0.200 F 
ATOM     51  F   UNL A   1      43.777  39.250  26.138  1.00  0.00    -0.200 F 
ENDBRANCH  27  41
BRANCH  28  52
ATOM     52  C   UNL A   1      43.206  27.583  34.197  1.00  0.00     0.064 A 
ATOM     53  C   UNL A   1      44.373  27.011  34.727  1.00  0.00     0.173 A 
ATOM     54  C   UNL A   1      41.991  26.930  34.459  1.00  0.00     0.173 A 
ATOM     55  F   UNL A   1      45.563  27.585  34.500  1.00  0.00    -0.203 F 
ATOM     56  C   UNL A   1      44.331  25.819  35.451  1.00  0.00     0.198 A 
ATOM     57  C   UNL A   1      41.947  25.758  35.213  1.00  0.00     0.198 A 
ATOM     58  F   UNL A   1      40.842  27.438  33.992  1.00  0.00    -0.203 F 
ATOM     59  F   UNL A   1      45.467  25.265  35.894  1.00  0.00    -0.200 F 
ATOM     60  C   UNL A   1      43.117  25.196  35.696  1.00  0.00     0.200 A 
ATOM     61  F   UNL A   1      40.768  25.175  35.470  1.00  0.00    -0.200 F 
ATOM     62  F   UNL A   1      43.075  24.051  36.393  1.00  0.00    -0.200 F 
ENDBRANCH  28  52
BRANCH  40  63
ATOM     63  C   UNL A   1      45.053  28.819  27.597  1.00  0.00     0.064 A 
ATOM     64  C   UNL A   1      46.420  28.526  27.489  1.00  0.00     0.173 A 
ATOM     65  C   UNL A   1      44.173  28.217  26.686  1.00  0.00     0.173 A 
ATOM     66  F   UNL A   1      47.300  29.092  28.328  1.00  0.00    -0.203 F 
ATOM     67  C   UNL A   1      46.891  27.684  26.486  1.00  0.00     0.198 A 
ATOM     68  C   UNL A   1      44.644  27.350  25.704  1.00  0.00     0.198 A 
ATOM     69  F   UNL A   1      42.855  28.463  26.754  1.00  0.00    -0.203 F 
ATOM     70  F   UNL A   1      48.207  27.458  26.368  1.00  0.00    -0.200 F 
ATOM     71  C   UNL A   1      46.003  27.091  25.601  1.00  0.00     0.200 A 
ATOM     72  F   UNL A   1      43.783  26.769  24.858  1.00  0.00    -0.200 F 
ATOM     73  F   UNL A   1      46.458  26.276  24.640  1.00  0.00    -0.200 F 
ENDBRANCH  40  63
ENDBRANCH  14  15
ENDBRANCH   7   9
ENDBRANCH   6   7
ENDBRANCH   5   6
ENDBRANCH   4   5
ENDBRANCH   3   4
ENDBRANCH   2   3
ENDBRANCH   1   2
BRANCH   1  74
ATOM     74  O   UNL A   1      37.755  31.559  35.705  1.00  0.00    -0.376 OA
BRANCH  74  75
ATOM     75  C   UNL A   1      38.832  31.467  34.780  1.00  0.00     0.202 C 
BRANCH  75  76
ATOM     76  C   UNL A   1      38.694  30.520  33.572  1.00  0.00     0.261 C 
BRANCH  76  77
ATOM     77  O   UNL A   1      39.677  30.650  32.521  1.00  0.00    -0.459 OA
BRANCH  77  78
ATOM     78  C   UNL A   1      39.289  31.386  31.428  1.00  0.00     0.370 C 
ATOM     79  O   UNL A   1      39.632  32.564  31.261  1.00  0.00    -0.245 OA
BRANCH  78  80
ATOM     80  C   UNL A   1      38.259  30.639  30.571  1.00  0.00     0.328 C 
BRANCH  80  81
ATOM     81  N   UNL A   1      37.112  31.459  30.174  1.00  0.00    -0.310 N 
ATOM     82  C   UNL A   1      37.316  32.542  29.208  1.00  0.00     0.325 C 
ATOM     83  C   UNL A   1      36.111  31.737  31.174  1.00  0.00     0.325 C 
ATOM     84  H   UNL A   1      36.675  30.748  29.588  1.00  0.00     0.349 HD
ATOM     85  C   UNL A   1      35.978  32.861  28.506  1.00  0.00     0.325 C 
ATOM     86  C   UNL A   1      34.782  32.126  30.497  1.00  0.00     0.325 C 
ATOM     87  N   UNL A   1      34.862  33.124  29.428  1.00  0.00    -0.318 N 
ATOM     88  H   UNL A   1      34.018  32.984  28.873  1.00  0.00     0.348 HD
BRANCH  87  89
ATOM     89  C   UNL A   1      34.667  34.521  29.826  1.00  0.00     0.364 C 
BRANCH  89  90
ATOM     90  C   UNL A   1      34.174  34.794  31.253  1.00  0.00     0.277 C 
ATOM     91  O   UNL A   1      32.966  34.939  31.471  1.00  0.00    -0.268 OA
ATOM     92  N   UNL A   1      35.087  34.756  32.297  1.00  0.00    -0.333 N 
ATOM     93  C   UNL A   1      36.484  35.169  32.202  1.00  0.00     0.148 C 
ATOM     94  C   UNL A   1      34.573  34.728  33.667  1.00  0.00     0.148 C 
ATOM     95  C   UNL A   1      37.391  34.480  33.222  1.00  0.00     0.181 C 
ATOM     96  C   UNL A   1      35.540  33.988  34.594  1.00  0.00     0.181 C 
ATOM     97  O   UNL A   1      36.852  34.572  34.546  1.00  0.00    -0.378 OA
ENDBRANCH  89  90
ENDBRANCH  87  89
ENDBRANCH  80  81
BRANCH  80  98
ATOM     98  C   UNL A   1      38.646  29.986  29.267  1.00  0.00     0.046 A 
ATOM     99  C   UNL A   1      38.110  30.096  27.999  1.00  0.00     0.094 A 
ATOM    100  C   UNL A   1      39.538  28.847  29.230  1.00  0.00     0.009 A 
ATOM    101  N   UNL A   1      38.629  29.087  27.219  1.00  0.00    -0.361 N 
ATOM    102  C   UNL A   1      39.468  28.287  27.959  1.00  0.00     0.049 A 
ATOM    103  C   UNL A   1      40.322  28.196  30.212  1.00  0.00     0.014 A 
ATOM    104  H   UNL A   1      38.426  28.956  26.265  1.00  0.00     0.166 HD
ATOM    105  C   UNL A   1      40.168  27.122  27.614  1.00  0.00     0.065 A 
ATOM    106  C   UNL A   1      41.039  27.046  29.888  1.00  0.00     0.040 A 
ATOM    107  C   UNL A   1      40.955  26.528  28.604  1.00  0.00     0.125 A 
ATOM    108  F   UNL A   1      41.659  25.428  28.305  1.00  0.00    -0.207 F 
ENDBRANCH  80  98
ENDBRANCH  78  80
ENDBRANCH  77  78
ENDBRANCH  76  77
ENDBRANCH  75  76
ENDBRANCH  74  75
ENDBRANCH   1  74
TORSDOF 21
ENDMDL
MODEL 3
REMARK VINA RESULT:     -10.3      5.332      8.577
REMARK SMILES O=C(OCCOCCOCCOC(=O)[C@H](c1c[nH]c2cc(F)ccc12)[NH+]1CC[NH+](CC(=O)N2CCOCC2)CC1)c1ccc(-c2c3nc(c(-c4c(F)c(F)c(F)c(F)c4F)c4ccc([nH]4)c(-c4c(F)c(F)c(F)c(F)c4F)c4nc(c(-c5c(F)c(F)c(F)c(F)c5F)c5ccc2[nH]5)C=C4)C=C3)cc1
REMARK SMILES IDX 8 1 7 2 6 3 5 4 4 5 3 6 2 7 1 8 41 9 42 10 103 11 43 12
REMARK SMILES IDX 102 13 44 14 45 15 46 16 96 17 47 18 101 19 95 20 97 21
REMARK SMILES IDX 48 22 100 23 94 24 93 25 49 27 81 28 61 29 80 30 62 31 65 32
REMARK SMILES IDX 79 33 98 34 63 35 64 36 78 38 99 39 66 40 50 41 51 42 59 43
REMARK SMILES IDX 52 44 53 45 57 46 60 47 54 48 55 49 58 50 56 51 82 52 83 53
REMARK SMILES IDX 91 54 84 55 85 56 89 57 92 58 86 59 87 60 90 61 88 62 67 63
REMARK SMILES IDX 68 64 76 65 69 66 70 67 74 68 77 69 71 70 72 71 75 72 73 73
REMARK SMILES IDX 9 74 10 75 11 76 12 77 13 78 14 79 15 80 26 81 27 82 40 83
REMARK SMILES IDX 28 85 39 86 29 87 30 89 31 90 32 91 33 92 34 93 38 94 35 95
REMARK SMILES IDX 37 96 36 97 16 98 17 99 25 100 18 101 19 102 24 103 20 105
REMARK SMILES IDX 23 106 21 107 22 108
REMARK H PARENT 97 26 65 37 26 84 29 88 18 104
REMARK Flexibility Score: inf
ROOT
ATOM      1  C   UNL A   1      34.053  32.102  27.772  1.00  0.00     0.188 C 
ENDROOT
BRANCH   1   2
ATOM      2  C   UNL A   1      34.542  33.000  28.917  1.00  0.00     0.188 C 
BRANCH   2   3
ATOM      3  O   UNL A   1      34.651  32.353  30.179  1.00  0.00    -0.376 OA
BRANCH   3   4
ATOM      4  C   UNL A   1      35.184  33.134  31.251  1.00  0.00     0.202 C 
BRANCH   4   5
ATOM      5  C   UNL A   1      36.444  32.633  31.988  1.00  0.00     0.261 C 
BRANCH   5   6
ATOM      6  O   UNL A   1      36.394  31.276  32.468  1.00  0.00    -0.460 OA
BRANCH   6   7
ATOM      7  C   UNL A   1      36.928  30.191  31.872  1.00  0.00     0.338 C 
ATOM      8  O   UNL A   1      36.279  29.588  31.000  1.00  0.00    -0.246 OA
BRANCH   7   9
ATOM      9  C   UNL A   1      38.266  29.686  32.258  1.00  0.00     0.060 A 
ATOM     10  C   UNL A   1      39.331  30.530  32.563  1.00  0.00     0.016 A 
ATOM     11  C   UNL A   1      38.444  28.315  32.445  1.00  0.00     0.016 A 
ATOM     12  C   UNL A   1      40.601  30.030  32.824  1.00  0.00     0.010 A 
ATOM     13  C   UNL A   1      39.678  27.817  32.873  1.00  0.00     0.010 A 
ATOM     14  C   UNL A   1      40.795  28.661  32.988  1.00  0.00    -0.014 A 
BRANCH  14  15
ATOM     15  C   UNL A   1      42.171  28.118  33.159  1.00  0.00     0.031 A 
ATOM     16  C   UNL A   1      42.983  27.817  31.923  1.00  0.00     0.074 A 
ATOM     17  C   UNL A   1      42.722  27.969  34.383  1.00  0.00     0.049 A 
ATOM     18  N   UNL A   1      44.171  27.282  31.815  1.00  0.00    -0.248 NA
ATOM     19  C   UNL A   1      42.363  28.147  30.628  1.00  0.00     0.031 C 
ATOM     20  C   UNL A   1      42.060  28.260  35.657  1.00  0.00     0.029 A 
ATOM     21  N   UNL A   1      43.977  27.559  34.761  1.00  0.00    -0.354 N 
ATOM     22  C   UNL A   1      44.412  27.177  30.450  1.00  0.00     0.074 A 
ATOM     23  C   UNL A   1      43.225  27.632  29.768  1.00  0.00     0.031 C 
ATOM     24  C   UNL A   1      42.920  28.057  36.667  1.00  0.00     0.029 A 
ATOM     25  C   UNL A   1      44.182  27.573  36.121  1.00  0.00     0.049 A 
ATOM     26  H   UNL A   1      44.667  27.279  34.116  1.00  0.00     0.167 HD
ATOM     27  C   UNL A   1      45.538  26.783  29.812  1.00  0.00     0.037 A 
ATOM     28  C   UNL A   1      45.264  27.229  36.845  1.00  0.00     0.037 A 
ATOM     29  C   UNL A   1      46.738  26.386  30.490  1.00  0.00     0.049 A 
ATOM     30  C   UNL A   1      46.499  26.773  36.112  1.00  0.00     0.074 A 
ATOM     31  C   UNL A   1      47.932  25.943  29.954  1.00  0.00     0.029 A 
ATOM     32  N   UNL A   1      46.897  26.411  31.869  1.00  0.00    -0.354 N 
ATOM     33  N   UNL A   1      46.700  26.661  34.820  1.00  0.00    -0.248 NA
ATOM     34  C   UNL A   1      47.658  26.401  36.934  1.00  0.00     0.031 C 
ATOM     35  C   UNL A   1      48.809  25.678  31.012  1.00  0.00     0.029 A 
ATOM     36  C   UNL A   1      48.173  25.994  32.203  1.00  0.00     0.049 A 
ATOM     37  H   UNL A   1      46.205  26.685  32.513  1.00  0.00     0.167 HD
ATOM     38  C   UNL A   1      48.010  26.228  34.674  1.00  0.00     0.074 A 
ATOM     39  C   UNL A   1      48.566  26.127  36.009  1.00  0.00     0.031 C 
ATOM     40  C   UNL A   1      48.694  25.925  33.543  1.00  0.00     0.037 A 
BRANCH  27  41
ATOM     41  C   UNL A   1      45.501  26.773  28.311  1.00  0.00     0.064 A 
ATOM     42  C   UNL A   1      45.008  25.670  27.595  1.00  0.00     0.173 A 
ATOM     43  C   UNL A   1      46.007  27.856  27.578  1.00  0.00     0.173 A 
ATOM     44  F   UNL A   1      44.539  24.596  28.249  1.00  0.00    -0.203 F 
ATOM     45  C   UNL A   1      45.065  25.633  26.205  1.00  0.00     0.198 A 
ATOM     46  C   UNL A   1      46.032  27.829  26.186  1.00  0.00     0.198 A 
ATOM     47  F   UNL A   1      46.492  28.934  28.210  1.00  0.00    -0.203 F 
ATOM     48  F   UNL A   1      44.659  24.536  25.548  1.00  0.00    -0.200 F 
ATOM     49  C   UNL A   1      45.573  26.714  25.501  1.00  0.00     0.200 A 
ATOM     50  F   UNL A   1      46.518  28.876  25.505  1.00  0.00    -0.200 F 
ATOM     51  F   UNL A   1      45.638  26.672  24.163  1.00  0.00    -0.200 F 
ENDBRANCH  27  41
BRANCH  28  52
ATOM     52  C   UNL A   1      45.238  27.295  38.335  1.00  0.00     0.064 A 
ATOM     53  C   UNL A   1      44.757  26.226  39.105  1.00  0.00     0.173 A 
ATOM     54  C   UNL A   1      45.665  28.443  39.020  1.00  0.00     0.173 A 
ATOM     55  F   UNL A   1      44.324  25.108  38.504  1.00  0.00    -0.203 F 
ATOM     56  C   UNL A   1      44.667  26.317  40.494  1.00  0.00     0.198 A 
ATOM     57  C   UNL A   1      45.610  28.519  40.411  1.00  0.00     0.198 A 
ATOM     58  F   UNL A   1      46.150  29.491  38.339  1.00  0.00    -0.203 F 
ATOM     59  F   UNL A   1      44.148  25.303  41.199  1.00  0.00    -0.200 F 
ATOM     60  C   UNL A   1      45.098  27.462  41.146  1.00  0.00     0.200 A 
ATOM     61  F   UNL A   1      46.053  29.618  41.037  1.00  0.00    -0.200 F 
ATOM     62  F   UNL A   1      45.015  27.549  42.481  1.00  0.00    -0.200 F 
ENDBRANCH  28  52
BRANCH  40  63
ATOM     63  C   UNL A   1      50.119  25.493  33.706  1.00  0.00     0.064 A 
ATOM     64  C   UNL A   1      51.158  26.427  33.829  1.00  0.00     0.173 A 
ATOM     65  C   UNL A   1      50.443  24.130  33.778  1.00  0.00     0.173 A 
ATOM     66  F   UNL A   1      50.897  27.740  33.750  1.00  0.00    -0.203 F 
ATOM     67  C   UNL A   1      52.476  26.010  33.988  1.00  0.00     0.198 A 
ATOM     68  C   UNL A   1      51.758  23.717  33.969  1.00  0.00     0.198 A 
ATOM     69  F   UNL A   1      49.482  23.199  33.672  1.00  0.00    -0.203 F 
ATOM     70  F   UNL A   1      53.460  26.918  34.051  1.00  0.00    -0.200 F 
ATOM     71  C   UNL A   1      52.773  24.657  34.066  1.00  0.00     0.200 A 
ATOM     72  F   UNL A   1      52.042  22.411  34.057  1.00  0.00    -0.200 F 
ATOM     73  F   UNL A   1      54.043  24.259  34.226  1.00  0.00    -0.200 F 
ENDBRANCH  40  63
ENDBRANCH  14  15
ENDBRANCH   7   9
ENDBRANCH   6   7
ENDBRANCH   5   6
ENDBRANCH   4   5
ENDBRANCH   3   4
ENDBRANCH   2   3
ENDBRANCH   1   2
BRANCH   1  74
ATOM     74  O   UNL A   1      33.690  30.767  28.084  1.00  0.00    -0.376 OA
BRANCH  74  75
ATOM     75  C   UNL A   1      33.256  29.946  27.007  1.00  0.00     0.202 C 
BRANCH  75  76
ATOM     76  C   UNL A   1      33.164  28.424  27.223  1.00  0.00     0.261 C 
BRANCH  76  77
ATOM     77  O   UNL A   1      31.854  27.823  27.111  1.00  0.00    -0.459 OA
BRANCH  77  78
ATOM     78  C   UNL A   1      31.809  26.601  26.483  1.00  0.00     0.370 C 
ATOM     79  O   UNL A   1      31.106  25.667  26.890  1.00  0.00    -0.245 OA
BRANCH  78  80
ATOM     80  C   UNL A   1      32.852  26.496  25.363  1.00  0.00     0.328 C 
BRANCH  80  81
ATOM     81  N   UNL A   1      33.060  25.130  24.874  1.00  0.00    -0.310 N 
ATOM     82  C   UNL A   1      32.017  24.503  24.058  1.00  0.00     0.325 C 
ATOM     83  C   UNL A   1      33.774  24.216  25.730  1.00  0.00     0.325 C 
ATOM     84  H   UNL A   1      33.747  25.379  24.163  1.00  0.00     0.349 HD
ATOM     85  C   UNL A   1      32.644  23.389  23.192  1.00  0.00     0.325 C 
ATOM     86  C   UNL A   1      34.351  23.055  24.897  1.00  0.00     0.325 C 
ATOM     87  N   UNL A   1      33.436  22.410  23.952  1.00  0.00    -0.318 N 
ATOM     88  H   UNL A   1      34.040  21.963  23.264  1.00  0.00     0.348 HD
BRANCH  87  89
ATOM     89  C   UNL A   1      32.713  21.235  24.447  1.00  0.00     0.364 C 
BRANCH  89  90
ATOM     90  C   UNL A   1      32.472  20.080  23.466  1.00  0.00     0.277 C 
ATOM     91  O   UNL A   1      32.140  20.321  22.299  1.00  0.00    -0.268 OA
ATOM     92  N   UNL A   1      32.748  18.783  23.875  1.00  0.00    -0.333 N 
ATOM     93  C   UNL A   1      32.573  18.280  25.234  1.00  0.00     0.148 C 
ATOM     94  C   UNL A   1      32.795  17.732  22.859  1.00  0.00     0.148 C 
ATOM     95  C   UNL A   1      33.485  17.098  25.565  1.00  0.00     0.181 C 
ATOM     96  C   UNL A   1      33.760  16.618  23.275  1.00  0.00     0.181 C 
ATOM     97  O   UNL A   1      33.407  16.081  24.559  1.00  0.00    -0.378 OA
ENDBRANCH  89  90
ENDBRANCH  87  89
ENDBRANCH  80  81
BRANCH  80  98
ATOM     98  C   UNL A   1      32.706  27.272  24.078  1.00  0.00     0.046 A 
ATOM     99  C   UNL A   1      33.642  27.910  23.287  1.00  0.00     0.094 A 
ATOM    100  C   UNL A   1      31.412  27.722  23.612  1.00  0.00     0.009 A 
ATOM    101  N   UNL A   1      32.977  28.711  22.388  1.00  0.00    -0.361 N 
ATOM    102  C   UNL A   1      31.619  28.647  22.594  1.00  0.00     0.049 A 
ATOM    103  C   UNL A   1      30.087  27.482  24.047  1.00  0.00     0.014 A 
ATOM    104  H   UNL A   1      33.414  29.256  21.693  1.00  0.00     0.166 HD
ATOM    105  C   UNL A   1      30.560  29.323  21.971  1.00  0.00     0.065 A 
ATOM    106  C   UNL A   1      29.018  28.132  23.432  1.00  0.00     0.040 A 
ATOM    107  C   UNL A   1      29.265  29.035  22.409  1.00  0.00     0.125 A 
ATOM    108  F   UNL A   1      28.227  29.643  21.820  1.00  0.00    -0.207 F 
ENDBRANCH  80  98
ENDBRANCH  78  80
ENDBRANCH  77  78
ENDBRANCH  76  77
ENDBRANCH  75  76
ENDBRANCH  74  75
ENDBRANCH   1  74
TORSDOF 21
ENDMDL
