MODEL 1
REMARK VINA RESULT:     -10.9      0.000      0.000
REMARK SMILES C[C@H](NC(=O)N(CC(=O)OCCOCCOCCOC(=O)c1ccc(-c2c3nc(c(-c4c(F)c(F)c(F)c(F)c4F)c4ccc([nH]4)c(-c4c(F)c(F)c(F)c(F)c4F)c4nc(c(-c5c(F)c(F)c(F)c(F)c5F)c5ccc2[nH]5)C=C4)C=C3)cc1)C(C)(C)C)c1ccccc1
REMARK SMILES IDX 14 1 13 2 12 3 11 4 10 5 8 6 9 7 7 8 6 9 4 10 3 11 5 13 2 14
REMARK SMILES IDX 1 15 89 16 90 17 94 18 91 19 93 20 92 21 85 22 86 23 87 24
REMARK SMILES IDX 88 25 15 26 16 27 17 28 18 29 19 30 20 31 21 32 22 33 23 34
REMARK SMILES IDX 84 35 24 36 83 37 25 38 26 39 27 40 77 41 28 42 82 43 76 44
REMARK SMILES IDX 78 45 29 46 81 47 75 48 74 49 30 51 62 52 42 53 61 54 43 55
REMARK SMILES IDX 46 56 60 57 79 58 44 59 45 60 59 62 80 63 47 64 31 65 32 66
REMARK SMILES IDX 40 67 33 68 34 69 38 70 41 71 35 72 36 73 39 74 37 75 63 76
REMARK SMILES IDX 64 77 72 78 65 79 66 80 70 81 73 82 67 83 68 84 71 85 69 86
REMARK SMILES IDX 48 87 49 88 57 89 50 90 51 91 55 92 58 93 52 94 53 95 56 96
REMARK SMILES IDX 54 97
REMARK H PARENT 3 12 78 50 46 61
REMARK Flexibility Score: inf
ROOT
ATOM      1  C   UNL A   1      31.373  28.957  23.021  1.00  0.00     0.188 C 
ENDROOT
BRANCH   1   2
ATOM      2  O   UNL A   1      31.708  27.633  22.615  1.00  0.00    -0.376 OA
BRANCH   2   3
ATOM      3  C   UNL A   1      33.078  27.259  22.553  1.00  0.00     0.202 C 
BRANCH   3   4
ATOM      4  C   UNL A   1      33.373  26.010  21.717  1.00  0.00     0.261 C 
BRANCH   4   5
ATOM      5  O   UNL A   1      32.341  25.008  21.809  1.00  0.00    -0.462 OA
BRANCH   5   6
ATOM      6  C   UNL A   1      32.626  23.911  22.552  1.00  0.00     0.325 C 
ATOM      7  O   UNL A   1      33.237  22.929  22.138  1.00  0.00    -0.250 OA
BRANCH   6   8
ATOM      8  C   UNL A   1      32.121  23.979  24.003  1.00  0.00     0.244 C 
BRANCH   8   9
ATOM      9  N   UNL A   1      33.049  23.784  25.134  1.00  0.00    -0.309 N 
BRANCH   9  10
ATOM     10  C   UNL A   1      34.144  24.588  25.345  1.00  0.00     0.318 C 
ATOM     11  N   UNL A   1      35.413  24.173  25.257  1.00  0.00    -0.331 N 
ATOM     12  H   UNL A   1      36.017  24.835  25.667  1.00  0.00     0.165 HD
ATOM     13  O   UNL A   1      34.044  25.785  25.630  1.00  0.00    -0.249 OA
BRANCH  11  14
ATOM     14  C   UNL A   1      36.175  23.043  24.743  1.00  0.00     0.111 C 
ATOM     15  C   UNL A   1      36.362  23.148  23.229  1.00  0.00     0.036 C 
BRANCH  14  16
ATOM     16  C   UNL A   1      37.496  22.947  25.486  1.00  0.00    -0.026 A 
ATOM     17  C   UNL A   1      38.191  21.727  25.509  1.00  0.00     0.006 A 
ATOM     18  C   UNL A   1      38.020  24.035  26.204  1.00  0.00     0.006 A 
ATOM     19  C   UNL A   1      39.373  21.596  26.239  1.00  0.00     0.000 A 
ATOM     20  C   UNL A   1      39.197  23.898  26.940  1.00  0.00     0.000 A 
ATOM     21  C   UNL A   1      39.871  22.680  26.958  1.00  0.00     0.000 A 
ENDBRANCH  14  16
ENDBRANCH  11  14
ENDBRANCH   9  10
BRANCH   9  22
ATOM     22  C   UNL A   1      32.719  22.771  26.220  1.00  0.00     0.037 C 
ATOM     23  C   UNL A   1      31.268  22.933  26.741  1.00  0.00     0.034 C 
ATOM     24  C   UNL A   1      32.917  21.336  25.684  1.00  0.00     0.034 C 
ATOM     25  C   UNL A   1      33.625  22.878  27.460  1.00  0.00     0.034 C 
ENDBRANCH   9  22
ENDBRANCH   8   9
ENDBRANCH   6   8
ENDBRANCH   5   6
ENDBRANCH   4   5
ENDBRANCH   3   4
ENDBRANCH   2   3
ENDBRANCH   1   2
BRANCH   1  26
ATOM     26  C   UNL A   1      30.825  29.201  24.436  1.00  0.00     0.188 C 
BRANCH  26  27
ATOM     27  O   UNL A   1      31.033  28.167  25.390  1.00  0.00    -0.376 OA
BRANCH  27  28
ATOM     28  C   UNL A   1      31.826  28.490  26.529  1.00  0.00     0.202 C 
BRANCH  28  29
ATOM     29  C   UNL A   1      31.910  29.987  26.838  1.00  0.00     0.261 C 
BRANCH  29  30
ATOM     30  O   UNL A   1      33.208  30.500  26.468  1.00  0.00    -0.460 OA
BRANCH  30  31
ATOM     31  C   UNL A   1      33.714  31.406  27.326  1.00  0.00     0.338 C 
ATOM     32  O   UNL A   1      33.126  32.352  27.843  1.00  0.00    -0.246 OA
BRANCH  31  33
ATOM     33  C   UNL A   1      35.114  31.103  27.647  1.00  0.00     0.060 A 
ATOM     34  C   UNL A   1      35.484  29.780  27.886  1.00  0.00     0.016 A 
ATOM     35  C   UNL A   1      35.992  32.139  27.954  1.00  0.00     0.016 A 
ATOM     36  C   UNL A   1      36.676  29.487  28.547  1.00  0.00     0.010 A 
ATOM     37  C   UNL A   1      37.221  31.841  28.550  1.00  0.00     0.010 A 
ATOM     38  C   UNL A   1      37.547  30.520  28.911  1.00  0.00    -0.014 A 
BRANCH  38  39
ATOM     39  C   UNL A   1      38.726  30.262  29.784  1.00  0.00     0.031 A 
ATOM     40  C   UNL A   1      39.852  29.413  29.255  1.00  0.00     0.074 A 
ATOM     41  C   UNL A   1      38.822  30.782  31.021  1.00  0.00     0.049 A 
ATOM     42  N   UNL A   1      40.823  28.816  29.901  1.00  0.00    -0.248 NA
ATOM     43  C   UNL A   1      39.883  29.198  27.798  1.00  0.00     0.031 C 
ATOM     44  C   UNL A   1      37.870  31.707  31.634  1.00  0.00     0.029 A 
ATOM     45  N   UNL A   1      39.777  30.595  31.993  1.00  0.00    -0.354 N 
ATOM     46  C   UNL A   1      41.525  28.094  28.944  1.00  0.00     0.074 A 
ATOM     47  C   UNL A   1      40.889  28.347  27.669  1.00  0.00     0.031 C 
ATOM     48  C   UNL A   1      38.294  32.019  32.869  1.00  0.00     0.029 A 
ATOM     49  C   UNL A   1      39.494  31.243  33.170  1.00  0.00     0.049 A 
ATOM     50  H   UNL A   1      40.585  30.049  31.858  1.00  0.00     0.167 HD
ATOM     51  C   UNL A   1      42.593  27.280  29.122  1.00  0.00     0.037 A 
ATOM     52  C   UNL A   1      40.098  31.174  34.372  1.00  0.00     0.037 A 
ATOM     53  C   UNL A   1      43.261  27.089  30.382  1.00  0.00     0.049 A 
ATOM     54  C   UNL A   1      41.265  30.243  34.558  1.00  0.00     0.074 A 
ATOM     55  C   UNL A   1      44.339  26.272  30.677  1.00  0.00     0.029 A 
ATOM     56  N   UNL A   1      42.930  27.754  31.552  1.00  0.00    -0.354 N 
ATOM     57  N   UNL A   1      41.851  29.465  33.681  1.00  0.00    -0.248 NA
ATOM     58  C   UNL A   1      41.834  30.156  35.911  1.00  0.00     0.031 C 
ATOM     59  C   UNL A   1      44.648  26.429  32.033  1.00  0.00     0.029 A 
ATOM     60  C   UNL A   1      43.783  27.367  32.572  1.00  0.00     0.049 A 
ATOM     61  H   UNL A   1      42.198  28.405  31.645  1.00  0.00     0.167 HD
ATOM     62  C   UNL A   1      42.861  28.805  34.371  1.00  0.00     0.074 A 
ATOM     63  C   UNL A   1      42.821  29.289  35.735  1.00  0.00     0.031 C 
ATOM     64  C   UNL A   1      43.735  27.874  33.919  1.00  0.00     0.037 A 
BRANCH  51  65
ATOM     65  C   UNL A   1      43.073  26.495  27.939  1.00  0.00     0.064 A 
ATOM     66  C   UNL A   1      42.748  25.144  27.758  1.00  0.00     0.173 A 
ATOM     67  C   UNL A   1      43.846  27.125  26.951  1.00  0.00     0.173 A 
ATOM     68  F   UNL A   1      42.026  24.494  28.683  1.00  0.00    -0.203 F 
ATOM     69  C   UNL A   1      43.196  24.445  26.639  1.00  0.00     0.198 A 
ATOM     70  C   UNL A   1      44.272  26.430  25.822  1.00  0.00     0.198 A 
ATOM     71  F   UNL A   1      44.182  28.417  27.077  1.00  0.00    -0.203 F 
ATOM     72  F   UNL A   1      42.906  23.144  26.503  1.00  0.00    -0.200 F 
ATOM     73  C   UNL A   1      43.952  25.090  25.670  1.00  0.00     0.200 A 
ATOM     74  F   UNL A   1      44.996  27.058  24.884  1.00  0.00    -0.200 F 
ATOM     75  F   UNL A   1      44.377  24.418  24.591  1.00  0.00    -0.200 F 
ENDBRANCH  51  65
BRANCH  52  76
ATOM     76  C   UNL A   1      39.569  31.962  35.516  1.00  0.00     0.064 A 
ATOM     77  C   UNL A   1      40.069  33.239  35.805  1.00  0.00     0.173 A 
ATOM     78  C   UNL A   1      38.561  31.453  36.349  1.00  0.00     0.173 A 
ATOM     79  F   UNL A   1      41.055  33.756  35.057  1.00  0.00    -0.203 F 
ATOM     80  C   UNL A   1      39.590  33.971  36.890  1.00  0.00     0.198 A 
ATOM     81  C   UNL A   1      38.061  32.197  37.415  1.00  0.00     0.198 A 
ATOM     82  F   UNL A   1      38.053  30.232  36.118  1.00  0.00    -0.203 F 
ATOM     83  F   UNL A   1      40.116  35.170  37.171  1.00  0.00    -0.200 F 
ATOM     84  C   UNL A   1      38.580  33.453  37.688  1.00  0.00     0.200 A 
ATOM     85  F   UNL A   1      37.079  31.697  38.176  1.00  0.00    -0.200 F 
ATOM     86  F   UNL A   1      38.116  34.160  38.728  1.00  0.00    -0.200 F 
ENDBRANCH  52  76
BRANCH  64  87
ATOM     87  C   UNL A   1      44.739  27.347  34.897  1.00  0.00     0.064 A 
ATOM     88  C   UNL A   1      45.844  28.112  35.295  1.00  0.00     0.173 A 
ATOM     89  C   UNL A   1      44.571  26.078  35.471  1.00  0.00     0.173 A 
ATOM     90  F   UNL A   1      46.052  29.325  34.761  1.00  0.00    -0.203 F 
ATOM     91  C   UNL A   1      46.758  27.617  36.219  1.00  0.00     0.198 A 
ATOM     92  C   UNL A   1      45.476  25.594  36.411  1.00  0.00     0.198 A 
ATOM     93  F   UNL A   1      43.527  25.311  35.123  1.00  0.00    -0.203 F 
ATOM     94  F   UNL A   1      47.829  28.349  36.560  1.00  0.00    -0.200 F 
ATOM     95  C   UNL A   1      46.571  26.361  36.781  1.00  0.00     0.200 A 
ATOM     96  F   UNL A   1      45.291  24.385  36.957  1.00  0.00    -0.200 F 
ATOM     97  F   UNL A   1      47.450  25.888  37.674  1.00  0.00    -0.200 F 
ENDBRANCH  64  87
ENDBRANCH  38  39
ENDBRANCH  31  33
ENDBRANCH  30  31
ENDBRANCH  29  30
ENDBRANCH  28  29
ENDBRANCH  27  28
ENDBRANCH  26  27
ENDBRANCH   1  26
TORSDOF 22
ENDMDL
MODEL 2
REMARK VINA RESULT:     -10.9      1.387      3.042
REMARK SMILES C[C@H](NC(=O)N(CC(=O)OCCOCCOCCOC(=O)c1ccc(-c2c3nc(c(-c4c(F)c(F)c(F)c(F)c4F)c4ccc([nH]4)c(-c4c(F)c(F)c(F)c(F)c4F)c4nc(c(-c5c(F)c(F)c(F)c(F)c5F)c5ccc2[nH]5)C=C4)C=C3)cc1)C(C)(C)C)c1ccccc1
REMARK SMILES IDX 14 1 13 2 12 3 11 4 10 5 8 6 9 7 7 8 6 9 4 10 3 11 5 13 2 14
REMARK SMILES IDX 1 15 89 16 90 17 94 18 91 19 93 20 92 21 85 22 86 23 87 24
REMARK SMILES IDX 88 25 15 26 16 27 17 28 18 29 19 30 20 31 21 32 22 33 23 34
REMARK SMILES IDX 84 35 24 36 83 37 25 38 26 39 27 40 77 41 28 42 82 43 76 44
REMARK SMILES IDX 78 45 29 46 81 47 75 48 74 49 30 51 62 52 42 53 61 54 43 55
REMARK SMILES IDX 46 56 60 57 79 58 44 59 45 60 59 62 80 63 47 64 31 65 32 66
REMARK SMILES IDX 40 67 33 68 34 69 38 70 41 71 35 72 36 73 39 74 37 75 63 76
REMARK SMILES IDX 64 77 72 78 65 79 66 80 70 81 73 82 67 83 68 84 71 85 69 86
REMARK SMILES IDX 48 87 49 88 57 89 50 90 51 91 55 92 58 93 52 94 53 95 56 96
REMARK SMILES IDX 54 97
REMARK H PARENT 3 12 78 50 46 61
REMARK Flexibility Score: inf
ROOT
ATOM      1  C   UNL A   1      31.436  29.091  23.233  1.00  0.00     0.188 C 
ENDROOT
BRANCH   1   2
ATOM      2  O   UNL A   1      31.930  27.843  22.755  1.00  0.00    -0.376 OA
BRANCH   2   3
ATOM      3  C   UNL A   1      33.319  27.566  22.863  1.00  0.00     0.202 C 
BRANCH   3   4
ATOM      4  C   UNL A   1      33.774  26.257  22.212  1.00  0.00     0.261 C 
BRANCH   4   5
ATOM      5  O   UNL A   1      32.679  25.383  21.869  1.00  0.00    -0.462 OA
BRANCH   5   6
ATOM      6  C   UNL A   1      32.853  24.065  22.130  1.00  0.00     0.325 C 
ATOM      7  O   UNL A   1      33.411  23.273  21.376  1.00  0.00    -0.250 OA
BRANCH   6   8
ATOM      8  C   UNL A   1      32.288  23.607  23.486  1.00  0.00     0.244 C 
BRANCH   8   9
ATOM      9  N   UNL A   1      33.185  23.113  24.547  1.00  0.00    -0.309 N 
BRANCH   9  10
ATOM     10  C   UNL A   1      34.090  22.097  24.344  1.00  0.00     0.318 C 
ATOM     11  N   UNL A   1      33.758  20.809  24.203  1.00  0.00    -0.331 N 
ATOM     12  H   UNL A   1      34.556  20.239  24.301  1.00  0.00     0.165 HD
ATOM     13  O   UNL A   1      35.305  22.296  24.265  1.00  0.00    -0.249 OA
BRANCH  11  14
ATOM     14  C   UNL A   1      32.580  19.990  23.949  1.00  0.00     0.111 C 
ATOM     15  C   UNL A   1      32.063  20.196  22.525  1.00  0.00     0.036 C 
BRANCH  14  16
ATOM     16  C   UNL A   1      32.904  18.536  24.245  1.00  0.00    -0.026 A 
ATOM     17  C   UNL A   1      32.593  17.999  25.504  1.00  0.00     0.006 A 
ATOM     18  C   UNL A   1      33.562  17.721  23.308  1.00  0.00     0.006 A 
ATOM     19  C   UNL A   1      32.940  16.685  25.822  1.00  0.00     0.000 A 
ATOM     20  C   UNL A   1      33.915  16.411  23.632  1.00  0.00     0.000 A 
ATOM     21  C   UNL A   1      33.605  15.895  24.888  1.00  0.00     0.000 A 
ENDBRANCH  14  16
ENDBRANCH  11  14
ENDBRANCH   9  10
BRANCH   9  22
ATOM     22  C   UNL A   1      33.258  23.842  25.881  1.00  0.00     0.037 C 
ATOM     23  C   UNL A   1      33.824  22.937  27.005  1.00  0.00     0.034 C 
ATOM     24  C   UNL A   1      34.135  25.106  25.746  1.00  0.00     0.034 C 
ATOM     25  C   UNL A   1      31.892  24.339  26.389  1.00  0.00     0.034 C 
ENDBRANCH   9  22
ENDBRANCH   8   9
ENDBRANCH   6   8
ENDBRANCH   5   6
ENDBRANCH   4   5
ENDBRANCH   3   4
ENDBRANCH   2   3
ENDBRANCH   1   2
BRANCH   1  26
ATOM     26  C   UNL A   1      30.769  29.164  24.616  1.00  0.00     0.188 C 
BRANCH  26  27
ATOM     27  O   UNL A   1      31.171  28.191  25.572  1.00  0.00    -0.376 OA
BRANCH  27  28
ATOM     28  C   UNL A   1      31.811  28.671  26.752  1.00  0.00     0.202 C 
BRANCH  28  29
ATOM     29  C   UNL A   1      31.815  30.194  26.894  1.00  0.00     0.261 C 
BRANCH  29  30
ATOM     30  O   UNL A   1      33.099  30.727  26.506  1.00  0.00    -0.460 OA
BRANCH  30  31
ATOM     31  C   UNL A   1      33.642  31.578  27.399  1.00  0.00     0.338 C 
ATOM     32  O   UNL A   1      33.086  32.510  27.973  1.00  0.00    -0.246 OA
BRANCH  31  33
ATOM     33  C   UNL A   1      35.040  31.226  27.679  1.00  0.00     0.060 A 
ATOM     34  C   UNL A   1      35.371  29.890  27.901  1.00  0.00     0.016 A 
ATOM     35  C   UNL A   1      35.960  32.230  27.966  1.00  0.00     0.016 A 
ATOM     36  C   UNL A   1      36.571  29.553  28.527  1.00  0.00     0.010 A 
ATOM     37  C   UNL A   1      37.195  31.888  28.526  1.00  0.00     0.010 A 
ATOM     38  C   UNL A   1      37.486  30.555  28.872  1.00  0.00    -0.014 A 
BRANCH  38  39
ATOM     39  C   UNL A   1      38.680  30.252  29.710  1.00  0.00     0.031 A 
ATOM     40  C   UNL A   1      39.759  29.364  29.147  1.00  0.00     0.074 A 
ATOM     41  C   UNL A   1      38.830  30.766  30.945  1.00  0.00     0.049 A 
ATOM     42  N   UNL A   1      40.725  28.732  29.764  1.00  0.00    -0.248 NA
ATOM     43  C   UNL A   1      39.739  29.153  27.690  1.00  0.00     0.031 C 
ATOM     44  C   UNL A   1      37.930  31.723  31.585  1.00  0.00     0.029 A 
ATOM     45  N   UNL A   1      39.804  30.543  31.888  1.00  0.00    -0.354 N 
ATOM     46  C   UNL A   1      41.373  27.987  28.787  1.00  0.00     0.074 A 
ATOM     47  C   UNL A   1      40.711  28.266  27.531  1.00  0.00     0.031 C 
ATOM     48  C   UNL A   1      38.400  32.017  32.808  1.00  0.00     0.029 A 
ATOM     49  C   UNL A   1      39.579  31.198  33.074  1.00  0.00     0.049 A 
ATOM     50  H   UNL A   1      40.588  29.968  31.729  1.00  0.00     0.167 HD
ATOM     51  C   UNL A   1      42.416  27.135  28.933  1.00  0.00     0.037 A 
ATOM     52  C   UNL A   1      40.215  31.104  34.257  1.00  0.00     0.037 A 
ATOM     53  C   UNL A   1      43.113  26.918  30.173  1.00  0.00     0.049 A 
ATOM     54  C   UNL A   1      41.353  30.131  34.409  1.00  0.00     0.074 A 
ATOM     55  C   UNL A   1      44.168  26.061  30.435  1.00  0.00     0.029 A 
ATOM     56  N   UNL A   1      42.840  27.591  31.353  1.00  0.00    -0.354 N 
ATOM     57  N   UNL A   1      41.885  29.334  33.514  1.00  0.00    -0.248 NA
ATOM     58  C   UNL A   1      41.957  30.021  35.745  1.00  0.00     0.031 C 
ATOM     59  C   UNL A   1      44.522  26.203  31.783  1.00  0.00     0.029 A 
ATOM     60  C   UNL A   1      43.707  27.171  32.347  1.00  0.00     0.049 A 
ATOM     61  H   UNL A   1      42.134  28.267  31.468  1.00  0.00     0.167 HD
ATOM     62  C   UNL A   1      42.889  28.638  34.174  1.00  0.00     0.074 A 
ATOM     63  C   UNL A   1      42.906  29.119  35.539  1.00  0.00     0.031 C 
ATOM     64  C   UNL A   1      43.716  27.677  33.695  1.00  0.00     0.037 A 
BRANCH  51  65
ATOM     65  C   UNL A   1      42.833  26.336  27.736  1.00  0.00     0.064 A 
ATOM     66  C   UNL A   1      43.827  26.777  26.853  1.00  0.00     0.173 A 
ATOM     67  C   UNL A   1      42.245  25.084  27.493  1.00  0.00     0.173 A 
ATOM     68  F   UNL A   1      44.405  27.974  27.033  1.00  0.00    -0.203 F 
ATOM     69  C   UNL A   1      44.205  26.004  25.757  1.00  0.00     0.198 A 
ATOM     70  C   UNL A   1      42.642  24.302  26.412  1.00  0.00     0.198 A 
ATOM     71  F   UNL A   1      41.291  24.614  28.311  1.00  0.00    -0.203 F 
ATOM     72  F   UNL A   1      45.130  26.461  24.903  1.00  0.00    -0.200 F 
ATOM     73  C   UNL A   1      43.617  24.765  25.542  1.00  0.00     0.200 A 
ATOM     74  F   UNL A   1      42.078  23.103  26.210  1.00  0.00    -0.200 F 
ATOM     75  F   UNL A   1      43.987  24.020  24.491  1.00  0.00    -0.200 F 
ENDBRANCH  51  65
BRANCH  52  76
ATOM     76  C   UNL A   1      39.747  31.908  35.417  1.00  0.00     0.064 A 
ATOM     77  C   UNL A   1      38.737  31.433  36.264  1.00  0.00     0.173 A 
ATOM     78  C   UNL A   1      40.291  33.172  35.695  1.00  0.00     0.173 A 
ATOM     79  F   UNL A   1      38.164  30.245  36.020  1.00  0.00    -0.203 F 
ATOM     80  C   UNL A   1      38.282  32.195  37.339  1.00  0.00     0.198 A 
ATOM     81  C   UNL A   1      39.857  33.919  36.787  1.00  0.00     0.198 A 
ATOM     82  F   UNL A   1      41.256  33.675  34.910  1.00  0.00    -0.203 F 
ATOM     83  F   UNL A   1      37.286  31.736  38.107  1.00  0.00    -0.200 F 
ATOM     84  C   UNL A   1      38.848  33.433  37.605  1.00  0.00     0.200 A 
ATOM     85  F   UNL A   1      40.415  35.109  37.046  1.00  0.00    -0.200 F 
ATOM     86  F   UNL A   1      38.414  34.162  38.642  1.00  0.00    -0.200 F 
ENDBRANCH  52  76
BRANCH  64  87
ATOM     87  C   UNL A   1      44.728  27.111  34.644  1.00  0.00     0.064 A 
ATOM     88  C   UNL A   1      44.457  25.962  35.401  1.00  0.00     0.173 A 
ATOM     89  C   UNL A   1      45.993  27.703  34.767  1.00  0.00     0.173 A 
ATOM     90  F   UNL A   1      43.255  25.372  35.325  1.00  0.00    -0.203 F 
ATOM     91  C   UNL A   1      45.414  25.436  36.263  1.00  0.00     0.198 A 
ATOM     92  C   UNL A   1      46.954  27.162  35.615  1.00  0.00     0.198 A 
ATOM     93  F   UNL A   1      46.297  28.802  34.060  1.00  0.00    -0.203 F 
ATOM     94  F   UNL A   1      45.125  24.358  37.006  1.00  0.00    -0.200 F 
ATOM     95  C   UNL A   1      46.663  26.033  36.366  1.00  0.00     0.200 A 
ATOM     96  F   UNL A   1      48.162  27.735  35.708  1.00  0.00    -0.200 F 
ATOM     97  F   UNL A   1      47.585  25.523  37.195  1.00  0.00    -0.200 F 
ENDBRANCH  64  87
ENDBRANCH  38  39
ENDBRANCH  31  33
ENDBRANCH  30  31
ENDBRANCH  29  30
ENDBRANCH  28  29
ENDBRANCH  27  28
ENDBRANCH  26  27
ENDBRANCH   1  26
TORSDOF 22
ENDMDL
MODEL 3
REMARK VINA RESULT:     -10.9      3.298      8.451
REMARK SMILES C[C@H](NC(=O)N(CC(=O)OCCOCCOCCOC(=O)c1ccc(-c2c3nc(c(-c4c(F)c(F)c(F)c(F)c4F)c4ccc([nH]4)c(-c4c(F)c(F)c(F)c(F)c4F)c4nc(c(-c5c(F)c(F)c(F)c(F)c5F)c5ccc2[nH]5)C=C4)C=C3)cc1)C(C)(C)C)c1ccccc1
REMARK SMILES IDX 14 1 13 2 12 3 11 4 10 5 8 6 9 7 7 8 6 9 4 10 3 11 5 13 2 14
REMARK SMILES IDX 1 15 89 16 90 17 94 18 91 19 93 20 92 21 85 22 86 23 87 24
REMARK SMILES IDX 88 25 15 26 16 27 17 28 18 29 19 30 20 31 21 32 22 33 23 34
REMARK SMILES IDX 84 35 24 36 83 37 25 38 26 39 27 40 77 41 28 42 82 43 76 44
REMARK SMILES IDX 78 45 29 46 81 47 75 48 74 49 30 51 62 52 42 53 61 54 43 55
REMARK SMILES IDX 46 56 60 57 79 58 44 59 45 60 59 62 80 63 47 64 31 65 32 66
REMARK SMILES IDX 40 67 33 68 34 69 38 70 41 71 35 72 36 73 39 74 37 75 63 76
REMARK SMILES IDX 64 77 72 78 65 79 66 80 70 81 73 82 67 83 68 84 71 85 69 86
REMARK SMILES IDX 48 87 49 88 57 89 50 90 51 91 55 92 58 93 52 94 53 95 56 96
REMARK SMILES IDX 54 97
REMARK H PARENT 3 12 78 50 46 61
REMARK Flexibility Score: inf
ROOT
ATOM      1  C   UNL A   1      41.766  21.071  27.244  1.00  0.00     0.188 C 
ENDROOT
BRANCH   1   2
ATOM      2  O   UNL A   1      40.435  21.515  27.494  1.00  0.00    -0.376 OA
BRANCH   2   3
ATOM      3  C   UNL A   1      39.801  22.358  26.542  1.00  0.00     0.202 C 
BRANCH   3   4
ATOM      4  C   UNL A   1      38.476  21.829  25.985  1.00  0.00     0.261 C 
BRANCH   4   5
ATOM      5  O   UNL A   1      37.492  22.863  25.781  1.00  0.00    -0.462 OA
BRANCH   5   6
ATOM      6  C   UNL A   1      36.504  22.591  24.895  1.00  0.00     0.325 C 
ATOM      7  O   UNL A   1      36.685  22.160  23.759  1.00  0.00    -0.250 OA
BRANCH   6   8
ATOM      8  C   UNL A   1      35.085  22.863  25.424  1.00  0.00     0.244 C 
BRANCH   8   9
ATOM      9  N   UNL A   1      33.966  23.099  24.493  1.00  0.00    -0.309 N 
BRANCH   9  10
ATOM     10  C   UNL A   1      33.879  24.221  23.703  1.00  0.00     0.318 C 
ATOM     11  N   UNL A   1      33.073  25.260  23.954  1.00  0.00    -0.331 N 
ATOM     12  H   UNL A   1      32.998  25.833  23.157  1.00  0.00     0.165 HD
ATOM     13  O   UNL A   1      34.555  24.369  22.682  1.00  0.00    -0.249 OA
BRANCH  11  14
ATOM     14  C   UNL A   1      32.273  25.802  25.044  1.00  0.00     0.111 C 
ATOM     15  C   UNL A   1      33.129  26.642  25.992  1.00  0.00     0.036 C 
BRANCH  14  16
ATOM     16  C   UNL A   1      31.104  26.583  24.471  1.00  0.00    -0.026 A 
ATOM     17  C   UNL A   1      29.827  25.999  24.442  1.00  0.00     0.006 A 
ATOM     18  C   UNL A   1      31.273  27.861  23.912  1.00  0.00     0.006 A 
ATOM     19  C   UNL A   1      28.751  26.671  23.861  1.00  0.00     0.000 A 
ATOM     20  C   UNL A   1      30.198  28.526  23.323  1.00  0.00     0.000 A 
ATOM     21  C   UNL A   1      28.939  27.931  23.297  1.00  0.00     0.000 A 
ENDBRANCH  14  16
ENDBRANCH  11  14
ENDBRANCH   9  10
BRANCH   9  22
ATOM     22  C   UNL A   1      32.939  22.003  24.247  1.00  0.00     0.037 C 
ATOM     23  C   UNL A   1      33.523  20.592  24.516  1.00  0.00     0.034 C 
ATOM     24  C   UNL A   1      31.701  22.228  25.143  1.00  0.00     0.034 C 
ATOM     25  C   UNL A   1      32.404  21.969  22.804  1.00  0.00     0.034 C 
ENDBRANCH   9  22
ENDBRANCH   8   9
ENDBRANCH   6   8
ENDBRANCH   5   6
ENDBRANCH   4   5
ENDBRANCH   3   4
ENDBRANCH   2   3
ENDBRANCH   1   2
BRANCH   1  26
ATOM     26  C   UNL A   1      42.005  19.894  26.285  1.00  0.00     0.188 C 
BRANCH  26  27
ATOM     27  O   UNL A   1      42.918  20.115  25.218  1.00  0.00    -0.376 OA
BRANCH  27  28
ATOM     28  C   UNL A   1      44.023  20.977  25.479  1.00  0.00     0.202 C 
BRANCH  28  29
ATOM     29  C   UNL A   1      44.232  22.072  24.431  1.00  0.00     0.261 C 
BRANCH  29  30
ATOM     30  O   UNL A   1      43.335  23.176  24.677  1.00  0.00    -0.460 OA
BRANCH  30  31
ATOM     31  C   UNL A   1      43.949  24.353  24.903  1.00  0.00     0.338 C 
ATOM     32  O   UNL A   1      45.059  24.702  24.509  1.00  0.00    -0.246 OA
BRANCH  31  33
ATOM     33  C   UNL A   1      43.086  25.260  25.669  1.00  0.00     0.060 A 
ATOM     34  C   UNL A   1      43.082  26.619  25.357  1.00  0.00     0.016 A 
ATOM     35  C   UNL A   1      42.481  24.811  26.840  1.00  0.00     0.016 A 
ATOM     36  C   UNL A   1      42.589  27.553  26.267  1.00  0.00     0.010 A 
ATOM     37  C   UNL A   1      41.919  25.741  27.720  1.00  0.00     0.010 A 
ATOM     38  C   UNL A   1      42.025  27.123  27.474  1.00  0.00    -0.014 A 
BRANCH  38  39
ATOM     39  C   UNL A   1      41.668  28.095  28.546  1.00  0.00     0.031 A 
ATOM     40  C   UNL A   1      42.594  28.251  29.725  1.00  0.00     0.074 A 
ATOM     41  C   UNL A   1      40.556  28.849  28.480  1.00  0.00     0.049 A 
ATOM     42  N   UNL A   1      42.370  28.795  30.894  1.00  0.00    -0.248 NA
ATOM     43  C   UNL A   1      43.954  27.709  29.566  1.00  0.00     0.031 C 
ATOM     44  C   UNL A   1      39.620  28.893  27.358  1.00  0.00     0.029 A 
ATOM     45  N   UNL A   1      40.022  29.728  29.393  1.00  0.00    -0.354 N 
ATOM     46  C   UNL A   1      43.528  28.589  31.634  1.00  0.00     0.074 A 
ATOM     47  C   UNL A   1      44.464  27.896  30.775  1.00  0.00     0.031 C 
ATOM     48  C   UNL A   1      38.637  29.762  27.640  1.00  0.00     0.029 A 
ATOM     49  C   UNL A   1      38.821  30.264  28.999  1.00  0.00     0.049 A 
ATOM     50  H   UNL A   1      40.459  29.952  30.247  1.00  0.00     0.167 HD
ATOM     51  C   UNL A   1      43.776  28.934  32.920  1.00  0.00     0.037 A 
ATOM     52  C   UNL A   1      37.940  31.024  29.677  1.00  0.00     0.037 A 
ATOM     53  C   UNL A   1      42.867  29.686  33.744  1.00  0.00     0.049 A 
ATOM     54  C   UNL A   1      38.220  31.374  31.113  1.00  0.00     0.074 A 
ATOM     55  C   UNL A   1      43.012  30.071  35.066  1.00  0.00     0.029 A 
ATOM     56  N   UNL A   1      41.654  30.194  33.309  1.00  0.00    -0.354 N 
ATOM     57  N   UNL A   1      39.260  31.072  31.852  1.00  0.00    -0.248 NA
ATOM     58  C   UNL A   1      37.186  32.143  31.821  1.00  0.00     0.031 C 
ATOM     59  C   UNL A   1      41.874  30.797  35.436  1.00  0.00     0.029 A 
ATOM     60  C   UNL A   1      41.039  30.891  34.335  1.00  0.00     0.049 A 
ATOM     61  H   UNL A   1      41.284  30.077  32.404  1.00  0.00     0.167 HD
ATOM     62  C   UNL A   1      39.012  31.620  33.103  1.00  0.00     0.074 A 
ATOM     63  C   UNL A   1      37.732  32.290  33.020  1.00  0.00     0.031 C 
ATOM     64  C   UNL A   1      39.771  31.564  34.224  1.00  0.00     0.037 A 
BRANCH  51  65
ATOM     65  C   UNL A   1      45.060  28.459  33.532  1.00  0.00     0.064 A 
ATOM     66  C   UNL A   1      45.184  27.192  34.115  1.00  0.00     0.173 A 
ATOM     67  C   UNL A   1      46.196  29.283  33.497  1.00  0.00     0.173 A 
ATOM     68  F   UNL A   1      44.122  26.376  34.188  1.00  0.00    -0.203 F 
ATOM     69  C   UNL A   1      46.395  26.772  34.661  1.00  0.00     0.198 A 
ATOM     70  C   UNL A   1      47.411  28.852  34.022  1.00  0.00     0.198 A 
ATOM     71  F   UNL A   1      46.130  30.505  32.947  1.00  0.00    -0.203 F 
ATOM     72  F   UNL A   1      46.484  25.572  35.249  1.00  0.00    -0.200 F 
ATOM     73  C   UNL A   1      47.509  27.600  34.608  1.00  0.00     0.200 A 
ATOM     74  F   UNL A   1      48.487  29.650  33.962  1.00  0.00    -0.200 F 
ATOM     75  F   UNL A   1      48.674  27.191  35.129  1.00  0.00    -0.200 F 
ENDBRANCH  51  65
BRANCH  52  76
ATOM     76  C   UNL A   1      36.675  31.454  29.026  1.00  0.00     0.064 A 
ATOM     77  C   UNL A   1      35.627  30.546  28.817  1.00  0.00     0.173 A 
ATOM     78  C   UNL A   1      36.491  32.774  28.589  1.00  0.00     0.173 A 
ATOM     79  F   UNL A   1      35.768  29.265  29.188  1.00  0.00    -0.203 F 
ATOM     80  C   UNL A   1      34.448  30.941  28.187  1.00  0.00     0.198 A 
ATOM     81  C   UNL A   1      35.300  33.176  27.987  1.00  0.00     0.198 A 
ATOM     82  F   UNL A   1      37.466  33.680  28.760  1.00  0.00    -0.203 F 
ATOM     83  F   UNL A   1      33.480  30.044  27.961  1.00  0.00    -0.200 F 
ATOM     84  C   UNL A   1      34.283  32.257  27.781  1.00  0.00     0.200 A 
ATOM     85  F   UNL A   1      35.141  34.450  27.607  1.00  0.00    -0.200 F 
ATOM     86  F   UNL A   1      33.146  32.638  27.182  1.00  0.00    -0.200 F 
ENDBRANCH  52  76
BRANCH  64  87
ATOM     87  C   UNL A   1      39.252  32.274  35.437  1.00  0.00     0.064 A 
ATOM     88  C   UNL A   1      38.509  31.600  36.417  1.00  0.00     0.173 A 
ATOM     89  C   UNL A   1      39.535  33.632  35.639  1.00  0.00     0.173 A 
ATOM     90  F   UNL A   1      38.203  30.303  36.258  1.00  0.00    -0.203 F 
ATOM     91  C   UNL A   1      38.051  32.268  37.548  1.00  0.00     0.198 A 
ATOM     92  C   UNL A   1      39.092  34.292  36.781  1.00  0.00     0.198 A 
ATOM     93  F   UNL A   1      40.245  34.317  34.730  1.00  0.00    -0.203 F 
ATOM     94  F   UNL A   1      37.310  31.615  38.456  1.00  0.00    -0.200 F 
ATOM     95  C   UNL A   1      38.347  33.611  37.732  1.00  0.00     0.200 A 
ATOM     96  F   UNL A   1      39.384  35.587  36.961  1.00  0.00    -0.200 F 
ATOM     97  F   UNL A   1      37.907  34.251  38.824  1.00  0.00    -0.200 F 
ENDBRANCH  64  87
ENDBRANCH  38  39
ENDBRANCH  31  33
ENDBRANCH  30  31
ENDBRANCH  29  30
ENDBRANCH  28  29
ENDBRANCH  27  28
ENDBRANCH  26  27
ENDBRANCH   1  26
TORSDOF 22
ENDMDL
