MODEL 1
REMARK VINA RESULT:     -12.6      0.000      0.000
REMARK SMILES COc1cc(Cl)c(C)cc1N1C(=O)C[C@H](Nc2cc(C(=O)OCCOCCOCCOC(=O)c3ccc(-c4c5nc(c(-c6c(F)c(F)c(F)c(F)c6F)c6ccc([nH]6)c(-c6c(F)c(F)c(F)c(F)c6F)c6nc(c(-c7c(F)c(F)c(F)c(F)c7F)c7ccc4[nH]7)C=C6)C=C5)cc3)ccc2C)C1=O
REMARK SMILES IDX 26 1 25 2 24 3 23 4 22 5 20 6 21 7 19 8 17 9 18 10 99 11
REMARK SMILES IDX 98 12 100 13 97 14 16 15 15 17 11 18 12 19 101 20 13 21
REMARK SMILES IDX 14 22 102 23 10 24 3 25 4 26 5 27 9 28 6 29 7 30 8 31 2 32
REMARK SMILES IDX 1 33 27 34 28 35 29 36 30 37 31 38 32 39 33 40 34 41 35 42
REMARK SMILES IDX 96 43 36 44 95 45 37 46 38 47 39 48 89 49 40 50 94 51 88 52
REMARK SMILES IDX 90 53 41 54 93 55 87 56 86 57 42 59 74 60 54 61 73 62 55 63
REMARK SMILES IDX 58 64 72 65 91 66 56 67 57 68 71 70 92 71 59 72 43 73 44 74
REMARK SMILES IDX 52 75 45 76 46 77 50 78 53 79 47 80 48 81 51 82 49 83 75 84
REMARK SMILES IDX 76 85 84 86 77 87 78 88 82 89 85 90 79 91 80 92 83 93 81 94
REMARK SMILES IDX 60 95 61 96 69 97 62 98 63 99 67 100 70 101 64 102 65 103
REMARK SMILES IDX 68 104 66 105
REMARK H PARENT 16 16 90 58 58 69
REMARK Flexibility Score: inf
ROOT
ATOM      1  C   UNL A   1      34.263  34.883  28.047  1.00  0.00     0.188 C 
ENDROOT
BRANCH   1   2
ATOM      2  O   UNL A   1      35.110  33.727  27.820  1.00  0.00    -0.376 OA
BRANCH   2   3
ATOM      3  C   UNL A   1      34.868  32.487  28.541  1.00  0.00     0.202 C 
BRANCH   3   4
ATOM      4  C   UNL A   1      35.499  31.081  27.880  1.00  0.00     0.261 C 
BRANCH   4   5
ATOM      5  O   UNL A   1      34.751  29.943  26.925  1.00  0.00    -0.460 OA
BRANCH   5   6
ATOM      6  C   UNL A   1      33.487  29.430  26.642  1.00  0.00     0.338 C 
ATOM      7  O   UNL A   1      32.614  29.015  27.398  1.00  0.00    -0.246 OA
BRANCH   6   8
ATOM      8  C   UNL A   1      32.926  29.312  25.280  1.00  0.00     0.062 A 
ATOM      9  C   UNL A   1      32.343  27.373  23.988  1.00  0.00     0.038 A 
ATOM     10  C   UNL A   1      33.312  28.150  24.647  1.00  0.00     0.041 A 
ATOM     11  C   UNL A   1      31.056  27.882  23.711  1.00  0.00    -0.028 A 
ATOM     12  C   UNL A   1      30.700  29.124  24.234  1.00  0.00     0.006 A 
ATOM     13  C   UNL A   1      30.042  27.137  22.887  1.00  0.00     0.046 C 
ATOM     14  C   UNL A   1      31.601  29.791  25.066  1.00  0.00     0.016 A 
BRANCH   9  15
ATOM     15  N   UNL A   1      32.587  25.977  23.955  1.00  0.00    -0.373 N 
ATOM     16  H   UNL A   1      31.933  25.303  23.657  1.00  0.00     0.161 HD
BRANCH  15  17
ATOM     17  C   UNL A   1      33.966  25.663  24.435  1.00  0.00     0.179 C 
ATOM     18  N   UNL A   1      34.368  23.400  24.893  1.00  0.00    -0.245 N 
ATOM     19  C   UNL A   1      33.971  23.955  26.080  1.00  0.00     0.236 C 
ATOM     20  C   UNL A   1      34.461  24.327  23.883  1.00  0.00     0.256 C 
ATOM     21  O   UNL A   1      33.766  23.381  27.142  1.00  0.00    -0.274 OA
ATOM     22  C   UNL A   1      33.957  25.446  25.934  1.00  0.00     0.136 C 
ATOM     23  O   UNL A   1      34.737  24.115  22.709  1.00  0.00    -0.272 OA
BRANCH  18  24
ATOM     24  C   UNL A   1      34.564  22.018  24.684  1.00  0.00     0.094 A 
ATOM     25  C   UNL A   1      33.499  21.156  24.385  1.00  0.00     0.144 A 
ATOM     26  C   UNL A   1      33.700  19.775  24.332  1.00  0.00     0.069 A 
ATOM     27  C   UNL A   1      34.972  19.245  24.555  1.00  0.00     0.047 A 
ATOM     28  C   UNL A   1      35.847  21.478  24.865  1.00  0.00     0.035 A 
ATOM     29  Cl  UNL A   1      35.160  17.530  24.474  1.00  0.00    -0.084 Cl
ATOM     30  C   UNL A   1      36.060  20.088  24.833  1.00  0.00    -0.030 A 
ATOM     31  C   UNL A   1      37.432  19.546  25.124  1.00  0.00     0.046 C 
BRANCH  25  32
ATOM     32  O   UNL A   1      32.222  21.591  24.123  1.00  0.00    -0.495 OA
ATOM     33  C   UNL A   1      31.807  21.251  22.800  1.00  0.00     0.278 C 
ENDBRANCH  25  32
ENDBRANCH  18  24
ENDBRANCH  15  17
ENDBRANCH   9  15
ENDBRANCH   6   8
ENDBRANCH   5   6
ENDBRANCH   4   5
ENDBRANCH   3   4
ENDBRANCH   2   3
ENDBRANCH   1   2
BRANCH   1  34
ATOM     34  C   UNL A   1      33.451  34.661  29.340  1.00  0.00     0.188 C 
BRANCH  34  35
ATOM     35  O   UNL A   1      32.835  35.908  29.625  1.00  0.00    -0.376 OA
BRANCH  35  36
ATOM     36  C   UNL A   1      33.072  36.491  30.889  1.00  0.00     0.202 C 
BRANCH  36  37
ATOM     37  C   UNL A   1      33.259  35.439  31.992  1.00  0.00     0.261 C 
BRANCH  37  38
ATOM     38  O   UNL A   1      34.650  35.376  32.403  1.00  0.00    -0.460 OA
BRANCH  38  39
ATOM     39  C   UNL A   1      35.062  34.233  33.036  1.00  0.00     0.338 C 
ATOM     40  O   UNL A   1      35.071  34.077  34.250  1.00  0.00    -0.246 OA
BRANCH  39  41
ATOM     41  C   UNL A   1      35.743  33.303  32.067  1.00  0.00     0.060 A 
ATOM     42  C   UNL A   1      35.738  31.902  32.116  1.00  0.00     0.016 A 
ATOM     43  C   UNL A   1      36.737  33.843  31.325  1.00  0.00     0.016 A 
ATOM     44  C   UNL A   1      36.810  31.105  31.518  1.00  0.00     0.010 A 
ATOM     45  C   UNL A   1      37.849  33.031  31.084  1.00  0.00     0.010 A 
ATOM     46  C   UNL A   1      37.984  31.662  30.997  1.00  0.00    -0.014 A 
BRANCH  46  47
ATOM     47  C   UNL A   1      39.369  30.976  30.675  1.00  0.00     0.031 A 
ATOM     48  C   UNL A   1      39.825  29.603  29.937  1.00  0.00     0.074 A 
ATOM     49  C   UNL A   1      40.445  31.728  31.006  1.00  0.00     0.049 A 
ATOM     50  N   UNL A   1      40.815  28.826  30.350  1.00  0.00    -0.248 NA
ATOM     51  C   UNL A   1      39.274  28.971  28.708  1.00  0.00     0.031 C 
ATOM     52  C   UNL A   1      41.851  31.464  30.718  1.00  0.00     0.029 A 
ATOM     53  N   UNL A   1      40.476  32.820  31.884  1.00  0.00    -0.354 N 
ATOM     54  C   UNL A   1      40.966  27.786  29.423  1.00  0.00     0.074 A 
ATOM     55  C   UNL A   1      39.776  27.746  28.689  1.00  0.00     0.031 C 
ATOM     56  C   UNL A   1      42.587  32.064  31.666  1.00  0.00     0.029 A 
ATOM     57  C   UNL A   1      41.665  32.663  32.614  1.00  0.00     0.049 A 
ATOM     58  H   UNL A   1      39.809  33.540  31.969  1.00  0.00     0.167 HD
ATOM     59  C   UNL A   1      42.097  27.084  29.142  1.00  0.00     0.037 A 
ATOM     60  C   UNL A   1      41.620  32.447  33.957  1.00  0.00     0.037 A 
ATOM     61  C   UNL A   1      43.118  27.410  30.093  1.00  0.00     0.049 A 
ATOM     62  C   UNL A   1      42.286  31.153  34.366  1.00  0.00     0.074 A 
ATOM     63  C   UNL A   1      44.233  28.219  30.035  1.00  0.00     0.029 A 
ATOM     64  N   UNL A   1      42.846  27.177  31.434  1.00  0.00    -0.354 N 
ATOM     65  N   UNL A   1      42.618  30.195  33.541  1.00  0.00    -0.248 NA
ATOM     66  C   UNL A   1      42.615  30.835  35.751  1.00  0.00     0.031 C 
ATOM     67  C   UNL A   1      44.521  28.618  31.370  1.00  0.00     0.029 A 
ATOM     68  C   UNL A   1      43.641  27.973  32.227  1.00  0.00     0.049 A 
ATOM     69  H   UNL A   1      42.180  26.534  31.768  1.00  0.00     0.167 HD
ATOM     70  C   UNL A   1      43.125  29.138  34.251  1.00  0.00     0.074 A 
ATOM     71  C   UNL A   1      43.137  29.604  35.624  1.00  0.00     0.031 C 
ATOM     72  C   UNL A   1      43.472  27.952  33.671  1.00  0.00     0.037 A 
BRANCH  59  73
ATOM     73  C   UNL A   1      42.256  26.177  27.913  1.00  0.00     0.064 A 
ATOM     74  C   UNL A   1      43.065  26.557  26.826  1.00  0.00     0.173 A 
ATOM     75  C   UNL A   1      41.609  24.922  27.737  1.00  0.00     0.173 A 
ATOM     76  F   UNL A   1      43.681  27.747  26.821  1.00  0.00    -0.203 F 
ATOM     77  C   UNL A   1      43.269  25.723  25.710  1.00  0.00     0.198 A 
ATOM     78  C   UNL A   1      41.886  24.054  26.674  1.00  0.00     0.198 A 
ATOM     79  F   UNL A   1      40.636  24.507  28.559  1.00  0.00    -0.203 F 
ATOM     80  F   UNL A   1      44.017  26.149  24.683  1.00  0.00    -0.200 F 
ATOM     81  C   UNL A   1      42.713  24.457  25.654  1.00  0.00     0.200 A 
ATOM     82  F   UNL A   1      41.328  22.833  26.645  1.00  0.00    -0.200 F 
ATOM     83  F   UNL A   1      42.949  23.644  24.613  1.00  0.00    -0.200 F 
ENDBRANCH  59  73
BRANCH  60  84
ATOM     84  C   UNL A   1      40.484  33.139  34.644  1.00  0.00     0.064 A 
ATOM     85  C   UNL A   1      39.296  32.399  34.862  1.00  0.00     0.173 A 
ATOM     86  C   UNL A   1      40.610  34.342  35.348  1.00  0.00     0.173 A 
ATOM     87  F   UNL A   1      39.107  31.234  34.220  1.00  0.00    -0.203 F 
ATOM     88  C   UNL A   1      38.356  32.771  35.821  1.00  0.00     0.198 A 
ATOM     89  C   UNL A   1      39.644  34.731  36.291  1.00  0.00     0.198 A 
ATOM     90  F   UNL A   1      41.727  35.077  35.245  1.00  0.00    -0.203 F 
ATOM     91  F   UNL A   1      37.326  31.958  36.096  1.00  0.00    -0.200 F 
ATOM     92  C   UNL A   1      38.538  33.931  36.546  1.00  0.00     0.200 A 
ATOM     93  F   UNL A   1      39.855  35.815  37.053  1.00  0.00    -0.200 F 
ATOM     94  F   UNL A   1      37.695  34.239  37.543  1.00  0.00    -0.200 F 
ENDBRANCH  60  84
BRANCH  72  95
ATOM     95  C   UNL A   1      43.738  26.665  34.420  1.00  0.00     0.064 A 
ATOM     96  C   UNL A   1      42.724  25.834  34.928  1.00  0.00     0.173 A 
ATOM     97  C   UNL A   1      45.052  26.147  34.521  1.00  0.00     0.173 A 
ATOM     98  F   UNL A   1      41.427  26.131  34.762  1.00  0.00    -0.203 F 
ATOM     99  C   UNL A   1      43.008  24.629  35.576  1.00  0.00     0.198 A 
ATOM    100  C   UNL A   1      45.325  24.911  35.105  1.00  0.00     0.198 A 
ATOM    101  F   UNL A   1      46.107  26.814  34.030  1.00  0.00    -0.203 F 
ATOM    102  F   UNL A   1      42.007  23.908  36.100  1.00  0.00    -0.200 F 
ATOM    103  C   UNL A   1      44.306  24.164  35.658  1.00  0.00     0.200 A 
ATOM    104  F   UNL A   1      46.581  24.442  35.116  1.00  0.00    -0.200 F 
ATOM    105  F   UNL A   1      44.569  22.989  36.244  1.00  0.00    -0.200 F 
ENDBRANCH  72  95
ENDBRANCH  46  47
ENDBRANCH  39  41
ENDBRANCH  38  39
ENDBRANCH  37  38
ENDBRANCH  36  37
ENDBRANCH  35  36
ENDBRANCH  34  35
ENDBRANCH   1  34
TORSDOF 21
ENDMDL
MODEL 2
REMARK VINA RESULT:     -11.8      3.839      8.140
REMARK SMILES COc1cc(Cl)c(C)cc1N1C(=O)C[C@H](Nc2cc(C(=O)OCCOCCOCCOC(=O)c3ccc(-c4c5nc(c(-c6c(F)c(F)c(F)c(F)c6F)c6ccc([nH]6)c(-c6c(F)c(F)c(F)c(F)c6F)c6nc(c(-c7c(F)c(F)c(F)c(F)c7F)c7ccc4[nH]7)C=C6)C=C5)cc3)ccc2C)C1=O
REMARK SMILES IDX 26 1 25 2 24 3 23 4 22 5 20 6 21 7 19 8 17 9 18 10 99 11
REMARK SMILES IDX 98 12 100 13 97 14 16 15 15 17 11 18 12 19 101 20 13 21
REMARK SMILES IDX 14 22 102 23 10 24 3 25 4 26 5 27 9 28 6 29 7 30 8 31 2 32
REMARK SMILES IDX 1 33 27 34 28 35 29 36 30 37 31 38 32 39 33 40 34 41 35 42
REMARK SMILES IDX 96 43 36 44 95 45 37 46 38 47 39 48 89 49 40 50 94 51 88 52
REMARK SMILES IDX 90 53 41 54 93 55 87 56 86 57 42 59 74 60 54 61 73 62 55 63
REMARK SMILES IDX 58 64 72 65 91 66 56 67 57 68 71 70 92 71 59 72 43 73 44 74
REMARK SMILES IDX 52 75 45 76 46 77 50 78 53 79 47 80 48 81 51 82 49 83 75 84
REMARK SMILES IDX 76 85 84 86 77 87 78 88 82 89 85 90 79 91 80 92 83 93 81 94
REMARK SMILES IDX 60 95 61 96 69 97 62 98 63 99 67 100 70 101 64 102 65 103
REMARK SMILES IDX 68 104 66 105
REMARK H PARENT 16 16 90 58 58 69
REMARK Flexibility Score: inf
ROOT
ATOM      1  C   UNL A   1      32.537  30.700  26.321  1.00  0.00     0.188 C 
ENDROOT
BRANCH   1   2
ATOM      2  O   UNL A   1      31.831  29.466  26.609  1.00  0.00    -0.376 OA
BRANCH   2   3
ATOM      3  C   UNL A   1      32.544  28.321  27.150  1.00  0.00     0.202 C 
BRANCH   3   4
ATOM      4  C   UNL A   1      33.655  27.565  26.147  1.00  0.00     0.261 C 
BRANCH   4   5
ATOM      5  O   UNL A   1      33.956  27.822  24.531  1.00  0.00    -0.460 OA
BRANCH   5   6
ATOM      6  C   UNL A   1      33.456  28.525  23.437  1.00  0.00     0.338 C 
ATOM      7  O   UNL A   1      33.981  29.392  22.748  1.00  0.00    -0.246 OA
BRANCH   6   8
ATOM      8  C   UNL A   1      32.113  28.312  22.859  1.00  0.00     0.062 A 
ATOM      9  C   UNL A   1      30.587  26.469  23.074  1.00  0.00     0.038 A 
ATOM     10  C   UNL A   1      31.829  26.978  22.655  1.00  0.00     0.041 A 
ATOM     11  C   UNL A   1      29.523  27.326  23.433  1.00  0.00    -0.028 A 
ATOM     12  C   UNL A   1      29.765  28.696  23.510  1.00  0.00     0.006 A 
ATOM     13  C   UNL A   1      28.142  26.824  23.751  1.00  0.00     0.046 C 
ATOM     14  C   UNL A   1      31.061  29.168  23.295  1.00  0.00     0.016 A 
BRANCH   9  15
ATOM     15  N   UNL A   1      30.579  25.108  23.470  1.00  0.00    -0.373 N 
ATOM     16  H   UNL A   1      30.110  24.389  22.986  1.00  0.00     0.161 HD
BRANCH  15  17
ATOM     17  C   UNL A   1      31.374  24.908  24.718  1.00  0.00     0.179 C 
ATOM     18  N   UNL A   1      32.014  22.694  25.145  1.00  0.00    -0.245 N 
ATOM     19  C   UNL A   1      30.829  22.873  25.807  1.00  0.00     0.236 C 
ATOM     20  C   UNL A   1      32.453  23.842  24.530  1.00  0.00     0.256 C 
ATOM     21  O   UNL A   1      30.178  22.033  26.413  1.00  0.00    -0.274 OA
ATOM     22  C   UNL A   1      30.493  24.333  25.808  1.00  0.00     0.136 C 
ATOM     23  O   UNL A   1      33.446  23.970  23.824  1.00  0.00    -0.272 OA
BRANCH  18  24
ATOM     24  C   UNL A   1      32.674  21.454  25.009  1.00  0.00     0.094 A 
ATOM     25  C   UNL A   1      33.897  21.192  25.646  1.00  0.00     0.144 A 
ATOM     26  C   UNL A   1      34.598  20.017  25.374  1.00  0.00     0.069 A 
ATOM     27  C   UNL A   1      34.074  19.081  24.480  1.00  0.00     0.047 A 
ATOM     28  C   UNL A   1      32.137  20.488  24.145  1.00  0.00     0.035 A 
ATOM     29  Cl  UNL A   1      34.986  17.644  24.185  1.00  0.00    -0.084 Cl
ATOM     30  C   UNL A   1      32.841  19.308  23.847  1.00  0.00    -0.030 A 
ATOM     31  C   UNL A   1      32.272  18.343  22.844  1.00  0.00     0.046 C 
BRANCH  25  32
ATOM     32  O   UNL A   1      34.471  22.041  26.562  1.00  0.00    -0.495 OA
ATOM     33  C   UNL A   1      33.841  21.949  27.839  1.00  0.00     0.278 C 
ENDBRANCH  25  32
ENDBRANCH  18  24
ENDBRANCH  15  17
ENDBRANCH   9  15
ENDBRANCH   6   8
ENDBRANCH   5   6
ENDBRANCH   4   5
ENDBRANCH   3   4
ENDBRANCH   2   3
ENDBRANCH   1   2
BRANCH   1  34
ATOM     34  C   UNL A   1      33.206  31.206  27.616  1.00  0.00     0.188 C 
BRANCH  34  35
ATOM     35  O   UNL A   1      32.946  32.601  27.663  1.00  0.00    -0.376 OA
BRANCH  35  36
ATOM     36  C   UNL A   1      33.915  33.436  28.260  1.00  0.00     0.202 C 
BRANCH  36  37
ATOM     37  C   UNL A   1      33.291  34.668  28.932  1.00  0.00     0.261 C 
BRANCH  37  38
ATOM     38  O   UNL A   1      33.036  34.406  30.337  1.00  0.00    -0.460 OA
BRANCH  38  39
ATOM     39  C   UNL A   1      33.679  35.203  31.247  1.00  0.00     0.338 C 
ATOM     40  O   UNL A   1      33.975  36.375  31.056  1.00  0.00    -0.246 OA
BRANCH  39  41
ATOM     41  C   UNL A   1      34.200  34.385  32.399  1.00  0.00     0.060 A 
ATOM     42  C   UNL A   1      34.329  34.807  33.729  1.00  0.00     0.016 A 
ATOM     43  C   UNL A   1      34.948  33.306  32.069  1.00  0.00     0.016 A 
ATOM     44  C   UNL A   1      35.302  34.204  34.640  1.00  0.00     0.010 A 
ATOM     45  C   UNL A   1      36.044  33.030  32.893  1.00  0.00     0.010 A 
ATOM     46  C   UNL A   1      36.274  33.284  34.228  1.00  0.00    -0.014 A 
BRANCH  46  47
ATOM     47  C   UNL A   1      37.605  32.832  34.948  1.00  0.00     0.031 A 
ATOM     48  C   UNL A   1      38.604  33.503  36.038  1.00  0.00     0.074 A 
ATOM     49  C   UNL A   1      37.973  31.559  34.673  1.00  0.00     0.049 A 
ATOM     50  N   UNL A   1      39.925  33.409  35.998  1.00  0.00    -0.248 NA
ATOM     51  C   UNL A   1      38.272  34.305  37.247  1.00  0.00     0.031 C 
ATOM     52  C   UNL A   1      39.055  30.785  35.274  1.00  0.00     0.029 A 
ATOM     53  N   UNL A   1      37.539  30.765  33.603  1.00  0.00    -0.354 N 
ATOM     54  C   UNL A   1      40.439  34.040  37.140  1.00  0.00     0.074 A 
ATOM     55  C   UNL A   1      39.414  34.858  37.625  1.00  0.00     0.031 C 
ATOM     56  C   UNL A   1      39.458  29.872  34.376  1.00  0.00     0.029 A 
ATOM     57  C   UNL A   1      38.690  30.091  33.164  1.00  0.00     0.049 A 
ATOM     58  H   UNL A   1      36.626  30.695  33.239  1.00  0.00     0.167 HD
ATOM     59  C   UNL A   1      41.612  33.773  37.776  1.00  0.00     0.037 A 
ATOM     60  C   UNL A   1      39.182  30.319  31.916  1.00  0.00     0.037 A 
ATOM     61  C   UNL A   1      42.395  32.867  36.988  1.00  0.00     0.049 A 
ATOM     62  C   UNL A   1      40.607  30.824  31.929  1.00  0.00     0.074 A 
ATOM     63  C   UNL A   1      42.643  31.514  37.081  1.00  0.00     0.029 A 
ATOM     64  N   UNL A   1      42.737  33.263  35.703  1.00  0.00    -0.354 N 
ATOM     65  N   UNL A   1      41.225  31.273  32.990  1.00  0.00    -0.248 NA
ATOM     66  C   UNL A   1      41.443  30.873  30.734  1.00  0.00     0.031 C 
ATOM     67  C   UNL A   1      42.970  31.066  35.771  1.00  0.00     0.029 A 
ATOM     68  C   UNL A   1      43.011  32.162  34.923  1.00  0.00     0.049 A 
ATOM     69  H   UNL A   1      42.779  34.196  35.395  1.00  0.00     0.167 HD
ATOM     70  C   UNL A   1      42.472  31.721  32.634  1.00  0.00     0.074 A 
ATOM     71  C   UNL A   1      42.571  31.413  31.221  1.00  0.00     0.031 C 
ATOM     72  C   UNL A   1      43.319  32.335  33.512  1.00  0.00     0.037 A 
BRANCH  59  73
ATOM     73  C   UNL A   1      41.960  34.292  39.178  1.00  0.00     0.064 A 
ATOM     74  C   UNL A   1      41.689  33.525  40.327  1.00  0.00     0.173 A 
ATOM     75  C   UNL A   1      42.542  35.560  39.457  1.00  0.00     0.173 A 
ATOM     76  F   UNL A   1      41.077  32.338  40.222  1.00  0.00    -0.203 F 
ATOM     77  C   UNL A   1      42.044  33.955  41.621  1.00  0.00     0.198 A 
ATOM     78  C   UNL A   1      42.979  35.945  40.730  1.00  0.00     0.198 A 
ATOM     79  F   UNL A   1      42.660  36.506  38.516  1.00  0.00    -0.203 F 
ATOM     80  F   UNL A   1      41.728  33.204  42.685  1.00  0.00    -0.200 F 
ATOM     81  C   UNL A   1      42.724  35.143  41.817  1.00  0.00     0.200 A 
ATOM     82  F   UNL A   1      43.634  37.106  40.891  1.00  0.00    -0.200 F 
ATOM     83  F   UNL A   1      43.106  35.527  43.044  1.00  0.00    -0.200 F 
ENDBRANCH  59  73
BRANCH  60  84
ATOM     84  C   UNL A   1      38.128  30.608  30.892  1.00  0.00     0.064 A 
ATOM     85  C   UNL A   1      38.063  31.921  30.365  1.00  0.00     0.173 A 
ATOM     86  C   UNL A   1      37.414  29.620  30.204  1.00  0.00     0.173 A 
ATOM     87  F   UNL A   1      38.725  32.919  30.974  1.00  0.00    -0.203 F 
ATOM     88  C   UNL A   1      37.433  32.204  29.155  1.00  0.00     0.198 A 
ATOM     89  C   UNL A   1      36.752  29.915  29.001  1.00  0.00     0.198 A 
ATOM     90  F   UNL A   1      37.467  28.341  30.600  1.00  0.00    -0.203 F 
ATOM     91  F   UNL A   1      37.529  33.431  28.623  1.00  0.00    -0.200 F 
ATOM     92  C   UNL A   1      36.789  31.196  28.465  1.00  0.00     0.200 A 
ATOM     93  F   UNL A   1      36.192  28.926  28.288  1.00  0.00    -0.200 F 
ATOM     94  F   UNL A   1      36.274  31.438  27.250  1.00  0.00    -0.200 F 
ENDBRANCH  60  84
BRANCH  72  95
ATOM     95  C   UNL A   1      44.553  33.118  33.123  1.00  0.00     0.064 A 
ATOM     96  C   UNL A   1      44.528  34.461  32.709  1.00  0.00     0.173 A 
ATOM     97  C   UNL A   1      45.844  32.564  33.302  1.00  0.00     0.173 A 
ATOM     98  F   UNL A   1      43.381  35.152  32.646  1.00  0.00    -0.203 F 
ATOM     99  C   UNL A   1      45.695  35.163  32.399  1.00  0.00     0.198 A 
ATOM    100  C   UNL A   1      47.009  33.291  33.061  1.00  0.00     0.198 A 
ATOM    101  F   UNL A   1      46.012  31.309  33.744  1.00  0.00    -0.203 F 
ATOM    102  F   UNL A   1      45.610  36.421  31.945  1.00  0.00    -0.200 F 
ATOM    103  C   UNL A   1      46.934  34.582  32.583  1.00  0.00     0.200 A 
ATOM    104  F   UNL A   1      48.204  32.736  33.309  1.00  0.00    -0.200 F 
ATOM    105  F   UNL A   1      48.052  35.273  32.324  1.00  0.00    -0.200 F 
ENDBRANCH  72  95
ENDBRANCH  46  47
ENDBRANCH  39  41
ENDBRANCH  38  39
ENDBRANCH  37  38
ENDBRANCH  36  37
ENDBRANCH  35  36
ENDBRANCH  34  35
ENDBRANCH   1  34
TORSDOF 21
ENDMDL
MODEL 3
REMARK VINA RESULT:     -11.7      3.920      8.432
REMARK SMILES COc1cc(Cl)c(C)cc1N1C(=O)C[C@H](Nc2cc(C(=O)OCCOCCOCCOC(=O)c3ccc(-c4c5nc(c(-c6c(F)c(F)c(F)c(F)c6F)c6ccc([nH]6)c(-c6c(F)c(F)c(F)c(F)c6F)c6nc(c(-c7c(F)c(F)c(F)c(F)c7F)c7ccc4[nH]7)C=C6)C=C5)cc3)ccc2C)C1=O
REMARK SMILES IDX 26 1 25 2 24 3 23 4 22 5 20 6 21 7 19 8 17 9 18 10 99 11
REMARK SMILES IDX 98 12 100 13 97 14 16 15 15 17 11 18 12 19 101 20 13 21
REMARK SMILES IDX 14 22 102 23 10 24 3 25 4 26 5 27 9 28 6 29 7 30 8 31 2 32
REMARK SMILES IDX 1 33 27 34 28 35 29 36 30 37 31 38 32 39 33 40 34 41 35 42
REMARK SMILES IDX 96 43 36 44 95 45 37 46 38 47 39 48 89 49 40 50 94 51 88 52
REMARK SMILES IDX 90 53 41 54 93 55 87 56 86 57 42 59 74 60 54 61 73 62 55 63
REMARK SMILES IDX 58 64 72 65 91 66 56 67 57 68 71 70 92 71 59 72 43 73 44 74
REMARK SMILES IDX 52 75 45 76 46 77 50 78 53 79 47 80 48 81 51 82 49 83 75 84
REMARK SMILES IDX 76 85 84 86 77 87 78 88 82 89 85 90 79 91 80 92 83 93 81 94
REMARK SMILES IDX 60 95 61 96 69 97 62 98 63 99 67 100 70 101 64 102 65 103
REMARK SMILES IDX 68 104 66 105
REMARK H PARENT 16 16 90 58 58 69
REMARK Flexibility Score: inf
ROOT
ATOM      1  C   UNL A   1      32.400  30.861  26.531  1.00  0.00     0.188 C 
ENDROOT
BRANCH   1   2
ATOM      2  O   UNL A   1      31.643  29.748  27.072  1.00  0.00    -0.376 OA
BRANCH   2   3
ATOM      3  C   UNL A   1      32.246  28.429  27.173  1.00  0.00     0.202 C 
BRANCH   3   4
ATOM      4  C   UNL A   1      33.664  28.167  26.317  1.00  0.00     0.261 C 
BRANCH   4   5
ATOM      5  O   UNL A   1      33.916  28.180  24.673  1.00  0.00    -0.460 OA
BRANCH   5   6
ATOM      6  C   UNL A   1      33.369  28.696  23.500  1.00  0.00     0.338 C 
ATOM      7  O   UNL A   1      33.796  29.563  22.744  1.00  0.00    -0.246 OA
BRANCH   6   8
ATOM      8  C   UNL A   1      32.097  28.236  22.905  1.00  0.00     0.062 A 
ATOM      9  C   UNL A   1      30.677  26.386  23.481  1.00  0.00     0.038 A 
ATOM     10  C   UNL A   1      31.916  26.875  23.030  1.00  0.00     0.041 A 
ATOM     11  C   UNL A   1      29.535  27.215  23.536  1.00  0.00    -0.028 A 
ATOM     12  C   UNL A   1      29.682  28.577  23.277  1.00  0.00     0.006 A 
ATOM     13  C   UNL A   1      28.165  26.697  23.877  1.00  0.00     0.046 C 
ATOM     14  C   UNL A   1      30.960  29.085  23.036  1.00  0.00     0.016 A 
BRANCH   9  15
ATOM     15  N   UNL A   1      30.719  25.171  24.210  1.00  0.00    -0.373 N 
ATOM     16  H   UNL A   1      30.018  24.480  24.183  1.00  0.00     0.161 HD
BRANCH  15  17
ATOM     17  C   UNL A   1      31.968  25.078  25.023  1.00  0.00     0.179 C 
ATOM     18  N   UNL A   1      32.687  22.898  25.495  1.00  0.00    -0.245 N 
ATOM     19  C   UNL A   1      31.903  23.268  26.554  1.00  0.00     0.236 C 
ATOM     20  C   UNL A   1      32.843  23.908  24.576  1.00  0.00     0.256 C 
ATOM     21  O   UNL A   1      31.558  22.579  27.505  1.00  0.00    -0.274 OA
ATOM     22  C   UNL A   1      31.627  24.738  26.460  1.00  0.00     0.136 C 
ATOM     23  O   UNL A   1      33.440  23.850  23.508  1.00  0.00    -0.272 OA
BRANCH  18  24
ATOM     24  C   UNL A   1      33.202  21.599  25.298  1.00  0.00     0.094 A 
ATOM     25  C   UNL A   1      34.493  21.243  25.717  1.00  0.00     0.144 A 
ATOM     26  C   UNL A   1      35.029  20.000  25.375  1.00  0.00     0.069 A 
ATOM     27  C   UNL A   1      34.273  19.093  24.631  1.00  0.00     0.047 A 
ATOM     28  C   UNL A   1      32.436  20.664  24.586  1.00  0.00     0.035 A 
ATOM     29  Cl  UNL A   1      34.989  17.570  24.241  1.00  0.00    -0.084 Cl
ATOM     30  C   UNL A   1      32.970  19.416  24.219  1.00  0.00    -0.030 A 
ATOM     31  C   UNL A   1      32.147  18.480  23.377  1.00  0.00     0.046 C 
BRANCH  25  32
ATOM     32  O   UNL A   1      35.295  22.059  26.477  1.00  0.00    -0.495 OA
ATOM     33  C   UNL A   1      36.359  22.622  25.709  1.00  0.00     0.278 C 
ENDBRANCH  25  32
ENDBRANCH  18  24
ENDBRANCH  15  17
ENDBRANCH   9  15
ENDBRANCH   6   8
ENDBRANCH   5   6
ENDBRANCH   4   5
ENDBRANCH   3   4
ENDBRANCH   2   3
ENDBRANCH   1   2
BRANCH   1  34
ATOM     34  C   UNL A   1      33.333  31.411  27.630  1.00  0.00     0.188 C 
BRANCH  34  35
ATOM     35  O   UNL A   1      33.126  32.816  27.641  1.00  0.00    -0.376 OA
BRANCH  35  36
ATOM     36  C   UNL A   1      33.993  33.608  28.425  1.00  0.00     0.202 C 
BRANCH  36  37
ATOM     37  C   UNL A   1      33.278  34.816  29.047  1.00  0.00     0.261 C 
BRANCH  37  38
ATOM     38  O   UNL A   1      33.001  34.576  30.451  1.00  0.00    -0.460 OA
BRANCH  38  39
ATOM     39  C   UNL A   1      33.652  35.367  31.361  1.00  0.00     0.338 C 
ATOM     40  O   UNL A   1      33.679  36.590  31.323  1.00  0.00    -0.246 OA
BRANCH  39  41
ATOM     41  C   UNL A   1      34.538  34.537  32.252  1.00  0.00     0.060 A 
ATOM     42  C   UNL A   1      34.674  34.665  33.641  1.00  0.00     0.016 A 
ATOM     43  C   UNL A   1      35.552  33.884  31.638  1.00  0.00     0.016 A 
ATOM     44  C   UNL A   1      35.888  34.240  34.340  1.00  0.00     0.010 A 
ATOM     45  C   UNL A   1      36.764  33.819  32.332  1.00  0.00     0.010 A 
ATOM     46  C   UNL A   1      37.051  33.827  33.680  1.00  0.00    -0.014 A 
BRANCH  46  47
ATOM     47  C   UNL A   1      38.529  33.705  34.221  1.00  0.00     0.031 A 
ATOM     48  C   UNL A   1      39.558  34.706  34.981  1.00  0.00     0.074 A 
ATOM     49  C   UNL A   1      39.053  32.462  34.114  1.00  0.00     0.049 A 
ATOM     50  N   UNL A   1      40.856  34.778  34.726  1.00  0.00    -0.248 NA
ATOM     51  C   UNL A   1      39.285  35.684  36.069  1.00  0.00     0.031 C 
ATOM     52  C   UNL A   1      40.324  31.972  34.640  1.00  0.00     0.029 A 
ATOM     53  N   UNL A   1      38.599  31.420  33.294  1.00  0.00    -0.354 N 
ATOM     54  C   UNL A   1      41.426  35.687  35.629  1.00  0.00     0.074 A 
ATOM     55  C   UNL A   1      40.365  36.445  36.136  1.00  0.00     0.031 C 
ATOM     56  C   UNL A   1      40.731  30.959  33.860  1.00  0.00     0.029 A 
ATOM     57  C   UNL A   1      39.766  30.828  32.784  1.00  0.00     0.049 A 
ATOM     58  H   UNL A   1      37.666  31.161  33.115  1.00  0.00     0.167 HD
ATOM     59  C   UNL A   1      42.707  35.708  36.084  1.00  0.00     0.037 A 
ATOM     60  C   UNL A   1      40.023  30.863  31.448  1.00  0.00     0.037 A 
ATOM     61  C   UNL A   1      43.501  34.772  35.342  1.00  0.00     0.049 A 
ATOM     62  C   UNL A   1      41.334  31.542  31.120  1.00  0.00     0.074 A 
ATOM     63  C   UNL A   1      43.975  33.510  35.626  1.00  0.00     0.029 A 
ATOM     64  N   UNL A   1      43.579  34.944  33.968  1.00  0.00    -0.354 N 
ATOM     65  N   UNL A   1      42.022  32.271  31.958  1.00  0.00    -0.248 NA
ATOM     66  C   UNL A   1      41.962  31.459  29.806  1.00  0.00     0.031 C 
ATOM     67  C   UNL A   1      44.172  32.854  34.379  1.00  0.00     0.029 A 
ATOM     68  C   UNL A   1      43.908  33.755  33.357  1.00  0.00     0.049 A 
ATOM     69  H   UNL A   1      43.423  35.794  33.497  1.00  0.00     0.167 HD
ATOM     70  C   UNL A   1      43.112  32.798  31.314  1.00  0.00     0.074 A 
ATOM     71  C   UNL A   1      43.048  32.228  29.983  1.00  0.00     0.031 C 
ATOM     72  C   UNL A   1      43.970  33.680  31.906  1.00  0.00     0.037 A 
BRANCH  59  73
ATOM     73  C   UNL A   1      43.172  36.538  37.289  1.00  0.00     0.064 A 
ATOM     74  C   UNL A   1      43.709  37.828  37.122  1.00  0.00     0.173 A 
ATOM     75  C   UNL A   1      43.139  36.101  38.642  1.00  0.00     0.173 A 
ATOM     76  F   UNL A   1      43.868  38.344  35.895  1.00  0.00    -0.203 F 
ATOM     77  C   UNL A   1      44.097  38.631  38.212  1.00  0.00     0.198 A 
ATOM     78  C   UNL A   1      43.435  36.931  39.730  1.00  0.00     0.198 A 
ATOM     79  F   UNL A   1      42.873  34.828  38.967  1.00  0.00    -0.203 F 
ATOM     80  F   UNL A   1      44.640  39.837  37.997  1.00  0.00    -0.200 F 
ATOM     81  C   UNL A   1      43.921  38.199  39.515  1.00  0.00     0.200 A 
ATOM     82  F   UNL A   1      43.258  36.483  40.982  1.00  0.00    -0.200 F 
ATOM     83  F   UNL A   1      44.244  38.984  40.553  1.00  0.00    -0.200 F 
ENDBRANCH  59  73
BRANCH  60  84
ATOM     84  C   UNL A   1      38.795  30.801  30.593  1.00  0.00     0.064 A 
ATOM     85  C   UNL A   1      38.365  31.998  29.970  1.00  0.00     0.173 A 
ATOM     86  C   UNL A   1      38.228  29.611  30.123  1.00  0.00     0.173 A 
ATOM     87  F   UNL A   1      38.867  33.178  30.369  1.00  0.00    -0.203 F 
ATOM     88  C   UNL A   1      37.521  31.995  28.861  1.00  0.00     0.198 A 
ATOM     89  C   UNL A   1      37.351  29.614  29.025  1.00  0.00     0.198 A 
ATOM     90  F   UNL A   1      38.621  28.428  30.616  1.00  0.00    -0.203 F 
ATOM     91  F   UNL A   1      37.264  33.141  28.214  1.00  0.00    -0.200 F 
ATOM     92  C   UNL A   1      37.025  30.799  28.379  1.00  0.00     0.200 A 
ATOM     93  F   UNL A   1      36.930  28.451  28.505  1.00  0.00    -0.200 F 
ATOM     94  F   UNL A   1      36.300  30.779  27.251  1.00  0.00    -0.200 F 
ENDBRANCH  60  84
BRANCH  72  95
ATOM     95  C   UNL A   1      44.990  34.523  31.174  1.00  0.00     0.064 A 
ATOM     96  C   UNL A   1      46.361  34.216  31.118  1.00  0.00     0.173 A 
ATOM     97  C   UNL A   1      44.580  35.611  30.366  1.00  0.00     0.173 A 
ATOM     98  F   UNL A   1      46.858  33.122  31.713  1.00  0.00    -0.203 F 
ATOM     99  C   UNL A   1      47.266  34.996  30.394  1.00  0.00     0.198 A 
ATOM    100  C   UNL A   1      45.476  36.343  29.588  1.00  0.00     0.198 A 
ATOM    101  F   UNL A   1      43.292  35.977  30.286  1.00  0.00    -0.203 F 
ATOM    102  F   UNL A   1      48.572  34.697  30.428  1.00  0.00    -0.200 F 
ATOM    103  C   UNL A   1      46.823  36.053  29.623  1.00  0.00     0.200 A 
ATOM    104  F   UNL A   1      45.022  37.322  28.792  1.00  0.00    -0.200 F 
ATOM    105  F   UNL A   1      47.689  36.772  28.898  1.00  0.00    -0.200 F 
ENDBRANCH  72  95
ENDBRANCH  46  47
ENDBRANCH  39  41
ENDBRANCH  38  39
ENDBRANCH  37  38
ENDBRANCH  36  37
ENDBRANCH  35  36
ENDBRANCH  34  35
ENDBRANCH   1  34
TORSDOF 21
ENDMDL
