MODEL 1
REMARK VINA RESULT:      -9.6      0.000      0.000
REMARK SMILES CC[NH2+]C[C@@H](C)C(=O)N1CCO[C@@H](CC(=O)OCCOCCOCCOC(=O)c2ccc(-c3c4nc(c(-c5c(F)c(F)c(F)c(F)c5F)c5ccc([nH]5)c(-c5c(F)c(F)c(F)c(F)c5F)c5nc(c(-c6c(F)c(F)c(F)c(F)c6F)c6ccc3[nH]6)C=C5)C=C4)cc2)C1
REMARK SMILES IDX 19 1 18 2 17 3 15 4 16 5 14 6 13 7 9 8 10 9 92 10 11 11
REMARK SMILES IDX 12 12 7 13 8 14 5 15 6 16 4 17 3 18 2 21 1 22 20 23 21 24
REMARK SMILES IDX 22 25 23 26 24 27 25 28 26 29 27 30 28 31 29 32 30 33 91 34
REMARK SMILES IDX 31 35 90 36 32 37 33 38 34 39 84 40 35 41 89 42 83 43 85 44
REMARK SMILES IDX 36 45 88 46 82 47 81 48 37 50 69 51 49 52 68 53 50 54 53 55
REMARK SMILES IDX 67 56 86 57 51 58 52 59 66 61 87 62 54 63 38 64 39 65 47 66
REMARK SMILES IDX 40 67 41 68 45 69 48 70 42 71 43 72 46 73 44 74 70 75 71 76
REMARK SMILES IDX 79 77 72 78 73 79 77 80 80 81 74 82 75 83 78 84 76 85 55 86
REMARK SMILES IDX 56 87 64 88 57 89 58 90 62 91 65 92 59 93 60 94 63 95 61 96
REMARK H PARENT 3 19 3 20 85 49 53 60
REMARK Flexibility Score: inf
ROOT
ATOM      1  C   UNL A   1      37.881  21.478  25.341  1.00  0.00     0.202 C 
ENDROOT
BRANCH   1   2
ATOM      2  C   UNL A   1      37.207  22.807  25.704  1.00  0.00     0.261 C 
BRANCH   2   3
ATOM      3  O   UNL A   1      37.084  23.709  24.583  1.00  0.00    -0.463 OA
BRANCH   3   4
ATOM      4  C   UNL A   1      36.228  23.327  23.606  1.00  0.00     0.308 C 
ATOM      5  O   UNL A   1      36.572  22.931  22.497  1.00  0.00    -0.252 OA
BRANCH   4   6
ATOM      6  C   UNL A   1      34.776  23.330  24.005  1.00  0.00     0.156 C 
BRANCH   6   7
ATOM      7  C   UNL A   1      33.912  24.581  23.880  1.00  0.00     0.148 C 
ATOM      8  N   UNL A   1      33.584  26.975  24.397  1.00  0.00    -0.337 N 
ATOM      9  C   UNL A   1      33.749  27.297  22.986  1.00  0.00     0.148 C 
ATOM     10  C   UNL A   1      34.334  25.766  24.786  1.00  0.00     0.152 C 
ATOM     11  C   UNL A   1      33.306  26.122  22.125  1.00  0.00     0.182 C 
ATOM     12  O   UNL A   1      34.037  24.942  22.472  1.00  0.00    -0.374 OA
BRANCH   8  13
ATOM     13  C   UNL A   1      32.886  27.682  25.355  1.00  0.00     0.231 C 
ATOM     14  O   UNL A   1      32.788  27.233  26.505  1.00  0.00    -0.274 OA
BRANCH  13  15
ATOM     15  C   UNL A   1      32.033  28.916  24.992  1.00  0.00     0.130 C 
ATOM     16  C   UNL A   1      31.901  29.811  26.218  1.00  0.00     0.024 C 
BRANCH  15  17
ATOM     17  C   UNL A   1      30.697  28.703  24.271  1.00  0.00     0.273 C 
BRANCH  17  18
ATOM     18  N   UNL A   1      30.473  29.508  23.060  1.00  0.00    -0.346 N 
ATOM     19  H   UNL A   1      31.268  30.136  22.942  1.00  0.00     0.346 HD
ATOM     20  H   UNL A   1      30.369  28.850  22.288  1.00  0.00     0.346 HD
BRANCH  18  21
ATOM     21  C   UNL A   1      29.256  30.312  23.090  1.00  0.00     0.257 C 
ATOM     22  C   UNL A   1      28.097  29.474  22.569  1.00  0.00     0.071 C 
ENDBRANCH  18  21
ENDBRANCH  17  18
ENDBRANCH  15  17
ENDBRANCH  13  15
ENDBRANCH   8  13
ENDBRANCH   6   7
ENDBRANCH   4   6
ENDBRANCH   3   4
ENDBRANCH   2   3
ENDBRANCH   1   2
BRANCH   1  23
ATOM     23  O   UNL A   1      39.236  21.331  25.765  1.00  0.00    -0.376 OA
BRANCH  23  24
ATOM     24  C   UNL A   1      39.721  22.301  26.687  1.00  0.00     0.188 C 
BRANCH  24  25
ATOM     25  C   UNL A   1      40.826  21.815  27.620  1.00  0.00     0.188 C 
BRANCH  25  26
ATOM     26  O   UNL A   1      41.918  21.134  27.040  1.00  0.00    -0.376 OA
BRANCH  26  27
ATOM     27  C   UNL A   1      41.956  19.703  27.072  1.00  0.00     0.202 C 
BRANCH  27  28
ATOM     28  C   UNL A   1      42.699  18.789  26.055  1.00  0.00     0.261 C 
BRANCH  28  29
ATOM     29  O   UNL A   1      43.059  19.330  24.778  1.00  0.00    -0.460 OA
BRANCH  29  30
ATOM     30  C   UNL A   1      44.375  19.506  24.532  1.00  0.00     0.338 C 
ATOM     31  O   UNL A   1      45.133  18.718  23.996  1.00  0.00    -0.246 OA
BRANCH  30  32
ATOM     32  C   UNL A   1      44.724  20.923  24.807  1.00  0.00     0.060 A 
ATOM     33  C   UNL A   1      45.319  21.225  26.041  1.00  0.00     0.016 A 
ATOM     34  C   UNL A   1      44.509  21.935  23.870  1.00  0.00     0.016 A 
ATOM     35  C   UNL A   1      45.674  22.538  26.355  1.00  0.00     0.010 A 
ATOM     36  C   UNL A   1      44.831  23.259  24.200  1.00  0.00     0.010 A 
ATOM     37  C   UNL A   1      45.386  23.571  25.457  1.00  0.00    -0.014 A 
BRANCH  37  38
ATOM     38  C   UNL A   1      45.451  24.984  25.909  1.00  0.00     0.031 A 
ATOM     39  C   UNL A   1      46.777  25.693  25.826  1.00  0.00     0.074 A 
ATOM     40  C   UNL A   1      44.369  25.642  26.361  1.00  0.00     0.049 A 
ATOM     41  N   UNL A   1      47.114  26.890  26.236  1.00  0.00    -0.248 NA
ATOM     42  C   UNL A   1      47.874  24.944  25.193  1.00  0.00     0.031 C 
ATOM     43  C   UNL A   1      43.016  25.100  26.432  1.00  0.00     0.029 A 
ATOM     44  N   UNL A   1      44.248  26.918  26.860  1.00  0.00    -0.354 N 
ATOM     45  C   UNL A   1      48.459  27.031  25.922  1.00  0.00     0.074 A 
ATOM     46  C   UNL A   1      48.886  25.788  25.315  1.00  0.00     0.031 C 
ATOM     47  C   UNL A   1      42.201  26.031  26.960  1.00  0.00     0.029 A 
ATOM     48  C   UNL A   1      42.983  27.220  27.301  1.00  0.00     0.049 A 
ATOM     49  H   UNL A   1      44.997  27.554  26.896  1.00  0.00     0.167 HD
ATOM     50  C   UNL A   1      49.266  28.101  26.115  1.00  0.00     0.037 A 
ATOM     51  C   UNL A   1      42.521  28.317  27.934  1.00  0.00     0.037 A 
ATOM     52  C   UNL A   1      48.845  29.334  26.724  1.00  0.00     0.049 A 
ATOM     53  C   UNL A   1      43.464  29.459  28.230  1.00  0.00     0.074 A 
ATOM     54  C   UNL A   1      49.589  30.476  26.964  1.00  0.00     0.029 A 
ATOM     55  N   UNL A   1      47.566  29.585  27.198  1.00  0.00    -0.354 N 
ATOM     56  N   UNL A   1      44.734  29.588  27.929  1.00  0.00    -0.248 NA
ATOM     57  C   UNL A   1      42.906  30.609  28.957  1.00  0.00     0.031 C 
ATOM     58  C   UNL A   1      48.778  31.394  27.638  1.00  0.00     0.029 A 
ATOM     59  C   UNL A   1      47.507  30.853  27.754  1.00  0.00     0.049 A 
ATOM     60  H   UNL A   1      46.812  28.954  27.148  1.00  0.00     0.167 HD
ATOM     61  C   UNL A   1      45.114  30.843  28.394  1.00  0.00     0.074 A 
ATOM     62  C   UNL A   1      43.937  31.440  28.988  1.00  0.00     0.031 C 
ATOM     63  C   UNL A   1      46.327  31.445  28.331  1.00  0.00     0.037 A 
BRANCH  50  64
ATOM     64  C   UNL A   1      50.701  27.971  25.689  1.00  0.00     0.064 A 
ATOM     65  C   UNL A   1      51.095  28.132  24.353  1.00  0.00     0.173 A 
ATOM     66  C   UNL A   1      51.701  27.710  26.640  1.00  0.00     0.173 A 
ATOM     67  F   UNL A   1      50.177  28.367  23.402  1.00  0.00    -0.203 F 
ATOM     68  C   UNL A   1      52.431  28.011  23.979  1.00  0.00     0.198 A 
ATOM     69  C   UNL A   1      53.040  27.624  26.268  1.00  0.00     0.198 A 
ATOM     70  F   UNL A   1      51.381  27.549  27.933  1.00  0.00    -0.203 F 
ATOM     71  F   UNL A   1      52.776  28.116  22.688  1.00  0.00    -0.200 F 
ATOM     72  C   UNL A   1      53.402  27.765  24.937  1.00  0.00     0.200 A 
ATOM     73  F   UNL A   1      53.978  27.400  27.198  1.00  0.00    -0.200 F 
ATOM     74  F   UNL A   1      54.689  27.656  24.577  1.00  0.00    -0.200 F 
ENDBRANCH  50  64
BRANCH  51  75
ATOM     75  C   UNL A   1      41.094  28.393  28.353  1.00  0.00     0.064 A 
ATOM     76  C   UNL A   1      40.118  28.932  27.502  1.00  0.00     0.173 A 
ATOM     77  C   UNL A   1      40.683  27.965  29.624  1.00  0.00     0.173 A 
ATOM     78  F   UNL A   1      40.466  29.388  26.290  1.00  0.00    -0.203 F 
ATOM     79  C   UNL A   1      38.792  29.056  27.912  1.00  0.00     0.198 A 
ATOM     80  C   UNL A   1      39.351  28.060  30.021  1.00  0.00     0.198 A 
ATOM     81  F   UNL A   1      41.577  27.452  30.482  1.00  0.00    -0.203 F 
ATOM     82  F   UNL A   1      37.892  29.627  27.099  1.00  0.00    -0.200 F 
ATOM     83  C   UNL A   1      38.408  28.613  29.169  1.00  0.00     0.200 A 
ATOM     84  F   UNL A   1      38.982  27.622  31.233  1.00  0.00    -0.200 F 
ATOM     85  F   UNL A   1      37.132  28.732  29.563  1.00  0.00    -0.200 F 
ENDBRANCH  51  75
BRANCH  63  86
ATOM     86  C   UNL A   1      46.440  32.845  28.870  1.00  0.00     0.064 A 
ATOM     87  C   UNL A   1      46.146  33.970  28.086  1.00  0.00     0.173 A 
ATOM     88  C   UNL A   1      46.806  33.059  30.209  1.00  0.00     0.173 A 
ATOM     89  F   UNL A   1      45.801  33.824  26.798  1.00  0.00    -0.203 F 
ATOM     90  C   UNL A   1      46.243  35.257  28.612  1.00  0.00     0.198 A 
ATOM     91  C   UNL A   1      46.867  34.345  30.742  1.00  0.00     0.198 A 
ATOM     92  F   UNL A   1      47.088  32.019  31.009  1.00  0.00    -0.203 F 
ATOM     93  F   UNL A   1      46.009  36.318  27.829  1.00  0.00    -0.200 F 
ATOM     94  C   UNL A   1      46.595  35.442  29.941  1.00  0.00     0.200 A 
ATOM     95  F   UNL A   1      47.189  34.519  32.031  1.00  0.00    -0.200 F 
ATOM     96  F   UNL A   1      46.680  36.680  30.447  1.00  0.00    -0.200 F 
ENDBRANCH  63  86
ENDBRANCH  37  38
ENDBRANCH  30  32
ENDBRANCH  29  30
ENDBRANCH  28  29
ENDBRANCH  27  28
ENDBRANCH  26  27
ENDBRANCH  25  26
ENDBRANCH  24  25
ENDBRANCH  23  24
ENDBRANCH   1  23
TORSDOF 23
ENDMDL
MODEL 2
REMARK VINA RESULT:      -9.4      3.715      9.332
REMARK SMILES CC[NH2+]C[C@@H](C)C(=O)N1CCO[C@@H](CC(=O)OCCOCCOCCOC(=O)c2ccc(-c3c4nc(c(-c5c(F)c(F)c(F)c(F)c5F)c5ccc([nH]5)c(-c5c(F)c(F)c(F)c(F)c5F)c5nc(c(-c6c(F)c(F)c(F)c(F)c6F)c6ccc3[nH]6)C=C5)C=C4)cc2)C1
REMARK SMILES IDX 19 1 18 2 17 3 15 4 16 5 14 6 13 7 9 8 10 9 92 10 11 11
REMARK SMILES IDX 12 12 7 13 8 14 5 15 6 16 4 17 3 18 2 21 1 22 20 23 21 24
REMARK SMILES IDX 22 25 23 26 24 27 25 28 26 29 27 30 28 31 29 32 30 33 91 34
REMARK SMILES IDX 31 35 90 36 32 37 33 38 34 39 84 40 35 41 89 42 83 43 85 44
REMARK SMILES IDX 36 45 88 46 82 47 81 48 37 50 69 51 49 52 68 53 50 54 53 55
REMARK SMILES IDX 67 56 86 57 51 58 52 59 66 61 87 62 54 63 38 64 39 65 47 66
REMARK SMILES IDX 40 67 41 68 45 69 48 70 42 71 43 72 46 73 44 74 70 75 71 76
REMARK SMILES IDX 79 77 72 78 73 79 77 80 80 81 74 82 75 83 78 84 76 85 55 86
REMARK SMILES IDX 56 87 64 88 57 89 58 90 62 91 65 92 59 93 60 94 63 95 61 96
REMARK H PARENT 3 19 3 20 85 49 53 60
REMARK Flexibility Score: inf
ROOT
ATOM      1  C   UNL A   1      34.585  31.714  27.637  1.00  0.00     0.202 C 
ENDROOT
BRANCH   1   2
ATOM      2  C   UNL A   1      33.762  30.422  27.547  1.00  0.00     0.261 C 
BRANCH   2   3
ATOM      3  O   UNL A   1      32.373  30.652  27.227  1.00  0.00    -0.463 OA
BRANCH   3   4
ATOM      4  C   UNL A   1      31.818  29.790  26.342  1.00  0.00     0.308 C 
ATOM      5  O   UNL A   1      31.339  30.116  25.261  1.00  0.00    -0.252 OA
BRANCH   4   6
ATOM      6  C   UNL A   1      31.909  28.339  26.736  1.00  0.00     0.156 C 
BRANCH   6   7
ATOM      7  C   UNL A   1      32.330  27.262  25.740  1.00  0.00     0.148 C 
ATOM      8  N   UNL A   1      31.708  25.740  23.897  1.00  0.00    -0.337 N 
ATOM      9  C   UNL A   1      32.552  26.503  22.988  1.00  0.00     0.148 C 
ATOM     10  C   UNL A   1      31.166  26.571  24.988  1.00  0.00     0.152 C 
ATOM     11  C   UNL A   1      33.696  27.152  23.755  1.00  0.00     0.182 C 
ATOM     12  O   UNL A   1      33.190  27.980  24.807  1.00  0.00    -0.374 OA
BRANCH   8  13
ATOM     13  C   UNL A   1      31.346  24.411  23.807  1.00  0.00     0.231 C 
ATOM     14  O   UNL A   1      30.307  24.092  23.212  1.00  0.00    -0.274 OA
BRANCH  13  15
ATOM     15  C   UNL A   1      32.079  23.314  24.608  1.00  0.00     0.130 C 
ATOM     16  C   UNL A   1      31.206  22.886  25.783  1.00  0.00     0.024 C 
BRANCH  15  17
ATOM     17  C   UNL A   1      33.538  23.546  25.014  1.00  0.00     0.273 C 
BRANCH  17  18
ATOM     18  N   UNL A   1      33.896  23.195  26.397  1.00  0.00    -0.346 N 
ATOM     19  H   UNL A   1      34.301  24.019  26.842  1.00  0.00     0.346 HD
ATOM     20  H   UNL A   1      33.036  22.882  26.849  1.00  0.00     0.346 HD
BRANCH  18  21
ATOM     21  C   UNL A   1      34.851  22.099  26.510  1.00  0.00     0.257 C 
ATOM     22  C   UNL A   1      34.988  21.421  25.154  1.00  0.00     0.071 C 
ENDBRANCH  18  21
ENDBRANCH  17  18
ENDBRANCH  15  17
ENDBRANCH  13  15
ENDBRANCH   8  13
ENDBRANCH   6   7
ENDBRANCH   4   6
ENDBRANCH   3   4
ENDBRANCH   2   3
ENDBRANCH   1   2
BRANCH   1  23
ATOM     23  O   UNL A   1      34.278  32.572  28.735  1.00  0.00    -0.376 OA
BRANCH  23  24
ATOM     24  C   UNL A   1      34.471  33.966  28.524  1.00  0.00     0.188 C 
BRANCH  24  25
ATOM     25  C   UNL A   1      33.244  34.837  28.778  1.00  0.00     0.188 C 
BRANCH  25  26
ATOM     26  O   UNL A   1      32.792  34.957  30.109  1.00  0.00    -0.376 OA
BRANCH  26  27
ATOM     27  C   UNL A   1      33.737  35.199  31.158  1.00  0.00     0.202 C 
BRANCH  27  28
ATOM     28  C   UNL A   1      34.337  34.124  32.109  1.00  0.00     0.261 C 
BRANCH  28  29
ATOM     29  O   UNL A   1      35.670  33.657  31.866  1.00  0.00    -0.460 OA
BRANCH  29  30
ATOM     30  C   UNL A   1      36.138  32.682  32.674  1.00  0.00     0.338 C 
ATOM     31  O   UNL A   1      35.694  32.352  33.759  1.00  0.00    -0.246 OA
BRANCH  30  32
ATOM     32  C   UNL A   1      37.154  31.895  31.930  1.00  0.00     0.060 A 
ATOM     33  C   UNL A   1      38.104  31.179  32.673  1.00  0.00     0.016 A 
ATOM     34  C   UNL A   1      37.164  31.826  30.535  1.00  0.00     0.016 A 
ATOM     35  C   UNL A   1      39.081  30.417  32.030  1.00  0.00     0.010 A 
ATOM     36  C   UNL A   1      38.167  31.092  29.889  1.00  0.00     0.010 A 
ATOM     37  C   UNL A   1      39.150  30.410  30.633  1.00  0.00    -0.014 A 
BRANCH  37  38
ATOM     38  C   UNL A   1      40.363  29.885  29.955  1.00  0.00     0.031 A 
ATOM     39  C   UNL A   1      41.521  30.824  29.750  1.00  0.00     0.074 A 
ATOM     40  C   UNL A   1      40.460  28.606  29.550  1.00  0.00     0.049 A 
ATOM     41  N   UNL A   1      42.649  30.637  29.113  1.00  0.00    -0.248 NA
ATOM     42  C   UNL A   1      41.383  32.163  30.345  1.00  0.00     0.031 C 
ATOM     43  C   UNL A   1      39.445  27.576  29.744  1.00  0.00     0.029 A 
ATOM     44  N   UNL A   1      41.469  27.962  28.873  1.00  0.00    -0.354 N 
ATOM     45  C   UNL A   1      43.347  31.832  29.221  1.00  0.00     0.074 A 
ATOM     46  C   UNL A   1      42.504  32.750  29.958  1.00  0.00     0.031 C 
ATOM     47  C   UNL A   1      39.875  26.430  29.185  1.00  0.00     0.029 A 
ATOM     48  C   UNL A   1      41.177  26.658  28.559  1.00  0.00     0.049 A 
ATOM     49  H   UNL A   1      42.320  28.396  28.637  1.00  0.00     0.167 HD
ATOM     50  C   UNL A   1      44.580  32.139  28.756  1.00  0.00     0.037 A 
ATOM     51  C   UNL A   1      41.869  25.764  27.824  1.00  0.00     0.037 A 
ATOM     52  C   UNL A   1      45.416  31.230  28.017  1.00  0.00     0.049 A 
ATOM     53  C   UNL A   1      43.199  26.160  27.228  1.00  0.00     0.074 A 
ATOM     54  C   UNL A   1      46.682  31.447  27.501  1.00  0.00     0.029 A 
ATOM     55  N   UNL A   1      45.066  29.931  27.680  1.00  0.00    -0.354 N 
ATOM     56  N   UNL A   1      43.855  27.291  27.336  1.00  0.00    -0.248 NA
ATOM     57  C   UNL A   1      43.885  25.152  26.406  1.00  0.00     0.031 C 
ATOM     58  C   UNL A   1      47.073  30.301  26.802  1.00  0.00     0.029 A 
ATOM     59  C   UNL A   1      46.080  29.344  26.941  1.00  0.00     0.049 A 
ATOM     60  H   UNL A   1      44.221  29.491  27.929  1.00  0.00     0.167 HD
ATOM     61  C   UNL A   1      45.041  27.116  26.630  1.00  0.00     0.074 A 
ATOM     62  C   UNL A   1      45.020  25.767  26.107  1.00  0.00     0.031 C 
ATOM     63  C   UNL A   1      46.057  27.994  26.436  1.00  0.00     0.037 A 
BRANCH  50  64
ATOM     64  C   UNL A   1      45.089  33.530  29.004  1.00  0.00     0.064 A 
ATOM     65  C   UNL A   1      44.826  34.584  28.117  1.00  0.00     0.173 A 
ATOM     66  C   UNL A   1      45.827  33.819  30.164  1.00  0.00     0.173 A 
ATOM     67  F   UNL A   1      44.140  34.360  26.986  1.00  0.00    -0.203 F 
ATOM     68  C   UNL A   1      45.305  35.868  28.367  1.00  0.00     0.198 A 
ATOM     69  C   UNL A   1      46.274  35.110  30.427  1.00  0.00     0.198 A 
ATOM     70  F   UNL A   1      46.106  32.848  31.047  1.00  0.00    -0.203 F 
ATOM     71  F   UNL A   1      45.086  36.847  27.478  1.00  0.00    -0.200 F 
ATOM     72  C   UNL A   1      46.021  36.132  29.525  1.00  0.00     0.200 A 
ATOM     73  F   UNL A   1      46.954  35.365  31.554  1.00  0.00    -0.200 F 
ATOM     74  F   UNL A   1      46.473  37.369  29.767  1.00  0.00    -0.200 F 
ENDBRANCH  50  64
BRANCH  51  75
ATOM     75  C   UNL A   1      41.317  24.402  27.588  1.00  0.00     0.064 A 
ATOM     76  C   UNL A   1      41.907  23.270  28.173  1.00  0.00     0.173 A 
ATOM     77  C   UNL A   1      40.214  24.196  26.747  1.00  0.00     0.173 A 
ATOM     78  F   UNL A   1      42.985  23.410  28.958  1.00  0.00    -0.203 F 
ATOM     79  C   UNL A   1      41.426  21.990  27.910  1.00  0.00     0.198 A 
ATOM     80  C   UNL A   1      39.714  22.918  26.511  1.00  0.00     0.198 A 
ATOM     81  F   UNL A   1      39.618  25.241  26.154  1.00  0.00    -0.203 F 
ATOM     82  F   UNL A   1      42.044  20.923  28.437  1.00  0.00    -0.200 F 
ATOM     83  C   UNL A   1      40.326  21.814  27.085  1.00  0.00     0.200 A 
ATOM     84  F   UNL A   1      38.644  22.754  25.719  1.00  0.00    -0.200 F 
ATOM     85  F   UNL A   1      39.863  20.581  26.834  1.00  0.00    -0.200 F 
ENDBRANCH  51  75
BRANCH  63  86
ATOM     86  C   UNL A   1      47.258  27.513  25.669  1.00  0.00     0.064 A 
ATOM     87  C   UNL A   1      47.389  27.715  24.287  1.00  0.00     0.173 A 
ATOM     88  C   UNL A   1      48.317  26.879  26.340  1.00  0.00     0.173 A 
ATOM     89  F   UNL A   1      46.403  28.305  23.595  1.00  0.00    -0.203 F 
ATOM     90  C   UNL A   1      48.518  27.274  23.602  1.00  0.00     0.198 A 
ATOM     91  C   UNL A   1      49.461  26.473  25.657  1.00  0.00     0.198 A 
ATOM     92  F   UNL A   1      48.252  26.671  27.664  1.00  0.00    -0.203 F 
ATOM     93  F   UNL A   1      48.597  27.429  22.273  1.00  0.00    -0.200 F 
ATOM     94  C   UNL A   1      49.556  26.661  24.288  1.00  0.00     0.200 A 
ATOM     95  F   UNL A   1      50.469  25.898  26.327  1.00  0.00    -0.200 F 
ATOM     96  F   UNL A   1      50.646  26.245  23.628  1.00  0.00    -0.200 F 
ENDBRANCH  63  86
ENDBRANCH  37  38
ENDBRANCH  30  32
ENDBRANCH  29  30
ENDBRANCH  28  29
ENDBRANCH  27  28
ENDBRANCH  26  27
ENDBRANCH  25  26
ENDBRANCH  24  25
ENDBRANCH  23  24
ENDBRANCH   1  23
TORSDOF 23
ENDMDL
MODEL 3
REMARK VINA RESULT:      -9.3      2.656      8.711
REMARK SMILES CC[NH2+]C[C@@H](C)C(=O)N1CCO[C@@H](CC(=O)OCCOCCOCCOC(=O)c2ccc(-c3c4nc(c(-c5c(F)c(F)c(F)c(F)c5F)c5ccc([nH]5)c(-c5c(F)c(F)c(F)c(F)c5F)c5nc(c(-c6c(F)c(F)c(F)c(F)c6F)c6ccc3[nH]6)C=C5)C=C4)cc2)C1
REMARK SMILES IDX 19 1 18 2 17 3 15 4 16 5 14 6 13 7 9 8 10 9 92 10 11 11
REMARK SMILES IDX 12 12 7 13 8 14 5 15 6 16 4 17 3 18 2 21 1 22 20 23 21 24
REMARK SMILES IDX 22 25 23 26 24 27 25 28 26 29 27 30 28 31 29 32 30 33 91 34
REMARK SMILES IDX 31 35 90 36 32 37 33 38 34 39 84 40 35 41 89 42 83 43 85 44
REMARK SMILES IDX 36 45 88 46 82 47 81 48 37 50 69 51 49 52 68 53 50 54 53 55
REMARK SMILES IDX 67 56 86 57 51 58 52 59 66 61 87 62 54 63 38 64 39 65 47 66
REMARK SMILES IDX 40 67 41 68 45 69 48 70 42 71 43 72 46 73 44 74 70 75 71 76
REMARK SMILES IDX 79 77 72 78 73 79 77 80 80 81 74 82 75 83 78 84 76 85 55 86
REMARK SMILES IDX 56 87 64 88 57 89 58 90 62 91 65 92 59 93 60 94 63 95 61 96
REMARK H PARENT 3 19 3 20 85 49 53 60
REMARK Flexibility Score: inf
ROOT
ATOM      1  C   UNL A   1      33.946  27.884  22.291  1.00  0.00     0.202 C 
ENDROOT
BRANCH   1   2
ATOM      2  C   UNL A   1      32.863  28.752  22.943  1.00  0.00     0.261 C 
BRANCH   2   3
ATOM      3  O   UNL A   1      32.954  28.792  24.383  1.00  0.00    -0.463 OA
BRANCH   3   4
ATOM      4  C   UNL A   1      31.806  29.076  25.042  1.00  0.00     0.308 C 
ATOM      5  O   UNL A   1      31.400  30.210  25.275  1.00  0.00    -0.252 OA
BRANCH   4   6
ATOM      6  C   UNL A   1      30.975  27.873  25.407  1.00  0.00     0.156 C 
BRANCH   6   7
ATOM      7  C   UNL A   1      31.441  26.453  25.099  1.00  0.00     0.148 C 
ATOM      8  N   UNL A   1      31.862  24.155  25.900  1.00  0.00    -0.337 N 
ATOM      9  C   UNL A   1      30.772  23.669  25.065  1.00  0.00     0.148 C 
ATOM     10  C   UNL A   1      31.654  25.548  26.338  1.00  0.00     0.152 C 
ATOM     11  C   UNL A   1      30.603  24.569  23.848  1.00  0.00     0.182 C 
ATOM     12  O   UNL A   1      30.379  25.923  24.251  1.00  0.00    -0.374 OA
BRANCH   8  13
ATOM     13  C   UNL A   1      32.971  23.460  26.340  1.00  0.00     0.231 C 
ATOM     14  O   UNL A   1      34.083  24.004  26.334  1.00  0.00    -0.274 OA
BRANCH  13  15
ATOM     15  C   UNL A   1      32.914  21.947  26.640  1.00  0.00     0.130 C 
ATOM     16  C   UNL A   1      34.017  21.592  27.630  1.00  0.00     0.024 C 
BRANCH  15  17
ATOM     17  C   UNL A   1      32.837  20.964  25.467  1.00  0.00     0.273 C 
BRANCH  17  18
ATOM     18  N   UNL A   1      33.930  19.984  25.363  1.00  0.00    -0.346 N 
ATOM     19  H   UNL A   1      34.741  20.452  24.958  1.00  0.00     0.346 HD
ATOM     20  H   UNL A   1      34.101  19.638  26.308  1.00  0.00     0.346 HD
BRANCH  18  21
ATOM     21  C   UNL A   1      33.616  18.820  24.542  1.00  0.00     0.257 C 
ATOM     22  C   UNL A   1      32.530  18.006  25.231  1.00  0.00     0.071 C 
ENDBRANCH  18  21
ENDBRANCH  17  18
ENDBRANCH  15  17
ENDBRANCH  13  15
ENDBRANCH   8  13
ENDBRANCH   6   7
ENDBRANCH   4   6
ENDBRANCH   3   4
ENDBRANCH   2   3
ENDBRANCH   1   2
BRANCH   1  23
ATOM     23  O   UNL A   1      33.632  26.500  22.147  1.00  0.00    -0.376 OA
BRANCH  23  24
ATOM     24  C   UNL A   1      34.010  25.647  23.222  1.00  0.00     0.188 C 
BRANCH  24  25
ATOM     25  C   UNL A   1      34.283  24.197  22.836  1.00  0.00     0.188 C 
BRANCH  25  26
ATOM     26  O   UNL A   1      35.570  23.681  23.098  1.00  0.00    -0.376 OA
BRANCH  26  27
ATOM     27  C   UNL A   1      35.705  22.456  23.828  1.00  0.00     0.202 C 
BRANCH  27  28
ATOM     28  C   UNL A   1      37.044  21.823  24.305  1.00  0.00     0.261 C 
BRANCH  28  29
ATOM     29  O   UNL A   1      37.396  21.917  25.691  1.00  0.00    -0.460 OA
BRANCH  29  30
ATOM     30  C   UNL A   1      38.662  21.592  26.030  1.00  0.00     0.338 C 
ATOM     31  O   UNL A   1      39.254  20.564  25.752  1.00  0.00    -0.246 OA
BRANCH  30  32
ATOM     32  C   UNL A   1      39.322  22.790  26.606  1.00  0.00     0.060 A 
ATOM     33  C   UNL A   1      38.788  24.049  26.293  1.00  0.00     0.016 A 
ATOM     34  C   UNL A   1      40.421  22.692  27.461  1.00  0.00     0.016 A 
ATOM     35  C   UNL A   1      39.363  25.212  26.808  1.00  0.00     0.010 A 
ATOM     36  C   UNL A   1      41.021  23.861  27.949  1.00  0.00     0.010 A 
ATOM     37  C   UNL A   1      40.514  25.128  27.599  1.00  0.00    -0.014 A 
BRANCH  37  38
ATOM     38  C   UNL A   1      41.314  26.349  27.871  1.00  0.00     0.031 A 
ATOM     39  C   UNL A   1      40.655  27.473  28.626  1.00  0.00     0.074 A 
ATOM     40  C   UNL A   1      42.598  26.464  27.488  1.00  0.00     0.049 A 
ATOM     41  N   UNL A   1      41.107  28.668  28.912  1.00  0.00    -0.248 NA
ATOM     42  C   UNL A   1      39.296  27.209  29.126  1.00  0.00     0.031 C 
ATOM     43  C   UNL A   1      43.376  25.432  26.811  1.00  0.00     0.029 A 
ATOM     44  N   UNL A   1      43.470  27.521  27.608  1.00  0.00    -0.354 N 
ATOM     45  C   UNL A   1      40.087  29.299  29.611  1.00  0.00     0.074 A 
ATOM     46  C   UNL A   1      38.981  28.368  29.682  1.00  0.00     0.031 C 
ATOM     47  C   UNL A   1      44.608  25.910  26.559  1.00  0.00     0.029 A 
ATOM     48  C   UNL A   1      44.691  27.296  27.022  1.00  0.00     0.049 A 
ATOM     49  H   UNL A   1      43.240  28.358  28.070  1.00  0.00     0.167 HD
ATOM     50  C   UNL A   1      40.073  30.540  30.153  1.00  0.00     0.037 A 
ATOM     51  C   UNL A   1      45.742  28.125  26.853  1.00  0.00     0.037 A 
ATOM     52  C   UNL A   1      41.168  31.469  30.077  1.00  0.00     0.049 A 
ATOM     53  C   UNL A   1      45.666  29.539  27.377  1.00  0.00     0.074 A 
ATOM     54  C   UNL A   1      41.250  32.751  30.594  1.00  0.00     0.029 A 
ATOM     55  N   UNL A   1      42.373  31.220  29.437  1.00  0.00    -0.354 N 
ATOM     56  N   UNL A   1      44.700  30.130  28.040  1.00  0.00    -0.248 NA
ATOM     57  C   UNL A   1      46.829  30.404  27.127  1.00  0.00     0.031 C 
ATOM     58  C   UNL A   1      42.479  33.299  30.215  1.00  0.00     0.029 A 
ATOM     59  C   UNL A   1      43.193  32.334  29.522  1.00  0.00     0.049 A 
ATOM     60  H   UNL A   1      42.610  30.377  28.987  1.00  0.00     0.167 HD
ATOM     61  C   UNL A   1      45.154  31.415  28.317  1.00  0.00     0.074 A 
ATOM     62  C   UNL A   1      46.486  31.516  27.760  1.00  0.00     0.031 C 
ATOM     63  C   UNL A   1      44.524  32.420  28.976  1.00  0.00     0.037 A 
BRANCH  50  64
ATOM     64  C   UNL A   1      38.816  30.977  30.850  1.00  0.00     0.064 A 
ATOM     65  C   UNL A   1      38.671  30.886  32.242  1.00  0.00     0.173 A 
ATOM     66  C   UNL A   1      37.751  31.524  30.115  1.00  0.00     0.173 A 
ATOM     67  F   UNL A   1      39.651  30.356  32.989  1.00  0.00    -0.203 F 
ATOM     68  C   UNL A   1      37.498  31.299  32.869  1.00  0.00     0.198 A 
ATOM     69  C   UNL A   1      36.595  31.968  30.749  1.00  0.00     0.198 A 
ATOM     70  F   UNL A   1      37.838  31.636  28.781  1.00  0.00    -0.203 F 
ATOM     71  F   UNL A   1      37.361  31.152  34.195  1.00  0.00    -0.200 F 
ATOM     72  C   UNL A   1      36.465  31.847  32.124  1.00  0.00     0.200 A 
ATOM     73  F   UNL A   1      35.604  32.510  30.028  1.00  0.00    -0.200 F 
ATOM     74  F   UNL A   1      35.341  32.252  32.730  1.00  0.00    -0.200 F 
ENDBRANCH  50  64
BRANCH  51  75
ATOM     75  C   UNL A   1      46.960  27.653  26.140  1.00  0.00     0.064 A 
ATOM     76  C   UNL A   1      47.050  27.714  24.741  1.00  0.00     0.173 A 
ATOM     77  C   UNL A   1      48.045  27.099  26.836  1.00  0.00     0.173 A 
ATOM     78  F   UNL A   1      46.025  28.203  24.027  1.00  0.00    -0.203 F 
ATOM     79  C   UNL A   1      48.166  27.222  24.068  1.00  0.00     0.198 A 
ATOM     80  C   UNL A   1      49.175  26.637  26.164  1.00  0.00     0.198 A 
ATOM     81  F   UNL A   1      48.009  27.007  28.174  1.00  0.00    -0.203 F 
ATOM     82  F   UNL A   1      48.199  27.241  22.728  1.00  0.00    -0.200 F 
ATOM     83  C   UNL A   1      49.231  26.691  24.780  1.00  0.00     0.200 A 
ATOM     84  F   UNL A   1      50.205  26.133  26.857  1.00  0.00    -0.200 F 
ATOM     85  F   UNL A   1      50.305  26.219  24.131  1.00  0.00    -0.200 F 
ENDBRANCH  51  75
BRANCH  63  86
ATOM     86  C   UNL A   1      45.283  33.703  29.182  1.00  0.00     0.064 A 
ATOM     87  C   UNL A   1      45.122  34.807  28.331  1.00  0.00     0.173 A 
ATOM     88  C   UNL A   1      46.151  33.842  30.277  1.00  0.00     0.173 A 
ATOM     89  F   UNL A   1      44.313  34.725  27.264  1.00  0.00    -0.203 F 
ATOM     90  C   UNL A   1      45.824  35.990  28.552  1.00  0.00     0.198 A 
ATOM     91  C   UNL A   1      46.823  35.038  30.514  1.00  0.00     0.198 A 
ATOM     92  F   UNL A   1      46.335  32.823  31.129  1.00  0.00    -0.203 F 
ATOM     93  F   UNL A   1      45.695  37.012  27.695  1.00  0.00    -0.200 F 
ATOM     94  C   UNL A   1      46.667  36.107  29.646  1.00  0.00     0.200 A 
ATOM     95  F   UNL A   1      47.623  35.154  31.584  1.00  0.00    -0.200 F 
ATOM     96  F   UNL A   1      47.335  37.249  29.861  1.00  0.00    -0.200 F 
ENDBRANCH  63  86
ENDBRANCH  37  38
ENDBRANCH  30  32
ENDBRANCH  29  30
ENDBRANCH  28  29
ENDBRANCH  27  28
ENDBRANCH  26  27
ENDBRANCH  25  26
ENDBRANCH  24  25
ENDBRANCH  23  24
ENDBRANCH   1  23
TORSDOF 23
ENDMDL
