MODEL 1
REMARK VINA RESULT:     -12.6      0.000      0.000
REMARK SMILES O=C(OCCOCCOCCOC(=O)c1ccccc1C(=O)Nc1ccc(Cl)cn1)c1ccc(-c2c3nc(c(-c4c(F)c(F)c(F)c(F)c4F)c4ccc([nH]4)c(-c4c(F)c(F)c(F)c(F)c4F)c4nc(c(-c5c(F)c(F)c(F)c(F)c5F)c5ccc2[nH]5)C=C4)C=C3)cc1
REMARK SMILES IDX 7 1 6 2 5 3 4 4 3 5 2 6 1 7 31 8 32 9 93 10 33 11 92 12
REMARK SMILES IDX 34 13 35 14 36 15 86 16 37 17 91 18 85 19 87 20 38 21 90 22
REMARK SMILES IDX 84 23 83 24 39 26 71 27 51 28 70 29 52 30 55 31 69 32 88 33
REMARK SMILES IDX 53 34 54 35 68 37 89 38 56 39 40 40 41 41 49 42 42 43 43 44
REMARK SMILES IDX 47 45 50 46 44 47 45 48 48 49 46 50 72 51 73 52 81 53 74 54
REMARK SMILES IDX 75 55 79 56 82 57 76 58 77 59 80 60 78 61 57 62 58 63 66 64
REMARK SMILES IDX 59 65 60 66 64 67 67 68 61 69 62 70 65 71 63 72 8 73 9 74
REMARK SMILES IDX 10 75 11 76 12 77 13 78 14 79 15 80 16 81 20 82 17 83 19 84
REMARK SMILES IDX 18 85 21 86 22 87 23 88 24 90 25 91 30 92 26 93 29 94 27 95
REMARK SMILES IDX 28 96
REMARK H PARENT 87 25 55 36 23 89
REMARK Flexibility Score: inf
ROOT
ATOM      1  C   UNL A   1      34.392  34.180  29.105  1.00  0.00     0.188 C 
ENDROOT
BRANCH   1   2
ATOM      2  O   UNL A   1      33.973  35.479  28.626  1.00  0.00    -0.376 OA
BRANCH   2   3
ATOM      3  C   UNL A   1      32.861  36.049  29.358  1.00  0.00     0.202 C 
BRANCH   3   4
ATOM      4  C   UNL A   1      33.172  37.182  30.336  1.00  0.00     0.261 C 
BRANCH   4   5
ATOM      5  O   UNL A   1      32.500  37.013  31.583  1.00  0.00    -0.460 OA
BRANCH   5   6
ATOM      6  C   UNL A   1      32.424  35.869  32.301  1.00  0.00     0.338 C 
ATOM      7  O   UNL A   1      31.322  35.429  32.621  1.00  0.00    -0.246 OA
BRANCH   6   8
ATOM      8  C   UNL A   1      33.618  35.033  32.615  1.00  0.00     0.060 A 
ATOM      9  C   UNL A   1      33.571  33.668  32.882  1.00  0.00     0.016 A 
ATOM     10  C   UNL A   1      34.878  35.640  32.502  1.00  0.00     0.016 A 
ATOM     11  C   UNL A   1      34.742  32.927  33.084  1.00  0.00     0.010 A 
ATOM     12  C   UNL A   1      36.054  34.894  32.656  1.00  0.00     0.010 A 
ATOM     13  C   UNL A   1      35.992  33.526  32.956  1.00  0.00    -0.014 A 
BRANCH  13  14
ATOM     14  C   UNL A   1      37.214  32.762  33.305  1.00  0.00     0.031 A 
ATOM     15  C   UNL A   1      37.804  32.992  34.660  1.00  0.00     0.074 A 
ATOM     16  C   UNL A   1      37.746  31.842  32.480  1.00  0.00     0.049 A 
ATOM     17  N   UNL A   1      38.924  32.558  35.172  1.00  0.00    -0.248 NA
ATOM     18  C   UNL A   1      37.013  33.840  35.568  1.00  0.00     0.031 C 
ATOM     19  C   UNL A   1      37.189  31.453  31.190  1.00  0.00     0.029 A 
ATOM     20  N   UNL A   1      38.862  31.053  32.606  1.00  0.00    -0.354 N 
ATOM     21  C   UNL A   1      38.993  33.115  36.439  1.00  0.00     0.074 A 
ATOM     22  C   UNL A   1      37.808  33.923  36.621  1.00  0.00     0.031 C 
ATOM     23  C   UNL A   1      37.945  30.485  30.648  1.00  0.00     0.029 A 
ATOM     24  C   UNL A   1      39.084  30.231  31.525  1.00  0.00     0.049 A 
ATOM     25  H   UNL A   1      39.449  31.074  33.396  1.00  0.00     0.167 HD
ATOM     26  C   UNL A   1      39.967  32.966  37.365  1.00  0.00     0.037 A 
ATOM     27  C   UNL A   1      40.107  29.392  31.271  1.00  0.00     0.037 A 
ATOM     28  C   UNL A   1      41.126  32.141  37.171  1.00  0.00     0.049 A 
ATOM     29  C   UNL A   1      41.217  29.293  32.288  1.00  0.00     0.074 A 
ATOM     30  C   UNL A   1      42.203  31.944  38.015  1.00  0.00     0.029 A 
ATOM     31  N   UNL A   1      41.350  31.361  36.043  1.00  0.00    -0.354 N 
ATOM     32  N   UNL A   1      41.321  29.880  33.457  1.00  0.00    -0.248 NA
ATOM     33  C   UNL A   1      42.357  28.432  31.949  1.00  0.00     0.031 C 
ATOM     34  C   UNL A   1      43.095  31.071  37.381  1.00  0.00     0.029 A 
ATOM     35  C   UNL A   1      42.553  30.689  36.162  1.00  0.00     0.049 A 
ATOM     36  H   UNL A   1      40.741  31.297  35.272  1.00  0.00     0.167 HD
ATOM     37  C   UNL A   1      42.522  29.448  34.002  1.00  0.00     0.074 A 
ATOM     38  C   UNL A   1      43.106  28.534  33.039  1.00  0.00     0.031 C 
ATOM     39  C   UNL A   1      43.094  29.777  35.186  1.00  0.00     0.037 A 
BRANCH  26  40
ATOM     40  C   UNL A   1      39.832  33.775  38.620  1.00  0.00     0.064 A 
ATOM     41  C   UNL A   1      40.499  34.997  38.796  1.00  0.00     0.173 A 
ATOM     42  C   UNL A   1      39.072  33.283  39.693  1.00  0.00     0.173 A 
ATOM     43  F   UNL A   1      41.268  35.493  37.813  1.00  0.00    -0.203 F 
ATOM     44  C   UNL A   1      40.441  35.676  40.010  1.00  0.00     0.198 A 
ATOM     45  C   UNL A   1      38.992  33.980  40.895  1.00  0.00     0.198 A 
ATOM     46  F   UNL A   1      38.423  32.114  39.581  1.00  0.00    -0.203 F 
ATOM     47  F   UNL A   1      41.146  36.804  40.179  1.00  0.00    -0.200 F 
ATOM     48  C   UNL A   1      39.686  35.169  41.057  1.00  0.00     0.200 A 
ATOM     49  F   UNL A   1      38.260  33.489  41.905  1.00  0.00    -0.200 F 
ATOM     50  F   UNL A   1      39.644  35.817  42.229  1.00  0.00    -0.200 F 
ENDBRANCH  26  40
BRANCH  27  51
ATOM     51  C   UNL A   1      40.145  28.608  30.004  1.00  0.00     0.064 A 
ATOM     52  C   UNL A   1      40.816  29.090  28.871  1.00  0.00     0.173 A 
ATOM     53  C   UNL A   1      39.503  27.364  29.893  1.00  0.00     0.173 A 
ATOM     54  F   UNL A   1      41.412  30.291  28.906  1.00  0.00    -0.203 F 
ATOM     55  C   UNL A   1      40.835  28.366  27.677  1.00  0.00     0.198 A 
ATOM     56  C   UNL A   1      39.549  26.627  28.711  1.00  0.00     0.198 A 
ATOM     57  F   UNL A   1      38.830  26.859  30.937  1.00  0.00    -0.203 F 
ATOM     58  F   UNL A   1      41.436  28.879  26.594  1.00  0.00    -0.200 F 
ATOM     59  C   UNL A   1      40.210  27.131  27.601  1.00  0.00     0.200 A 
ATOM     60  F   UNL A   1      38.942  25.433  28.643  1.00  0.00    -0.200 F 
ATOM     61  F   UNL A   1      40.222  26.439  26.453  1.00  0.00    -0.200 F 
ENDBRANCH  27  51
BRANCH  39  62
ATOM     62  C   UNL A   1      44.398  29.115  35.516  1.00  0.00     0.064 A 
ATOM     63  C   UNL A   1      45.625  29.691  35.161  1.00  0.00     0.173 A 
ATOM     64  C   UNL A   1      44.415  27.911  36.238  1.00  0.00     0.173 A 
ATOM     65  F   UNL A   1      45.657  30.834  34.461  1.00  0.00    -0.203 F 
ATOM     66  C   UNL A   1      46.826  29.074  35.498  1.00  0.00     0.198 A 
ATOM     67  C   UNL A   1      45.618  27.311  36.596  1.00  0.00     0.198 A 
ATOM     68  F   UNL A   1      43.265  27.327  36.607  1.00  0.00    -0.203 F 
ATOM     69  F   UNL A   1      47.989  29.619  35.114  1.00  0.00    -0.200 F 
ATOM     70  C   UNL A   1      46.822  27.889  36.220  1.00  0.00     0.200 A 
ATOM     71  F   UNL A   1      45.613  26.174  37.304  1.00  0.00    -0.200 F 
ATOM     72  F   UNL A   1      47.979  27.299  36.549  1.00  0.00    -0.200 F 
ENDBRANCH  39  62
ENDBRANCH  13  14
ENDBRANCH   6   8
ENDBRANCH   5   6
ENDBRANCH   4   5
ENDBRANCH   3   4
ENDBRANCH   2   3
ENDBRANCH   1   2
BRANCH   1  73
ATOM     73  C   UNL A   1      34.022  32.902  28.239  1.00  0.00     0.188 C 
BRANCH  73  74
ATOM     74  O   UNL A   1      34.592  31.652  28.703  1.00  0.00    -0.376 OA
BRANCH  74  75
ATOM     75  C   UNL A   1      35.535  30.934  27.853  1.00  0.00     0.202 C 
BRANCH  75  76
ATOM     76  C   UNL A   1      35.147  29.290  27.282  1.00  0.00     0.261 C 
BRANCH  76  77
ATOM     77  O   UNL A   1      33.305  28.555  26.839  1.00  0.00    -0.460 OA
BRANCH  77  78
ATOM     78  C   UNL A   1      31.949  28.200  26.963  1.00  0.00     0.339 C 
ATOM     79  O   UNL A   1      31.453  27.716  27.972  1.00  0.00    -0.246 OA
BRANCH  78  80
ATOM     80  C   UNL A   1      31.203  28.005  25.676  1.00  0.00     0.072 A 
ATOM     81  C   UNL A   1      31.156  29.121  24.797  1.00  0.00     0.016 A 
ATOM     82  C   UNL A   1      30.661  26.804  25.232  1.00  0.00     0.054 A 
ATOM     83  C   UNL A   1      30.702  29.001  23.477  1.00  0.00     0.001 A 
ATOM     84  C   UNL A   1      30.252  26.680  23.885  1.00  0.00     0.015 A 
ATOM     85  C   UNL A   1      30.286  27.763  23.009  1.00  0.00     0.001 A 
BRANCH  82  86
ATOM     86  C   UNL A   1      30.531  25.569  26.019  1.00  0.00     0.257 C 
ATOM     87  O   UNL A   1      29.431  25.323  26.515  1.00  0.00    -0.269 OA
ATOM     88  N   UNL A   1      31.648  24.815  26.344  1.00  0.00    -0.307 N 
ATOM     89  H   UNL A   1      31.852  24.604  27.284  1.00  0.00     0.171 HD
BRANCH  88  90
ATOM     90  C   UNL A   1      32.486  24.357  25.313  1.00  0.00     0.132 A 
ATOM     91  C   UNL A   1      32.278  22.714  24.589  1.00  0.00     0.049 A 
ATOM     92  N   UNL A   1      34.055  25.043  25.596  1.00  0.00    -0.238 NA
ATOM     93  C   UNL A   1      33.797  21.741  24.259  1.00  0.00     0.026 A 
ATOM     94  C   UNL A   1      35.481  24.123  25.303  1.00  0.00     0.134 A 
ATOM     95  C   UNL A   1      35.434  22.514  24.581  1.00  0.00     0.059 A 
ATOM     96  Cl  UNL A   1      36.952  22.294  23.782  1.00  0.00    -0.083 Cl
ENDBRANCH  88  90
ENDBRANCH  82  86
ENDBRANCH  78  80
ENDBRANCH  77  78
ENDBRANCH  76  77
ENDBRANCH  75  76
ENDBRANCH  74  75
ENDBRANCH  73  74
ENDBRANCH   1  73
TORSDOF 19
ENDMDL
MODEL 2
REMARK VINA RESULT:     -12.3      6.038     10.660
REMARK SMILES O=C(OCCOCCOCCOC(=O)c1ccccc1C(=O)Nc1ccc(Cl)cn1)c1ccc(-c2c3nc(c(-c4c(F)c(F)c(F)c(F)c4F)c4ccc([nH]4)c(-c4c(F)c(F)c(F)c(F)c4F)c4nc(c(-c5c(F)c(F)c(F)c(F)c5F)c5ccc2[nH]5)C=C4)C=C3)cc1
REMARK SMILES IDX 7 1 6 2 5 3 4 4 3 5 2 6 1 7 31 8 32 9 93 10 33 11 92 12
REMARK SMILES IDX 34 13 35 14 36 15 86 16 37 17 91 18 85 19 87 20 38 21 90 22
REMARK SMILES IDX 84 23 83 24 39 26 71 27 51 28 70 29 52 30 55 31 69 32 88 33
REMARK SMILES IDX 53 34 54 35 68 37 89 38 56 39 40 40 41 41 49 42 42 43 43 44
REMARK SMILES IDX 47 45 50 46 44 47 45 48 48 49 46 50 72 51 73 52 81 53 74 54
REMARK SMILES IDX 75 55 79 56 82 57 76 58 77 59 80 60 78 61 57 62 58 63 66 64
REMARK SMILES IDX 59 65 60 66 64 67 67 68 61 69 62 70 65 71 63 72 8 73 9 74
REMARK SMILES IDX 10 75 11 76 12 77 13 78 14 79 15 80 16 81 20 82 17 83 19 84
REMARK SMILES IDX 18 85 21 86 22 87 23 88 24 90 25 91 30 92 26 93 29 94 27 95
REMARK SMILES IDX 28 96
REMARK H PARENT 87 25 55 36 23 89
REMARK Flexibility Score: inf
ROOT
ATOM      1  C   UNL A   1      36.211  21.351  25.632  1.00  0.00     0.188 C 
ENDROOT
BRANCH   1   2
ATOM      2  O   UNL A   1      36.569  20.089  25.023  1.00  0.00    -0.376 OA
BRANCH   2   3
ATOM      3  C   UNL A   1      37.965  19.987  24.649  1.00  0.00     0.202 C 
BRANCH   3   4
ATOM      4  C   UNL A   1      39.004  20.266  25.735  1.00  0.00     0.261 C 
BRANCH   4   5
ATOM      5  O   UNL A   1      40.017  19.262  25.776  1.00  0.00    -0.460 OA
BRANCH   5   6
ATOM      6  C   UNL A   1      41.329  19.461  26.045  1.00  0.00     0.338 C 
ATOM      7  O   UNL A   1      42.136  18.566  25.805  1.00  0.00    -0.246 OA
BRANCH   6   8
ATOM      8  C   UNL A   1      41.868  20.774  26.501  1.00  0.00     0.060 A 
ATOM      9  C   UNL A   1      42.080  21.114  27.834  1.00  0.00     0.016 A 
ATOM     10  C   UNL A   1      42.312  21.666  25.514  1.00  0.00     0.016 A 
ATOM     11  C   UNL A   1      42.672  22.333  28.187  1.00  0.00     0.010 A 
ATOM     12  C   UNL A   1      42.949  22.866  25.860  1.00  0.00     0.010 A 
ATOM     13  C   UNL A   1      43.127  23.211  27.207  1.00  0.00    -0.014 A 
BRANCH  13  14
ATOM     14  C   UNL A   1      43.626  24.552  27.595  1.00  0.00     0.031 A 
ATOM     15  C   UNL A   1      42.613  25.562  28.033  1.00  0.00     0.074 A 
ATOM     16  C   UNL A   1      44.938  24.849  27.626  1.00  0.00     0.049 A 
ATOM     17  N   UNL A   1      42.757  26.832  28.303  1.00  0.00    -0.248 NA
ATOM     18  C   UNL A   1      41.235  25.064  28.185  1.00  0.00     0.031 C 
ATOM     19  C   UNL A   1      46.015  23.911  27.334  1.00  0.00     0.029 A 
ATOM     20  N   UNL A   1      45.594  26.015  27.935  1.00  0.00    -0.354 N 
ATOM     21  C   UNL A   1      41.485  27.291  28.611  1.00  0.00     0.074 A 
ATOM     22  C   UNL A   1      40.580  26.170  28.491  1.00  0.00     0.031 C 
ATOM     23  C   UNL A   1      47.199  24.523  27.497  1.00  0.00     0.029 A 
ATOM     24  C   UNL A   1      46.963  25.921  27.842  1.00  0.00     0.049 A 
ATOM     25  H   UNL A   1      45.127  26.841  28.197  1.00  0.00     0.167 HD
ATOM     26  C   UNL A   1      41.111  28.543  28.958  1.00  0.00     0.037 A 
ATOM     27  C   UNL A   1      47.909  26.869  27.994  1.00  0.00     0.037 A 
ATOM     28  C   UNL A   1      42.032  29.637  29.092  1.00  0.00     0.049 A 
ATOM     29  C   UNL A   1      47.463  28.274  28.315  1.00  0.00     0.074 A 
ATOM     30  C   UNL A   1      41.769  30.960  29.393  1.00  0.00     0.029 A 
ATOM     31  N   UNL A   1      43.408  29.523  28.939  1.00  0.00    -0.354 N 
ATOM     32  N   UNL A   1      46.250  28.728  28.531  1.00  0.00    -0.248 NA
ATOM     33  C   UNL A   1      48.508  29.303  28.395  1.00  0.00     0.031 C 
ATOM     34  C   UNL A   1      42.985  31.654  29.389  1.00  0.00     0.029 A 
ATOM     35  C   UNL A   1      44.009  30.755  29.129  1.00  0.00     0.049 A 
ATOM     36  H   UNL A   1      43.885  28.689  28.726  1.00  0.00     0.167 HD
ATOM     37  C   UNL A   1      46.385  30.083  28.793  1.00  0.00     0.074 A 
ATOM     38  C   UNL A   1      47.803  30.378  28.723  1.00  0.00     0.031 C 
ATOM     39  C   UNL A   1      45.427  31.004  29.062  1.00  0.00     0.037 A 
BRANCH  26  40
ATOM     40  C   UNL A   1      39.642  28.782  29.136  1.00  0.00     0.064 A 
ATOM     41  C   UNL A   1      38.824  29.221  28.084  1.00  0.00     0.173 A 
ATOM     42  C   UNL A   1      39.056  28.628  30.402  1.00  0.00     0.173 A 
ATOM     43  F   UNL A   1      39.345  29.417  26.862  1.00  0.00    -0.203 F 
ATOM     44  C   UNL A   1      37.486  29.536  28.301  1.00  0.00     0.198 A 
ATOM     45  C   UNL A   1      37.709  28.915  30.608  1.00  0.00     0.198 A 
ATOM     46  F   UNL A   1      39.794  28.220  31.445  1.00  0.00    -0.203 F 
ATOM     47  F   UNL A   1      36.743  30.025  27.298  1.00  0.00    -0.200 F 
ATOM     48  C   UNL A   1      36.928  29.380  29.561  1.00  0.00     0.200 A 
ATOM     49  F   UNL A   1      37.172  28.762  31.827  1.00  0.00    -0.200 F 
ATOM     50  F   UNL A   1      35.643  29.698  29.771  1.00  0.00    -0.200 F 
ENDBRANCH  26  40
BRANCH  27  51
ATOM     51  C   UNL A   1      49.351  26.534  27.821  1.00  0.00     0.064 A 
ATOM     52  C   UNL A   1      50.195  26.365  28.928  1.00  0.00     0.173 A 
ATOM     53  C   UNL A   1      49.920  26.385  26.546  1.00  0.00     0.173 A 
ATOM     54  F   UNL A   1      49.714  26.535  30.168  1.00  0.00    -0.203 F 
ATOM     55  C   UNL A   1      51.550  26.071  28.767  1.00  0.00     0.198 A 
ATOM     56  C   UNL A   1      51.266  26.061  26.387  1.00  0.00     0.198 A 
ATOM     57  F   UNL A   1      49.167  26.554  25.449  1.00  0.00    -0.203 F 
ATOM     58  F   UNL A   1      52.344  25.971  29.842  1.00  0.00    -0.200 F 
ATOM     59  C   UNL A   1      52.082  25.910  27.497  1.00  0.00     0.200 A 
ATOM     60  F   UNL A   1      51.776  25.907  25.156  1.00  0.00    -0.200 F 
ATOM     61  F   UNL A   1      53.385  25.635  27.342  1.00  0.00    -0.200 F 
ENDBRANCH  27  51
BRANCH  39  62
ATOM     62  C   UNL A   1      45.890  32.404  29.338  1.00  0.00     0.064 A 
ATOM     63  C   UNL A   1      46.236  32.822  30.630  1.00  0.00     0.173 A 
ATOM     64  C   UNL A   1      46.033  33.320  28.284  1.00  0.00     0.173 A 
ATOM     65  F   UNL A   1      46.103  31.984  31.669  1.00  0.00    -0.203 F 
ATOM     66  C   UNL A   1      46.687  34.117  30.863  1.00  0.00     0.198 A 
ATOM     67  C   UNL A   1      46.510  34.606  28.517  1.00  0.00     0.198 A 
ATOM     68  F   UNL A   1      45.723  32.962  27.029  1.00  0.00    -0.203 F 
ATOM     69  F   UNL A   1      46.972  34.512  32.112  1.00  0.00    -0.200 F 
ATOM     70  C   UNL A   1      46.830  35.005  29.806  1.00  0.00     0.200 A 
ATOM     71  F   UNL A   1      46.660  35.459  27.495  1.00  0.00    -0.200 F 
ATOM     72  F   UNL A   1      47.271  36.251  30.031  1.00  0.00    -0.200 F 
ENDBRANCH  39  62
ENDBRANCH  13  14
ENDBRANCH   6   8
ENDBRANCH   5   6
ENDBRANCH   4   5
ENDBRANCH   3   4
ENDBRANCH   2   3
ENDBRANCH   1   2
BRANCH   1  73
ATOM     73  C   UNL A   1      34.811  21.461  26.372  1.00  0.00     0.188 C 
BRANCH  73  74
ATOM     74  O   UNL A   1      33.813  22.267  25.696  1.00  0.00    -0.376 OA
BRANCH  74  75
ATOM     75  C   UNL A   1      32.398  22.009  25.936  1.00  0.00     0.202 C 
BRANCH  75  76
ATOM     76  C   UNL A   1      31.159  22.960  25.075  1.00  0.00     0.261 C 
BRANCH  76  77
ATOM     77  O   UNL A   1      30.877  24.969  25.174  1.00  0.00    -0.460 OA
BRANCH  77  78
ATOM     78  C   UNL A   1      30.766  26.273  25.690  1.00  0.00     0.339 C 
ATOM     79  O   UNL A   1      30.589  26.534  26.873  1.00  0.00    -0.246 OA
BRANCH  78  80
ATOM     80  C   UNL A   1      30.418  27.343  24.697  1.00  0.00     0.072 A 
ATOM     81  C   UNL A   1      29.365  27.046  23.791  1.00  0.00     0.016 A 
ATOM     82  C   UNL A   1      30.959  28.624  24.670  1.00  0.00     0.054 A 
ATOM     83  C   UNL A   1      28.789  28.034  22.981  1.00  0.00     0.001 A 
ATOM     84  C   UNL A   1      30.340  29.625  23.886  1.00  0.00     0.015 A 
ATOM     85  C   UNL A   1      29.254  29.338  23.061  1.00  0.00     0.001 A 
BRANCH  82  86
ATOM     86  C   UNL A   1      32.106  29.097  25.457  1.00  0.00     0.257 C 
ATOM     87  O   UNL A   1      31.905  29.400  26.633  1.00  0.00    -0.269 OA
ATOM     88  N   UNL A   1      33.321  29.368  24.845  1.00  0.00    -0.307 N 
ATOM     89  H   UNL A   1      33.741  30.254  24.938  1.00  0.00     0.171 HD
BRANCH  88  90
ATOM     90  C   UNL A   1      33.945  28.361  24.090  1.00  0.00     0.132 A 
ATOM     91  C   UNL A   1      33.483  28.047  22.371  1.00  0.00     0.049 A 
ATOM     92  N   UNL A   1      34.329  27.072  25.187  1.00  0.00    -0.238 NA
ATOM     93  C   UNL A   1      33.324  26.297  21.848  1.00  0.00     0.026 A 
ATOM     94  C   UNL A   1      34.163  25.428  24.702  1.00  0.00     0.134 A 
ATOM     95  C   UNL A   1      33.738  24.970  23.052  1.00  0.00     0.059 A 
ATOM     96  Cl  UNL A   1      34.408  23.396  22.796  1.00  0.00    -0.083 Cl
ENDBRANCH  88  90
ENDBRANCH  82  86
ENDBRANCH  78  80
ENDBRANCH  77  78
ENDBRANCH  76  77
ENDBRANCH  75  76
ENDBRANCH  74  75
ENDBRANCH  73  74
ENDBRANCH   1  73
TORSDOF 19
ENDMDL
MODEL 3
REMARK VINA RESULT:     -12.2      1.144      1.879
REMARK SMILES O=C(OCCOCCOCCOC(=O)c1ccccc1C(=O)Nc1ccc(Cl)cn1)c1ccc(-c2c3nc(c(-c4c(F)c(F)c(F)c(F)c4F)c4ccc([nH]4)c(-c4c(F)c(F)c(F)c(F)c4F)c4nc(c(-c5c(F)c(F)c(F)c(F)c5F)c5ccc2[nH]5)C=C4)C=C3)cc1
REMARK SMILES IDX 7 1 6 2 5 3 4 4 3 5 2 6 1 7 31 8 32 9 93 10 33 11 92 12
REMARK SMILES IDX 34 13 35 14 36 15 86 16 37 17 91 18 85 19 87 20 38 21 90 22
REMARK SMILES IDX 84 23 83 24 39 26 71 27 51 28 70 29 52 30 55 31 69 32 88 33
REMARK SMILES IDX 53 34 54 35 68 37 89 38 56 39 40 40 41 41 49 42 42 43 43 44
REMARK SMILES IDX 47 45 50 46 44 47 45 48 48 49 46 50 72 51 73 52 81 53 74 54
REMARK SMILES IDX 75 55 79 56 82 57 76 58 77 59 80 60 78 61 57 62 58 63 66 64
REMARK SMILES IDX 59 65 60 66 64 67 67 68 61 69 62 70 65 71 63 72 8 73 9 74
REMARK SMILES IDX 10 75 11 76 12 77 13 78 14 79 15 80 16 81 20 82 17 83 19 84
REMARK SMILES IDX 18 85 21 86 22 87 23 88 24 90 25 91 30 92 26 93 29 94 27 95
REMARK SMILES IDX 28 96
REMARK H PARENT 87 25 55 36 23 89
REMARK Flexibility Score: inf
ROOT
ATOM      1  C   UNL A   1      34.416  33.165  29.336  1.00  0.00     0.188 C 
ENDROOT
BRANCH   1   2
ATOM      2  O   UNL A   1      34.316  34.480  28.741  1.00  0.00    -0.376 OA
BRANCH   2   3
ATOM      3  C   UNL A   1      33.030  35.119  28.931  1.00  0.00     0.202 C 
BRANCH   3   4
ATOM      4  C   UNL A   1      33.010  36.435  29.709  1.00  0.00     0.261 C 
BRANCH   4   5
ATOM      5  O   UNL A   1      32.188  36.357  30.872  1.00  0.00    -0.460 OA
BRANCH   5   6
ATOM      6  C   UNL A   1      32.616  36.173  32.143  1.00  0.00     0.338 C 
ATOM      7  O   UNL A   1      31.972  36.655  33.072  1.00  0.00    -0.246 OA
BRANCH   6   8
ATOM      8  C   UNL A   1      33.770  35.294  32.485  1.00  0.00     0.060 A 
ATOM      9  C   UNL A   1      33.650  33.981  32.929  1.00  0.00     0.016 A 
ATOM     10  C   UNL A   1      35.056  35.784  32.213  1.00  0.00     0.016 A 
ATOM     11  C   UNL A   1      34.780  33.182  33.150  1.00  0.00     0.010 A 
ATOM     12  C   UNL A   1      36.187  34.974  32.386  1.00  0.00     0.010 A 
ATOM     13  C   UNL A   1      36.055  33.663  32.865  1.00  0.00    -0.014 A 
BRANCH  13  14
ATOM     14  C   UNL A   1      37.244  32.857  33.231  1.00  0.00     0.031 A 
ATOM     15  C   UNL A   1      37.834  33.080  34.587  1.00  0.00     0.074 A 
ATOM     16  C   UNL A   1      37.746  31.908  32.419  1.00  0.00     0.049 A 
ATOM     17  N   UNL A   1      38.934  32.609  35.110  1.00  0.00    -0.248 NA
ATOM     18  C   UNL A   1      37.071  33.968  35.480  1.00  0.00     0.031 C 
ATOM     19  C   UNL A   1      37.182  31.526  31.130  1.00  0.00     0.029 A 
ATOM     20  N   UNL A   1      38.831  31.078  32.561  1.00  0.00    -0.354 N 
ATOM     21  C   UNL A   1      39.017  33.178  36.372  1.00  0.00     0.074 A 
ATOM     22  C   UNL A   1      37.862  34.032  36.537  1.00  0.00     0.031 C 
ATOM     23  C   UNL A   1      37.904  30.523  30.604  1.00  0.00     0.029 A 
ATOM     24  C   UNL A   1      39.027  30.236  31.491  1.00  0.00     0.049 A 
ATOM     25  H   UNL A   1      39.413  31.086  33.355  1.00  0.00     0.167 HD
ATOM     26  C   UNL A   1      39.978  33.003  37.306  1.00  0.00     0.037 A 
ATOM     27  C   UNL A   1      40.019  29.355  31.253  1.00  0.00     0.037 A 
ATOM     28  C   UNL A   1      41.106  32.131  37.129  1.00  0.00     0.049 A 
ATOM     29  C   UNL A   1      41.117  29.225  32.279  1.00  0.00     0.074 A 
ATOM     30  C   UNL A   1      42.169  31.903  37.981  1.00  0.00     0.029 A 
ATOM     31  N   UNL A   1      41.307  31.330  36.011  1.00  0.00    -0.354 N 
ATOM     32  N   UNL A   1      41.237  29.822  33.442  1.00  0.00    -0.248 NA
ATOM     33  C   UNL A   1      42.226  28.318  31.956  1.00  0.00     0.031 C 
ATOM     34  C   UNL A   1      43.031  30.989  37.363  1.00  0.00     0.029 A 
ATOM     35  C   UNL A   1      42.482  30.614  36.146  1.00  0.00     0.049 A 
ATOM     36  H   UNL A   1      40.701  31.280  35.237  1.00  0.00     0.167 HD
ATOM     37  C   UNL A   1      42.417  29.351  33.999  1.00  0.00     0.074 A 
ATOM     38  C   UNL A   1      42.971  28.404  33.050  1.00  0.00     0.031 C 
ATOM     39  C   UNL A   1      42.994  29.671  35.183  1.00  0.00     0.037 A 
BRANCH  26  40
ATOM     40  C   UNL A   1      39.867  33.830  38.551  1.00  0.00     0.064 A 
ATOM     41  C   UNL A   1      39.062  33.444  39.633  1.00  0.00     0.173 A 
ATOM     42  C   UNL A   1      40.530  35.064  38.634  1.00  0.00     0.173 A 
ATOM     43  F   UNL A   1      38.379  32.289  39.588  1.00  0.00    -0.203 F 
ATOM     44  C   UNL A   1      38.894  34.280  40.734  1.00  0.00     0.198 A 
ATOM     45  C   UNL A   1      40.383  35.883  39.750  1.00  0.00     0.198 A 
ATOM     46  F   UNL A   1      41.305  35.485  37.623  1.00  0.00    -0.203 F 
ATOM     47  F   UNL A   1      38.061  33.924  41.723  1.00  0.00    -0.200 F 
ATOM     48  C   UNL A   1      39.556  35.497  40.793  1.00  0.00     0.200 A 
ATOM     49  F   UNL A   1      41.025  37.059  39.805  1.00  0.00    -0.200 F 
ATOM     50  F   UNL A   1      39.380  36.307  41.846  1.00  0.00    -0.200 F 
ENDBRANCH  26  40
BRANCH  27  51
ATOM     51  C   UNL A   1      40.034  28.556  29.995  1.00  0.00     0.064 A 
ATOM     52  C   UNL A   1      40.643  29.046  28.830  1.00  0.00     0.173 A 
ATOM     53  C   UNL A   1      39.433  27.289  29.926  1.00  0.00     0.173 A 
ATOM     54  F   UNL A   1      41.197  30.267  28.828  1.00  0.00    -0.203 F 
ATOM     55  C   UNL A   1      40.640  28.307  27.646  1.00  0.00     0.198 A 
ATOM     56  C   UNL A   1      39.459  26.538  28.751  1.00  0.00     0.198 A 
ATOM     57  F   UNL A   1      38.820  26.776  31.002  1.00  0.00    -0.203 F 
ATOM     58  F   UNL A   1      41.179  28.825  26.534  1.00  0.00    -0.200 F 
ATOM     59  C   UNL A   1      40.056  27.050  27.610  1.00  0.00     0.200 A 
ATOM     60  F   UNL A   1      38.892  25.323  28.722  1.00  0.00    -0.200 F 
ATOM     61  F   UNL A   1      40.048  26.343  26.471  1.00  0.00    -0.200 F 
ENDBRANCH  27  51
BRANCH  39  62
ATOM     62  C   UNL A   1      44.270  28.963  35.529  1.00  0.00     0.064 A 
ATOM     63  C   UNL A   1      45.520  29.483  35.167  1.00  0.00     0.173 A 
ATOM     64  C   UNL A   1      44.237  27.774  36.274  1.00  0.00     0.173 A 
ATOM     65  F   UNL A   1      45.599  30.610  34.445  1.00  0.00    -0.203 F 
ATOM     66  C   UNL A   1      46.694  28.824  35.518  1.00  0.00     0.198 A 
ATOM     67  C   UNL A   1      45.414  27.133  36.646  1.00  0.00     0.198 A 
ATOM     68  F   UNL A   1      43.064  27.244  36.650  1.00  0.00    -0.203 F 
ATOM     69  F   UNL A   1      47.879  29.314  35.127  1.00  0.00    -0.200 F 
ATOM     70  C   UNL A   1      46.641  27.654  36.263  1.00  0.00     0.200 A 
ATOM     71  F   UNL A   1      45.362  26.010  37.376  1.00  0.00    -0.200 F 
ATOM     72  F   UNL A   1      47.772  27.024  36.606  1.00  0.00    -0.200 F 
ENDBRANCH  39  62
ENDBRANCH  13  14
ENDBRANCH   6   8
ENDBRANCH   5   6
ENDBRANCH   4   5
ENDBRANCH   3   4
ENDBRANCH   2   3
ENDBRANCH   1   2
BRANCH   1  73
ATOM     73  C   UNL A   1      34.545  31.909  28.373  1.00  0.00     0.188 C 
BRANCH  73  74
ATOM     74  O   UNL A   1      33.473  31.752  27.411  1.00  0.00    -0.376 OA
BRANCH  74  75
ATOM     75  C   UNL A   1      32.839  30.448  27.249  1.00  0.00     0.202 C 
BRANCH  75  76
ATOM     76  C   UNL A   1      32.883  29.626  25.668  1.00  0.00     0.261 C 
BRANCH  76  77
ATOM     77  O   UNL A   1      31.303  29.234  24.452  1.00  0.00    -0.460 OA
BRANCH  77  78
ATOM     78  C   UNL A   1      30.501  28.634  23.464  1.00  0.00     0.339 C 
ATOM     79  O   UNL A   1      29.378  29.016  23.161  1.00  0.00    -0.246 OA
BRANCH  78  80
ATOM     80  C   UNL A   1      30.867  27.227  23.088  1.00  0.00     0.072 A 
ATOM     81  C   UNL A   1      31.489  27.053  21.823  1.00  0.00     0.016 A 
ATOM     82  C   UNL A   1      30.750  26.116  23.916  1.00  0.00     0.054 A 
ATOM     83  C   UNL A   1      32.088  25.840  21.458  1.00  0.00     0.001 A 
ATOM     84  C   UNL A   1      31.399  24.912  23.561  1.00  0.00     0.015 A 
ATOM     85  C   UNL A   1      32.077  24.778  22.350  1.00  0.00     0.001 A 
BRANCH  82  86
ATOM     86  C   UNL A   1      30.062  26.071  25.214  1.00  0.00     0.257 C 
ATOM     87  O   UNL A   1      28.851  25.846  25.209  1.00  0.00    -0.269 OA
ATOM     88  N   UNL A   1      30.715  26.453  26.376  1.00  0.00    -0.307 N 
ATOM     89  H   UNL A   1      30.339  27.158  26.951  1.00  0.00     0.171 HD
BRANCH  88  90
ATOM     90  C   UNL A   1      31.921  25.820  26.721  1.00  0.00     0.132 A 
ATOM     91  C   UNL A   1      33.473  26.230  25.889  1.00  0.00     0.049 A 
ATOM     92  N   UNL A   1      31.525  24.193  27.176  1.00  0.00    -0.238 NA
ATOM     93  C   UNL A   1      34.579  24.838  25.438  1.00  0.00     0.026 A 
ATOM     94  C   UNL A   1      32.555  22.884  26.736  1.00  0.00     0.134 A 
ATOM     95  C   UNL A   1      34.109  23.133  25.940  1.00  0.00     0.059 A 
ATOM     96  Cl  UNL A   1      35.098  21.780  26.368  1.00  0.00    -0.083 Cl
ENDBRANCH  88  90
ENDBRANCH  82  86
ENDBRANCH  78  80
ENDBRANCH  77  78
ENDBRANCH  76  77
ENDBRANCH  75  76
ENDBRANCH  74  75
ENDBRANCH  73  74
ENDBRANCH   1  73
TORSDOF 19
ENDMDL
