MODEL 1
REMARK VINA RESULT:     -11.1      0.000      0.000
REMARK SMILES COc1ccc(NC(=O)[C@H](CC(=O)OCCOCCOCCOC(=O)c2ccc(-c3c4nc(c(-c5c(F)c(F)c(F)c(F)c5F)c5ccc([nH]5)c(-c5c(F)c(F)c(F)c(F)c5F)c5nc(c(-c6c(F)c(F)c(F)c(F)c6F)c6ccc3[nH]6)C=C5)C=C4)cc2)Cc2ccccc2)cc1
REMARK SMILES IDX 18 1 17 2 16 3 15 4 14 5 12 6 13 7 11 8 10 9 8 10 7 11 9 13
REMARK SMILES IDX 6 14 3 15 4 16 97 17 5 18 96 19 2 20 1 21 89 22 90 23 91 24
REMARK SMILES IDX 95 25 92 26 94 27 93 28 19 29 20 30 21 31 22 32 23 33 24 34
REMARK SMILES IDX 25 35 26 36 27 37 88 38 28 39 87 40 29 41 30 42 31 43 81 44
REMARK SMILES IDX 32 45 86 46 80 47 82 48 33 49 85 50 79 51 78 52 34 54 66 55
REMARK SMILES IDX 46 56 65 57 47 58 50 59 64 60 83 61 48 62 49 63 63 65 84 66
REMARK SMILES IDX 51 67 35 68 36 69 44 70 37 71 38 72 42 73 45 74 39 75 40 76
REMARK SMILES IDX 43 77 41 78 67 79 68 80 76 81 69 82 70 83 74 84 77 85 71 86
REMARK SMILES IDX 72 87 75 88 73 89 52 90 53 91 61 92 54 93 55 94 59 95 62 96
REMARK SMILES IDX 56 97 57 98 60 99 58 100
REMARK H PARENT 7 12 82 53 50 64
REMARK Flexibility Score: inf
ROOT
ATOM      1  C   UNL A   1      39.479  21.530  26.035  1.00  0.00     0.188 C 
ENDROOT
BRANCH   1   2
ATOM      2  O   UNL A   1      38.089  21.629  25.744  1.00  0.00    -0.376 OA
BRANCH   2   3
ATOM      3  C   UNL A   1      37.524  22.926  25.595  1.00  0.00     0.202 C 
BRANCH   3   4
ATOM      4  C   UNL A   1      36.191  22.964  24.845  1.00  0.00     0.261 C 
BRANCH   4   5
ATOM      5  O   UNL A   1      35.470  24.195  25.087  1.00  0.00    -0.463 OA
BRANCH   5   6
ATOM      6  C   UNL A   1      34.797  24.722  24.044  1.00  0.00     0.306 C 
ATOM      7  O   UNL A   1      34.727  24.190  22.940  1.00  0.00    -0.252 OA
BRANCH   6   8
ATOM      8  C   UNL A   1      34.018  25.997  24.333  1.00  0.00     0.136 C 
BRANCH   8   9
ATOM      9  C   UNL A   1      33.562  26.506  25.718  1.00  0.00     0.094 C 
BRANCH   9  10
ATOM     10  C   UNL A   1      33.796  28.006  25.842  1.00  0.00     0.228 C 
ATOM     11  N   UNL A   1      33.043  28.955  25.221  1.00  0.00    -0.326 N 
ATOM     12  H   UNL A   1      33.255  29.860  25.544  1.00  0.00     0.169 HD
ATOM     13  O   UNL A   1      34.720  28.443  26.534  1.00  0.00    -0.274 OA
BRANCH  11  14
ATOM     14  C   UNL A   1      32.040  28.972  24.236  1.00  0.00     0.041 A 
ATOM     15  C   UNL A   1      30.022  29.490  22.346  1.00  0.00     0.119 A 
ATOM     16  C   UNL A   1      31.138  28.735  21.999  1.00  0.00     0.048 A 
ATOM     17  C   UNL A   1      29.845  29.884  23.665  1.00  0.00     0.048 A 
ATOM     18  C   UNL A   1      32.140  28.475  22.941  1.00  0.00     0.030 A 
ATOM     19  C   UNL A   1      30.850  29.623  24.603  1.00  0.00     0.030 A 
BRANCH  15  20
ATOM     20  O   UNL A   1      29.142  29.782  21.342  1.00  0.00    -0.497 OA
ATOM     21  C   UNL A   1      28.380  30.963  21.599  1.00  0.00     0.278 C 
ENDBRANCH  15  20
ENDBRANCH  11  14
ENDBRANCH   9  10
BRANCH   9  22
ATOM     22  C   UNL A   1      32.158  26.129  26.226  1.00  0.00     0.049 C 
BRANCH  22  23
ATOM     23  C   UNL A   1      31.868  24.665  25.996  1.00  0.00    -0.047 A 
ATOM     24  C   UNL A   1      31.153  24.240  24.873  1.00  0.00     0.004 A 
ATOM     25  C   UNL A   1      32.374  23.703  26.884  1.00  0.00     0.004 A 
ATOM     26  C   UNL A   1      30.984  22.881  24.614  1.00  0.00     0.000 A 
ATOM     27  C   UNL A   1      32.192  22.345  26.632  1.00  0.00     0.000 A 
ATOM     28  C   UNL A   1      31.508  21.934  25.490  1.00  0.00     0.000 A 
ENDBRANCH  22  23
ENDBRANCH   9  22
ENDBRANCH   8   9
ENDBRANCH   6   8
ENDBRANCH   5   6
ENDBRANCH   4   5
ENDBRANCH   3   4
ENDBRANCH   2   3
ENDBRANCH   1   2
BRANCH   1  29
ATOM     29  C   UNL A   1      40.099  20.139  26.165  1.00  0.00     0.188 C 
BRANCH  29  30
ATOM     30  O   UNL A   1      41.440  20.086  25.699  1.00  0.00    -0.376 OA
BRANCH  30  31
ATOM     31  C   UNL A   1      42.350  20.788  26.541  1.00  0.00     0.202 C 
BRANCH  31  32
ATOM     32  C   UNL A   1      43.287  21.596  25.641  1.00  0.00     0.261 C 
BRANCH  32  33
ATOM     33  O   UNL A   1      42.651  22.768  25.091  1.00  0.00    -0.460 OA
BRANCH  33  34
ATOM     34  C   UNL A   1      43.411  23.887  25.063  1.00  0.00     0.338 C 
ATOM     35  O   UNL A   1      44.369  24.112  24.348  1.00  0.00    -0.246 OA
BRANCH  34  36
ATOM     36  C   UNL A   1      42.785  24.895  25.944  1.00  0.00     0.060 A 
ATOM     37  C   UNL A   1      43.269  26.210  25.914  1.00  0.00     0.016 A 
ATOM     38  C   UNL A   1      41.753  24.542  26.814  1.00  0.00     0.016 A 
ATOM     39  C   UNL A   1      42.752  27.169  26.787  1.00  0.00     0.010 A 
ATOM     40  C   UNL A   1      41.247  25.498  27.698  1.00  0.00     0.010 A 
ATOM     41  C   UNL A   1      41.767  26.805  27.715  1.00  0.00    -0.014 A 
BRANCH  41  42
ATOM     42  C   UNL A   1      41.405  27.712  28.833  1.00  0.00     0.031 A 
ATOM     43  C   UNL A   1      42.195  27.616  30.110  1.00  0.00     0.074 A 
ATOM     44  C   UNL A   1      40.396  28.594  28.732  1.00  0.00     0.049 A 
ATOM     45  N   UNL A   1      41.981  28.184  31.269  1.00  0.00    -0.248 NA
ATOM     46  C   UNL A   1      43.389  26.756  30.071  1.00  0.00     0.031 C 
ATOM     47  C   UNL A   1      39.593  28.834  27.536  1.00  0.00     0.029 A 
ATOM     48  N   UNL A   1      39.864  29.444  29.672  1.00  0.00    -0.354 N 
ATOM     49  C   UNL A   1      43.006  27.745  32.096  1.00  0.00     0.074 A 
ATOM     50  C   UNL A   1      43.827  26.843  31.318  1.00  0.00     0.031 C 
ATOM     51  C   UNL A   1      38.656  29.758  27.819  1.00  0.00     0.029 A 
ATOM     52  C   UNL A   1      38.766  30.139  29.227  1.00  0.00     0.049 A 
ATOM     53  H   UNL A   1      40.236  29.546  30.578  1.00  0.00     0.167 HD
ATOM     54  C   UNL A   1      43.246  28.069  33.389  1.00  0.00     0.037 A 
ATOM     55  C   UNL A   1      37.928  30.957  29.893  1.00  0.00     0.037 A 
ATOM     56  C   UNL A   1      42.427  28.957  34.169  1.00  0.00     0.049 A 
ATOM     57  C   UNL A   1      38.157  31.220  31.362  1.00  0.00     0.074 A 
ATOM     58  C   UNL A   1      42.571  29.324  35.496  1.00  0.00     0.029 A 
ATOM     59  N   UNL A   1      41.309  29.620  33.690  1.00  0.00    -0.354 N 
ATOM     60  N   UNL A   1      39.117  30.790  32.145  1.00  0.00    -0.248 NA
ATOM     61  C   UNL A   1      37.177  32.083  32.042  1.00  0.00     0.031 C 
ATOM     62  C   UNL A   1      41.518  30.183  35.829  1.00  0.00     0.029 A 
ATOM     63  C   UNL A   1      40.747  30.387  34.697  1.00  0.00     0.049 A 
ATOM     64  H   UNL A   1      40.964  29.555  32.769  1.00  0.00     0.167 HD
ATOM     65  C   UNL A   1      38.877  31.355  33.392  1.00  0.00     0.074 A 
ATOM     66  C   UNL A   1      37.687  32.169  33.262  1.00  0.00     0.031 C 
ATOM     67  C   UNL A   1      39.578  31.213  34.544  1.00  0.00     0.037 A 
BRANCH  54  68
ATOM     68  C   UNL A   1      44.437  27.440  34.047  1.00  0.00     0.064 A 
ATOM     69  C   UNL A   1      45.675  28.097  34.100  1.00  0.00     0.173 A 
ATOM     70  C   UNL A   1      44.333  26.182  34.659  1.00  0.00     0.173 A 
ATOM     71  F   UNL A   1      45.830  29.293  33.513  1.00  0.00    -0.203 F 
ATOM     72  C   UNL A   1      46.771  27.509  34.726  1.00  0.00     0.198 A 
ATOM     73  C   UNL A   1      45.423  25.609  35.307  1.00  0.00     0.198 A 
ATOM     74  F   UNL A   1      43.171  25.513  34.636  1.00  0.00    -0.203 F 
ATOM     75  F   UNL A   1      47.955  28.137  34.729  1.00  0.00    -0.200 F 
ATOM     76  C   UNL A   1      46.642  26.270  35.336  1.00  0.00     0.200 A 
ATOM     77  F   UNL A   1      45.295  24.416  35.904  1.00  0.00    -0.200 F 
ATOM     78  F   UNL A   1      47.695  25.709  35.945  1.00  0.00    -0.200 F 
ENDBRANCH  54  68
BRANCH  55  79
ATOM     79  C   UNL A   1      36.763  31.570  29.200  1.00  0.00     0.064 A 
ATOM     80  C   UNL A   1      36.748  32.937  28.889  1.00  0.00     0.173 A 
ATOM     81  C   UNL A   1      35.619  30.819  28.893  1.00  0.00     0.173 A 
ATOM     82  F   UNL A   1      37.804  33.706  29.195  1.00  0.00    -0.203 F 
ATOM     83  C   UNL A   1      35.622  33.535  28.324  1.00  0.00     0.198 A 
ATOM     84  C   UNL A   1      34.506  31.412  28.300  1.00  0.00     0.198 A 
ATOM     85  F   UNL A   1      35.578  29.510  29.180  1.00  0.00    -0.203 F 
ATOM     86  F   UNL A   1      35.611  34.856  28.098  1.00  0.00    -0.200 F 
ATOM     87  C   UNL A   1      34.505  32.772  28.027  1.00  0.00     0.200 A 
ATOM     88  F   UNL A   1      33.429  30.670  28.011  1.00  0.00    -0.200 F 
ATOM     89  F   UNL A   1      33.418  33.349  27.494  1.00  0.00    -0.200 F 
ENDBRANCH  55  79
BRANCH  67  90
ATOM     90  C   UNL A   1      39.117  31.997  35.739  1.00  0.00     0.064 A 
ATOM     91  C   UNL A   1      38.282  31.435  36.714  1.00  0.00     0.173 A 
ATOM     92  C   UNL A   1      39.555  33.317  35.930  1.00  0.00     0.173 A 
ATOM     93  F   UNL A   1      37.825  30.182  36.571  1.00  0.00    -0.203 F 
ATOM     94  C   UNL A   1      37.883  32.173  37.826  1.00  0.00     0.198 A 
ATOM     95  C   UNL A   1      39.178  34.042  37.055  1.00  0.00     0.198 A 
ATOM     96  F   UNL A   1      40.362  33.899  35.030  1.00  0.00    -0.203 F 
ATOM     97  F   UNL A   1      37.049  31.631  38.723  1.00  0.00    -0.200 F 
ATOM     98  C   UNL A   1      38.336  33.473  37.999  1.00  0.00     0.200 A 
ATOM     99  F   UNL A   1      39.628  35.293  37.229  1.00  0.00    -0.200 F 
ATOM    100  F   UNL A   1      37.957  34.179  39.074  1.00  0.00    -0.200 F 
ENDBRANCH  67  90
ENDBRANCH  41  42
ENDBRANCH  34  36
ENDBRANCH  33  34
ENDBRANCH  32  33
ENDBRANCH  31  32
ENDBRANCH  30  31
ENDBRANCH  29  30
ENDBRANCH   1  29
TORSDOF 23
ENDMDL
MODEL 2
REMARK VINA RESULT:     -10.9      1.268      2.092
REMARK SMILES COc1ccc(NC(=O)[C@H](CC(=O)OCCOCCOCCOC(=O)c2ccc(-c3c4nc(c(-c5c(F)c(F)c(F)c(F)c5F)c5ccc([nH]5)c(-c5c(F)c(F)c(F)c(F)c5F)c5nc(c(-c6c(F)c(F)c(F)c(F)c6F)c6ccc3[nH]6)C=C5)C=C4)cc2)Cc2ccccc2)cc1
REMARK SMILES IDX 18 1 17 2 16 3 15 4 14 5 12 6 13 7 11 8 10 9 8 10 7 11 9 13
REMARK SMILES IDX 6 14 3 15 4 16 97 17 5 18 96 19 2 20 1 21 89 22 90 23 91 24
REMARK SMILES IDX 95 25 92 26 94 27 93 28 19 29 20 30 21 31 22 32 23 33 24 34
REMARK SMILES IDX 25 35 26 36 27 37 88 38 28 39 87 40 29 41 30 42 31 43 81 44
REMARK SMILES IDX 32 45 86 46 80 47 82 48 33 49 85 50 79 51 78 52 34 54 66 55
REMARK SMILES IDX 46 56 65 57 47 58 50 59 64 60 83 61 48 62 49 63 63 65 84 66
REMARK SMILES IDX 51 67 35 68 36 69 44 70 37 71 38 72 42 73 45 74 39 75 40 76
REMARK SMILES IDX 43 77 41 78 67 79 68 80 76 81 69 82 70 83 74 84 77 85 71 86
REMARK SMILES IDX 72 87 75 88 73 89 52 90 53 91 61 92 54 93 55 94 59 95 62 96
REMARK SMILES IDX 56 97 57 98 60 99 58 100
REMARK H PARENT 7 12 82 53 50 64
REMARK Flexibility Score: inf
ROOT
ATOM      1  C   UNL A   1      40.071  21.372  26.442  1.00  0.00     0.188 C 
ENDROOT
BRANCH   1   2
ATOM      2  O   UNL A   1      38.680  21.678  26.441  1.00  0.00    -0.376 OA
BRANCH   2   3
ATOM      3  C   UNL A   1      38.063  22.002  25.200  1.00  0.00     0.202 C 
BRANCH   3   4
ATOM      4  C   UNL A   1      36.658  21.427  25.012  1.00  0.00     0.261 C 
BRANCH   4   5
ATOM      5  O   UNL A   1      35.659  22.468  24.905  1.00  0.00    -0.463 OA
BRANCH   5   6
ATOM      6  C   UNL A   1      34.377  22.106  25.116  1.00  0.00     0.306 C 
ATOM      7  O   UNL A   1      34.019  20.946  25.301  1.00  0.00    -0.252 OA
BRANCH   6   8
ATOM      8  C   UNL A   1      33.374  23.245  25.216  1.00  0.00     0.136 C 
BRANCH   8   9
ATOM      9  C   UNL A   1      31.853  23.118  25.453  1.00  0.00     0.094 C 
BRANCH   9  10
ATOM     10  C   UNL A   1      31.460  23.766  26.775  1.00  0.00     0.228 C 
ATOM     11  N   UNL A   1      31.399  25.109  26.984  1.00  0.00    -0.326 N 
ATOM     12  H   UNL A   1      30.982  25.327  27.848  1.00  0.00     0.169 HD
ATOM     13  O   UNL A   1      31.175  23.071  27.755  1.00  0.00    -0.274 OA
BRANCH  11  14
ATOM     14  C   UNL A   1      31.778  26.266  26.279  1.00  0.00     0.041 A 
ATOM     15  C   UNL A   1      32.847  28.282  24.636  1.00  0.00     0.119 A 
ATOM     16  C   UNL A   1      31.471  28.114  24.742  1.00  0.00     0.048 A 
ATOM     17  C   UNL A   1      33.693  27.531  25.441  1.00  0.00     0.048 A 
ATOM     18  C   UNL A   1      30.939  27.112  25.562  1.00  0.00     0.030 A 
ATOM     19  C   UNL A   1      33.158  26.530  26.259  1.00  0.00     0.030 A 
BRANCH  15  20
ATOM     20  O   UNL A   1      33.285  29.215  23.737  1.00  0.00    -0.497 OA
ATOM     21  C   UNL A   1      34.031  28.641  22.662  1.00  0.00     0.278 C 
ENDBRANCH  15  20
ENDBRANCH  11  14
ENDBRANCH   9  10
BRANCH   9  22
ATOM     22  C   UNL A   1      30.886  23.537  24.331  1.00  0.00     0.049 C 
BRANCH  22  23
ATOM     23  C   UNL A   1      31.634  23.917  23.076  1.00  0.00    -0.047 A 
ATOM     24  C   UNL A   1      31.693  25.246  22.647  1.00  0.00     0.004 A 
ATOM     25  C   UNL A   1      32.340  22.939  22.358  1.00  0.00     0.004 A 
ATOM     26  C   UNL A   1      32.474  25.602  21.549  1.00  0.00     0.000 A 
ATOM     27  C   UNL A   1      33.111  23.294  21.253  1.00  0.00     0.000 A 
ATOM     28  C   UNL A   1      33.188  24.626  20.856  1.00  0.00     0.000 A 
ENDBRANCH  22  23
ENDBRANCH   9  22
ENDBRANCH   8   9
ENDBRANCH   6   8
ENDBRANCH   5   6
ENDBRANCH   4   5
ENDBRANCH   3   4
ENDBRANCH   2   3
ENDBRANCH   1   2
BRANCH   1  29
ATOM     29  C   UNL A   1      40.501  19.939  26.132  1.00  0.00     0.188 C 
BRANCH  29  30
ATOM     30  O   UNL A   1      41.841  19.851  25.671  1.00  0.00    -0.376 OA
BRANCH  30  31
ATOM     31  C   UNL A   1      42.736  20.689  26.397  1.00  0.00     0.202 C 
BRANCH  31  32
ATOM     32  C   UNL A   1      43.524  21.519  25.383  1.00  0.00     0.261 C 
BRANCH  32  33
ATOM     33  O   UNL A   1      42.833  22.726  25.001  1.00  0.00    -0.460 OA
BRANCH  33  34
ATOM     34  C   UNL A   1      43.582  23.853  24.998  1.00  0.00     0.338 C 
ATOM     35  O   UNL A   1      44.553  24.093  24.306  1.00  0.00    -0.246 OA
BRANCH  34  36
ATOM     36  C   UNL A   1      42.925  24.848  25.871  1.00  0.00     0.060 A 
ATOM     37  C   UNL A   1      43.331  26.186  25.792  1.00  0.00     0.016 A 
ATOM     38  C   UNL A   1      41.942  24.461  26.783  1.00  0.00     0.016 A 
ATOM     39  C   UNL A   1      42.787  27.139  26.656  1.00  0.00     0.010 A 
ATOM     40  C   UNL A   1      41.408  25.411  27.657  1.00  0.00     0.010 A 
ATOM     41  C   UNL A   1      41.853  26.746  27.623  1.00  0.00    -0.014 A 
BRANCH  41  42
ATOM     42  C   UNL A   1      41.473  27.661  28.728  1.00  0.00     0.031 A 
ATOM     43  C   UNL A   1      42.269  27.604  30.004  1.00  0.00     0.074 A 
ATOM     44  C   UNL A   1      40.442  28.518  28.617  1.00  0.00     0.049 A 
ATOM     45  N   UNL A   1      42.046  28.186  31.154  1.00  0.00    -0.248 NA
ATOM     46  C   UNL A   1      43.483  26.773  29.974  1.00  0.00     0.031 C 
ATOM     47  C   UNL A   1      39.631  28.719  27.421  1.00  0.00     0.029 A 
ATOM     48  N   UNL A   1      39.894  29.369  29.546  1.00  0.00    -0.354 N 
ATOM     49  C   UNL A   1      43.084  27.784  31.985  1.00  0.00     0.074 A 
ATOM     50  C   UNL A   1      43.924  26.890  31.218  1.00  0.00     0.031 C 
ATOM     51  C   UNL A   1      38.672  29.625  27.693  1.00  0.00     0.029 A 
ATOM     52  C   UNL A   1      38.778  30.030  29.094  1.00  0.00     0.049 A 
ATOM     53  H   UNL A   1      40.266  29.495  30.449  1.00  0.00     0.167 HD
ATOM     54  C   UNL A   1      43.320  28.134  33.271  1.00  0.00     0.037 A 
ATOM     55  C   UNL A   1      37.923  30.838  29.751  1.00  0.00     0.037 A 
ATOM     56  C   UNL A   1      42.483  29.015  34.040  1.00  0.00     0.049 A 
ATOM     57  C   UNL A   1      38.150  31.130  31.214  1.00  0.00     0.074 A 
ATOM     58  C   UNL A   1      42.623  29.407  35.360  1.00  0.00     0.029 A 
ATOM     59  N   UNL A   1      41.348  29.644  33.555  1.00  0.00    -0.354 N 
ATOM     60  N   UNL A   1      39.123  30.735  32.000  1.00  0.00    -0.248 NA
ATOM     61  C   UNL A   1      37.152  31.980  31.884  1.00  0.00     0.031 C 
ATOM     62  C   UNL A   1      41.551  30.245  35.684  1.00  0.00     0.029 A 
ATOM     63  C   UNL A   1      40.771  30.412  34.552  1.00  0.00     0.049 A 
ATOM     64  H   UNL A   1      41.002  29.556  32.637  1.00  0.00     0.167 HD
ATOM     65  C   UNL A   1      38.874  31.315  33.239  1.00  0.00     0.074 A 
ATOM     66  C   UNL A   1      37.664  32.097  33.101  1.00  0.00     0.031 C 
ATOM     67  C   UNL A   1      39.582  31.208  34.390  1.00  0.00     0.037 A 
BRANCH  54  68
ATOM     68  C   UNL A   1      44.529  27.545  33.935  1.00  0.00     0.064 A 
ATOM     69  C   UNL A   1      45.763  28.212  33.933  1.00  0.00     0.173 A 
ATOM     70  C   UNL A   1      44.446  26.316  34.606  1.00  0.00     0.173 A 
ATOM     71  F   UNL A   1      45.897  29.380  33.287  1.00  0.00    -0.203 F 
ATOM     72  C   UNL A   1      46.874  27.661  34.564  1.00  0.00     0.198 A 
ATOM     73  C   UNL A   1      45.552  25.781  35.259  1.00  0.00     0.198 A 
ATOM     74  F   UNL A   1      43.288  25.639  34.637  1.00  0.00    -0.203 F 
ATOM     75  F   UNL A   1      48.054  28.296  34.515  1.00  0.00    -0.200 F 
ATOM     76  C   UNL A   1      46.766  26.451  35.234  1.00  0.00     0.200 A 
ATOM     77  F   UNL A   1      45.445  24.616  35.914  1.00  0.00    -0.200 F 
ATOM     78  F   UNL A   1      47.836  25.926  35.847  1.00  0.00    -0.200 F 
ENDBRANCH  54  68
BRANCH  55  79
ATOM     79  C   UNL A   1      36.741  31.413  29.052  1.00  0.00     0.064 A 
ATOM     80  C   UNL A   1      36.676  32.781  28.752  1.00  0.00     0.173 A 
ATOM     81  C   UNL A   1      35.629  30.621  28.730  1.00  0.00     0.173 A 
ATOM     82  F   UNL A   1      37.700  33.586  29.072  1.00  0.00    -0.203 F 
ATOM     83  C   UNL A   1      35.534  33.339  28.182  1.00  0.00     0.198 A 
ATOM     84  C   UNL A   1      34.499  31.176  28.132  1.00  0.00     0.198 A 
ATOM     85  F   UNL A   1      35.635  29.309  29.006  1.00  0.00    -0.203 F 
ATOM     86  F   UNL A   1      35.474  34.661  27.965  1.00  0.00    -0.200 F 
ATOM     87  C   UNL A   1      34.448  32.536  27.869  1.00  0.00     0.200 A 
ATOM     88  F   UNL A   1      33.453  30.396  27.828  1.00  0.00    -0.200 F 
ATOM     89  F   UNL A   1      33.345  33.076  27.332  1.00  0.00    -0.200 F 
ENDBRANCH  55  79
BRANCH  67  90
ATOM     90  C   UNL A   1      39.107  32.000  35.574  1.00  0.00     0.064 A 
ATOM     91  C   UNL A   1      38.309  31.427  36.574  1.00  0.00     0.173 A 
ATOM     92  C   UNL A   1      39.494  33.340  35.730  1.00  0.00     0.173 A 
ATOM     93  F   UNL A   1      37.901  30.153  36.465  1.00  0.00    -0.203 F 
ATOM     94  C   UNL A   1      37.896  32.173  37.675  1.00  0.00     0.198 A 
ATOM     95  C   UNL A   1      39.103  34.074  36.845  1.00  0.00     0.198 A 
ATOM     96  F   UNL A   1      40.263  33.933  34.805  1.00  0.00    -0.203 F 
ATOM     97  F   UNL A   1      37.097  31.618  38.597  1.00  0.00    -0.200 F 
ATOM     98  C   UNL A   1      38.298  33.493  37.813  1.00  0.00     0.200 A 
ATOM     99  F   UNL A   1      39.504  35.345  36.984  1.00  0.00    -0.200 F 
ATOM    100  F   UNL A   1      37.906  34.207  38.878  1.00  0.00    -0.200 F 
ENDBRANCH  67  90
ENDBRANCH  41  42
ENDBRANCH  34  36
ENDBRANCH  33  34
ENDBRANCH  32  33
ENDBRANCH  31  32
ENDBRANCH  30  31
ENDBRANCH  29  30
ENDBRANCH   1  29
TORSDOF 23
ENDMDL
MODEL 3
REMARK VINA RESULT:     -10.9      3.536      9.256
REMARK SMILES COc1ccc(NC(=O)[C@H](CC(=O)OCCOCCOCCOC(=O)c2ccc(-c3c4nc(c(-c5c(F)c(F)c(F)c(F)c5F)c5ccc([nH]5)c(-c5c(F)c(F)c(F)c(F)c5F)c5nc(c(-c6c(F)c(F)c(F)c(F)c6F)c6ccc3[nH]6)C=C5)C=C4)cc2)Cc2ccccc2)cc1
REMARK SMILES IDX 18 1 17 2 16 3 15 4 14 5 12 6 13 7 11 8 10 9 8 10 7 11 9 13
REMARK SMILES IDX 6 14 3 15 4 16 97 17 5 18 96 19 2 20 1 21 89 22 90 23 91 24
REMARK SMILES IDX 95 25 92 26 94 27 93 28 19 29 20 30 21 31 22 32 23 33 24 34
REMARK SMILES IDX 25 35 26 36 27 37 88 38 28 39 87 40 29 41 30 42 31 43 81 44
REMARK SMILES IDX 32 45 86 46 80 47 82 48 33 49 85 50 79 51 78 52 34 54 66 55
REMARK SMILES IDX 46 56 65 57 47 58 50 59 64 60 83 61 48 62 49 63 63 65 84 66
REMARK SMILES IDX 51 67 35 68 36 69 44 70 37 71 38 72 42 73 45 74 39 75 40 76
REMARK SMILES IDX 43 77 41 78 67 79 68 80 76 81 69 82 70 83 74 84 77 85 71 86
REMARK SMILES IDX 72 87 75 88 73 89 52 90 53 91 61 92 54 93 55 94 59 95 62 96
REMARK SMILES IDX 56 97 57 98 60 99 58 100
REMARK H PARENT 7 12 82 53 50 64
REMARK Flexibility Score: inf
ROOT
ATOM      1  C   UNL A   1      34.556  32.117  28.067  1.00  0.00     0.188 C 
ENDROOT
BRANCH   1   2
ATOM      2  O   UNL A   1      33.345  31.944  27.338  1.00  0.00    -0.376 OA
BRANCH   2   3
ATOM      3  C   UNL A   1      32.769  30.644  27.290  1.00  0.00     0.202 C 
BRANCH   3   4
ATOM      4  C   UNL A   1      32.146  30.266  25.945  1.00  0.00     0.261 C 
BRANCH   4   5
ATOM      5  O   UNL A   1      33.054  29.493  25.126  1.00  0.00    -0.463 OA
BRANCH   5   6
ATOM      6  C   UNL A   1      32.955  28.151  25.206  1.00  0.00     0.306 C 
ATOM      7  O   UNL A   1      32.279  27.568  26.049  1.00  0.00    -0.252 OA
BRANCH   6   8
ATOM      8  C   UNL A   1      33.658  27.367  24.108  1.00  0.00     0.136 C 
BRANCH   8   9
ATOM      9  C   UNL A   1      33.541  25.852  23.835  1.00  0.00     0.094 C 
BRANCH   9  10
ATOM     10  C   UNL A   1      32.437  25.573  22.823  1.00  0.00     0.228 C 
ATOM     11  N   UNL A   1      31.663  24.454  22.821  1.00  0.00    -0.326 N 
ATOM     12  H   UNL A   1      30.913  24.528  22.187  1.00  0.00     0.169 HD
ATOM     13  O   UNL A   1      32.193  26.380  21.921  1.00  0.00    -0.274 OA
BRANCH  11  14
ATOM     14  C   UNL A   1      31.659  23.218  23.493  1.00  0.00     0.041 A 
ATOM     15  C   UNL A   1      32.121  20.721  24.702  1.00  0.00     0.119 A 
ATOM     16  C   UNL A   1      31.529  21.754  25.420  1.00  0.00     0.048 A 
ATOM     17  C   UNL A   1      32.372  20.886  23.346  1.00  0.00     0.048 A 
ATOM     18  C   UNL A   1      31.296  22.996  24.817  1.00  0.00     0.030 A 
ATOM     19  C   UNL A   1      32.139  22.128  22.748  1.00  0.00     0.030 A 
BRANCH  15  20
ATOM     20  O   UNL A   1      32.405  19.577  25.393  1.00  0.00    -0.497 OA
ATOM     21  C   UNL A   1      33.329  18.730  24.707  1.00  0.00     0.278 C 
ENDBRANCH  15  20
ENDBRANCH  11  14
ENDBRANCH   9  10
BRANCH   9  22
ATOM     22  C   UNL A   1      34.812  25.055  23.491  1.00  0.00     0.049 C 
BRANCH  22  23
ATOM     23  C   UNL A   1      34.960  23.846  24.383  1.00  0.00    -0.047 A 
ATOM     24  C   UNL A   1      35.530  22.663  23.905  1.00  0.00     0.004 A 
ATOM     25  C   UNL A   1      34.581  23.922  25.733  1.00  0.00     0.004 A 
ATOM     26  C   UNL A   1      35.760  21.590  24.765  1.00  0.00     0.000 A 
ATOM     27  C   UNL A   1      34.800  22.844  26.589  1.00  0.00     0.000 A 
ATOM     28  C   UNL A   1      35.400  21.683  26.107  1.00  0.00     0.000 A 
ENDBRANCH  22  23
ENDBRANCH   9  22
ENDBRANCH   8   9
ENDBRANCH   6   8
ENDBRANCH   5   6
ENDBRANCH   4   5
ENDBRANCH   3   4
ENDBRANCH   2   3
ENDBRANCH   1   2
BRANCH   1  29
ATOM     29  C   UNL A   1      35.187  33.508  28.113  1.00  0.00     0.188 C 
BRANCH  29  30
ATOM     30  O   UNL A   1      34.524  34.386  29.012  1.00  0.00    -0.376 OA
BRANCH  30  31
ATOM     31  C   UNL A   1      33.972  35.530  28.366  1.00  0.00     0.202 C 
BRANCH  31  32
ATOM     32  C   UNL A   1      32.934  36.140  29.310  1.00  0.00     0.261 C 
BRANCH  32  33
ATOM     33  O   UNL A   1      32.534  35.231  30.355  1.00  0.00    -0.460 OA
BRANCH  33  34
ATOM     34  C   UNL A   1      32.650  35.703  31.617  1.00  0.00     0.338 C 
ATOM     35  O   UNL A   1      31.894  36.461  32.195  1.00  0.00    -0.246 OA
BRANCH  34  36
ATOM     36  C   UNL A   1      33.781  35.009  32.269  1.00  0.00     0.060 A 
ATOM     37  C   UNL A   1      35.048  35.606  32.234  1.00  0.00     0.016 A 
ATOM     38  C   UNL A   1      33.602  33.768  32.881  1.00  0.00     0.016 A 
ATOM     39  C   UNL A   1      36.153  34.942  32.773  1.00  0.00     0.010 A 
ATOM     40  C   UNL A   1      34.709  33.098  33.405  1.00  0.00     0.010 A 
ATOM     41  C   UNL A   1      35.994  33.663  33.323  1.00  0.00    -0.014 A 
BRANCH  41  42
ATOM     42  C   UNL A   1      37.176  32.822  33.640  1.00  0.00     0.031 A 
ATOM     43  C   UNL A   1      37.899  33.073  34.935  1.00  0.00     0.074 A 
ATOM     44  C   UNL A   1      37.611  31.865  32.802  1.00  0.00     0.049 A 
ATOM     45  N   UNL A   1      39.032  32.582  35.367  1.00  0.00    -0.248 NA
ATOM     46  C   UNL A   1      37.253  34.009  35.869  1.00  0.00     0.031 C 
ATOM     47  C   UNL A   1      36.969  31.478  31.549  1.00  0.00     0.029 A 
ATOM     48  N   UNL A   1      38.718  31.055  32.879  1.00  0.00    -0.354 N 
ATOM     49  C   UNL A   1      39.238  33.156  36.615  1.00  0.00     0.074 A 
ATOM     50  C   UNL A   1      38.128  34.050  36.862  1.00  0.00     0.031 C 
ATOM     51  C   UNL A   1      37.705  30.514  30.963  1.00  0.00     0.029 A 
ATOM     52  C   UNL A   1      38.890  30.253  31.778  1.00  0.00     0.049 A 
ATOM     53  H   UNL A   1      39.330  31.050  33.651  1.00  0.00     0.167 HD
ATOM     54  C   UNL A   1      40.258  32.951  37.482  1.00  0.00     0.037 A 
ATOM     55  C   UNL A   1      39.909  29.432  31.454  1.00  0.00     0.037 A 
ATOM     56  C   UNL A   1      41.368  32.070  37.236  1.00  0.00     0.049 A 
ATOM     57  C   UNL A   1      41.085  29.299  32.390  1.00  0.00     0.074 A 
ATOM     58  C   UNL A   1      42.465  31.817  38.040  1.00  0.00     0.029 A 
ATOM     59  N   UNL A   1      41.519  31.294  36.098  1.00  0.00    -0.354 N 
ATOM     60  N   UNL A   1      41.284  29.856  33.561  1.00  0.00    -0.248 NA
ATOM     61  C   UNL A   1      42.185  28.425  31.953  1.00  0.00     0.031 C 
ATOM     62  C   UNL A   1      43.299  30.914  37.372  1.00  0.00     0.029 A 
ATOM     63  C   UNL A   1      42.697  30.570  36.174  1.00  0.00     0.049 A 
ATOM     64  H   UNL A   1      40.883  31.263  35.346  1.00  0.00     0.167 HD
ATOM     65  C   UNL A   1      42.506  29.373  34.012  1.00  0.00     0.074 A 
ATOM     66  C   UNL A   1      43.002  28.470  32.996  1.00  0.00     0.031 C 
ATOM     67  C   UNL A   1      43.162  29.653  35.165  1.00  0.00     0.037 A 
BRANCH  54  68
ATOM     68  C   UNL A   1      40.228  33.711  38.773  1.00  0.00     0.064 A 
ATOM     69  C   UNL A   1      39.509  33.241  39.882  1.00  0.00     0.173 A 
ATOM     70  C   UNL A   1      40.950  34.906  38.915  1.00  0.00     0.173 A 
ATOM     71  F   UNL A   1      38.787  32.114  39.790  1.00  0.00    -0.203 F 
ATOM     72  C   UNL A   1      39.500  33.949  41.081  1.00  0.00     0.198 A 
ATOM     73  C   UNL A   1      40.960  35.597  40.123  1.00  0.00     0.198 A 
ATOM     74  F   UNL A   1      41.654  35.397  37.884  1.00  0.00    -0.203 F 
ATOM     75  F   UNL A   1      38.773  33.503  42.115  1.00  0.00    -0.200 F 
ATOM     76  C   UNL A   1      40.232  35.121  41.203  1.00  0.00     0.200 A 
ATOM     77  F   UNL A   1      41.675  36.724  40.243  1.00  0.00    -0.200 F 
ATOM     78  F   UNL A   1      40.228  35.797  42.360  1.00  0.00    -0.200 F 
ENDBRANCH  54  68
BRANCH  55  79
ATOM     79  C   UNL A   1      39.894  28.685  30.167  1.00  0.00     0.064 A 
ATOM     80  C   UNL A   1      39.323  27.408  30.081  1.00  0.00     0.173 A 
ATOM     81  C   UNL A   1      40.506  29.204  29.016  1.00  0.00     0.173 A 
ATOM     82  F   UNL A   1      38.756  26.853  31.163  1.00  0.00    -0.203 F 
ATOM     83  C   UNL A   1      39.390  26.667  28.902  1.00  0.00     0.198 A 
ATOM     84  C   UNL A   1      40.545  28.474  27.830  1.00  0.00     0.198 A 
ATOM     85  F   UNL A   1      41.078  30.416  29.048  1.00  0.00    -0.203 F 
ATOM     86  F   UNL A   1      38.893  25.422  28.867  1.00  0.00    -0.200 F 
ATOM     87  C   UNL A   1      39.997  27.202  27.777  1.00  0.00     0.200 A 
ATOM     88  F   UNL A   1      41.130  28.997  26.744  1.00  0.00    -0.200 F 
ATOM     89  F   UNL A   1      40.071  26.484  26.647  1.00  0.00    -0.200 F 
ENDBRANCH  55  79
BRANCH  67  90
ATOM     90  C   UNL A   1      44.456  28.934  35.421  1.00  0.00     0.064 A 
ATOM     91  C   UNL A   1      45.690  29.471  35.032  1.00  0.00     0.173 A 
ATOM     92  C   UNL A   1      44.458  27.708  36.107  1.00  0.00     0.173 A 
ATOM     93  F   UNL A   1      45.740  30.633  34.362  1.00  0.00    -0.203 F 
ATOM     94  C   UNL A   1      46.880  28.797  35.297  1.00  0.00     0.198 A 
ATOM     95  C   UNL A   1      45.650  27.052  36.395  1.00  0.00     0.198 A 
ATOM     96  F   UNL A   1      43.305  27.155  36.508  1.00  0.00    -0.203 F 
ATOM     97  F   UNL A   1      48.045  29.307  34.877  1.00  0.00    -0.200 F 
ATOM     98  C   UNL A   1      46.859  27.591  35.985  1.00  0.00     0.200 A 
ATOM     99  F   UNL A   1      45.630  25.895  37.072  1.00  0.00    -0.200 F 
ATOM    100  F   UNL A   1      48.006  26.948  36.246  1.00  0.00    -0.200 F 
ENDBRANCH  67  90
ENDBRANCH  41  42
ENDBRANCH  34  36
ENDBRANCH  33  34
ENDBRANCH  32  33
ENDBRANCH  31  32
ENDBRANCH  30  31
ENDBRANCH  29  30
ENDBRANCH   1  29
TORSDOF 23
ENDMDL
