MODEL 1
REMARK VINA RESULT:     -10.3      0.000      0.000
REMARK SMILES CCCC[C@H](C(=O)OCCOCCOCCOC(=O)c1ccc(-c2c3nc(c(-c4c(F)c(F)c(F)c(F)c4F)c4ccc([nH]4)c(-c4c(F)c(F)c(F)c(F)c4F)c4nc(c(-c5c(F)c(F)c(F)c(F)c5F)c5ccc2[nH]5)C=C4)C=C3)cc1)c1ccccn1
REMARK SMILES IDX 12 1 11 2 10 3 9 4 8 5 6 6 7 7 5 8 4 9 3 10 2 11 1 12 83 13
REMARK SMILES IDX 84 14 88 15 85 16 87 17 86 18 13 19 14 20 15 21 16 22 17 23
REMARK SMILES IDX 18 24 19 25 20 26 21 27 82 28 22 29 81 30 23 31 24 32 25 33
REMARK SMILES IDX 75 34 26 35 80 36 74 37 76 38 27 39 79 40 73 41 72 42 28 44
REMARK SMILES IDX 60 45 40 46 59 47 41 48 44 49 58 50 77 51 42 52 43 53 57 55
REMARK SMILES IDX 78 56 45 57 29 58 30 59 38 60 31 61 32 62 36 63 39 64 33 65
REMARK SMILES IDX 34 66 37 67 35 68 61 69 62 70 70 71 63 72 64 73 68 74 71 75
REMARK SMILES IDX 65 76 66 77 69 78 67 79 46 80 47 81 55 82 48 83 49 84 53 85
REMARK SMILES IDX 56 86 50 87 51 88 54 89 52 90
REMARK H PARENT 76 43 44 54
REMARK Flexibility Score: inf
ROOT
ATOM      1  C   UNL A   1      40.513  21.325  27.102  1.00  0.00     0.188 C 
ENDROOT
BRANCH   1   2
ATOM      2  O   UNL A   1      39.664  22.029  26.204  1.00  0.00    -0.376 OA
BRANCH   2   3
ATOM      3  C   UNL A   1      39.030  23.210  26.690  1.00  0.00     0.202 C 
BRANCH   3   4
ATOM      4  C   UNL A   1      37.832  23.745  25.888  1.00  0.00     0.261 C 
BRANCH   4   5
ATOM      5  O   UNL A   1      36.739  22.807  25.740  1.00  0.00    -0.463 OA
BRANCH   5   6
ATOM      6  C   UNL A   1      36.406  22.459  24.470  1.00  0.00     0.315 C 
ATOM      7  O   UNL A   1      37.187  21.875  23.718  1.00  0.00    -0.251 OA
BRANCH   6   8
ATOM      8  C   UNL A   1      34.948  22.711  24.040  1.00  0.00     0.148 C 
BRANCH   8   9
ATOM      9  C   UNL A   1      34.062  21.772  24.916  1.00  0.00     0.022 C 
BRANCH   9  10
ATOM     10  C   UNL A   1      34.364  20.260  24.941  1.00  0.00     0.001 C 
BRANCH  10  11
ATOM     11  C   UNL A   1      33.290  19.335  24.377  1.00  0.00    -0.003 C 
ATOM     12  C   UNL A   1      32.636  18.488  25.453  1.00  0.00     0.004 C 
ENDBRANCH  10  11
ENDBRANCH   9  10
ENDBRANCH   8   9
BRANCH   8  13
ATOM     13  C   UNL A   1      34.479  24.157  23.906  1.00  0.00     0.055 A 
ATOM     14  C   UNL A   1      34.324  25.012  25.004  1.00  0.00     0.025 A 
ATOM     15  N   UNL A   1      34.108  24.575  22.670  1.00  0.00    -0.260 NA
ATOM     16  C   UNL A   1      33.786  26.289  24.842  1.00  0.00     0.003 A 
ATOM     17  C   UNL A   1      33.640  25.843  22.529  1.00  0.00     0.111 A 
ATOM     18  C   UNL A   1      33.459  26.728  23.574  1.00  0.00     0.020 A 
ENDBRANCH   8  13
ENDBRANCH   6   8
ENDBRANCH   5   6
ENDBRANCH   4   5
ENDBRANCH   3   4
ENDBRANCH   2   3
ENDBRANCH   1   2
BRANCH   1  19
ATOM     19  C   UNL A   1      41.389  20.192  26.548  1.00  0.00     0.188 C 
BRANCH  19  20
ATOM     20  O   UNL A   1      42.263  20.601  25.517  1.00  0.00    -0.376 OA
BRANCH  20  21
ATOM     21  C   UNL A   1      43.399  21.342  25.923  1.00  0.00     0.202 C 
BRANCH  21  22
ATOM     22  C   UNL A   1      44.005  22.101  24.733  1.00  0.00     0.261 C 
BRANCH  22  23
ATOM     23  O   UNL A   1      43.479  23.431  24.522  1.00  0.00    -0.460 OA
BRANCH  23  24
ATOM     24  C   UNL A   1      44.239  24.457  24.984  1.00  0.00     0.338 C 
ATOM     25  O   UNL A   1      45.316  24.811  24.550  1.00  0.00    -0.246 OA
BRANCH  24  26
ATOM     26  C   UNL A   1      43.427  25.268  25.936  1.00  0.00     0.060 A 
ATOM     27  C   UNL A   1      43.779  26.614  26.102  1.00  0.00     0.016 A 
ATOM     28  C   UNL A   1      42.346  24.748  26.647  1.00  0.00     0.016 A 
ATOM     29  C   UNL A   1      43.102  27.430  27.011  1.00  0.00     0.010 A 
ATOM     30  C   UNL A   1      41.674  25.561  27.576  1.00  0.00     0.010 A 
ATOM     31  C   UNL A   1      42.074  26.894  27.796  1.00  0.00    -0.014 A 
BRANCH  31  32
ATOM     32  C   UNL A   1      41.573  27.672  28.965  1.00  0.00     0.031 A 
ATOM     33  C   UNL A   1      42.316  27.565  30.273  1.00  0.00     0.074 A 
ATOM     34  C   UNL A   1      40.527  28.513  28.867  1.00  0.00     0.049 A 
ATOM     35  N   UNL A   1      42.071  28.142  31.424  1.00  0.00    -0.248 NA
ATOM     36  C   UNL A   1      43.499  26.692  30.280  1.00  0.00     0.031 C 
ATOM     37  C   UNL A   1      39.747  28.760  27.658  1.00  0.00     0.029 A 
ATOM     38  N   UNL A   1      39.942  29.322  29.814  1.00  0.00    -0.354 N 
ATOM     39  C   UNL A   1      43.060  27.691  32.292  1.00  0.00     0.074 A 
ATOM     40  C   UNL A   1      43.888  26.769  31.544  1.00  0.00     0.031 C 
ATOM     41  C   UNL A   1      38.782  29.655  27.935  1.00  0.00     0.029 A 
ATOM     42  C   UNL A   1      38.853  30.020  29.350  1.00  0.00     0.049 A 
ATOM     43  H   UNL A   1      40.273  29.394  30.739  1.00  0.00     0.167 HD
ATOM     44  C   UNL A   1      43.270  28.021  33.589  1.00  0.00     0.037 A 
ATOM     45  C   UNL A   1      38.000  30.842  29.996  1.00  0.00     0.037 A 
ATOM     46  C   UNL A   1      42.453  28.939  34.340  1.00  0.00     0.049 A 
ATOM     47  C   UNL A   1      38.209  31.134  31.463  1.00  0.00     0.074 A 
ATOM     48  C   UNL A   1      42.598  29.345  35.656  1.00  0.00     0.029 A 
ATOM     49  N   UNL A   1      41.333  29.589  33.845  1.00  0.00    -0.354 N 
ATOM     50  N   UNL A   1      39.156  30.718  32.267  1.00  0.00    -0.248 NA
ATOM     51  C   UNL A   1      37.228  32.020  32.108  1.00  0.00     0.031 C 
ATOM     52  C   UNL A   1      41.529  30.188  35.976  1.00  0.00     0.029 A 
ATOM     53  C   UNL A   1      40.759  30.369  34.838  1.00  0.00     0.049 A 
ATOM     54  H   UNL A   1      40.994  29.510  32.924  1.00  0.00     0.167 HD
ATOM     55  C   UNL A   1      38.906  31.315  33.498  1.00  0.00     0.074 A 
ATOM     56  C   UNL A   1      37.728  32.140  33.328  1.00  0.00     0.031 C 
ATOM     57  C   UNL A   1      39.589  31.192  34.664  1.00  0.00     0.037 A 
BRANCH  44  58
ATOM     58  C   UNL A   1      44.417  27.353  34.296  1.00  0.00     0.064 A 
ATOM     59  C   UNL A   1      45.693  27.934  34.353  1.00  0.00     0.173 A 
ATOM     60  C   UNL A   1      44.225  26.129  34.955  1.00  0.00     0.173 A 
ATOM     61  F   UNL A   1      45.936  29.096  33.727  1.00  0.00    -0.203 F 
ATOM     62  C   UNL A   1      46.741  27.298  35.015  1.00  0.00     0.198 A 
ATOM     63  C   UNL A   1      45.266  25.513  35.646  1.00  0.00     0.198 A 
ATOM     64  F   UNL A   1      43.024  25.532  34.938  1.00  0.00    -0.203 F 
ATOM     65  F   UNL A   1      47.965  27.845  35.008  1.00  0.00    -0.200 F 
ATOM     66  C   UNL A   1      46.525  26.094  35.668  1.00  0.00     0.200 A 
ATOM     67  F   UNL A   1      45.050  24.359  36.289  1.00  0.00    -0.200 F 
ATOM     68  F   UNL A   1      47.532  25.488  36.311  1.00  0.00    -0.200 F 
ENDBRANCH  44  58
BRANCH  45  69
ATOM     69  C   UNL A   1      36.850  31.448  29.269  1.00  0.00     0.064 A 
ATOM     70  C   UNL A   1      36.818  32.816  28.968  1.00  0.00     0.173 A 
ATOM     71  C   UNL A   1      35.738  30.675  28.898  1.00  0.00     0.173 A 
ATOM     72  F   UNL A   1      37.840  33.606  29.329  1.00  0.00    -0.203 F 
ATOM     73  C   UNL A   1      35.712  33.393  28.346  1.00  0.00     0.198 A 
ATOM     74  C   UNL A   1      34.648  31.246  28.246  1.00  0.00     0.198 A 
ATOM     75  F   UNL A   1      35.711  29.363  29.170  1.00  0.00    -0.203 F 
ATOM     76  F   UNL A   1      35.684  34.715  28.125  1.00  0.00    -0.200 F 
ATOM     77  C   UNL A   1      34.631  32.607  27.979  1.00  0.00     0.200 A 
ATOM     78  F   UNL A   1      33.610  30.480  27.884  1.00  0.00    -0.200 F 
ATOM     79  F   UNL A   1      33.567  33.162  27.380  1.00  0.00    -0.200 F 
ENDBRANCH  45  69
BRANCH  57  80
ATOM     80  C   UNL A   1      39.111  32.003  35.839  1.00  0.00     0.064 A 
ATOM     81  C   UNL A   1      38.245  31.472  36.807  1.00  0.00     0.173 A 
ATOM     82  C   UNL A   1      39.537  33.331  36.004  1.00  0.00     0.173 A 
ATOM     83  F   UNL A   1      37.799  30.212  36.696  1.00  0.00    -0.203 F 
ATOM     84  C   UNL A   1      37.788  32.253  37.868  1.00  0.00     0.198 A 
ATOM     85  C   UNL A   1      39.109  34.096  37.086  1.00  0.00     0.198 A 
ATOM     86  F   UNL A   1      40.374  33.889  35.117  1.00  0.00    -0.203 F 
ATOM     87  F   UNL A   1      36.906  31.744  38.741  1.00  0.00    -0.200 F 
ATOM     88  C   UNL A   1      38.225  33.561  38.010  1.00  0.00     0.200 A 
ATOM     89  F   UNL A   1      39.548  35.354  37.232  1.00  0.00    -0.200 F 
ATOM     90  F   UNL A   1      37.783  34.310  39.030  1.00  0.00    -0.200 F 
ENDBRANCH  57  80
ENDBRANCH  31  32
ENDBRANCH  24  26
ENDBRANCH  23  24
ENDBRANCH  22  23
ENDBRANCH  21  22
ENDBRANCH  20  21
ENDBRANCH  19  20
ENDBRANCH   1  19
TORSDOF 21
ENDMDL
MODEL 2
REMARK VINA RESULT:      -9.9      4.467      7.235
REMARK SMILES CCCC[C@H](C(=O)OCCOCCOCCOC(=O)c1ccc(-c2c3nc(c(-c4c(F)c(F)c(F)c(F)c4F)c4ccc([nH]4)c(-c4c(F)c(F)c(F)c(F)c4F)c4nc(c(-c5c(F)c(F)c(F)c(F)c5F)c5ccc2[nH]5)C=C4)C=C3)cc1)c1ccccn1
REMARK SMILES IDX 12 1 11 2 10 3 9 4 8 5 6 6 7 7 5 8 4 9 3 10 2 11 1 12 83 13
REMARK SMILES IDX 84 14 88 15 85 16 87 17 86 18 13 19 14 20 15 21 16 22 17 23
REMARK SMILES IDX 18 24 19 25 20 26 21 27 82 28 22 29 81 30 23 31 24 32 25 33
REMARK SMILES IDX 75 34 26 35 80 36 74 37 76 38 27 39 79 40 73 41 72 42 28 44
REMARK SMILES IDX 60 45 40 46 59 47 41 48 44 49 58 50 77 51 42 52 43 53 57 55
REMARK SMILES IDX 78 56 45 57 29 58 30 59 38 60 31 61 32 62 36 63 39 64 33 65
REMARK SMILES IDX 34 66 37 67 35 68 61 69 62 70 70 71 63 72 64 73 68 74 71 75
REMARK SMILES IDX 65 76 66 77 69 78 67 79 46 80 47 81 55 82 48 83 49 84 53 85
REMARK SMILES IDX 56 86 50 87 51 88 54 89 52 90
REMARK H PARENT 76 43 44 54
REMARK Flexibility Score: inf
ROOT
ATOM      1  C   UNL A   1      33.011  21.704  24.563  1.00  0.00     0.188 C 
ENDROOT
BRANCH   1   2
ATOM      2  O   UNL A   1      32.801  21.771  23.158  1.00  0.00    -0.376 OA
BRANCH   2   3
ATOM      3  C   UNL A   1      33.081  23.011  22.510  1.00  0.00     0.202 C 
BRANCH   3   4
ATOM      4  C   UNL A   1      32.320  24.250  23.006  1.00  0.00     0.261 C 
BRANCH   4   5
ATOM      5  O   UNL A   1      33.161  25.377  23.350  1.00  0.00    -0.463 OA
BRANCH   5   6
ATOM      6  C   UNL A   1      33.143  26.432  22.495  1.00  0.00     0.315 C 
ATOM      7  O   UNL A   1      33.449  26.325  21.306  1.00  0.00    -0.251 OA
BRANCH   6   8
ATOM      8  C   UNL A   1      32.592  27.762  23.043  1.00  0.00     0.148 C 
BRANCH   8   9
ATOM      9  C   UNL A   1      31.169  27.938  22.426  1.00  0.00     0.022 C 
BRANCH   9  10
ATOM     10  C   UNL A   1      30.572  29.355  22.306  1.00  0.00     0.001 C 
BRANCH  10  11
ATOM     11  C   UNL A   1      29.417  29.697  23.241  1.00  0.00    -0.003 C 
ATOM     12  C   UNL A   1      28.123  29.017  22.832  1.00  0.00     0.004 C 
ENDBRANCH  10  11
ENDBRANCH   9  10
ENDBRANCH   8   9
BRANCH   8  13
ATOM     13  C   UNL A   1      32.719  28.029  24.540  1.00  0.00     0.055 A 
ATOM     14  C   UNL A   1      33.865  28.589  25.119  1.00  0.00     0.025 A 
ATOM     15  N   UNL A   1      31.703  27.605  25.332  1.00  0.00    -0.260 NA
ATOM     16  C   UNL A   1      33.976  28.710  26.504  1.00  0.00     0.003 A 
ATOM     17  C   UNL A   1      31.810  27.786  26.675  1.00  0.00     0.111 A 
ATOM     18  C   UNL A   1      32.917  28.325  27.303  1.00  0.00     0.020 A 
ENDBRANCH   8  13
ENDBRANCH   6   8
ENDBRANCH   5   6
ENDBRANCH   4   5
ENDBRANCH   3   4
ENDBRANCH   2   3
ENDBRANCH   1   2
BRANCH   1  19
ATOM     19  C   UNL A   1      33.509  20.384  25.168  1.00  0.00     0.188 C 
BRANCH  19  20
ATOM     20  O   UNL A   1      34.841  20.067  24.826  1.00  0.00    -0.376 OA
BRANCH  20  21
ATOM     21  C   UNL A   1      35.817  21.035  25.164  1.00  0.00     0.202 C 
BRANCH  21  22
ATOM     22  C   UNL A   1      37.231  20.451  25.029  1.00  0.00     0.261 C 
BRANCH  22  23
ATOM     23  O   UNL A   1      38.305  21.413  25.142  1.00  0.00    -0.460 OA
BRANCH  23  24
ATOM     24  C   UNL A   1      39.287  21.114  26.030  1.00  0.00     0.338 C 
ATOM     25  O   UNL A   1      39.870  20.054  26.133  1.00  0.00    -0.246 OA
BRANCH  24  26
ATOM     26  C   UNL A   1      39.742  22.372  26.688  1.00  0.00     0.060 A 
ATOM     27  C   UNL A   1      39.051  23.551  26.378  1.00  0.00     0.016 A 
ATOM     28  C   UNL A   1      40.804  22.415  27.591  1.00  0.00     0.016 A 
ATOM     29  C   UNL A   1      39.445  24.779  26.913  1.00  0.00     0.010 A 
ATOM     30  C   UNL A   1      41.215  23.653  28.116  1.00  0.00     0.010 A 
ATOM     31  C   UNL A   1      40.566  24.848  27.748  1.00  0.00    -0.014 A 
BRANCH  31  32
ATOM     32  C   UNL A   1      41.159  26.180  28.060  1.00  0.00     0.031 A 
ATOM     33  C   UNL A   1      42.560  26.474  27.584  1.00  0.00     0.074 A 
ATOM     34  C   UNL A   1      40.459  27.144  28.685  1.00  0.00     0.049 A 
ATOM     35  N   UNL A   1      43.286  27.555  27.735  1.00  0.00    -0.248 NA
ATOM     36  C   UNL A   1      43.231  25.402  26.834  1.00  0.00     0.031 C 
ATOM     37  C   UNL A   1      39.081  27.024  29.153  1.00  0.00     0.029 A 
ATOM     38  N   UNL A   1      40.821  28.425  29.034  1.00  0.00    -0.354 N 
ATOM     39  C   UNL A   1      44.499  27.287  27.111  1.00  0.00     0.074 A 
ATOM     40  C   UNL A   1      44.423  25.932  26.609  1.00  0.00     0.031 C 
ATOM     41  C   UNL A   1      38.714  28.181  29.731  1.00  0.00     0.029 A 
ATOM     42  C   UNL A   1      39.840  29.114  29.707  1.00  0.00     0.049 A 
ATOM     43  H   UNL A   1      41.701  28.813  28.820  1.00  0.00     0.167 HD
ATOM     44  C   UNL A   1      45.574  28.096  26.957  1.00  0.00     0.037 A 
ATOM     45  C   UNL A   1      39.857  30.345  30.257  1.00  0.00     0.037 A 
ATOM     46  C   UNL A   1      45.656  29.447  27.451  1.00  0.00     0.049 A 
ATOM     47  C   UNL A   1      41.096  31.200  30.140  1.00  0.00     0.074 A 
ATOM     48  C   UNL A   1      46.701  30.347  27.331  1.00  0.00     0.029 A 
ATOM     49  N   UNL A   1      44.659  30.090  28.167  1.00  0.00    -0.354 N 
ATOM     50  N   UNL A   1      42.229  30.945  29.533  1.00  0.00    -0.248 NA
ATOM     51  C   UNL A   1      41.051  32.523  30.784  1.00  0.00     0.031 C 
ATOM     52  C   UNL A   1      46.363  31.510  28.030  1.00  0.00     0.029 A 
ATOM     53  C   UNL A   1      45.076  31.364  28.522  1.00  0.00     0.049 A 
ATOM     54  H   UNL A   1      43.783  29.700  28.392  1.00  0.00     0.167 HD
ATOM     55  C   UNL A   1      43.015  32.081  29.691  1.00  0.00     0.074 A 
ATOM     56  C   UNL A   1      42.220  33.037  30.434  1.00  0.00     0.031 C 
ATOM     57  C   UNL A   1      44.280  32.314  29.259  1.00  0.00     0.037 A 
BRANCH  44  58
ATOM     58  C   UNL A   1      46.773  27.528  26.250  1.00  0.00     0.064 A 
ATOM     59  C   UNL A   1      46.942  27.646  24.862  1.00  0.00     0.173 A 
ATOM     60  C   UNL A   1      47.785  26.884  26.979  1.00  0.00     0.173 A 
ATOM     61  F   UNL A   1      45.998  28.240  24.114  1.00  0.00    -0.203 F 
ATOM     62  C   UNL A   1      48.061  27.113  24.227  1.00  0.00     0.198 A 
ATOM     63  C   UNL A   1      48.920  26.382  26.346  1.00  0.00     0.198 A 
ATOM     64  F   UNL A   1      47.678  26.747  28.309  1.00  0.00    -0.203 F 
ATOM     65  F   UNL A   1      48.173  27.189  22.894  1.00  0.00    -0.200 F 
ATOM     66  C   UNL A   1      49.053  26.490  24.970  1.00  0.00     0.200 A 
ATOM     67  F   UNL A   1      49.883  25.795  27.068  1.00  0.00    -0.200 F 
ATOM     68  F   UNL A   1      50.133  25.985  24.359  1.00  0.00    -0.200 F 
ENDBRANCH  44  58
BRANCH  45  69
ATOM     69  C   UNL A   1      38.663  30.854  30.989  1.00  0.00     0.064 A 
ATOM     70  C   UNL A   1      37.614  31.495  30.314  1.00  0.00     0.173 A 
ATOM     71  C   UNL A   1      38.568  30.746  32.385  1.00  0.00     0.173 A 
ATOM     72  F   UNL A   1      37.671  31.654  28.984  1.00  0.00    -0.203 F 
ATOM     73  C   UNL A   1      36.529  32.029  31.008  1.00  0.00     0.198 A 
ATOM     74  C   UNL A   1      37.466  31.249  33.074  1.00  0.00     0.198 A 
ATOM     75  F   UNL A   1      39.546  30.151  33.081  1.00  0.00    -0.203 F 
ATOM     76  F   UNL A   1      35.571  32.689  30.343  1.00  0.00    -0.200 F 
ATOM     77  C   UNL A   1      36.453  31.899  32.386  1.00  0.00     0.200 A 
ATOM     78  F   UNL A   1      37.391  31.112  34.404  1.00  0.00    -0.200 F 
ATOM     79  F   UNL A   1      35.408  32.411  33.053  1.00  0.00    -0.200 F 
ENDBRANCH  45  69
BRANCH  57  80
ATOM     80  C   UNL A   1      44.871  33.670  29.537  1.00  0.00     0.064 A 
ATOM     81  C   UNL A   1      44.706  34.749  28.655  1.00  0.00     0.173 A 
ATOM     82  C   UNL A   1      45.605  33.897  30.713  1.00  0.00     0.173 A 
ATOM     83  F   UNL A   1      44.023  34.588  27.512  1.00  0.00    -0.203 F 
ATOM     84  C   UNL A   1      45.291  35.987  28.916  1.00  0.00     0.198 A 
ATOM     85  C   UNL A   1      46.155  35.146  30.990  1.00  0.00     0.198 A 
ATOM     86  F   UNL A   1      45.786  32.908  31.600  1.00  0.00    -0.203 F 
ATOM     87  F   UNL A   1      45.178  36.981  28.024  1.00  0.00    -0.200 F 
ATOM     88  C   UNL A   1      46.009  36.186  30.085  1.00  0.00     0.200 A 
ATOM     89  F   UNL A   1      46.832  35.341  32.130  1.00  0.00    -0.200 F 
ATOM     90  F   UNL A   1      46.572  37.377  30.334  1.00  0.00    -0.200 F 
ENDBRANCH  57  80
ENDBRANCH  31  32
ENDBRANCH  24  26
ENDBRANCH  23  24
ENDBRANCH  22  23
ENDBRANCH  21  22
ENDBRANCH  20  21
ENDBRANCH  19  20
ENDBRANCH   1  19
TORSDOF 21
ENDMDL
MODEL 3
REMARK VINA RESULT:      -9.8      4.529      8.889
REMARK SMILES CCCC[C@H](C(=O)OCCOCCOCCOC(=O)c1ccc(-c2c3nc(c(-c4c(F)c(F)c(F)c(F)c4F)c4ccc([nH]4)c(-c4c(F)c(F)c(F)c(F)c4F)c4nc(c(-c5c(F)c(F)c(F)c(F)c5F)c5ccc2[nH]5)C=C4)C=C3)cc1)c1ccccn1
REMARK SMILES IDX 12 1 11 2 10 3 9 4 8 5 6 6 7 7 5 8 4 9 3 10 2 11 1 12 83 13
REMARK SMILES IDX 84 14 88 15 85 16 87 17 86 18 13 19 14 20 15 21 16 22 17 23
REMARK SMILES IDX 18 24 19 25 20 26 21 27 82 28 22 29 81 30 23 31 24 32 25 33
REMARK SMILES IDX 75 34 26 35 80 36 74 37 76 38 27 39 79 40 73 41 72 42 28 44
REMARK SMILES IDX 60 45 40 46 59 47 41 48 44 49 58 50 77 51 42 52 43 53 57 55
REMARK SMILES IDX 78 56 45 57 29 58 30 59 38 60 31 61 32 62 36 63 39 64 33 65
REMARK SMILES IDX 34 66 37 67 35 68 61 69 62 70 70 71 63 72 64 73 68 74 71 75
REMARK SMILES IDX 65 76 66 77 69 78 67 79 46 80 47 81 55 82 48 83 49 84 53 85
REMARK SMILES IDX 56 86 50 87 51 88 54 89 52 90
REMARK H PARENT 76 43 44 54
REMARK Flexibility Score: inf
ROOT
ATOM      1  C   UNL A   1      32.511  20.328  24.453  1.00  0.00     0.188 C 
ENDROOT
BRANCH   1   2
ATOM      2  O   UNL A   1      32.316  20.398  23.046  1.00  0.00    -0.376 OA
BRANCH   2   3
ATOM      3  C   UNL A   1      31.933  21.657  22.497  1.00  0.00     0.202 C 
BRANCH   3   4
ATOM      4  C   UNL A   1      32.941  22.812  22.617  1.00  0.00     0.261 C 
BRANCH   4   5
ATOM      5  O   UNL A   1      32.501  24.059  22.028  1.00  0.00    -0.463 OA
BRANCH   5   6
ATOM      6  C   UNL A   1      33.095  25.190  22.488  1.00  0.00     0.315 C 
ATOM      7  O   UNL A   1      33.981  25.773  21.862  1.00  0.00    -0.251 OA
BRANCH   6   8
ATOM      8  C   UNL A   1      32.521  25.801  23.780  1.00  0.00     0.148 C 
BRANCH   8   9
ATOM      9  C   UNL A   1      33.666  25.752  24.838  1.00  0.00     0.022 C 
BRANCH   9  10
ATOM     10  C   UNL A   1      33.702  24.591  25.854  1.00  0.00     0.001 C 
BRANCH  10  11
ATOM     11  C   UNL A   1      32.417  24.315  26.628  1.00  0.00    -0.003 C 
ATOM     12  C   UNL A   1      32.342  22.885  27.130  1.00  0.00     0.004 C 
ENDBRANCH  10  11
ENDBRANCH   9  10
ENDBRANCH   8   9
BRANCH   8  13
ATOM     13  C   UNL A   1      31.754  27.117  23.673  1.00  0.00     0.055 A 
ATOM     14  C   UNL A   1      31.801  28.109  24.660  1.00  0.00     0.025 A 
ATOM     15  N   UNL A   1      30.920  27.262  22.612  1.00  0.00    -0.260 NA
ATOM     16  C   UNL A   1      30.996  29.244  24.568  1.00  0.00     0.003 A 
ATOM     17  C   UNL A   1      30.188  28.402  22.516  1.00  0.00     0.111 A 
ATOM     18  C   UNL A   1      30.188  29.411  23.461  1.00  0.00     0.020 A 
ENDBRANCH   8  13
ENDBRANCH   6   8
ENDBRANCH   5   6
ENDBRANCH   4   5
ENDBRANCH   3   4
ENDBRANCH   2   3
ENDBRANCH   1   2
BRANCH   1  19
ATOM     19  C   UNL A   1      33.465  19.262  25.009  1.00  0.00     0.188 C 
BRANCH  19  20
ATOM     20  O   UNL A   1      34.817  19.468  24.658  1.00  0.00    -0.376 OA
BRANCH  20  21
ATOM     21  C   UNL A   1      35.367  20.723  25.013  1.00  0.00     0.202 C 
BRANCH  21  22
ATOM     22  C   UNL A   1      36.900  20.681  24.948  1.00  0.00     0.261 C 
BRANCH  22  23
ATOM     23  O   UNL A   1      37.576  21.678  25.750  1.00  0.00    -0.460 OA
BRANCH  23  24
ATOM     24  C   UNL A   1      38.865  21.411  26.078  1.00  0.00     0.338 C 
ATOM     25  O   UNL A   1      39.501  20.425  25.765  1.00  0.00    -0.246 OA
BRANCH  24  26
ATOM     26  C   UNL A   1      39.481  22.640  26.655  1.00  0.00     0.060 A 
ATOM     27  C   UNL A   1      38.960  23.876  26.251  1.00  0.00     0.016 A 
ATOM     28  C   UNL A   1      40.531  22.604  27.572  1.00  0.00     0.016 A 
ATOM     29  C   UNL A   1      39.512  25.075  26.705  1.00  0.00     0.010 A 
ATOM     30  C   UNL A   1      41.101  23.810  28.017  1.00  0.00     0.010 A 
ATOM     31  C   UNL A   1      40.624  25.052  27.555  1.00  0.00    -0.014 A 
BRANCH  31  32
ATOM     32  C   UNL A   1      41.390  26.310  27.783  1.00  0.00     0.031 A 
ATOM     33  C   UNL A   1      40.721  27.436  28.533  1.00  0.00     0.074 A 
ATOM     34  C   UNL A   1      42.675  26.443  27.404  1.00  0.00     0.049 A 
ATOM     35  N   UNL A   1      41.181  28.620  28.850  1.00  0.00    -0.248 NA
ATOM     36  C   UNL A   1      39.345  27.185  28.990  1.00  0.00     0.031 C 
ATOM     37  C   UNL A   1      43.466  25.425  26.720  1.00  0.00     0.029 A 
ATOM     38  N   UNL A   1      43.541  27.502  27.546  1.00  0.00    -0.354 N 
ATOM     39  C   UNL A   1      40.150  29.258  29.530  1.00  0.00     0.074 A 
ATOM     40  C   UNL A   1      39.030  28.342  29.551  1.00  0.00     0.031 C 
ATOM     41  C   UNL A   1      44.701  25.908  26.498  1.00  0.00     0.029 A 
ATOM     42  C   UNL A   1      44.780  27.283  26.992  1.00  0.00     0.049 A 
ATOM     43  H   UNL A   1      43.297  28.340  28.004  1.00  0.00     0.167 HD
ATOM     44  C   UNL A   1      40.137  30.488  30.097  1.00  0.00     0.037 A 
ATOM     45  C   UNL A   1      45.844  28.103  26.877  1.00  0.00     0.037 A 
ATOM     46  C   UNL A   1      41.248  31.405  30.084  1.00  0.00     0.049 A 
ATOM     47  C   UNL A   1      45.778  29.499  27.449  1.00  0.00     0.074 A 
ATOM     48  C   UNL A   1      41.330  32.669  30.644  1.00  0.00     0.029 A 
ATOM     49  N   UNL A   1      42.467  31.162  29.472  1.00  0.00    -0.354 N 
ATOM     50  N   UNL A   1      44.807  30.084  28.105  1.00  0.00    -0.248 NA
ATOM     51  C   UNL A   1      46.968  30.346  27.267  1.00  0.00     0.031 C 
ATOM     52  C   UNL A   1      42.575  33.215  30.315  1.00  0.00     0.029 A 
ATOM     53  C   UNL A   1      43.298  32.263  29.614  1.00  0.00     0.049 A 
ATOM     54  H   UNL A   1      42.709  30.330  29.004  1.00  0.00     0.167 HD
ATOM     55  C   UNL A   1      45.277  31.349  28.443  1.00  0.00     0.074 A 
ATOM     56  C   UNL A   1      46.631  31.438  27.936  1.00  0.00     0.031 C 
ATOM     57  C   UNL A   1      44.646  32.347  29.112  1.00  0.00     0.037 A 
BRANCH  44  58
ATOM     58  C   UNL A   1      38.860  30.934  30.756  1.00  0.00     0.064 A 
ATOM     59  C   UNL A   1      37.801  31.489  30.023  1.00  0.00     0.173 A 
ATOM     60  C   UNL A   1      38.684  30.771  32.139  1.00  0.00     0.173 A 
ATOM     61  F   UNL A   1      37.921  31.681  28.700  1.00  0.00    -0.203 F 
ATOM     62  C   UNL A   1      36.627  31.893  30.654  1.00  0.00     0.198 A 
ATOM     63  C   UNL A   1      37.496  31.145  32.761  1.00  0.00     0.198 A 
ATOM     64  F   UNL A   1      39.663  30.241  32.888  1.00  0.00    -0.203 F 
ATOM     65  F   UNL A   1      35.650  32.472  29.941  1.00  0.00    -0.200 F 
ATOM     66  C   UNL A   1      36.471  31.713  32.020  1.00  0.00     0.200 A 
ATOM     67  F   UNL A   1      37.343  30.954  34.078  1.00  0.00    -0.200 F 
ATOM     68  F   UNL A   1      35.338  32.095  32.624  1.00  0.00    -0.200 F 
ENDBRANCH  44  58
BRANCH  45  69
ATOM     69  C   UNL A   1      47.075  27.639  26.177  1.00  0.00     0.064 A 
ATOM     70  C   UNL A   1      47.175  27.676  24.780  1.00  0.00     0.173 A 
ATOM     71  C   UNL A   1      48.160  27.108  26.893  1.00  0.00     0.173 A 
ATOM     72  F   UNL A   1      46.154  28.144  24.047  1.00  0.00    -0.203 F 
ATOM     73  C   UNL A   1      48.301  27.181  24.123  1.00  0.00     0.198 A 
ATOM     74  C   UNL A   1      49.299  26.645  26.238  1.00  0.00     0.198 A 
ATOM     75  F   UNL A   1      48.113  27.039  28.230  1.00  0.00    -0.203 F 
ATOM     76  F   UNL A   1      48.344  27.175  22.784  1.00  0.00    -0.200 F 
ATOM     77  C   UNL A   1      49.364  26.673  24.853  1.00  0.00     0.200 A 
ATOM     78  F   UNL A   1      50.328  26.164  26.947  1.00  0.00    -0.200 F 
ATOM     79  F   UNL A   1      50.447  26.198  24.221  1.00  0.00    -0.200 F 
ENDBRANCH  45  69
BRANCH  57  80
ATOM     80  C   UNL A   1      45.427  33.606  29.379  1.00  0.00     0.064 A 
ATOM     81  C   UNL A   1      46.211  33.766  30.532  1.00  0.00     0.173 A 
ATOM     82  C   UNL A   1      45.398  34.667  28.459  1.00  0.00     0.173 A 
ATOM     83  F   UNL A   1      46.269  32.789  31.450  1.00  0.00    -0.203 F 
ATOM     84  C   UNL A   1      46.898  34.954  30.774  1.00  0.00     0.198 A 
ATOM     85  C   UNL A   1      46.117  35.838  28.686  1.00  0.00     0.198 A 
ATOM     86  F   UNL A   1      44.676  34.568  27.333  1.00  0.00    -0.203 F 
ATOM     87  F   UNL A   1      47.584  35.108  31.917  1.00  0.00    -0.200 F 
ATOM     88  C   UNL A   1      46.855  35.986  29.850  1.00  0.00     0.200 A 
ATOM     89  F   UNL A   1      46.090  36.826  27.781  1.00  0.00    -0.200 F 
ATOM     90  F   UNL A   1      47.516  37.128  30.086  1.00  0.00    -0.200 F 
ENDBRANCH  57  80
ENDBRANCH  31  32
ENDBRANCH  24  26
ENDBRANCH  23  24
ENDBRANCH  22  23
ENDBRANCH  21  22
ENDBRANCH  20  21
ENDBRANCH  19  20
ENDBRANCH   1  19
TORSDOF 21
ENDMDL
