MODEL 1
REMARK VINA RESULT:     -12.5      0.000      0.000
REMARK SMILES CS(=O)(=O)c1ccc(C2=NN(c3ccc(C(=O)OCCOCCOCCOC(=O)c4ccc(-c5c6nc(c(-c7c(F)c(F)c(F)c(F)c7F)c7ccc([nH]7)c(-c7c(F)c(F)c(F)c(F)c7F)c7nc(c(-c8c(F)c(F)c(F)c(F)c8F)c8ccc5[nH]8)C=C7)C=C6)cc4)cc3)[C@H](c3ccccc3)C2)cc1
REMARK SMILES IDX 22 1 21 2 20 3 19 4 18 5 16 6 17 7 15 8 12 9 13 10 94 11
REMARK SMILES IDX 14 12 93 13 11 14 9 15 10 16 102 17 95 18 8 19 5 20 6 21
REMARK SMILES IDX 104 22 7 23 103 24 2 25 1 26 3 27 4 28 96 29 97 30 101 31
REMARK SMILES IDX 98 32 100 33 99 34 23 35 24 36 25 37 26 38 27 39 28 40 29 41
REMARK SMILES IDX 30 42 31 43 92 44 32 45 91 46 33 47 34 48 35 49 85 50 36 51
REMARK SMILES IDX 90 52 84 53 86 54 37 55 89 56 83 57 82 58 38 60 70 61 50 62
REMARK SMILES IDX 69 63 51 64 54 65 68 66 87 67 52 68 53 69 67 71 88 72 55 73
REMARK SMILES IDX 39 74 40 75 48 76 41 77 42 78 46 79 49 80 43 81 44 82 47 83
REMARK SMILES IDX 45 84 71 85 72 86 80 87 73 88 74 89 78 90 81 91 75 92 76 93
REMARK SMILES IDX 79 94 77 95 56 96 57 97 65 98 58 99 59 100 63 101 66 102
REMARK SMILES IDX 60 103 61 104 64 105 62 106
REMARK H PARENT 86 59 54 70
REMARK Flexibility Score: inf
ROOT
ATOM      1  C   UNL A   1      42.585  19.088  26.143  1.00  0.00     0.188 C 
ENDROOT
BRANCH   1   2
ATOM      2  O   UNL A   1      41.363  19.629  25.674  1.00  0.00    -0.376 OA
BRANCH   2   3
ATOM      3  C   UNL A   1      40.596  20.488  26.502  1.00  0.00     0.202 C 
BRANCH   3   4
ATOM      4  C   UNL A   1      39.661  21.557  25.915  1.00  0.00     0.261 C 
BRANCH   4   5
ATOM      5  O   UNL A   1      39.196  22.536  26.853  1.00  0.00    -0.460 OA
BRANCH   5   6
ATOM      6  C   UNL A   1      38.688  23.671  26.312  1.00  0.00     0.338 C 
ATOM      7  O   UNL A   1      39.294  24.710  26.098  1.00  0.00    -0.246 OA
BRANCH   6   8
ATOM      8  C   UNL A   1      37.293  23.452  25.857  1.00  0.00     0.060 A 
ATOM      9  C   UNL A   1      34.664  23.268  24.888  1.00  0.00     0.060 A 
ATOM     10  C   UNL A   1      35.740  23.322  23.996  1.00  0.00     0.029 A 
ATOM     11  C   UNL A   1      34.932  23.164  26.261  1.00  0.00     0.029 A 
ATOM     12  C   UNL A   1      37.049  23.421  24.477  1.00  0.00     0.018 A 
ATOM     13  C   UNL A   1      36.237  23.277  26.752  1.00  0.00     0.018 A 
BRANCH   9  14
ATOM     14  N   UNL A   1      33.353  23.523  24.468  1.00  0.00    -0.257 N 
ATOM     15  C   UNL A   1      31.669  24.824  24.344  1.00  0.00     0.071 C 
ATOM     16  N   UNL A   1      32.955  24.787  24.163  1.00  0.00    -0.176 NA
ATOM     17  C   UNL A   1      31.053  23.593  24.948  1.00  0.00     0.091 C 
ATOM     18  C   UNL A   1      32.276  22.670  25.010  1.00  0.00     0.144 C 
BRANCH  15  19
ATOM     19  C   UNL A   1      30.834  25.979  23.961  1.00  0.00    -0.002 A 
ATOM     20  C   UNL A   1      29.327  28.184  23.161  1.00  0.00     0.067 A 
ATOM     21  C   UNL A   1      30.723  28.266  23.162  1.00  0.00     0.021 A 
ATOM     22  C   UNL A   1      28.680  27.013  23.569  1.00  0.00     0.021 A 
ATOM     23  C   UNL A   1      31.474  27.160  23.566  1.00  0.00     0.011 A 
ATOM     24  C   UNL A   1      29.436  25.902  23.960  1.00  0.00     0.011 A 
BRANCH  20  25
ATOM     25  S   UNL A   1      28.375  29.616  22.698  1.00  0.00     0.175 S 
ATOM     26  C   UNL A   1      29.096  30.946  23.623  1.00  0.00     0.163 C 
ATOM     27  O   UNL A   1      27.028  29.399  23.186  1.00  0.00    -0.224 OA
ATOM     28  O   UNL A   1      28.630  29.876  21.293  1.00  0.00    -0.224 OA
ENDBRANCH  20  25
ENDBRANCH  15  19
BRANCH  18  29
ATOM     29  C   UNL A   1      32.217  21.337  24.271  1.00  0.00    -0.023 A 
ATOM     30  C   UNL A   1      32.070  21.217  22.884  1.00  0.00     0.006 A 
ATOM     31  C   UNL A   1      32.408  20.152  25.013  1.00  0.00     0.006 A 
ATOM     32  C   UNL A   1      32.132  19.962  22.264  1.00  0.00     0.000 A 
ATOM     33  C   UNL A   1      32.524  18.909  24.390  1.00  0.00     0.000 A 
ATOM     34  C   UNL A   1      32.381  18.815  23.012  1.00  0.00     0.000 A 
ENDBRANCH  18  29
ENDBRANCH   9  14
ENDBRANCH   6   8
ENDBRANCH   5   6
ENDBRANCH   4   5
ENDBRANCH   3   4
ENDBRANCH   2   3
ENDBRANCH   1   2
BRANCH   1  35
ATOM     35  C   UNL A   1      43.789  18.922  25.193  1.00  0.00     0.188 C 
BRANCH  35  36
ATOM     36  O   UNL A   1      44.118  20.009  24.364  1.00  0.00    -0.376 OA
BRANCH  36  37
ATOM     37  C   UNL A   1      44.481  21.259  24.925  1.00  0.00     0.202 C 
BRANCH  37  38
ATOM     38  C   UNL A   1      44.360  22.637  24.243  1.00  0.00     0.261 C 
BRANCH  38  39
ATOM     39  O   UNL A   1      43.638  23.671  24.914  1.00  0.00    -0.460 OA
BRANCH  39  40
ATOM     40  C   UNL A   1      44.337  24.800  25.179  1.00  0.00     0.338 C 
ATOM     41  O   UNL A   1      45.326  25.221  24.593  1.00  0.00    -0.246 OA
BRANCH  40  42
ATOM     42  C   UNL A   1      43.622  25.564  26.213  1.00  0.00     0.060 A 
ATOM     43  C   UNL A   1      43.942  26.915  26.409  1.00  0.00     0.016 A 
ATOM     44  C   UNL A   1      42.660  24.938  27.005  1.00  0.00     0.016 A 
ATOM     45  C   UNL A   1      43.306  27.643  27.416  1.00  0.00     0.010 A 
ATOM     46  C   UNL A   1      42.042  25.662  28.027  1.00  0.00     0.010 A 
ATOM     47  C   UNL A   1      42.380  27.009  28.254  1.00  0.00    -0.014 A 
BRANCH  47  48
ATOM     48  C   UNL A   1      41.892  27.685  29.479  1.00  0.00     0.031 A 
ATOM     49  C   UNL A   1      40.623  28.486  29.395  1.00  0.00     0.074 A 
ATOM     50  C   UNL A   1      42.569  27.609  30.637  1.00  0.00     0.049 A 
ATOM     51  N   UNL A   1      40.064  29.259  30.289  1.00  0.00    -0.248 NA
ATOM     52  C   UNL A   1      39.891  28.409  28.120  1.00  0.00     0.031 C 
ATOM     53  C   UNL A   1      43.784  26.830  30.858  1.00  0.00     0.029 A 
ATOM     54  N   UNL A   1      42.334  28.220  31.845  1.00  0.00    -0.354 N 
ATOM     55  C   UNL A   1      38.924  29.771  29.682  1.00  0.00     0.074 A 
ATOM     56  C   UNL A   1      38.885  29.243  28.336  1.00  0.00     0.031 C 
ATOM     57  C   UNL A   1      44.203  27.028  32.120  1.00  0.00     0.029 A 
ATOM     58  C   UNL A   1      43.309  27.978  32.781  1.00  0.00     0.049 A 
ATOM     59  H   UNL A   1      41.542  28.777  32.023  1.00  0.00     0.167 HD
ATOM     60  C   UNL A   1      37.993  30.603  30.204  1.00  0.00     0.037 A 
ATOM     61  C   UNL A   1      43.475  28.493  34.015  1.00  0.00     0.037 A 
ATOM     62  C   UNL A   1      38.038  31.127  31.544  1.00  0.00     0.049 A 
ATOM     63  C   UNL A   1      42.467  29.483  34.547  1.00  0.00     0.074 A 
ATOM     64  C   UNL A   1      37.132  31.961  32.174  1.00  0.00     0.029 A 
ATOM     65  N   UNL A   1      39.051  30.874  32.457  1.00  0.00    -0.354 N 
ATOM     66  N   UNL A   1      41.379  29.946  33.980  1.00  0.00    -0.248 NA
ATOM     67  C   UNL A   1      42.710  30.021  35.894  1.00  0.00     0.031 C 
ATOM     68  C   UNL A   1      37.627  32.263  33.445  1.00  0.00     0.029 A 
ATOM     69  C   UNL A   1      38.807  31.561  33.635  1.00  0.00     0.049 A 
ATOM     70  H   UNL A   1      39.828  30.292  32.292  1.00  0.00     0.167 HD
ATOM     71  C   UNL A   1      40.792  30.797  34.910  1.00  0.00     0.074 A 
ATOM     72  C   UNL A   1      41.640  30.781  36.082  1.00  0.00     0.031 C 
ATOM     73  C   UNL A   1      39.652  31.522  34.802  1.00  0.00     0.037 A 
BRANCH  60  74
ATOM     74  C   UNL A   1      36.865  31.029  29.311  1.00  0.00     0.064 A 
ATOM     75  C   UNL A   1      35.819  30.157  28.972  1.00  0.00     0.173 A 
ATOM     76  C   UNL A   1      36.812  32.340  28.814  1.00  0.00     0.173 A 
ATOM     77  F   UNL A   1      35.828  28.888  29.409  1.00  0.00    -0.203 F 
ATOM     78  C   UNL A   1      34.778  30.574  28.146  1.00  0.00     0.198 A 
ATOM     79  C   UNL A   1      35.752  32.763  28.016  1.00  0.00     0.198 A 
ATOM     80  F   UNL A   1      37.784  33.216  29.111  1.00  0.00    -0.203 F 
ATOM     81  F   UNL A   1      33.817  29.710  27.793  1.00  0.00    -0.200 F 
ATOM     82  C   UNL A   1      34.741  31.879  27.676  1.00  0.00     0.200 A 
ATOM     83  F   UNL A   1      35.712  34.028  27.576  1.00  0.00    -0.200 F 
ATOM     84  F   UNL A   1      33.734  32.281  26.889  1.00  0.00    -0.200 F 
ENDBRANCH  60  74
BRANCH  61  85
ATOM     85  C   UNL A   1      44.653  28.102  34.834  1.00  0.00     0.064 A 
ATOM     86  C   UNL A   1      45.862  28.805  34.745  1.00  0.00     0.173 A 
ATOM     87  C   UNL A   1      44.602  27.000  35.703  1.00  0.00     0.173 A 
ATOM     88  F   UNL A   1      45.971  29.848  33.909  1.00  0.00    -0.203 F 
ATOM     89  C   UNL A   1      46.981  28.409  35.476  1.00  0.00     0.198 A 
ATOM     90  C   UNL A   1      45.713  26.626  36.456  1.00  0.00     0.198 A 
ATOM     91  F   UNL A   1      43.472  26.289  35.821  1.00  0.00    -0.203 F 
ATOM     92  F   UNL A   1      48.140  29.066  35.331  1.00  0.00    -0.200 F 
ATOM     93  C   UNL A   1      46.904  27.324  36.336  1.00  0.00     0.200 A 
ATOM     94  F   UNL A   1      45.630  25.581  37.293  1.00  0.00    -0.200 F 
ATOM     95  F   UNL A   1      47.980  26.945  37.038  1.00  0.00    -0.200 F 
ENDBRANCH  61  85
BRANCH  73  96
ATOM     96  C   UNL A   1      39.215  32.321  35.999  1.00  0.00     0.064 A 
ATOM     97  C   UNL A   1      38.368  31.786  36.980  1.00  0.00     0.173 A 
ATOM     98  C   UNL A   1      39.707  33.621  36.197  1.00  0.00     0.173 A 
ATOM     99  F   UNL A   1      37.861  30.552  36.834  1.00  0.00    -0.203 F 
ATOM    100  C   UNL A   1      38.012  32.530  38.102  1.00  0.00     0.198 A 
ATOM    101  C   UNL A   1      39.376  34.350  37.335  1.00  0.00     0.198 A 
ATOM    102  F   UNL A   1      40.528  34.178  35.294  1.00  0.00    -0.203 F 
ATOM    103  F   UNL A   1      37.166  32.015  39.005  1.00  0.00    -0.200 F 
ATOM    104  C   UNL A   1      38.523  33.806  38.284  1.00  0.00     0.200 A 
ATOM    105  F   UNL A   1      39.886  35.576  37.516  1.00  0.00    -0.200 F 
ATOM    106  F   UNL A   1      38.191  34.515  39.371  1.00  0.00    -0.200 F 
ENDBRANCH  73  96
ENDBRANCH  47  48
ENDBRANCH  40  42
ENDBRANCH  39  40
ENDBRANCH  38  39
ENDBRANCH  37  38
ENDBRANCH  36  37
ENDBRANCH  35  36
ENDBRANCH   1  35
TORSDOF 21
ENDMDL
MODEL 2
REMARK VINA RESULT:     -12.2      6.088     13.327
REMARK SMILES CS(=O)(=O)c1ccc(C2=NN(c3ccc(C(=O)OCCOCCOCCOC(=O)c4ccc(-c5c6nc(c(-c7c(F)c(F)c(F)c(F)c7F)c7ccc([nH]7)c(-c7c(F)c(F)c(F)c(F)c7F)c7nc(c(-c8c(F)c(F)c(F)c(F)c8F)c8ccc5[nH]8)C=C7)C=C6)cc4)cc3)[C@H](c3ccccc3)C2)cc1
REMARK SMILES IDX 22 1 21 2 20 3 19 4 18 5 16 6 17 7 15 8 12 9 13 10 94 11
REMARK SMILES IDX 14 12 93 13 11 14 9 15 10 16 102 17 95 18 8 19 5 20 6 21
REMARK SMILES IDX 104 22 7 23 103 24 2 25 1 26 3 27 4 28 96 29 97 30 101 31
REMARK SMILES IDX 98 32 100 33 99 34 23 35 24 36 25 37 26 38 27 39 28 40 29 41
REMARK SMILES IDX 30 42 31 43 92 44 32 45 91 46 33 47 34 48 35 49 85 50 36 51
REMARK SMILES IDX 90 52 84 53 86 54 37 55 89 56 83 57 82 58 38 60 70 61 50 62
REMARK SMILES IDX 69 63 51 64 54 65 68 66 87 67 52 68 53 69 67 71 88 72 55 73
REMARK SMILES IDX 39 74 40 75 48 76 41 77 42 78 46 79 49 80 43 81 44 82 47 83
REMARK SMILES IDX 45 84 71 85 72 86 80 87 73 88 74 89 78 90 81 91 75 92 76 93
REMARK SMILES IDX 79 94 77 95 56 96 57 97 65 98 58 99 59 100 63 101 66 102
REMARK SMILES IDX 60 103 61 104 64 105 62 106
REMARK H PARENT 86 59 54 70
REMARK Flexibility Score: inf
ROOT
ATOM      1  C   UNL A   1      32.614  36.208  30.567  1.00  0.00     0.188 C 
ENDROOT
BRANCH   1   2
ATOM      2  O   UNL A   1      32.932  37.406  31.253  1.00  0.00    -0.376 OA
BRANCH   2   3
ATOM      3  C   UNL A   1      33.830  37.384  32.351  1.00  0.00     0.202 C 
BRANCH   3   4
ATOM      4  C   UNL A   1      33.816  36.250  33.387  1.00  0.00     0.261 C 
BRANCH   4   5
ATOM      5  O   UNL A   1      34.902  35.321  33.283  1.00  0.00    -0.460 OA
BRANCH   5   6
ATOM      6  C   UNL A   1      34.555  34.010  33.295  1.00  0.00     0.338 C 
ATOM      7  O   UNL A   1      33.487  33.537  32.941  1.00  0.00    -0.246 OA
BRANCH   6   8
ATOM      8  C   UNL A   1      35.718  33.167  33.666  1.00  0.00     0.060 A 
ATOM      9  C   UNL A   1      38.058  31.783  34.369  1.00  0.00     0.060 A 
ATOM     10  C   UNL A   1      37.496  32.708  35.254  1.00  0.00     0.029 A 
ATOM     11  C   UNL A   1      37.357  31.459  33.197  1.00  0.00     0.029 A 
ATOM     12  C   UNL A   1      36.335  33.403  34.903  1.00  0.00     0.018 A 
ATOM     13  C   UNL A   1      36.204  32.160  32.831  1.00  0.00     0.018 A 
BRANCH   9  14
ATOM     14  N   UNL A   1      39.377  31.337  34.518  1.00  0.00    -0.257 N 
ATOM     15  C   UNL A   1      40.767  29.782  34.957  1.00  0.00     0.071 C 
ATOM     16  N   UNL A   1      39.707  30.045  34.254  1.00  0.00    -0.176 NA
ATOM     17  C   UNL A   1      41.203  30.855  35.917  1.00  0.00     0.091 C 
ATOM     18  C   UNL A   1      40.203  31.964  35.569  1.00  0.00     0.144 C 
BRANCH  15  19
ATOM     19  C   UNL A   1      41.534  28.528  34.823  1.00  0.00    -0.002 A 
ATOM     20  C   UNL A   1      43.066  26.217  34.532  1.00  0.00     0.067 A 
ATOM     21  C   UNL A   1      43.176  27.241  33.586  1.00  0.00     0.021 A 
ATOM     22  C   UNL A   1      42.187  26.335  35.614  1.00  0.00     0.021 A 
ATOM     23  C   UNL A   1      42.404  28.396  33.733  1.00  0.00     0.011 A 
ATOM     24  C   UNL A   1      41.426  27.500  35.766  1.00  0.00     0.011 A 
BRANCH  20  25
ATOM     25  S   UNL A   1      44.011  24.725  34.308  1.00  0.00     0.175 S 
ATOM     26  C   UNL A   1      42.938  23.432  34.878  1.00  0.00     0.163 C 
ATOM     27  O   UNL A   1      45.144  24.807  35.208  1.00  0.00    -0.224 OA
ATOM     28  O   UNL A   1      44.199  24.535  32.881  1.00  0.00    -0.224 OA
ENDBRANCH  20  25
ENDBRANCH  15  19
BRANCH  18  29
ATOM     29  C   UNL A   1      40.747  33.309  35.100  1.00  0.00    -0.023 A 
ATOM     30  C   UNL A   1      40.736  33.737  33.767  1.00  0.00     0.006 A 
ATOM     31  C   UNL A   1      41.213  34.219  36.074  1.00  0.00     0.006 A 
ATOM     32  C   UNL A   1      41.155  35.030  33.426  1.00  0.00     0.000 A 
ATOM     33  C   UNL A   1      41.578  35.523  35.742  1.00  0.00     0.000 A 
ATOM     34  C   UNL A   1      41.553  35.928  34.413  1.00  0.00     0.000 A 
ENDBRANCH  18  29
ENDBRANCH   9  14
ENDBRANCH   6   8
ENDBRANCH   5   6
ENDBRANCH   4   5
ENDBRANCH   3   4
ENDBRANCH   2   3
ENDBRANCH   1   2
BRANCH   1  35
ATOM     35  C   UNL A   1      33.022  36.014  29.091  1.00  0.00     0.188 C 
BRANCH  35  36
ATOM     36  O   UNL A   1      34.354  35.652  28.827  1.00  0.00    -0.376 OA
BRANCH  36  37
ATOM     37  C   UNL A   1      34.672  34.341  28.394  1.00  0.00     0.202 C 
BRANCH  37  38
ATOM     38  C   UNL A   1      34.326  33.028  29.124  1.00  0.00     0.261 C 
BRANCH  38  39
ATOM     39  O   UNL A   1      35.371  32.085  29.369  1.00  0.00    -0.460 OA
BRANCH  39  40
ATOM     40  C   UNL A   1      35.297  30.930  28.667  1.00  0.00     0.338 C 
ATOM     41  O   UNL A   1      34.399  30.566  27.920  1.00  0.00    -0.246 OA
BRANCH  40  42
ATOM     42  C   UNL A   1      36.573  30.209  28.811  1.00  0.00     0.060 A 
ATOM     43  C   UNL A   1      36.858  29.560  30.020  1.00  0.00     0.016 A 
ATOM     44  C   UNL A   1      37.494  30.204  27.764  1.00  0.00     0.016 A 
ATOM     45  C   UNL A   1      38.082  28.910  30.189  1.00  0.00     0.010 A 
ATOM     46  C   UNL A   1      38.727  29.574  27.945  1.00  0.00     0.010 A 
ATOM     47  C   UNL A   1      39.036  28.947  29.165  1.00  0.00    -0.014 A 
BRANCH  47  48
ATOM     48  C   UNL A   1      40.425  28.493  29.419  1.00  0.00     0.031 A 
ATOM     49  C   UNL A   1      41.356  29.418  30.151  1.00  0.00     0.074 A 
ATOM     50  C   UNL A   1      40.859  27.295  28.990  1.00  0.00     0.049 A 
ATOM     51  N   UNL A   1      42.637  29.300  30.384  1.00  0.00    -0.248 NA
ATOM     52  C   UNL A   1      40.756  30.652  30.686  1.00  0.00     0.031 C 
ATOM     53  C   UNL A   1      40.043  26.293  28.310  1.00  0.00     0.029 A 
ATOM     54  N   UNL A   1      42.110  26.731  29.050  1.00  0.00    -0.354 N 
ATOM     55  C   UNL A   1      43.000  30.446  31.078  1.00  0.00     0.074 A 
ATOM     56  C   UNL A   1      41.811  31.261  31.205  1.00  0.00     0.031 C 
ATOM     57  C   UNL A   1      40.821  25.243  27.993  1.00  0.00     0.029 A 
ATOM     58  C   UNL A   1      42.195  25.519  28.412  1.00  0.00     0.049 A 
ATOM     59  H   UNL A   1      42.872  27.155  29.506  1.00  0.00     0.167 HD
ATOM     60  C   UNL A   1      44.215  30.786  31.568  1.00  0.00     0.037 A 
ATOM     61  C   UNL A   1      43.267  24.739  28.167  1.00  0.00     0.037 A 
ATOM     62  C   UNL A   1      45.395  29.972  31.437  1.00  0.00     0.049 A 
ATOM     63  C   UNL A   1      44.628  25.178  28.652  1.00  0.00     0.074 A 
ATOM     64  C   UNL A   1      46.670  30.218  31.916  1.00  0.00     0.029 A 
ATOM     65  N   UNL A   1      45.446  28.758  30.768  1.00  0.00    -0.354 N 
ATOM     66  N   UNL A   1      44.963  26.250  29.328  1.00  0.00    -0.248 NA
ATOM     67  C   UNL A   1      45.761  24.293  28.340  1.00  0.00     0.031 C 
ATOM     68  C   UNL A   1      47.505  29.185  31.485  1.00  0.00     0.029 A 
ATOM     69  C   UNL A   1      46.738  28.258  30.797  1.00  0.00     0.049 A 
ATOM     70  H   UNL A   1      44.679  28.317  30.338  1.00  0.00     0.167 HD
ATOM     71  C   UNL A   1      46.331  26.152  29.553  1.00  0.00     0.074 A 
ATOM     72  C   UNL A   1      46.765  24.910  28.948  1.00  0.00     0.031 C 
ATOM     73  C   UNL A   1      47.152  27.011  30.205  1.00  0.00     0.037 A 
BRANCH  60  74
ATOM     74  C   UNL A   1      44.339  32.112  32.260  1.00  0.00     0.064 A 
ATOM     75  C   UNL A   1      44.316  32.222  33.659  1.00  0.00     0.173 A 
ATOM     76  C   UNL A   1      44.515  33.286  31.513  1.00  0.00     0.173 A 
ATOM     77  F   UNL A   1      44.135  31.132  34.420  1.00  0.00    -0.203 F 
ATOM     78  C   UNL A   1      44.438  33.463  34.281  1.00  0.00     0.198 A 
ATOM     79  C   UNL A   1      44.670  34.520  32.140  1.00  0.00     0.198 A 
ATOM     80  F   UNL A   1      44.548  33.237  30.173  1.00  0.00    -0.203 F 
ATOM     81  F   UNL A   1      44.363  33.551  35.616  1.00  0.00    -0.200 F 
ATOM     82  C   UNL A   1      44.623  34.608  33.522  1.00  0.00     0.200 A 
ATOM     83  F   UNL A   1      44.864  35.623  31.404  1.00  0.00    -0.200 F 
ATOM     84  F   UNL A   1      44.750  35.799  34.123  1.00  0.00    -0.200 F 
ENDBRANCH  60  74
BRANCH  61  85
ATOM     85  C   UNL A   1      43.109  23.471  27.407  1.00  0.00     0.064 A 
ATOM     86  C   UNL A   1      43.486  23.382  26.060  1.00  0.00     0.173 A 
ATOM     87  C   UNL A   1      42.553  22.329  28.004  1.00  0.00     0.173 A 
ATOM     88  F   UNL A   1      43.996  24.454  25.435  1.00  0.00    -0.203 F 
ATOM     89  C   UNL A   1      43.293  22.208  25.334  1.00  0.00     0.198 A 
ATOM     90  C   UNL A   1      42.390  21.147  27.285  1.00  0.00     0.198 A 
ATOM     91  F   UNL A   1      42.169  22.361  29.288  1.00  0.00    -0.203 F 
ATOM     92  F   UNL A   1      43.612  22.168  24.032  1.00  0.00    -0.200 F 
ATOM     93  C   UNL A   1      42.751  21.090  25.948  1.00  0.00     0.200 A 
ATOM     94  F   UNL A   1      41.874  20.065  27.886  1.00  0.00    -0.200 F 
ATOM     95  F   UNL A   1      42.567  19.962  25.249  1.00  0.00    -0.200 F 
ENDBRANCH  61  85
BRANCH  73  96
ATOM     96  C   UNL A   1      48.597  26.621  30.353  1.00  0.00     0.064 A 
ATOM     97  C   UNL A   1      49.581  27.066  29.459  1.00  0.00     0.173 A 
ATOM     98  C   UNL A   1      49.009  25.839  31.444  1.00  0.00     0.173 A 
ATOM     99  F   UNL A   1      49.241  27.806  28.392  1.00  0.00    -0.203 F 
ATOM    100  C   UNL A   1      50.920  26.726  29.641  1.00  0.00     0.198 A 
ATOM    101  C   UNL A   1      50.351  25.529  31.641  1.00  0.00     0.198 A 
ATOM    102  F   UNL A   1      48.109  25.394  32.335  1.00  0.00    -0.203 F 
ATOM    103  F   UNL A   1      51.838  27.126  28.751  1.00  0.00    -0.200 F 
ATOM    104  C   UNL A   1      51.305  25.967  30.736  1.00  0.00     0.200 A 
ATOM    105  F   UNL A   1      50.721  24.811  32.710  1.00  0.00    -0.200 F 
ATOM    106  F   UNL A   1      52.595  25.654  30.917  1.00  0.00    -0.200 F 
ENDBRANCH  73  96
ENDBRANCH  47  48
ENDBRANCH  40  42
ENDBRANCH  39  40
ENDBRANCH  38  39
ENDBRANCH  37  38
ENDBRANCH  36  37
ENDBRANCH  35  36
ENDBRANCH   1  35
TORSDOF 21
ENDMDL
MODEL 3
REMARK VINA RESULT:     -11.7      6.034     13.016
REMARK SMILES CS(=O)(=O)c1ccc(C2=NN(c3ccc(C(=O)OCCOCCOCCOC(=O)c4ccc(-c5c6nc(c(-c7c(F)c(F)c(F)c(F)c7F)c7ccc([nH]7)c(-c7c(F)c(F)c(F)c(F)c7F)c7nc(c(-c8c(F)c(F)c(F)c(F)c8F)c8ccc5[nH]8)C=C7)C=C6)cc4)cc3)[C@H](c3ccccc3)C2)cc1
REMARK SMILES IDX 22 1 21 2 20 3 19 4 18 5 16 6 17 7 15 8 12 9 13 10 94 11
REMARK SMILES IDX 14 12 93 13 11 14 9 15 10 16 102 17 95 18 8 19 5 20 6 21
REMARK SMILES IDX 104 22 7 23 103 24 2 25 1 26 3 27 4 28 96 29 97 30 101 31
REMARK SMILES IDX 98 32 100 33 99 34 23 35 24 36 25 37 26 38 27 39 28 40 29 41
REMARK SMILES IDX 30 42 31 43 92 44 32 45 91 46 33 47 34 48 35 49 85 50 36 51
REMARK SMILES IDX 90 52 84 53 86 54 37 55 89 56 83 57 82 58 38 60 70 61 50 62
REMARK SMILES IDX 69 63 51 64 54 65 68 66 87 67 52 68 53 69 67 71 88 72 55 73
REMARK SMILES IDX 39 74 40 75 48 76 41 77 42 78 46 79 49 80 43 81 44 82 47 83
REMARK SMILES IDX 45 84 71 85 72 86 80 87 73 88 74 89 78 90 81 91 75 92 76 93
REMARK SMILES IDX 79 94 77 95 56 96 57 97 65 98 58 99 59 100 63 101 66 102
REMARK SMILES IDX 60 103 61 104 64 105 62 106
REMARK H PARENT 86 59 54 70
REMARK Flexibility Score: inf
ROOT
ATOM      1  C   UNL A   1      33.004  35.768  30.641  1.00  0.00     0.188 C 
ENDROOT
BRANCH   1   2
ATOM      2  O   UNL A   1      33.036  37.014  31.316  1.00  0.00    -0.376 OA
BRANCH   2   3
ATOM      3  C   UNL A   1      33.873  37.192  32.448  1.00  0.00     0.202 C 
BRANCH   3   4
ATOM      4  C   UNL A   1      33.997  36.120  33.540  1.00  0.00     0.261 C 
BRANCH   4   5
ATOM      5  O   UNL A   1      35.076  35.194  33.362  1.00  0.00    -0.460 OA
BRANCH   5   6
ATOM      6  C   UNL A   1      34.736  33.882  33.394  1.00  0.00     0.338 C 
ATOM      7  O   UNL A   1      33.652  33.404  33.098  1.00  0.00    -0.246 OA
BRANCH   6   8
ATOM      8  C   UNL A   1      35.920  33.044  33.704  1.00  0.00     0.060 A 
ATOM      9  C   UNL A   1      38.291  31.672  34.320  1.00  0.00     0.060 A 
ATOM     10  C   UNL A   1      37.669  32.469  35.286  1.00  0.00     0.029 A 
ATOM     11  C   UNL A   1      37.635  31.460  33.098  1.00  0.00     0.029 A 
ATOM     12  C   UNL A   1      36.493  33.159  34.979  1.00  0.00     0.018 A 
ATOM     13  C   UNL A   1      36.467  32.156  32.776  1.00  0.00     0.018 A 
BRANCH   9  14
ATOM     14  N   UNL A   1      39.622  31.259  34.459  1.00  0.00    -0.257 N 
ATOM     15  C   UNL A   1      41.053  29.735  34.873  1.00  0.00     0.071 C 
ATOM     16  N   UNL A   1      39.985  29.980  34.176  1.00  0.00    -0.176 NA
ATOM     17  C   UNL A   1      41.463  30.804  35.847  1.00  0.00     0.091 C 
ATOM     18  C   UNL A   1      40.434  31.892  35.518  1.00  0.00     0.144 C 
BRANCH  15  19
ATOM     19  C   UNL A   1      41.853  28.504  34.718  1.00  0.00    -0.002 A 
ATOM     20  C   UNL A   1      43.284  26.124  34.469  1.00  0.00     0.067 A 
ATOM     21  C   UNL A   1      42.493  26.338  35.602  1.00  0.00     0.021 A 
ATOM     22  C   UNL A   1      43.374  27.095  33.466  1.00  0.00     0.021 A 
ATOM     23  C   UNL A   1      41.780  27.533  35.725  1.00  0.00     0.011 A 
ATOM     24  C   UNL A   1      42.647  28.286  33.586  1.00  0.00     0.011 A 
BRANCH  20  25
ATOM     25  S   UNL A   1      44.233  24.623  34.345  1.00  0.00     0.175 S 
ATOM     26  C   UNL A   1      43.024  23.327  34.417  1.00  0.00     0.163 C 
ATOM     27  O   UNL A   1      45.054  24.546  35.537  1.00  0.00    -0.224 OA
ATOM     28  O   UNL A   1      44.828  24.588  33.022  1.00  0.00    -0.224 OA
ENDBRANCH  20  25
ENDBRANCH  15  19
BRANCH  18  29
ATOM     29  C   UNL A   1      40.941  33.258  35.069  1.00  0.00    -0.023 A 
ATOM     30  C   UNL A   1      40.974  33.680  33.734  1.00  0.00     0.006 A 
ATOM     31  C   UNL A   1      41.320  34.190  36.058  1.00  0.00     0.006 A 
ATOM     32  C   UNL A   1      41.352  34.989  33.407  1.00  0.00     0.000 A 
ATOM     33  C   UNL A   1      41.645  35.507  35.737  1.00  0.00     0.000 A 
ATOM     34  C   UNL A   1      41.664  35.906  34.407  1.00  0.00     0.000 A 
ENDBRANCH  18  29
ENDBRANCH   9  14
ENDBRANCH   6   8
ENDBRANCH   5   6
ENDBRANCH   4   5
ENDBRANCH   3   4
ENDBRANCH   2   3
ENDBRANCH   1   2
BRANCH   1  35
ATOM     35  C   UNL A   1      33.188  35.698  29.111  1.00  0.00     0.188 C 
BRANCH  35  36
ATOM     36  O   UNL A   1      34.465  35.370  28.623  1.00  0.00    -0.376 OA
BRANCH  36  37
ATOM     37  C   UNL A   1      34.758  34.051  28.199  1.00  0.00     0.202 C 
BRANCH  37  38
ATOM     38  C   UNL A   1      34.118  32.754  28.736  1.00  0.00     0.261 C 
BRANCH  38  39
ATOM     39  O   UNL A   1      34.970  31.746  29.283  1.00  0.00    -0.460 OA
BRANCH  39  40
ATOM     40  C   UNL A   1      35.049  30.595  28.576  1.00  0.00     0.338 C 
ATOM     41  O   UNL A   1      34.201  30.114  27.835  1.00  0.00    -0.246 OA
BRANCH  40  42
ATOM     42  C   UNL A   1      36.413  30.057  28.703  1.00  0.00     0.060 A 
ATOM     43  C   UNL A   1      36.828  29.532  29.934  1.00  0.00     0.016 A 
ATOM     44  C   UNL A   1      37.286  30.102  27.616  1.00  0.00     0.016 A 
ATOM     45  C   UNL A   1      38.133  29.059  30.085  1.00  0.00     0.010 A 
ATOM     46  C   UNL A   1      38.597  29.650  27.777  1.00  0.00     0.010 A 
ATOM     47  C   UNL A   1      39.034  29.151  29.017  1.00  0.00    -0.014 A 
BRANCH  47  48
ATOM     48  C   UNL A   1      40.479  28.898  29.232  1.00  0.00     0.031 A 
ATOM     49  C   UNL A   1      41.056  27.599  28.747  1.00  0.00     0.074 A 
ATOM     50  C   UNL A   1      41.259  29.793  29.862  1.00  0.00     0.049 A 
ATOM     51  N   UNL A   1      42.252  27.099  28.923  1.00  0.00    -0.248 NA
ATOM     52  C   UNL A   1      40.153  26.740  27.963  1.00  0.00     0.031 C 
ATOM     53  C   UNL A   1      40.830  31.104  30.338  1.00  0.00     0.029 A 
ATOM     54  N   UNL A   1      42.581  29.716  30.227  1.00  0.00    -0.354 N 
ATOM     55  C   UNL A   1      42.242  25.866  28.285  1.00  0.00     0.074 A 
ATOM     56  C   UNL A   1      40.914  25.679  27.741  1.00  0.00     0.031 C 
ATOM     57  C   UNL A   1      41.864  31.702  30.956  1.00  0.00     0.029 A 
ATOM     58  C   UNL A   1      43.014  30.798  30.952  1.00  0.00     0.049 A 
ATOM     59  H   UNL A   1      43.163  28.957  29.992  1.00  0.00     0.167 HD
ATOM     60  C   UNL A   1      43.251  24.973  28.161  1.00  0.00     0.037 A 
ATOM     61  C   UNL A   1      44.192  31.016  31.570  1.00  0.00     0.037 A 
ATOM     62  C   UNL A   1      44.570  25.163  28.705  1.00  0.00     0.049 A 
ATOM     63  C   UNL A   1      45.276  29.969  31.487  1.00  0.00     0.074 A 
ATOM     64  C   UNL A   1      45.668  24.326  28.616  1.00  0.00     0.029 A 
ATOM     65  N   UNL A   1      44.964  26.265  29.449  1.00  0.00    -0.354 N 
ATOM     66  N   UNL A   1      45.271  28.815  30.864  1.00  0.00    -0.248 NA
ATOM     67  C   UNL A   1      46.533  30.257  32.194  1.00  0.00     0.031 C 
ATOM     68  C   UNL A   1      46.708  24.891  29.358  1.00  0.00     0.029 A 
ATOM     69  C   UNL A   1      46.282  26.114  29.851  1.00  0.00     0.049 A 
ATOM     70  H   UNL A   1      44.394  27.039  29.659  1.00  0.00     0.167 HD
ATOM     71  C   UNL A   1      46.528  28.259  31.072  1.00  0.00     0.074 A 
ATOM     72  C   UNL A   1      47.274  29.205  31.873  1.00  0.00     0.031 C 
ATOM     73  C   UNL A   1      47.019  27.073  30.635  1.00  0.00     0.037 A 
BRANCH  60  74
ATOM     74  C   UNL A   1      42.958  23.690  27.439  1.00  0.00     0.064 A 
ATOM     75  C   UNL A   1      42.284  22.627  28.062  1.00  0.00     0.173 A 
ATOM     76  C   UNL A   1      43.327  23.533  26.095  1.00  0.00     0.173 A 
ATOM     77  F   UNL A   1      41.921  22.719  29.350  1.00  0.00    -0.203 F 
ATOM     78  C   UNL A   1      42.017  21.447  27.372  1.00  0.00     0.198 A 
ATOM     79  C   UNL A   1      43.029  22.365  25.399  1.00  0.00     0.198 A 
ATOM     80  F   UNL A   1      43.970  24.519  25.451  1.00  0.00    -0.203 F 
ATOM     81  F   UNL A   1      41.418  20.426  28.001  1.00  0.00    -0.200 F 
ATOM     82  C   UNL A   1      42.381  21.320  26.040  1.00  0.00     0.200 A 
ATOM     83  F   UNL A   1      43.369  22.251  24.108  1.00  0.00    -0.200 F 
ATOM     84  F   UNL A   1      42.116  20.187  25.376  1.00  0.00    -0.200 F 
ENDBRANCH  60  74
BRANCH  61  85
ATOM     85  C   UNL A   1      44.410  32.268  32.341  1.00  0.00     0.064 A 
ATOM     86  C   UNL A   1      44.690  33.478  31.692  1.00  0.00     0.173 A 
ATOM     87  C   UNL A   1      44.368  32.276  33.744  1.00  0.00     0.173 A 
ATOM     88  F   UNL A   1      44.769  33.518  30.354  1.00  0.00    -0.203 F 
ATOM     89  C   UNL A   1      44.943  34.642  32.416  1.00  0.00     0.198 A 
ATOM     90  C   UNL A   1      44.590  33.448  34.465  1.00  0.00     0.198 A 
ATOM     91  F   UNL A   1      44.111  31.145  34.415  1.00  0.00    -0.203 F 
ATOM     92  F   UNL A   1      45.263  35.773  31.771  1.00  0.00    -0.200 F 
ATOM     93  C   UNL A   1      44.886  34.628  33.801  1.00  0.00     0.200 A 
ATOM     94  F   UNL A   1      44.525  33.430  35.804  1.00  0.00    -0.200 F 
ATOM     95  F   UNL A   1      45.128  35.747  34.496  1.00  0.00    -0.200 F 
ENDBRANCH  61  85
BRANCH  73  96
ATOM     96  C   UNL A   1      48.450  26.747  30.962  1.00  0.00     0.064 A 
ATOM     97  C   UNL A   1      49.507  27.111  30.116  1.00  0.00     0.173 A 
ATOM     98  C   UNL A   1      48.770  26.114  32.174  1.00  0.00     0.173 A 
ATOM     99  F   UNL A   1      49.257  27.706  28.939  1.00  0.00    -0.203 F 
ATOM    100  C   UNL A   1      50.828  26.834  30.460  1.00  0.00     0.198 A 
ATOM    101  C   UNL A   1      50.092  25.870  32.531  1.00  0.00     0.198 A 
ATOM    102  F   UNL A   1      47.798  25.752  33.025  1.00  0.00    -0.203 F 
ATOM    103  F   UNL A   1      51.819  27.152  29.617  1.00  0.00    -0.200 F 
ATOM    104  C   UNL A   1      51.120  26.224  31.671  1.00  0.00     0.200 A 
ATOM    105  F   UNL A   1      50.372  25.296  33.709  1.00  0.00    -0.200 F 
ATOM    106  F   UNL A   1      52.393  25.973  32.007  1.00  0.00    -0.200 F 
ENDBRANCH  73  96
ENDBRANCH  47  48
ENDBRANCH  40  42
ENDBRANCH  39  40
ENDBRANCH  38  39
ENDBRANCH  37  38
ENDBRANCH  36  37
ENDBRANCH  35  36
ENDBRANCH   1  35
TORSDOF 21
ENDMDL
