MODEL 1
REMARK VINA RESULT:     -11.6      0.000      0.000
REMARK SMILES C/C(=C(\C#N)C(=O)OCCOCCOCCOC(=O)c1ccc(-c2c3nc(c(-c4c(F)c(F)c(F)c(F)c4F)c4ccc([nH]4)c(-c4c(F)c(F)c(F)c(F)c4F)c4nc(c(-c5c(F)c(F)c(F)c(F)c5F)c5ccc2[nH]5)C=C4)C=C3)cc1)c1cccc2ccccc12
REMARK SMILES IDX 13 1 12 2 11 3 10 4 9 5 8 6 6 7 7 8 3 9 1 10 2 11 83 12
REMARK SMILES IDX 84 13 92 14 85 15 87 16 91 17 86 18 88 19 90 20 89 21 4 22
REMARK SMILES IDX 5 23 14 24 15 25 16 26 17 27 18 28 19 29 20 30 21 31 82 32
REMARK SMILES IDX 22 33 81 34 23 35 24 36 25 37 75 38 26 39 80 40 74 41 76 42
REMARK SMILES IDX 27 43 79 44 73 45 72 46 28 48 60 49 40 50 59 51 41 52 44 53
REMARK SMILES IDX 58 54 77 55 42 56 43 57 57 59 78 60 45 61 29 62 30 63 38 64
REMARK SMILES IDX 31 65 32 66 36 67 39 68 33 69 34 70 37 71 35 72 61 73 62 74
REMARK SMILES IDX 70 75 63 76 64 77 68 78 71 79 65 80 66 81 69 82 67 83 46 84
REMARK SMILES IDX 47 85 55 86 48 87 49 88 53 89 56 90 50 91 51 92 54 93 52 94
REMARK H PARENT 76 47 44 58
REMARK Flexibility Score: inf
ROOT
ATOM      1  C   UNL A   1      40.257  20.550  26.410  1.00  0.00     0.188 C 
ENDROOT
BRANCH   1   2
ATOM      2  C   UNL A   1      39.338  21.754  26.104  1.00  0.00     0.188 C 
BRANCH   2   3
ATOM      3  O   UNL A   1      38.034  21.365  25.734  1.00  0.00    -0.376 OA
BRANCH   3   4
ATOM      4  C   UNL A   1      37.279  22.301  24.990  1.00  0.00     0.202 C 
BRANCH   4   5
ATOM      5  C   UNL A   1      35.921  21.872  24.398  1.00  0.00     0.261 C 
BRANCH   5   6
ATOM      6  O   UNL A   1      34.842  22.820  24.507  1.00  0.00    -0.459 OA
BRANCH   6   7
ATOM      7  C   UNL A   1      33.945  22.880  23.491  1.00  0.00     0.349 C 
ATOM      8  O   UNL A   1      34.229  23.144  22.333  1.00  0.00    -0.245 OA
BRANCH   7   9
ATOM      9  C   UNL A   1      32.549  22.575  23.992  1.00  0.00     0.140 C 
ATOM     10  C   UNL A   1      30.662  23.413  25.454  1.00  0.00     0.047 C 
ATOM     11  C   UNL A   1      31.759  23.616  24.440  1.00  0.00    -0.018 C 
BRANCH  11  12
ATOM     12  C   UNL A   1      31.974  25.050  23.976  1.00  0.00    -0.013 A 
ATOM     13  C   UNL A   1      31.418  25.317  22.725  1.00  0.00     0.009 A 
ATOM     14  C   UNL A   1      32.682  26.139  24.584  1.00  0.00    -0.011 A 
ATOM     15  C   UNL A   1      31.885  26.339  21.908  1.00  0.00     0.001 A 
ATOM     16  C   UNL A   1      33.196  27.160  23.725  1.00  0.00    -0.018 A 
ATOM     17  C   UNL A   1      32.849  26.381  25.971  1.00  0.00     0.009 A 
ATOM     18  C   UNL A   1      32.878  27.178  22.372  1.00  0.00     0.009 A 
ATOM     19  C   UNL A   1      33.950  28.235  24.216  1.00  0.00     0.009 A 
ATOM     20  C   UNL A   1      33.460  27.551  26.454  1.00  0.00     0.001 A 
ATOM     21  C   UNL A   1      34.046  28.457  25.580  1.00  0.00     0.001 A 
ENDBRANCH  11  12
BRANCH   9  22
ATOM     22  C   UNL A   1      32.424  21.168  24.554  1.00  0.00     0.107 C 
ATOM     23  N   UNL A   1      32.320  20.001  25.020  1.00  0.00    -0.192 NA
ENDBRANCH   9  22
ENDBRANCH   7   9
ENDBRANCH   6   7
ENDBRANCH   5   6
ENDBRANCH   4   5
ENDBRANCH   3   4
ENDBRANCH   2   3
ENDBRANCH   1   2
BRANCH   1  24
ATOM     24  O   UNL A   1      41.540  20.761  26.966  1.00  0.00    -0.376 OA
BRANCH  24  25
ATOM     25  C   UNL A   1      42.660  20.369  26.202  1.00  0.00     0.202 C 
BRANCH  25  26
ATOM     26  C   UNL A   1      43.463  21.480  25.511  1.00  0.00     0.261 C 
BRANCH  26  27
ATOM     27  O   UNL A   1      42.725  22.643  25.074  1.00  0.00    -0.460 OA
BRANCH  27  28
ATOM     28  C   UNL A   1      43.418  23.808  25.017  1.00  0.00     0.338 C 
ATOM     29  O   UNL A   1      44.356  24.069  24.273  1.00  0.00    -0.246 OA
BRANCH  28  30
ATOM     30  C   UNL A   1      42.783  24.833  25.886  1.00  0.00     0.060 A 
ATOM     31  C   UNL A   1      43.222  26.166  25.812  1.00  0.00     0.016 A 
ATOM     32  C   UNL A   1      41.805  24.482  26.817  1.00  0.00     0.016 A 
ATOM     33  C   UNL A   1      42.697  27.141  26.673  1.00  0.00     0.010 A 
ATOM     34  C   UNL A   1      41.309  25.448  27.703  1.00  0.00     0.010 A 
ATOM     35  C   UNL A   1      41.766  26.778  27.658  1.00  0.00    -0.014 A 
BRANCH  35  36
ATOM     36  C   UNL A   1      41.432  27.702  28.780  1.00  0.00     0.031 A 
ATOM     37  C   UNL A   1      42.245  27.610  30.038  1.00  0.00     0.074 A 
ATOM     38  C   UNL A   1      40.399  28.563  28.731  1.00  0.00     0.049 A 
ATOM     39  N   UNL A   1      42.061  28.196  31.193  1.00  0.00    -0.248 NA
ATOM     40  C   UNL A   1      43.415  26.722  29.989  1.00  0.00     0.031 C 
ATOM     41  C   UNL A   1      39.558  28.778  27.568  1.00  0.00     0.029 A 
ATOM     42  N   UNL A   1      39.870  29.404  29.683  1.00  0.00    -0.354 N 
ATOM     43  C   UNL A   1      43.079  27.733  32.014  1.00  0.00     0.074 A 
ATOM     44  C   UNL A   1      43.867  26.806  31.229  1.00  0.00     0.031 C 
ATOM     45  C   UNL A   1      38.610  29.684  27.862  1.00  0.00     0.029 A 
ATOM     46  C   UNL A   1      38.750  30.082  29.259  1.00  0.00     0.049 A 
ATOM     47  H   UNL A   1      40.256  29.510  30.582  1.00  0.00     0.167 HD
ATOM     48  C   UNL A   1      43.328  28.044  33.307  1.00  0.00     0.037 A 
ATOM     49  C   UNL A   1      37.916  30.907  29.927  1.00  0.00     0.037 A 
ATOM     50  C   UNL A   1      42.523  28.939  34.096  1.00  0.00     0.049 A 
ATOM     51  C   UNL A   1      38.171  31.181  31.388  1.00  0.00     0.074 A 
ATOM     52  C   UNL A   1      42.690  29.306  35.420  1.00  0.00     0.029 A 
ATOM     53  N   UNL A   1      41.389  29.594  33.638  1.00  0.00    -0.354 N 
ATOM     54  N   UNL A   1      39.143  30.748  32.154  1.00  0.00    -0.248 NA
ATOM     55  C   UNL A   1      37.209  32.051  32.083  1.00  0.00     0.031 C 
ATOM     56  C   UNL A   1      41.623  30.135  35.780  1.00  0.00     0.029 A 
ATOM     57  C   UNL A   1      40.834  30.346  34.662  1.00  0.00     0.049 A 
ATOM     58  H   UNL A   1      41.032  29.535  32.722  1.00  0.00     0.167 HD
ATOM     59  C   UNL A   1      38.931  31.317  33.403  1.00  0.00     0.074 A 
ATOM     60  C   UNL A   1      37.742  32.135  33.294  1.00  0.00     0.031 C 
ATOM     61  C   UNL A   1      39.660  31.174  34.538  1.00  0.00     0.037 A 
BRANCH  48  62
ATOM     62  C   UNL A   1      44.494  27.362  33.959  1.00  0.00     0.064 A 
ATOM     63  C   UNL A   1      44.383  26.079  34.516  1.00  0.00     0.173 A 
ATOM     64  C   UNL A   1      45.741  28.004  34.030  1.00  0.00     0.173 A 
ATOM     65  F   UNL A   1      43.209  25.431  34.490  1.00  0.00    -0.203 F 
ATOM     66  C   UNL A   1      45.467  25.480  35.154  1.00  0.00     0.198 A 
ATOM     67  C   UNL A   1      46.830  27.387  34.637  1.00  0.00     0.198 A 
ATOM     68  F   UNL A   1      45.900  29.231  33.513  1.00  0.00    -0.203 F 
ATOM     69  F   UNL A   1      45.320  24.282  35.736  1.00  0.00    -0.200 F 
ATOM     70  C   UNL A   1      46.690  26.131  35.208  1.00  0.00     0.200 A 
ATOM     71  F   UNL A   1      48.015  28.013  34.677  1.00  0.00    -0.200 F 
ATOM     72  F   UNL A   1      47.731  25.554  35.821  1.00  0.00    -0.200 F 
ENDBRANCH  48  62
BRANCH  49  73
ATOM     73  C   UNL A   1      36.753  31.533  29.234  1.00  0.00     0.064 A 
ATOM     74  C   UNL A   1      36.739  32.908  28.955  1.00  0.00     0.173 A 
ATOM     75  C   UNL A   1      35.625  30.786  28.867  1.00  0.00     0.173 A 
ATOM     76  F   UNL A   1      37.780  33.675  29.310  1.00  0.00    -0.203 F 
ATOM     77  C   UNL A   1      35.634  33.513  28.356  1.00  0.00     0.198 A 
ATOM     78  C   UNL A   1      34.534  31.386  28.238  1.00  0.00     0.198 A 
ATOM     79  F   UNL A   1      35.579  29.469  29.114  1.00  0.00    -0.203 F 
ATOM     80  F   UNL A   1      35.627  34.837  28.151  1.00  0.00    -0.200 F 
ATOM     81  C   UNL A   1      34.536  32.751  27.991  1.00  0.00     0.200 A 
ATOM     82  F   UNL A   1      33.480  30.642  27.873  1.00  0.00    -0.200 F 
ATOM     83  F   UNL A   1      33.476  33.331  27.412  1.00  0.00    -0.200 F 
ENDBRANCH  49  73
BRANCH  61  84
ATOM     84  C   UNL A   1      39.240  31.964  35.745  1.00  0.00     0.064 A 
ATOM     85  C   UNL A   1      39.662  33.286  35.954  1.00  0.00     0.173 A 
ATOM     86  C   UNL A   1      38.340  31.409  36.669  1.00  0.00     0.173 A 
ATOM     87  F   UNL A   1      40.533  33.858  35.109  1.00  0.00    -0.203 F 
ATOM     88  C   UNL A   1      39.212  34.015  37.052  1.00  0.00     0.198 A 
ATOM     89  C   UNL A   1      37.866  32.153  37.746  1.00  0.00     0.198 A 
ATOM     90  F   UNL A   1      37.899  30.153  36.513  1.00  0.00    -0.203 F 
ATOM     91  F   UNL A   1      39.658  35.263  37.254  1.00  0.00    -0.200 F 
ATOM     92  C   UNL A   1      38.305  33.453  37.940  1.00  0.00     0.200 A 
ATOM     93  F   UNL A   1      36.978  31.613  38.592  1.00  0.00    -0.200 F 
ATOM     94  F   UNL A   1      37.860  34.164  38.984  1.00  0.00    -0.200 F 
ENDBRANCH  61  84
ENDBRANCH  35  36
ENDBRANCH  28  30
ENDBRANCH  27  28
ENDBRANCH  26  27
ENDBRANCH  25  26
ENDBRANCH  24  25
ENDBRANCH   1  24
TORSDOF 19
ENDMDL
MODEL 2
REMARK VINA RESULT:     -11.4      1.299      3.075
REMARK SMILES C/C(=C(\C#N)C(=O)OCCOCCOCCOC(=O)c1ccc(-c2c3nc(c(-c4c(F)c(F)c(F)c(F)c4F)c4ccc([nH]4)c(-c4c(F)c(F)c(F)c(F)c4F)c4nc(c(-c5c(F)c(F)c(F)c(F)c5F)c5ccc2[nH]5)C=C4)C=C3)cc1)c1cccc2ccccc12
REMARK SMILES IDX 13 1 12 2 11 3 10 4 9 5 8 6 6 7 7 8 3 9 1 10 2 11 83 12
REMARK SMILES IDX 84 13 92 14 85 15 87 16 91 17 86 18 88 19 90 20 89 21 4 22
REMARK SMILES IDX 5 23 14 24 15 25 16 26 17 27 18 28 19 29 20 30 21 31 82 32
REMARK SMILES IDX 22 33 81 34 23 35 24 36 25 37 75 38 26 39 80 40 74 41 76 42
REMARK SMILES IDX 27 43 79 44 73 45 72 46 28 48 60 49 40 50 59 51 41 52 44 53
REMARK SMILES IDX 58 54 77 55 42 56 43 57 57 59 78 60 45 61 29 62 30 63 38 64
REMARK SMILES IDX 31 65 32 66 36 67 39 68 33 69 34 70 37 71 35 72 61 73 62 74
REMARK SMILES IDX 70 75 63 76 64 77 68 78 71 79 65 80 66 81 69 82 67 83 46 84
REMARK SMILES IDX 47 85 55 86 48 87 49 88 53 89 56 90 50 91 51 92 54 93 52 94
REMARK H PARENT 76 47 44 58
REMARK Flexibility Score: inf
ROOT
ATOM      1  C   UNL A   1      40.233  20.797  26.180  1.00  0.00     0.188 C 
ENDROOT
BRANCH   1   2
ATOM      2  C   UNL A   1      38.867  21.510  26.066  1.00  0.00     0.188 C 
BRANCH   2   3
ATOM      3  O   UNL A   1      38.969  22.909  26.205  1.00  0.00    -0.376 OA
BRANCH   3   4
ATOM      4  C   UNL A   1      37.812  23.664  25.904  1.00  0.00     0.202 C 
BRANCH   4   5
ATOM      5  C   UNL A   1      36.754  23.074  24.949  1.00  0.00     0.261 C 
BRANCH   5   6
ATOM      6  O   UNL A   1      35.623  23.911  24.644  1.00  0.00    -0.459 OA
BRANCH   6   7
ATOM      7  C   UNL A   1      35.050  23.781  23.420  1.00  0.00     0.349 C 
ATOM      8  O   UNL A   1      35.551  23.181  22.482  1.00  0.00    -0.245 OA
BRANCH   7   9
ATOM      9  C   UNL A   1      33.708  24.482  23.382  1.00  0.00     0.140 C 
ATOM     10  C   UNL A   1      31.212  24.133  23.160  1.00  0.00     0.047 C 
ATOM     11  C   UNL A   1      32.570  23.765  23.700  1.00  0.00    -0.018 C 
BRANCH  11  12
ATOM     12  C   UNL A   1      32.620  22.524  24.581  1.00  0.00    -0.013 A 
ATOM     13  C   UNL A   1      32.601  22.811  25.946  1.00  0.00     0.009 A 
ATOM     14  C   UNL A   1      32.725  21.134  24.242  1.00  0.00    -0.011 A 
ATOM     15  C   UNL A   1      33.117  21.937  26.895  1.00  0.00     0.001 A 
ATOM     16  C   UNL A   1      33.300  20.255  25.212  1.00  0.00    -0.018 A 
ATOM     17  C   UNL A   1      32.225  20.499  23.076  1.00  0.00     0.009 A 
ATOM     18  C   UNL A   1      33.592  20.705  26.495  1.00  0.00     0.009 A 
ATOM     19  C   UNL A   1      33.499  18.892  24.954  1.00  0.00     0.009 A 
ATOM     20  C   UNL A   1      32.280  19.104  22.908  1.00  0.00     0.001 A 
ATOM     21  C   UNL A   1      32.952  18.306  23.825  1.00  0.00     0.001 A 
ENDBRANCH  11  12
BRANCH   9  22
ATOM     22  C   UNL A   1      33.682  25.640  22.397  1.00  0.00     0.107 C 
ATOM     23  N   UNL A   1      33.660  26.601  21.580  1.00  0.00    -0.192 NA
ENDBRANCH   9  22
ENDBRANCH   7   9
ENDBRANCH   6   7
ENDBRANCH   5   6
ENDBRANCH   4   5
ENDBRANCH   3   4
ENDBRANCH   2   3
ENDBRANCH   1   2
BRANCH   1  24
ATOM     24  O   UNL A   1      41.224  21.299  27.055  1.00  0.00    -0.376 OA
BRANCH  24  25
ATOM     25  C   UNL A   1      42.566  20.938  26.804  1.00  0.00     0.202 C 
BRANCH  25  26
ATOM     26  C   UNL A   1      43.256  21.592  25.599  1.00  0.00     0.261 C 
BRANCH  26  27
ATOM     27  O   UNL A   1      42.641  22.784  25.063  1.00  0.00    -0.460 OA
BRANCH  27  28
ATOM     28  C   UNL A   1      43.399  23.910  25.080  1.00  0.00     0.338 C 
ATOM     29  O   UNL A   1      44.400  24.132  24.409  1.00  0.00    -0.246 OA
BRANCH  28  30
ATOM     30  C   UNL A   1      42.760  24.953  25.924  1.00  0.00     0.060 A 
ATOM     31  C   UNL A   1      43.287  26.256  25.927  1.00  0.00     0.016 A 
ATOM     32  C   UNL A   1      41.688  24.644  26.762  1.00  0.00     0.016 A 
ATOM     33  C   UNL A   1      42.755  27.241  26.771  1.00  0.00     0.010 A 
ATOM     34  C   UNL A   1      41.182  25.619  27.634  1.00  0.00     0.010 A 
ATOM     35  C   UNL A   1      41.726  26.916  27.666  1.00  0.00    -0.014 A 
BRANCH  35  36
ATOM     36  C   UNL A   1      41.359  27.833  28.784  1.00  0.00     0.031 A 
ATOM     37  C   UNL A   1      42.156  27.754  30.053  1.00  0.00     0.074 A 
ATOM     38  C   UNL A   1      40.311  28.674  28.722  1.00  0.00     0.049 A 
ATOM     39  N   UNL A   1      41.944  28.335  31.206  1.00  0.00    -0.248 NA
ATOM     40  C   UNL A   1      43.343  26.888  30.019  1.00  0.00     0.031 C 
ATOM     41  C   UNL A   1      39.481  28.875  27.547  1.00  0.00     0.029 A 
ATOM     42  N   UNL A   1      39.752  29.504  29.667  1.00  0.00    -0.354 N 
ATOM     43  C   UNL A   1      42.959  27.890  32.040  1.00  0.00     0.074 A 
ATOM     44  C   UNL A   1      43.776  26.979  31.266  1.00  0.00     0.031 C 
ATOM     45  C   UNL A   1      38.513  29.762  27.829  1.00  0.00     0.029 A 
ATOM     46  C   UNL A   1      38.626  30.162  29.228  1.00  0.00     0.049 A 
ATOM     47  H   UNL A   1      40.124  29.616  30.571  1.00  0.00     0.167 HD
ATOM     48  C   UNL A   1      43.185  28.203  33.337  1.00  0.00     0.037 A 
ATOM     49  C   UNL A   1      37.768  30.970  29.886  1.00  0.00     0.037 A 
ATOM     50  C   UNL A   1      42.353  29.082  34.116  1.00  0.00     0.049 A 
ATOM     51  C   UNL A   1      37.997  31.246  31.350  1.00  0.00     0.074 A 
ATOM     52  C   UNL A   1      42.494  29.451  35.442  1.00  0.00     0.029 A 
ATOM     53  N   UNL A   1      41.213  29.717  33.643  1.00  0.00    -0.354 N 
ATOM     54  N   UNL A   1      38.966  30.830  32.130  1.00  0.00    -0.248 NA
ATOM     55  C   UNL A   1      37.010  32.097  32.033  1.00  0.00     0.031 C 
ATOM     56  C   UNL A   1      41.407  30.258  35.789  1.00  0.00     0.029 A 
ATOM     57  C   UNL A   1      40.630  30.457  34.660  1.00  0.00     0.049 A 
ATOM     58  H   UNL A   1      40.870  29.652  32.722  1.00  0.00     0.167 HD
ATOM     59  C   UNL A   1      38.727  31.394  33.376  1.00  0.00     0.074 A 
ATOM     60  C   UNL A   1      37.524  32.189  33.252  1.00  0.00     0.031 C 
ATOM     61  C   UNL A   1      39.442  31.263  34.520  1.00  0.00     0.037 A 
BRANCH  48  62
ATOM     62  C   UNL A   1      44.355  27.542  34.004  1.00  0.00     0.064 A 
ATOM     63  C   UNL A   1      45.620  28.145  34.044  1.00  0.00     0.173 A 
ATOM     64  C   UNL A   1      44.207  26.284  34.609  1.00  0.00     0.173 A 
ATOM     65  F   UNL A   1      45.819  29.338  33.464  1.00  0.00    -0.203 F 
ATOM     66  C   UNL A   1      46.704  27.496  34.632  1.00  0.00     0.198 A 
ATOM     67  C   UNL A   1      45.284  25.655  35.226  1.00  0.00     0.198 A 
ATOM     68  F   UNL A   1      43.017  25.664  34.599  1.00  0.00    -0.203 F 
ATOM     69  F   UNL A   1      47.918  28.062  34.601  1.00  0.00    -0.200 F 
ATOM     70  C   UNL A   1      46.533  26.256  35.228  1.00  0.00     0.200 A 
ATOM     71  F   UNL A   1      45.113  24.461  35.812  1.00  0.00    -0.200 F 
ATOM     72  F   UNL A   1      47.575  25.634  35.792  1.00  0.00    -0.200 F 
ENDBRANCH  48  62
BRANCH  49  73
ATOM     73  C   UNL A   1      36.603  31.575  29.178  1.00  0.00     0.064 A 
ATOM     74  C   UNL A   1      36.569  32.948  28.894  1.00  0.00     0.173 A 
ATOM     75  C   UNL A   1      35.491  30.809  28.800  1.00  0.00     0.173 A 
ATOM     76  F   UNL A   1      37.594  33.733  29.259  1.00  0.00    -0.203 F 
ATOM     77  C   UNL A   1      35.462  33.533  28.280  1.00  0.00     0.198 A 
ATOM     78  C   UNL A   1      34.398  31.389  28.156  1.00  0.00     0.198 A 
ATOM     79  F   UNL A   1      35.464  29.491  29.049  1.00  0.00    -0.203 F 
ATOM     80  F   UNL A   1      35.436  34.857  28.071  1.00  0.00    -0.200 F 
ATOM     81  C   UNL A   1      34.380  32.753  27.905  1.00  0.00     0.200 A 
ATOM     82  F   UNL A   1      33.361  30.627  27.781  1.00  0.00    -0.200 F 
ATOM     83  F   UNL A   1      33.319  33.314  27.312  1.00  0.00    -0.200 F 
ENDBRANCH  49  73
BRANCH  61  84
ATOM     84  C   UNL A   1      38.991  32.044  35.723  1.00  0.00     0.064 A 
ATOM     85  C   UNL A   1      38.216  31.465  36.739  1.00  0.00     0.173 A 
ATOM     86  C   UNL A   1      39.406  33.374  35.891  1.00  0.00     0.173 A 
ATOM     87  F   UNL A   1      37.781  30.202  36.621  1.00  0.00    -0.203 F 
ATOM     88  C   UNL A   1      37.860  32.195  37.870  1.00  0.00     0.198 A 
ATOM     89  C   UNL A   1      39.077  34.090  37.039  1.00  0.00     0.198 A 
ATOM     90  F   UNL A   1      40.154  33.973  34.953  1.00  0.00    -0.203 F 
ATOM     91  F   UNL A   1      37.087  31.636  38.811  1.00  0.00    -0.200 F 
ATOM     92  C   UNL A   1      38.301  33.503  38.025  1.00  0.00     0.200 A 
ATOM     93  F   UNL A   1      39.518  35.347  37.193  1.00  0.00    -0.200 F 
ATOM     94  F   UNL A   1      37.972  34.196  39.123  1.00  0.00    -0.200 F 
ENDBRANCH  61  84
ENDBRANCH  35  36
ENDBRANCH  28  30
ENDBRANCH  27  28
ENDBRANCH  26  27
ENDBRANCH  25  26
ENDBRANCH  24  25
ENDBRANCH   1  24
TORSDOF 19
ENDMDL
MODEL 3
REMARK VINA RESULT:     -11.0      1.276      3.181
REMARK SMILES C/C(=C(\C#N)C(=O)OCCOCCOCCOC(=O)c1ccc(-c2c3nc(c(-c4c(F)c(F)c(F)c(F)c4F)c4ccc([nH]4)c(-c4c(F)c(F)c(F)c(F)c4F)c4nc(c(-c5c(F)c(F)c(F)c(F)c5F)c5ccc2[nH]5)C=C4)C=C3)cc1)c1cccc2ccccc12
REMARK SMILES IDX 13 1 12 2 11 3 10 4 9 5 8 6 6 7 7 8 3 9 1 10 2 11 83 12
REMARK SMILES IDX 84 13 92 14 85 15 87 16 91 17 86 18 88 19 90 20 89 21 4 22
REMARK SMILES IDX 5 23 14 24 15 25 16 26 17 27 18 28 19 29 20 30 21 31 82 32
REMARK SMILES IDX 22 33 81 34 23 35 24 36 25 37 75 38 26 39 80 40 74 41 76 42
REMARK SMILES IDX 27 43 79 44 73 45 72 46 28 48 60 49 40 50 59 51 41 52 44 53
REMARK SMILES IDX 58 54 77 55 42 56 43 57 57 59 78 60 45 61 29 62 30 63 38 64
REMARK SMILES IDX 31 65 32 66 36 67 39 68 33 69 34 70 37 71 35 72 61 73 62 74
REMARK SMILES IDX 70 75 63 76 64 77 68 78 71 79 65 80 66 81 69 82 67 83 46 84
REMARK SMILES IDX 47 85 55 86 48 87 49 88 53 89 56 90 50 91 51 92 54 93 52 94
REMARK H PARENT 76 47 44 58
REMARK Flexibility Score: inf
ROOT
ATOM      1  C   UNL A   1      39.949  21.442  26.789  1.00  0.00     0.188 C 
ENDROOT
BRANCH   1   2
ATOM      2  C   UNL A   1      38.938  22.230  25.926  1.00  0.00     0.188 C 
BRANCH   2   3
ATOM      3  O   UNL A   1      37.808  21.465  25.574  1.00  0.00    -0.376 OA
BRANCH   3   4
ATOM      4  C   UNL A   1      37.189  21.773  24.341  1.00  0.00     0.202 C 
BRANCH   4   5
ATOM      5  C   UNL A   1      36.201  22.955  24.267  1.00  0.00     0.261 C 
BRANCH   5   6
ATOM      6  O   UNL A   1      35.363  23.023  23.098  1.00  0.00    -0.459 OA
BRANCH   6   7
ATOM      7  C   UNL A   1      34.202  23.719  23.190  1.00  0.00     0.349 C 
ATOM      8  O   UNL A   1      33.781  24.478  22.330  1.00  0.00    -0.245 OA
BRANCH   7   9
ATOM      9  C   UNL A   1      33.505  23.426  24.502  1.00  0.00     0.140 C 
ATOM     10  C   UNL A   1      31.505  22.293  25.558  1.00  0.00     0.047 C 
ATOM     11  C   UNL A   1      32.646  22.346  24.574  1.00  0.00    -0.018 C 
BRANCH  11  12
ATOM     12  C   UNL A   1      32.764  21.157  23.632  1.00  0.00    -0.013 A 
ATOM     13  C   UNL A   1      32.193  21.382  22.379  1.00  0.00     0.009 A 
ATOM     14  C   UNL A   1      33.318  19.849  23.832  1.00  0.00    -0.011 A 
ATOM     15  C   UNL A   1      31.749  20.346  21.568  1.00  0.00     0.001 A 
ATOM     16  C   UNL A   1      32.818  18.783  23.022  1.00  0.00    -0.018 A 
ATOM     17  C   UNL A   1      34.395  19.499  24.687  1.00  0.00     0.009 A 
ATOM     18  C   UNL A   1      31.948  19.039  21.967  1.00  0.00     0.009 A 
ATOM     19  C   UNL A   1      33.253  17.460  23.180  1.00  0.00     0.009 A 
ATOM     20  C   UNL A   1      34.934  18.201  24.711  1.00  0.00     0.001 A 
ATOM     21  C   UNL A   1      34.339  17.174  23.991  1.00  0.00     0.001 A 
ENDBRANCH  11  12
BRANCH   9  22
ATOM     22  C   UNL A   1      33.308  24.672  25.350  1.00  0.00     0.107 C 
ATOM     23  N   UNL A   1      33.143  25.705  26.055  1.00  0.00    -0.192 NA
ENDBRANCH   9  22
ENDBRANCH   7   9
ENDBRANCH   6   7
ENDBRANCH   5   6
ENDBRANCH   4   5
ENDBRANCH   3   4
ENDBRANCH   2   3
ENDBRANCH   1   2
BRANCH   1  24
ATOM     24  O   UNL A   1      40.966  20.679  26.170  1.00  0.00    -0.376 OA
BRANCH  24  25
ATOM     25  C   UNL A   1      42.296  20.890  26.595  1.00  0.00     0.202 C 
BRANCH  25  26
ATOM     26  C   UNL A   1      43.222  21.663  25.646  1.00  0.00     0.261 C 
BRANCH  26  27
ATOM     27  O   UNL A   1      42.669  22.834  25.005  1.00  0.00    -0.460 OA
BRANCH  27  28
ATOM     28  C   UNL A   1      43.425  23.960  25.055  1.00  0.00     0.338 C 
ATOM     29  O   UNL A   1      44.434  24.196  24.401  1.00  0.00    -0.246 OA
BRANCH  28  30
ATOM     30  C   UNL A   1      42.775  24.985  25.913  1.00  0.00     0.060 A 
ATOM     31  C   UNL A   1      43.253  26.306  25.889  1.00  0.00     0.016 A 
ATOM     32  C   UNL A   1      41.744  24.642  26.787  1.00  0.00     0.016 A 
ATOM     33  C   UNL A   1      42.712  27.278  26.743  1.00  0.00     0.010 A 
ATOM     34  C   UNL A   1      41.230  25.604  27.668  1.00  0.00     0.010 A 
ATOM     35  C   UNL A   1      41.725  26.922  27.673  1.00  0.00    -0.014 A 
BRANCH  35  36
ATOM     36  C   UNL A   1      41.360  27.832  28.797  1.00  0.00     0.031 A 
ATOM     37  C   UNL A   1      42.166  27.755  30.060  1.00  0.00     0.074 A 
ATOM     38  C   UNL A   1      40.306  28.667  28.744  1.00  0.00     0.049 A 
ATOM     39  N   UNL A   1      41.958  28.331  31.216  1.00  0.00    -0.248 NA
ATOM     40  C   UNL A   1      43.358  26.896  30.015  1.00  0.00     0.031 C 
ATOM     41  C   UNL A   1      39.468  28.867  27.575  1.00  0.00     0.029 A 
ATOM     42  N   UNL A   1      39.750  29.492  29.695  1.00  0.00    -0.354 N 
ATOM     43  C   UNL A   1      42.982  27.890  32.042  1.00  0.00     0.074 A 
ATOM     44  C   UNL A   1      43.799  26.986  31.259  1.00  0.00     0.031 C 
ATOM     45  C   UNL A   1      38.496  29.748  27.866  1.00  0.00     0.029 A 
ATOM     46  C   UNL A   1      38.616  30.144  29.266  1.00  0.00     0.049 A 
ATOM     47  H   UNL A   1      40.126  29.603  30.598  1.00  0.00     0.167 HD
ATOM     48  C   UNL A   1      43.214  28.201  33.338  1.00  0.00     0.037 A 
ATOM     49  C   UNL A   1      37.757  30.945  29.931  1.00  0.00     0.037 A 
ATOM     50  C   UNL A   1      42.382  29.073  34.126  1.00  0.00     0.049 A 
ATOM     51  C   UNL A   1      37.995  31.219  31.395  1.00  0.00     0.074 A 
ATOM     52  C   UNL A   1      42.530  29.438  35.452  1.00  0.00     0.029 A 
ATOM     53  N   UNL A   1      41.235  29.702  33.662  1.00  0.00    -0.354 N 
ATOM     54  N   UNL A   1      38.972  30.806  32.167  1.00  0.00    -0.248 NA
ATOM     55  C   UNL A   1      37.007  32.061  32.087  1.00  0.00     0.031 C 
ATOM     56  C   UNL A   1      41.441  30.238  35.808  1.00  0.00     0.029 A 
ATOM     57  C   UNL A   1      40.655  30.435  34.685  1.00  0.00     0.049 A 
ATOM     58  H   UNL A   1      40.887  29.638  32.744  1.00  0.00     0.167 HD
ATOM     59  C   UNL A   1      38.738  31.364  33.417  1.00  0.00     0.074 A 
ATOM     60  C   UNL A   1      37.529  32.153  33.303  1.00  0.00     0.031 C 
ATOM     61  C   UNL A   1      39.461  31.234  34.556  1.00  0.00     0.037 A 
BRANCH  48  62
ATOM     62  C   UNL A   1      44.392  27.545  33.996  1.00  0.00     0.064 A 
ATOM     63  C   UNL A   1      44.280  26.310  34.652  1.00  0.00     0.173 A 
ATOM     64  C   UNL A   1      45.652  28.164  33.972  1.00  0.00     0.173 A 
ATOM     65  F   UNL A   1      43.094  25.687  34.719  1.00  0.00    -0.203 F 
ATOM     66  C   UNL A   1      45.377  25.737  35.292  1.00  0.00     0.198 A 
ATOM     67  C   UNL A   1      46.753  27.571  34.583  1.00  0.00     0.198 A 
ATOM     68  F   UNL A   1      45.814  29.346  33.358  1.00  0.00    -0.203 F 
ATOM     69  F   UNL A   1      45.230  24.589  35.968  1.00  0.00    -0.200 F 
ATOM     70  C   UNL A   1      46.613  26.365  35.251  1.00  0.00     0.200 A 
ATOM     71  F   UNL A   1      47.949  28.174  34.531  1.00  0.00    -0.200 F 
ATOM     72  F   UNL A   1      47.665  25.813  35.867  1.00  0.00    -0.200 F 
ENDBRANCH  48  62
BRANCH  49  73
ATOM     73  C   UNL A   1      36.585  31.545  29.233  1.00  0.00     0.064 A 
ATOM     74  C   UNL A   1      35.498  30.749  28.840  1.00  0.00     0.173 A 
ATOM     75  C   UNL A   1      36.535  32.910  28.914  1.00  0.00     0.173 A 
ATOM     76  F   UNL A   1      35.506  29.432  29.094  1.00  0.00    -0.203 F 
ATOM     77  C   UNL A   1      34.421  31.290  28.140  1.00  0.00     0.198 A 
ATOM     78  C   UNL A   1      35.442  33.456  28.243  1.00  0.00     0.198 A 
ATOM     79  F   UNL A   1      37.548  33.720  29.259  1.00  0.00    -0.203 F 
ATOM     80  F   UNL A   1      33.423  30.495  27.730  1.00  0.00    -0.200 F 
ATOM     81  C   UNL A   1      34.390  32.645  27.848  1.00  0.00     0.200 A 
ATOM     82  F   UNL A   1      35.410  34.770  27.976  1.00  0.00    -0.200 F 
ATOM     83  F   UNL A   1      33.352  33.165  27.178  1.00  0.00    -0.200 F 
ENDBRANCH  49  73
BRANCH  61  84
ATOM     84  C   UNL A   1      39.014  32.009  35.763  1.00  0.00     0.064 A 
ATOM     85  C   UNL A   1      38.225  31.431  36.769  1.00  0.00     0.173 A 
ATOM     86  C   UNL A   1      39.446  33.332  35.948  1.00  0.00     0.173 A 
ATOM     87  F   UNL A   1      37.774  30.175  36.636  1.00  0.00    -0.203 F 
ATOM     88  C   UNL A   1      37.872  32.155  37.906  1.00  0.00     0.198 A 
ATOM     89  C   UNL A   1      39.119  34.041  37.101  1.00  0.00     0.198 A 
ATOM     90  F   UNL A   1      40.207  33.931  35.020  1.00  0.00    -0.203 F 
ATOM     91  F   UNL A   1      37.086  31.596  38.837  1.00  0.00    -0.200 F 
ATOM     92  C   UNL A   1      38.329  33.454  38.076  1.00  0.00     0.200 A 
ATOM     93  F   UNL A   1      39.576  35.290  37.270  1.00  0.00    -0.200 F 
ATOM     94  F   UNL A   1      38.004  34.141  39.179  1.00  0.00    -0.200 F 
ENDBRANCH  61  84
ENDBRANCH  35  36
ENDBRANCH  28  30
ENDBRANCH  27  28
ENDBRANCH  26  27
ENDBRANCH  25  26
ENDBRANCH  24  25
ENDBRANCH   1  24
TORSDOF 19
ENDMDL
