MODEL 1
REMARK VINA RESULT:     -10.3      0.000      0.000
REMARK SMILES C[C@@H](C(=O)OCCOCCOCCOC(=O)c1ccc(-c2c3nc(c(-c4c(F)c(F)c(F)c(F)c4F)c4ccc([nH]4)c(-c4c(F)c(F)c(F)c(F)c4F)c4nc(c(-c5c(F)c(F)c(F)c(F)c5F)c5ccc2[nH]5)C=C4)C=C3)cc1)c1ccn(C(F)F)c(=O)c1
REMARK SMILES IDX 9 1 8 2 7 3 6 4 5 5 3 6 4 7 2 8 1 9 80 10 81 11 89 12 82 13
REMARK SMILES IDX 87 14 83 15 88 16 84 17 85 18 86 19 10 20 11 21 12 22 13 23
REMARK SMILES IDX 14 24 15 25 16 26 17 27 18 28 79 29 19 30 78 31 20 32 21 33
REMARK SMILES IDX 22 34 72 35 23 36 77 37 71 38 73 39 24 40 76 41 70 42 69 43
REMARK SMILES IDX 25 45 57 46 37 47 56 48 38 49 41 50 55 51 74 52 39 53 40 54
REMARK SMILES IDX 54 56 75 57 42 58 26 59 27 60 35 61 28 62 29 63 33 64 36 65
REMARK SMILES IDX 30 66 31 67 34 68 32 69 58 70 59 71 67 72 60 73 61 74 65 75
REMARK SMILES IDX 68 76 62 77 63 78 66 79 64 80 43 81 44 82 52 83 45 84 46 85
REMARK SMILES IDX 50 86 53 87 47 88 48 89 51 90 49 91
REMARK H PARENT 73 44 41 55
REMARK Flexibility Score: inf
ROOT
ATOM      1  C   UNL A   1      36.089  23.734  25.726  1.00  0.00     0.188 C 
ENDROOT
BRANCH   1   2
ATOM      2  O   UNL A   1      34.826  23.618  25.084  1.00  0.00    -0.376 OA
BRANCH   2   3
ATOM      3  C   UNL A   1      34.733  22.867  23.877  1.00  0.00     0.202 C 
BRANCH   3   4
ATOM      4  C   UNL A   1      33.884  23.414  22.713  1.00  0.00     0.261 C 
BRANCH   4   5
ATOM      5  O   UNL A   1      33.022  24.520  23.056  1.00  0.00    -0.463 OA
BRANCH   5   6
ATOM      6  C   UNL A   1      33.269  25.707  22.443  1.00  0.00     0.313 C 
ATOM      7  O   UNL A   1      33.555  25.812  21.253  1.00  0.00    -0.252 OA
BRANCH   6   8
ATOM      8  C   UNL A   1      33.080  26.947  23.352  1.00  0.00     0.126 C 
ATOM      9  C   UNL A   1      33.643  26.823  24.781  1.00  0.00     0.025 C 
BRANCH   8  10
ATOM     10  C   UNL A   1      31.673  27.572  23.309  1.00  0.00    -0.027 A 
ATOM     11  C   UNL A   1      30.502  26.858  23.794  1.00  0.00     0.023 A 
ATOM     12  C   UNL A   1      31.469  28.781  22.748  1.00  0.00     0.076 A 
ATOM     13  C   UNL A   1      29.269  27.359  23.642  1.00  0.00     0.095 A 
ATOM     14  C   UNL A   1      30.104  29.360  22.571  1.00  0.00     0.255 A 
ATOM     15  N   UNL A   1      29.060  28.580  23.032  1.00  0.00    -0.258 N 
ATOM     16  O   UNL A   1      30.000  30.451  22.026  1.00  0.00    -0.269 OA
BRANCH  15  17
ATOM     17  C   UNL A   1      27.723  29.035  22.743  1.00  0.00     0.451 C 
ATOM     18  F   UNL A   1      27.335  30.018  23.588  1.00  0.00    -0.185 F 
ATOM     19  F   UNL A   1      27.650  29.512  21.476  1.00  0.00    -0.185 F 
ENDBRANCH  15  17
ENDBRANCH   8  10
ENDBRANCH   6   8
ENDBRANCH   5   6
ENDBRANCH   4   5
ENDBRANCH   3   4
ENDBRANCH   2   3
ENDBRANCH   1   2
BRANCH   1  20
ATOM     20  C   UNL A   1      37.332  23.108  25.074  1.00  0.00     0.188 C 
BRANCH  20  21
ATOM     21  O   UNL A   1      37.815  21.962  25.728  1.00  0.00    -0.376 OA
BRANCH  21  22
ATOM     22  C   UNL A   1      37.813  20.727  25.038  1.00  0.00     0.202 C 
BRANCH  22  23
ATOM     23  C   UNL A   1      38.850  19.622  25.320  1.00  0.00     0.261 C 
BRANCH  23  24
ATOM     24  O   UNL A   1      39.749  19.804  26.425  1.00  0.00    -0.460 OA
BRANCH  24  25
ATOM     25  C   UNL A   1      41.057  19.534  26.216  1.00  0.00     0.338 C 
ATOM     26  O   UNL A   1      41.532  18.508  25.750  1.00  0.00    -0.246 OA
BRANCH  25  27
ATOM     27  C   UNL A   1      41.819  20.783  26.440  1.00  0.00     0.060 A 
ATOM     28  C   UNL A   1      42.285  21.083  27.729  1.00  0.00     0.016 A 
ATOM     29  C   UNL A   1      42.080  21.652  25.378  1.00  0.00     0.016 A 
ATOM     30  C   UNL A   1      42.991  22.266  27.964  1.00  0.00     0.010 A 
ATOM     31  C   UNL A   1      42.765  22.847  25.621  1.00  0.00     0.010 A 
ATOM     32  C   UNL A   1      43.199  23.174  26.918  1.00  0.00    -0.014 A 
BRANCH  32  33
ATOM     33  C   UNL A   1      43.700  24.543  27.205  1.00  0.00     0.031 A 
ATOM     34  C   UNL A   1      42.739  25.553  27.768  1.00  0.00     0.074 A 
ATOM     35  C   UNL A   1      44.975  24.892  26.956  1.00  0.00     0.049 A 
ATOM     36  N   UNL A   1      42.912  26.828  28.007  1.00  0.00    -0.248 NA
ATOM     37  C   UNL A   1      41.391  25.057  28.088  1.00  0.00     0.031 C 
ATOM     38  C   UNL A   1      46.005  24.004  26.426  1.00  0.00     0.029 A 
ATOM     39  N   UNL A   1      45.612  26.100  27.105  1.00  0.00    -0.354 N 
ATOM     40  C   UNL A   1      41.693  27.289  28.485  1.00  0.00     0.074 A 
ATOM     41  C   UNL A   1      40.782  26.166  28.478  1.00  0.00     0.031 C 
ATOM     42  C   UNL A   1      47.148  24.700  26.286  1.00  0.00     0.029 A 
ATOM     43  C   UNL A   1      46.920  26.089  26.687  1.00  0.00     0.049 A 
ATOM     44  H   UNL A   1      45.173  26.898  27.476  1.00  0.00     0.167 HD
ATOM     45  C   UNL A   1      41.363  28.538  28.895  1.00  0.00     0.037 A 
ATOM     46  C   UNL A   1      47.819  27.093  26.614  1.00  0.00     0.037 A 
ATOM     47  C   UNL A   1      42.272  29.654  28.904  1.00  0.00     0.049 A 
ATOM     48  C   UNL A   1      47.408  28.488  27.024  1.00  0.00     0.074 A 
ATOM     49  C   UNL A   1      42.040  30.952  29.324  1.00  0.00     0.029 A 
ATOM     50  N   UNL A   1      43.587  29.606  28.464  1.00  0.00    -0.354 N 
ATOM     51  N   UNL A   1      46.262  28.913  27.497  1.00  0.00    -0.248 NA
ATOM     52  C   UNL A   1      48.420  29.545  26.876  1.00  0.00     0.031 C 
ATOM     53  C   UNL A   1      43.192  31.705  29.075  1.00  0.00     0.029 A 
ATOM     54  C   UNL A   1      44.167  30.860  28.570  1.00  0.00     0.049 A 
ATOM     55  H   UNL A   1      44.041  28.800  28.127  1.00  0.00     0.167 HD
ATOM     56  C   UNL A   1      46.425  30.274  27.734  1.00  0.00     0.074 A 
ATOM     57  C   UNL A   1      47.785  30.601  27.365  1.00  0.00     0.031 C 
ATOM     58  C   UNL A   1      45.527  31.173  28.210  1.00  0.00     0.037 A 
BRANCH  45  59
ATOM     59  C   UNL A   1      39.944  28.774  29.329  1.00  0.00     0.064 A 
ATOM     60  C   UNL A   1      38.946  29.168  28.426  1.00  0.00     0.173 A 
ATOM     61  C   UNL A   1      39.573  28.574  30.668  1.00  0.00     0.173 A 
ATOM     62  F   UNL A   1      39.249  29.387  27.137  1.00  0.00    -0.203 F 
ATOM     63  C   UNL A   1      37.638  29.382  28.853  1.00  0.00     0.198 A 
ATOM     64  C   UNL A   1      38.258  28.754  31.084  1.00  0.00     0.198 A 
ATOM     65  F   UNL A   1      40.488  28.194  31.574  1.00  0.00    -0.203 F 
ATOM     66  F   UNL A   1      36.713  29.812  27.983  1.00  0.00    -0.200 F 
ATOM     67  C   UNL A   1      37.293  29.167  30.179  1.00  0.00     0.200 A 
ATOM     68  F   UNL A   1      37.924  28.530  32.363  1.00  0.00    -0.200 F 
ATOM     69  F   UNL A   1      36.032  29.365  30.586  1.00  0.00    -0.200 F 
ENDBRANCH  45  59
BRANCH  46  70
ATOM     70  C   UNL A   1      49.199  26.831  26.121  1.00  0.00     0.064 A 
ATOM     71  C   UNL A   1      49.530  27.022  24.772  1.00  0.00     0.173 A 
ATOM     72  C   UNL A   1      50.205  26.355  26.974  1.00  0.00     0.173 A 
ATOM     73  F   UNL A   1      48.598  27.453  23.908  1.00  0.00    -0.203 F 
ATOM     74  C   UNL A   1      50.805  26.725  24.291  1.00  0.00     0.198 A 
ATOM     75  C   UNL A   1      51.489  26.092  26.500  1.00  0.00     0.198 A 
ATOM     76  F   UNL A   1      49.944  26.155  28.274  1.00  0.00    -0.203 F 
ATOM     77  F   UNL A   1      51.077  26.865  22.986  1.00  0.00    -0.200 F 
ATOM     78  C   UNL A   1      51.785  26.268  25.157  1.00  0.00     0.200 A 
ATOM     79  F   UNL A   1      52.438  25.669  27.347  1.00  0.00    -0.200 F 
ATOM     80  F   UNL A   1      53.012  25.990  24.698  1.00  0.00    -0.200 F 
ENDBRANCH  46  70
BRANCH  58  81
ATOM     81  C   UNL A   1      45.995  32.588  28.408  1.00  0.00     0.064 A 
ATOM     82  C   UNL A   1      45.853  33.564  27.410  1.00  0.00     0.173 A 
ATOM     83  C   UNL A   1      46.551  32.985  29.635  1.00  0.00     0.173 A 
ATOM     84  F   UNL A   1      45.338  33.238  26.214  1.00  0.00    -0.203 F 
ATOM     85  C   UNL A   1      46.279  34.874  27.621  1.00  0.00     0.198 A 
ATOM     86  C   UNL A   1      46.941  34.304  29.855  1.00  0.00     0.198 A 
ATOM     87  F   UNL A   1      46.701  32.097  30.629  1.00  0.00    -0.203 F 
ATOM     88  F   UNL A   1      46.182  35.776  26.634  1.00  0.00    -0.200 F 
ATOM     89  C   UNL A   1      46.814  35.245  28.846  1.00  0.00     0.200 A 
ATOM     90  F   UNL A   1      47.441  34.663  31.046  1.00  0.00    -0.200 F 
ATOM     91  F   UNL A   1      47.213  36.507  29.050  1.00  0.00    -0.200 F 
ENDBRANCH  58  81
ENDBRANCH  32  33
ENDBRANCH  25  27
ENDBRANCH  24  25
ENDBRANCH  23  24
ENDBRANCH  22  23
ENDBRANCH  21  22
ENDBRANCH  20  21
ENDBRANCH   1  20
TORSDOF 19
ENDMDL
MODEL 2
REMARK VINA RESULT:     -10.3      1.743      7.653
REMARK SMILES C[C@@H](C(=O)OCCOCCOCCOC(=O)c1ccc(-c2c3nc(c(-c4c(F)c(F)c(F)c(F)c4F)c4ccc([nH]4)c(-c4c(F)c(F)c(F)c(F)c4F)c4nc(c(-c5c(F)c(F)c(F)c(F)c5F)c5ccc2[nH]5)C=C4)C=C3)cc1)c1ccn(C(F)F)c(=O)c1
REMARK SMILES IDX 9 1 8 2 7 3 6 4 5 5 3 6 4 7 2 8 1 9 80 10 81 11 89 12 82 13
REMARK SMILES IDX 87 14 83 15 88 16 84 17 85 18 86 19 10 20 11 21 12 22 13 23
REMARK SMILES IDX 14 24 15 25 16 26 17 27 18 28 79 29 19 30 78 31 20 32 21 33
REMARK SMILES IDX 22 34 72 35 23 36 77 37 71 38 73 39 24 40 76 41 70 42 69 43
REMARK SMILES IDX 25 45 57 46 37 47 56 48 38 49 41 50 55 51 74 52 39 53 40 54
REMARK SMILES IDX 54 56 75 57 42 58 26 59 27 60 35 61 28 62 29 63 33 64 36 65
REMARK SMILES IDX 30 66 31 67 34 68 32 69 58 70 59 71 67 72 60 73 61 74 65 75
REMARK SMILES IDX 68 76 62 77 63 78 66 79 64 80 43 81 44 82 52 83 45 84 46 85
REMARK SMILES IDX 50 86 53 87 47 88 48 89 51 90 49 91
REMARK H PARENT 73 44 41 55
REMARK Flexibility Score: inf
ROOT
ATOM      1  C   UNL A   1      35.271  21.608  25.951  1.00  0.00     0.188 C 
ENDROOT
BRANCH   1   2
ATOM      2  O   UNL A   1      34.403  22.562  25.355  1.00  0.00    -0.376 OA
BRANCH   2   3
ATOM      3  C   UNL A   1      34.196  22.520  23.946  1.00  0.00     0.202 C 
BRANCH   3   4
ATOM      4  C   UNL A   1      32.813  22.892  23.377  1.00  0.00     0.261 C 
BRANCH   4   5
ATOM      5  O   UNL A   1      32.426  24.270  23.565  1.00  0.00    -0.463 OA
BRANCH   5   6
ATOM      6  C   UNL A   1      33.232  25.216  23.015  1.00  0.00     0.313 C 
ATOM      7  O   UNL A   1      33.652  25.166  21.862  1.00  0.00    -0.252 OA
BRANCH   6   8
ATOM      8  C   UNL A   1      33.519  26.426  23.939  1.00  0.00     0.126 C 
ATOM      9  C   UNL A   1      33.838  26.087  25.408  1.00  0.00     0.025 C 
BRANCH   8  10
ATOM     10  C   UNL A   1      32.534  27.600  23.791  1.00  0.00    -0.027 A 
ATOM     11  C   UNL A   1      32.418  28.637  24.805  1.00  0.00     0.023 A 
ATOM     12  C   UNL A   1      31.688  27.667  22.743  1.00  0.00     0.076 A 
ATOM     13  C   UNL A   1      31.476  29.586  24.727  1.00  0.00     0.095 A 
ATOM     14  C   UNL A   1      30.633  28.718  22.634  1.00  0.00     0.255 A 
ATOM     15  N   UNL A   1      30.587  29.629  23.672  1.00  0.00    -0.258 N 
ATOM     16  O   UNL A   1      29.884  28.693  21.665  1.00  0.00    -0.269 OA
BRANCH  15  17
ATOM     17  C   UNL A   1      29.489  30.563  23.678  1.00  0.00     0.451 C 
ATOM     18  F   UNL A   1      29.635  31.502  24.640  1.00  0.00    -0.185 F 
ATOM     19  F   UNL A   1      29.399  31.193  22.481  1.00  0.00    -0.185 F 
ENDBRANCH  15  17
ENDBRANCH   8  10
ENDBRANCH   6   8
ENDBRANCH   5   6
ENDBRANCH   4   5
ENDBRANCH   3   4
ENDBRANCH   2   3
ENDBRANCH   1   2
BRANCH   1  20
ATOM     20  C   UNL A   1      35.889  20.499  25.084  1.00  0.00     0.188 C 
BRANCH  20  21
ATOM     21  O   UNL A   1      37.255  20.675  24.804  1.00  0.00    -0.376 OA
BRANCH  21  22
ATOM     22  C   UNL A   1      38.114  19.553  24.852  1.00  0.00     0.202 C 
BRANCH  22  23
ATOM     23  C   UNL A   1      39.511  19.610  25.502  1.00  0.00     0.261 C 
BRANCH  23  24
ATOM     24  O   UNL A   1      39.638  20.263  26.775  1.00  0.00    -0.460 OA
BRANCH  24  25
ATOM     25  C   UNL A   1      40.885  20.427  27.270  1.00  0.00     0.338 C 
ATOM     26  O   UNL A   1      41.777  19.592  27.311  1.00  0.00    -0.246 OA
BRANCH  25  27
ATOM     27  C   UNL A   1      41.073  21.866  27.559  1.00  0.00     0.060 A 
ATOM     28  C   UNL A   1      40.291  22.813  26.878  1.00  0.00     0.016 A 
ATOM     29  C   UNL A   1      42.012  22.280  28.506  1.00  0.00     0.016 A 
ATOM     30  C   UNL A   1      40.466  24.177  27.125  1.00  0.00     0.010 A 
ATOM     31  C   UNL A   1      42.203  23.647  28.733  1.00  0.00     0.010 A 
ATOM     32  C   UNL A   1      41.452  24.603  28.024  1.00  0.00    -0.014 A 
BRANCH  32  33
ATOM     33  C   UNL A   1      41.833  26.037  28.092  1.00  0.00     0.031 A 
ATOM     34  C   UNL A   1      43.149  26.457  27.496  1.00  0.00     0.074 A 
ATOM     35  C   UNL A   1      41.041  26.949  28.684  1.00  0.00     0.049 A 
ATOM     36  N   UNL A   1      43.741  27.623  27.518  1.00  0.00    -0.248 NA
ATOM     37  C   UNL A   1      43.906  25.409  26.795  1.00  0.00     0.031 C 
ATOM     38  C   UNL A   1      39.739  26.673  29.284  1.00  0.00     0.029 A 
ATOM     39  N   UNL A   1      41.229  28.294  28.889  1.00  0.00    -0.354 N 
ATOM     40  C   UNL A   1      44.947  27.445  26.853  1.00  0.00     0.074 A 
ATOM     41  C   UNL A   1      45.014  26.054  26.463  1.00  0.00     0.031 C 
ATOM     42  C   UNL A   1      39.247  27.815  29.798  1.00  0.00     0.029 A 
ATOM     43  C   UNL A   1      40.214  28.894  29.591  1.00  0.00     0.049 A 
ATOM     44  H   UNL A   1      42.020  28.782  28.563  1.00  0.00     0.167 HD
ATOM     45  C   UNL A   1      45.912  28.359  26.590  1.00  0.00     0.037 A 
ATOM     46  C   UNL A   1      40.093  30.161  30.036  1.00  0.00     0.037 A 
ATOM     47  C   UNL A   1      45.841  29.744  26.977  1.00  0.00     0.049 A 
ATOM     48  C   UNL A   1      41.209  31.147  29.779  1.00  0.00     0.074 A 
ATOM     49  C   UNL A   1      46.756  30.754  26.735  1.00  0.00     0.029 A 
ATOM     50  N   UNL A   1      44.800  30.312  27.696  1.00  0.00    -0.354 N 
ATOM     51  N   UNL A   1      42.336  30.979  29.130  1.00  0.00    -0.248 NA
ATOM     52  C   UNL A   1      41.037  32.500  30.330  1.00  0.00     0.031 C 
ATOM     53  C   UNL A   1      46.301  31.916  27.366  1.00  0.00     0.029 A 
ATOM     54  C   UNL A   1      45.067  31.651  27.937  1.00  0.00     0.049 A 
ATOM     55  H   UNL A   1      43.991  29.836  27.991  1.00  0.00     0.167 HD
ATOM     56  C   UNL A   1      42.988  32.207  29.165  1.00  0.00     0.074 A 
ATOM     57  C   UNL A   1      42.125  33.116  29.889  1.00  0.00     0.031 C 
ATOM     58  C   UNL A   1      44.195  32.550  28.649  1.00  0.00     0.037 A 
BRANCH  45  59
ATOM     59  C   UNL A   1      47.148  27.881  25.884  1.00  0.00     0.064 A 
ATOM     60  C   UNL A   1      48.289  27.461  26.585  1.00  0.00     0.173 A 
ATOM     61  C   UNL A   1      47.179  27.815  24.483  1.00  0.00     0.173 A 
ATOM     62  F   UNL A   1      48.318  27.517  27.925  1.00  0.00    -0.203 F 
ATOM     63  C   UNL A   1      49.424  27.022  25.907  1.00  0.00     0.198 A 
ATOM     64  C   UNL A   1      48.302  27.343  23.811  1.00  0.00     0.198 A 
ATOM     65  F   UNL A   1      46.114  28.201  23.763  1.00  0.00    -0.203 F 
ATOM     66  F   UNL A   1      50.522  26.678  26.595  1.00  0.00    -0.200 F 
ATOM     67  C   UNL A   1      49.427  26.956  24.522  1.00  0.00     0.200 A 
ATOM     68  F   UNL A   1      48.297  27.264  22.472  1.00  0.00    -0.200 F 
ATOM     69  F   UNL A   1      50.517  26.525  23.872  1.00  0.00    -0.200 F 
ENDBRANCH  45  59
BRANCH  46  70
ATOM     70  C   UNL A   1      38.878  30.583  30.785  1.00  0.00     0.064 A 
ATOM     71  C   UNL A   1      37.751  31.074  30.111  1.00  0.00     0.173 A 
ATOM     72  C   UNL A   1      38.826  30.536  32.186  1.00  0.00     0.173 A 
ATOM     73  F   UNL A   1      37.758  31.162  28.772  1.00  0.00    -0.203 F 
ATOM     74  C   UNL A   1      36.630  31.523  30.808  1.00  0.00     0.198 A 
ATOM     75  C   UNL A   1      37.691  30.951  32.881  1.00  0.00     0.198 A 
ATOM     76  F   UNL A   1      39.875  30.074  32.882  1.00  0.00    -0.203 F 
ATOM     77  F   UNL A   1      35.589  32.039  30.139  1.00  0.00    -0.200 F 
ATOM     78  C   UNL A   1      36.599  31.455  32.192  1.00  0.00     0.200 A 
ATOM     79  F   UNL A   1      37.659  30.864  34.217  1.00  0.00    -0.200 F 
ATOM     80  F   UNL A   1      35.519  31.879  32.862  1.00  0.00    -0.200 F 
ENDBRANCH  46  70
BRANCH  58  81
ATOM     81  C   UNL A   1      44.638  33.979  28.802  1.00  0.00     0.064 A 
ATOM     82  C   UNL A   1      45.445  34.397  29.872  1.00  0.00     0.173 A 
ATOM     83  C   UNL A   1      44.288  34.936  27.836  1.00  0.00     0.173 A 
ATOM     84  F   UNL A   1      45.800  33.526  30.829  1.00  0.00    -0.203 F 
ATOM     85  C   UNL A   1      45.858  35.722  29.984  1.00  0.00     0.198 A 
ATOM     86  C   UNL A   1      44.733  36.253  27.932  1.00  0.00     0.198 A 
ATOM     87  F   UNL A   1      43.527  34.591  26.786  1.00  0.00    -0.203 F 
ATOM     88  F   UNL A   1      46.583  36.109  31.044  1.00  0.00    -0.200 F 
ATOM     89  C   UNL A   1      45.509  36.647  29.011  1.00  0.00     0.200 A 
ATOM     90  F   UNL A   1      44.410  37.139  26.980  1.00  0.00    -0.200 F 
ATOM     91  F   UNL A   1      45.916  37.919  29.116  1.00  0.00    -0.200 F 
ENDBRANCH  58  81
ENDBRANCH  32  33
ENDBRANCH  25  27
ENDBRANCH  24  25
ENDBRANCH  23  24
ENDBRANCH  22  23
ENDBRANCH  21  22
ENDBRANCH  20  21
ENDBRANCH   1  20
TORSDOF 19
ENDMDL
MODEL 3
REMARK VINA RESULT:     -10.2      5.287      9.225
REMARK SMILES C[C@@H](C(=O)OCCOCCOCCOC(=O)c1ccc(-c2c3nc(c(-c4c(F)c(F)c(F)c(F)c4F)c4ccc([nH]4)c(-c4c(F)c(F)c(F)c(F)c4F)c4nc(c(-c5c(F)c(F)c(F)c(F)c5F)c5ccc2[nH]5)C=C4)C=C3)cc1)c1ccn(C(F)F)c(=O)c1
REMARK SMILES IDX 9 1 8 2 7 3 6 4 5 5 3 6 4 7 2 8 1 9 80 10 81 11 89 12 82 13
REMARK SMILES IDX 87 14 83 15 88 16 84 17 85 18 86 19 10 20 11 21 12 22 13 23
REMARK SMILES IDX 14 24 15 25 16 26 17 27 18 28 79 29 19 30 78 31 20 32 21 33
REMARK SMILES IDX 22 34 72 35 23 36 77 37 71 38 73 39 24 40 76 41 70 42 69 43
REMARK SMILES IDX 25 45 57 46 37 47 56 48 38 49 41 50 55 51 74 52 39 53 40 54
REMARK SMILES IDX 54 56 75 57 42 58 26 59 27 60 35 61 28 62 29 63 33 64 36 65
REMARK SMILES IDX 30 66 31 67 34 68 32 69 58 70 59 71 67 72 60 73 61 74 65 75
REMARK SMILES IDX 68 76 62 77 63 78 66 79 64 80 43 81 44 82 52 83 45 84 46 85
REMARK SMILES IDX 50 86 53 87 47 88 48 89 51 90 49 91
REMARK H PARENT 73 44 41 55
REMARK Flexibility Score: inf
ROOT
ATOM      1  C   UNL A   1      32.987  28.699  25.266  1.00  0.00     0.188 C 
ENDROOT
BRANCH   1   2
ATOM      2  O   UNL A   1      33.627  29.415  24.217  1.00  0.00    -0.376 OA
BRANCH   2   3
ATOM      3  C   UNL A   1      34.169  28.689  23.117  1.00  0.00     0.202 C 
BRANCH   3   4
ATOM      4  C   UNL A   1      34.011  27.157  23.076  1.00  0.00     0.261 C 
BRANCH   4   5
ATOM      5  O   UNL A   1      33.880  26.594  21.752  1.00  0.00    -0.463 OA
BRANCH   5   6
ATOM      6  C   UNL A   1      32.800  25.802  21.523  1.00  0.00     0.313 C 
ATOM      7  O   UNL A   1      32.545  25.298  20.433  1.00  0.00    -0.252 OA
BRANCH   6   8
ATOM      8  C   UNL A   1      31.943  25.513  22.781  1.00  0.00     0.126 C 
ATOM      9  C   UNL A   1      31.593  24.032  23.027  1.00  0.00     0.025 C 
BRANCH   8  10
ATOM     10  C   UNL A   1      30.744  26.457  22.977  1.00  0.00    -0.027 A 
ATOM     11  C   UNL A   1      29.611  26.095  23.815  1.00  0.00     0.023 A 
ATOM     12  C   UNL A   1      30.669  27.629  22.314  1.00  0.00     0.076 A 
ATOM     13  C   UNL A   1      28.519  26.869  23.884  1.00  0.00     0.095 A 
ATOM     14  C   UNL A   1      29.464  28.509  22.379  1.00  0.00     0.255 A 
ATOM     15  N   UNL A   1      28.431  28.049  23.174  1.00  0.00    -0.258 N 
ATOM     16  O   UNL A   1      29.462  29.544  21.725  1.00  0.00    -0.269 OA
BRANCH  15  17
ATOM     17  C   UNL A   1      27.197  28.794  23.141  1.00  0.00     0.451 C 
ATOM     18  F   UNL A   1      26.232  28.197  23.879  1.00  0.00    -0.185 F 
ATOM     19  F   UNL A   1      27.387  30.046  23.625  1.00  0.00    -0.185 F 
ENDBRANCH  15  17
ENDBRANCH   8  10
ENDBRANCH   6   8
ENDBRANCH   5   6
ENDBRANCH   4   5
ENDBRANCH   3   4
ENDBRANCH   2   3
ENDBRANCH   1   2
BRANCH   1  20
ATOM     20  C   UNL A   1      32.001  29.430  26.192  1.00  0.00     0.188 C 
BRANCH  20  21
ATOM     21  O   UNL A   1      32.387  30.737  26.535  1.00  0.00    -0.376 OA
BRANCH  21  22
ATOM     22  C   UNL A   1      31.399  31.745  26.611  1.00  0.00     0.202 C 
BRANCH  22  23
ATOM     23  C   UNL A   1      31.748  33.225  26.870  1.00  0.00     0.261 C 
BRANCH  23  24
ATOM     24  O   UNL A   1      33.100  33.548  27.231  1.00  0.00    -0.460 OA
BRANCH  24  25
ATOM     25  C   UNL A   1      33.286  34.318  28.326  1.00  0.00     0.338 C 
ATOM     26  O   UNL A   1      32.566  35.224  28.721  1.00  0.00    -0.246 OA
BRANCH  25  27
ATOM     27  C   UNL A   1      34.404  33.738  29.104  1.00  0.00     0.060 A 
ATOM     28  C   UNL A   1      35.717  34.159  28.840  1.00  0.00     0.016 A 
ATOM     29  C   UNL A   1      34.156  32.788  30.095  1.00  0.00     0.016 A 
ATOM     30  C   UNL A   1      36.787  33.609  29.551  1.00  0.00     0.010 A 
ATOM     31  C   UNL A   1      35.230  32.221  30.789  1.00  0.00     0.010 A 
ATOM     32  C   UNL A   1      36.552  32.607  30.501  1.00  0.00    -0.014 A 
BRANCH  32  33
ATOM     33  C   UNL A   1      37.686  31.829  31.063  1.00  0.00     0.031 A 
ATOM     34  C   UNL A   1      38.130  32.125  32.470  1.00  0.00     0.074 A 
ATOM     35  C   UNL A   1      38.322  30.890  30.340  1.00  0.00     0.049 A 
ATOM     36  N   UNL A   1      39.148  31.652  33.141  1.00  0.00    -0.248 NA
ATOM     37  C   UNL A   1      37.321  33.104  33.212  1.00  0.00     0.031 C 
ATOM     38  C   UNL A   1      37.980  30.500  28.975  1.00  0.00     0.029 A 
ATOM     39  N   UNL A   1      39.404  30.105  30.655  1.00  0.00    -0.354 N 
ATOM     40  C   UNL A   1      39.114  32.289  34.374  1.00  0.00     0.074 A 
ATOM     41  C   UNL A   1      37.991  33.201  34.350  1.00  0.00     0.031 C 
ATOM     42  C   UNL A   1      38.843  29.552  28.566  1.00  0.00     0.029 A 
ATOM     43  C   UNL A   1      39.816  29.292  29.628  1.00  0.00     0.049 A 
ATOM     44  H   UNL A   1      39.845  30.124  31.535  1.00  0.00     0.167 HD
ATOM     45  C   UNL A   1      39.943  32.128  35.433  1.00  0.00     0.037 A 
ATOM     46  C   UNL A   1      40.871  28.456  29.548  1.00  0.00     0.037 A 
ATOM     47  C   UNL A   1      41.059  31.218  35.456  1.00  0.00     0.049 A 
ATOM     48  C   UNL A   1      41.813  28.337  30.723  1.00  0.00     0.074 A 
ATOM     49  C   UNL A   1      41.943  30.965  36.490  1.00  0.00     0.029 A 
ATOM     50  N   UNL A   1      41.449  30.418  34.392  1.00  0.00    -0.354 N 
ATOM     51  N   UNL A   1      41.762  28.924  31.894  1.00  0.00    -0.248 NA
ATOM     52  C   UNL A   1      42.970  27.443  30.555  1.00  0.00     0.031 C 
ATOM     53  C   UNL A   1      42.908  30.063  36.029  1.00  0.00     0.029 A 
ATOM     54  C   UNL A   1      42.582  29.697  34.734  1.00  0.00     0.049 A 
ATOM     55  H   UNL A   1      40.989  30.369  33.523  1.00  0.00     0.167 HD
ATOM     56  C   UNL A   1      42.855  28.447  32.611  1.00  0.00     0.074 A 
ATOM     57  C   UNL A   1      43.544  27.512  31.748  1.00  0.00     0.031 C 
ATOM     58  C   UNL A   1      43.254  28.759  33.870  1.00  0.00     0.037 A 
BRANCH  45  59
ATOM     59  C   UNL A   1      39.702  32.986  36.642  1.00  0.00     0.064 A 
ATOM     60  C   UNL A   1      40.379  34.198  36.841  1.00  0.00     0.173 A 
ATOM     61  C   UNL A   1      38.753  32.600  37.602  1.00  0.00     0.173 A 
ATOM     62  F   UNL A   1      41.306  34.607  35.961  1.00  0.00    -0.203 F 
ATOM     63  C   UNL A   1      40.138  34.976  37.971  1.00  0.00     0.198 A 
ATOM     64  C   UNL A   1      38.490  33.397  38.712  1.00  0.00     0.198 A 
ATOM     65  F   UNL A   1      38.075  31.451  37.460  1.00  0.00    -0.203 F 
ATOM     66  F   UNL A   1      40.837  36.102  38.168  1.00  0.00    -0.200 F 
ATOM     67  C   UNL A   1      39.188  34.579  38.901  1.00  0.00     0.200 A 
ATOM     68  F   UNL A   1      37.560  33.019  39.600  1.00  0.00    -0.200 F 
ATOM     69  F   UNL A   1      38.951  35.333  39.983  1.00  0.00    -0.200 F 
ENDBRANCH  45  59
BRANCH  46  70
ATOM     70  C   UNL A   1      41.112  27.667  28.309  1.00  0.00     0.064 A 
ATOM     71  C   UNL A   1      40.540  26.397  28.141  1.00  0.00     0.173 A 
ATOM     72  C   UNL A   1      41.941  28.144  27.285  1.00  0.00     0.173 A 
ATOM     73  F   UNL A   1      39.757  25.884  29.103  1.00  0.00    -0.203 F 
ATOM     74  C   UNL A   1      40.805  25.628  27.010  1.00  0.00     0.198 A 
ATOM     75  C   UNL A   1      42.178  27.390  26.136  1.00  0.00     0.198 A 
ATOM     76  F   UNL A   1      42.514  29.352  27.392  1.00  0.00    -0.203 F 
ATOM     77  F   UNL A   1      40.289  24.396  26.902  1.00  0.00    -0.200 F 
ATOM     78  C   UNL A   1      41.619  26.128  26.005  1.00  0.00     0.200 A 
ATOM     79  F   UNL A   1      42.949  27.887  25.160  1.00  0.00    -0.200 F 
ATOM     80  F   UNL A   1      41.869  25.393  24.914  1.00  0.00    -0.200 F 
ENDBRANCH  46  70
BRANCH  58  81
ATOM     81  C   UNL A   1      44.465  28.051  34.413  1.00  0.00     0.064 A 
ATOM     82  C   UNL A   1      44.370  26.814  35.069  1.00  0.00     0.173 A 
ATOM     83  C   UNL A   1      45.745  28.598  34.234  1.00  0.00     0.173 A 
ATOM     84  F   UNL A   1      43.170  26.251  35.277  1.00  0.00    -0.203 F 
ATOM     85  C   UNL A   1      45.506  26.168  35.550  1.00  0.00     0.198 A 
ATOM     86  C   UNL A   1      46.883  27.932  34.684  1.00  0.00     0.198 A 
ATOM     87  F   UNL A   1      45.897  29.774  33.605  1.00  0.00    -0.203 F 
ATOM     88  F   UNL A   1      45.386  25.013  36.220  1.00  0.00    -0.200 F 
ATOM     89  C   UNL A   1      46.762  26.722  35.349  1.00  0.00     0.200 A 
ATOM     90  F   UNL A   1      48.095  28.462  34.472  1.00  0.00    -0.200 F 
ATOM     91  F   UNL A   1      47.855  26.095  35.804  1.00  0.00    -0.200 F 
ENDBRANCH  58  81
ENDBRANCH  32  33
ENDBRANCH  25  27
ENDBRANCH  24  25
ENDBRANCH  23  24
ENDBRANCH  22  23
ENDBRANCH  21  22
ENDBRANCH  20  21
ENDBRANCH   1  20
TORSDOF 19
ENDMDL
