MODEL 1
REMARK VINA RESULT:     -12.4      0.000      0.000
REMARK SMILES Cc1ccc(C[C@H](C(=O)OCCOCCOCCOC(=O)c2ccc(-c3c4nc(c(-c5c(F)c(F)c(F)c(F)c5F)c5ccc([nH]5)c(-c5c(F)c(F)c(F)c(F)c5F)c5nc(c(-c6c(F)c(F)c(F)c(F)c6F)c6ccc3[nH]6)C=C5)C=C4)cc2)[C@@H]2CCCC[C@@H]2O)cc1
REMARK SMILES IDX 14 1 13 2 12 3 11 4 10 5 8 6 9 7 7 8 6 9 5 10 1 11 2 12 3 13
REMARK SMILES IDX 93 14 4 15 92 16 85 17 86 18 90 19 87 20 89 21 88 22 91 23
REMARK SMILES IDX 15 25 16 26 17 27 18 28 19 29 20 30 21 31 22 32 23 33 84 34
REMARK SMILES IDX 24 35 83 36 25 37 26 38 27 39 77 40 28 41 82 42 76 43 78 44
REMARK SMILES IDX 29 45 81 46 75 47 74 48 30 50 62 51 42 52 61 53 43 54 46 55
REMARK SMILES IDX 60 56 79 57 44 58 45 59 59 61 80 62 47 63 31 64 32 65 40 66
REMARK SMILES IDX 33 67 34 68 38 69 41 70 35 71 36 72 39 73 37 74 63 75 64 76
REMARK SMILES IDX 72 77 65 78 66 79 70 80 73 81 67 82 68 83 71 84 69 85 48 86
REMARK SMILES IDX 49 87 57 88 50 89 51 90 55 91 58 92 52 93 53 94 56 95 54 96
REMARK H PARENT 91 24 78 49 46 60
REMARK Flexibility Score: inf
ROOT
ATOM      1  C   UNL A   1      40.656  21.260  26.159  1.00  0.00     0.188 C 
ENDROOT
BRANCH   1   2
ATOM      2  O   UNL A   1      39.824  22.145  26.934  1.00  0.00    -0.376 OA
BRANCH   2   3
ATOM      3  C   UNL A   1      39.156  23.328  26.471  1.00  0.00     0.202 C 
BRANCH   3   4
ATOM      4  C   UNL A   1      37.491  23.567  26.189  1.00  0.00     0.261 C 
BRANCH   4   5
ATOM      5  O   UNL A   1      36.168  22.567  26.201  1.00  0.00    -0.463 OA
BRANCH   5   6
ATOM      6  C   UNL A   1      34.791  22.520  26.383  1.00  0.00     0.309 C 
ATOM      7  O   UNL A   1      34.189  21.650  26.998  1.00  0.00    -0.252 OA
BRANCH   6   8
ATOM      8  C   UNL A   1      33.836  23.643  25.943  1.00  0.00     0.109 C 
BRANCH   8   9
ATOM      9  C   UNL A   1      34.459  24.546  24.868  1.00  0.00     0.051 C 
BRANCH   9  10
ATOM     10  C   UNL A   1      33.994  25.989  24.892  1.00  0.00    -0.047 A 
ATOM     11  C   UNL A   1      31.487  29.495  25.044  1.00  0.00     0.044 C 
ATOM     12  C   UNL A   1      32.507  28.389  25.003  1.00  0.00    -0.051 A 
ATOM     13  C   UNL A   1      32.937  27.869  23.770  1.00  0.00     0.004 A 
ATOM     14  C   UNL A   1      32.886  27.735  26.182  1.00  0.00     0.004 A 
ATOM     15  C   UNL A   1      33.679  26.680  23.713  1.00  0.00     0.004 A 
ATOM     16  C   UNL A   1      33.632  26.555  26.126  1.00  0.00     0.004 A 
ENDBRANCH   9  10
ENDBRANCH   8   9
BRANCH   8  17
ATOM     17  C   UNL A   1      32.414  22.920  25.461  1.00  0.00     0.032 C 
ATOM     18  C   UNL A   1      32.239  22.528  23.981  1.00  0.00     0.007 C 
ATOM     19  C   UNL A   1      31.049  23.567  25.907  1.00  0.00     0.118 C 
ATOM     20  C   UNL A   1      31.790  23.673  23.085  1.00  0.00     0.001 C 
ATOM     21  C   UNL A   1      30.623  24.745  25.039  1.00  0.00     0.032 C 
ATOM     22  C   UNL A   1      30.511  24.341  23.581  1.00  0.00     0.003 C 
BRANCH  19  23
ATOM     23  O   UNL A   1      31.002  24.003  27.246  1.00  0.00    -0.393 OA
ATOM     24  H   UNL A   1      30.077  24.112  27.518  1.00  0.00     0.210 HD
ENDBRANCH  19  23
ENDBRANCH   8  17
ENDBRANCH   6   8
ENDBRANCH   5   6
ENDBRANCH   4   5
ENDBRANCH   3   4
ENDBRANCH   2   3
ENDBRANCH   1   2
BRANCH   1  25
ATOM     25  C   UNL A   1      40.959  19.778  26.429  1.00  0.00     0.188 C 
BRANCH  25  26
ATOM     26  O   UNL A   1      41.773  19.168  25.449  1.00  0.00    -0.376 OA
BRANCH  26  27
ATOM     27  C   UNL A   1      43.003  18.640  25.944  1.00  0.00     0.202 C 
BRANCH  27  28
ATOM     28  C   UNL A   1      44.222  18.826  25.011  1.00  0.00     0.261 C 
BRANCH  28  29
ATOM     29  O   UNL A   1      44.208  20.110  24.343  1.00  0.00    -0.460 OA
BRANCH  29  30
ATOM     30  C   UNL A   1      45.161  21.013  24.746  1.00  0.00     0.338 C 
ATOM     31  O   UNL A   1      46.356  20.765  24.819  1.00  0.00    -0.246 OA
BRANCH  30  32
ATOM     32  C   UNL A   1      44.520  22.290  25.185  1.00  0.00     0.060 A 
ATOM     33  C   UNL A   1      44.569  23.542  24.555  1.00  0.00     0.016 A 
ATOM     34  C   UNL A   1      43.977  22.284  26.421  1.00  0.00     0.016 A 
ATOM     35  C   UNL A   1      44.248  24.781  25.268  1.00  0.00     0.010 A 
ATOM     36  C   UNL A   1      43.848  23.505  27.078  1.00  0.00     0.010 A 
ATOM     37  C   UNL A   1      43.948  24.845  26.627  1.00  0.00    -0.014 A 
BRANCH  37  38
ATOM     38  C   UNL A   1      43.799  26.203  27.592  1.00  0.00     0.031 A 
ATOM     39  C   UNL A   1      42.754  27.468  27.588  1.00  0.00     0.074 A 
ATOM     40  C   UNL A   1      44.511  26.241  28.736  1.00  0.00     0.049 A 
ATOM     41  N   UNL A   1      41.916  27.769  28.562  1.00  0.00    -0.248 NA
ATOM     42  C   UNL A   1      42.599  28.500  26.518  1.00  0.00     0.031 C 
ATOM     43  C   UNL A   1      44.270  27.048  29.937  1.00  0.00     0.029 A 
ATOM     44  N   UNL A   1      45.778  25.703  28.965  1.00  0.00    -0.354 N 
ATOM     45  C   UNL A   1      40.985  28.716  28.130  1.00  0.00     0.074 A 
ATOM     46  C   UNL A   1      41.435  29.100  26.806  1.00  0.00     0.031 C 
ATOM     47  C   UNL A   1      45.447  27.282  30.533  1.00  0.00     0.029 A 
ATOM     48  C   UNL A   1      46.457  26.753  29.640  1.00  0.00     0.049 A 
ATOM     49  H   UNL A   1      46.118  24.812  28.720  1.00  0.00     0.167 HD
ATOM     50  C   UNL A   1      40.421  29.640  28.964  1.00  0.00     0.037 A 
ATOM     51  C   UNL A   1      47.345  27.491  28.911  1.00  0.00     0.037 A 
ATOM     52  C   UNL A   1      41.419  30.228  29.812  1.00  0.00     0.049 A 
ATOM     53  C   UNL A   1      46.909  28.938  28.695  1.00  0.00     0.074 A 
ATOM     54  C   UNL A   1      42.014  29.915  31.014  1.00  0.00     0.029 A 
ATOM     55  N   UNL A   1      42.240  31.144  29.200  1.00  0.00    -0.354 N 
ATOM     56  N   UNL A   1      45.831  29.493  29.192  1.00  0.00    -0.248 NA
ATOM     57  C   UNL A   1      47.642  29.858  27.826  1.00  0.00     0.031 C 
ATOM     58  C   UNL A   1      43.356  30.418  30.935  1.00  0.00     0.029 A 
ATOM     59  C   UNL A   1      43.515  31.071  29.720  1.00  0.00     0.049 A 
ATOM     60  H   UNL A   1      41.959  31.765  28.489  1.00  0.00     0.167 HD
ATOM     61  C   UNL A   1      45.685  30.754  28.677  1.00  0.00     0.074 A 
ATOM     62  C   UNL A   1      46.851  30.941  27.834  1.00  0.00     0.031 C 
ATOM     63  C   UNL A   1      44.619  31.574  28.915  1.00  0.00     0.037 A 
BRANCH  50  64
ATOM     64  C   UNL A   1      38.960  30.018  28.913  1.00  0.00     0.064 A 
ATOM     65  C   UNL A   1      38.007  29.138  28.356  1.00  0.00     0.173 A 
ATOM     66  C   UNL A   1      38.456  31.276  29.298  1.00  0.00     0.173 A 
ATOM     67  F   UNL A   1      38.359  27.902  27.972  1.00  0.00    -0.203 F 
ATOM     68  C   UNL A   1      36.672  29.510  28.145  1.00  0.00     0.198 A 
ATOM     69  C   UNL A   1      37.122  31.652  29.081  1.00  0.00     0.198 A 
ATOM     70  F   UNL A   1      39.246  32.175  29.900  1.00  0.00    -0.203 F 
ATOM     71  F   UNL A   1      35.816  28.646  27.581  1.00  0.00    -0.200 F 
ATOM     72  C   UNL A   1      36.233  30.775  28.492  1.00  0.00     0.200 A 
ATOM     73  F   UNL A   1      36.706  32.878  29.435  1.00  0.00    -0.200 F 
ATOM     74  F   UNL A   1      34.966  31.144  28.257  1.00  0.00    -0.200 F 
ENDBRANCH  50  64
BRANCH  51  75
ATOM     75  C   UNL A   1      48.097  26.605  27.954  1.00  0.00     0.064 A 
ATOM     76  C   UNL A   1      47.743  26.689  26.580  1.00  0.00     0.173 A 
ATOM     77  C   UNL A   1      49.343  26.039  28.244  1.00  0.00     0.173 A 
ATOM     78  F   UNL A   1      46.559  27.216  26.224  1.00  0.00    -0.203 F 
ATOM     79  C   UNL A   1      48.659  26.415  25.568  1.00  0.00     0.198 A 
ATOM     80  C   UNL A   1      50.224  25.671  27.218  1.00  0.00     0.198 A 
ATOM     81  F   UNL A   1      49.790  25.971  29.507  1.00  0.00    -0.203 F 
ATOM     82  F   UNL A   1      48.363  26.721  24.295  1.00  0.00    -0.200 F 
ATOM     83  C   UNL A   1      49.908  25.924  25.889  1.00  0.00     0.200 A 
ATOM     84  F   UNL A   1      51.461  25.248  27.527  1.00  0.00    -0.200 F 
ATOM     85  F   UNL A   1      50.836  25.771  24.933  1.00  0.00    -0.200 F 
ENDBRANCH  51  75
BRANCH  63  86
ATOM     86  C   UNL A   1      44.580  32.955  28.330  1.00  0.00     0.064 A 
ATOM     87  C   UNL A   1      44.190  33.145  26.996  1.00  0.00     0.173 A 
ATOM     88  C   UNL A   1      45.019  34.099  29.025  1.00  0.00     0.173 A 
ATOM     89  F   UNL A   1      43.760  32.107  26.263  1.00  0.00    -0.203 F 
ATOM     90  C   UNL A   1      44.229  34.404  26.398  1.00  0.00     0.198 A 
ATOM     91  C   UNL A   1      45.118  35.343  28.407  1.00  0.00     0.198 A 
ATOM     92  F   UNL A   1      45.356  34.035  30.323  1.00  0.00    -0.203 F 
ATOM     93  F   UNL A   1      43.796  34.552  25.139  1.00  0.00    -0.200 F 
ATOM     94  C   UNL A   1      44.714  35.497  27.095  1.00  0.00     0.200 A 
ATOM     95  F   UNL A   1      45.608  36.387  29.090  1.00  0.00    -0.200 F 
ATOM     96  F   UNL A   1      44.785  36.698  26.506  1.00  0.00    -0.200 F 
ENDBRANCH  63  86
ENDBRANCH  37  38
ENDBRANCH  30  32
ENDBRANCH  29  30
ENDBRANCH  28  29
ENDBRANCH  27  28
ENDBRANCH  26  27
ENDBRANCH  25  26
ENDBRANCH   1  25
TORSDOF 21
ENDMDL
MODEL 2
REMARK VINA RESULT:     -12.1      3.840     10.496
REMARK SMILES Cc1ccc(C[C@H](C(=O)OCCOCCOCCOC(=O)c2ccc(-c3c4nc(c(-c5c(F)c(F)c(F)c(F)c5F)c5ccc([nH]5)c(-c5c(F)c(F)c(F)c(F)c5F)c5nc(c(-c6c(F)c(F)c(F)c(F)c6F)c6ccc3[nH]6)C=C5)C=C4)cc2)[C@@H]2CCCC[C@@H]2O)cc1
REMARK SMILES IDX 14 1 13 2 12 3 11 4 10 5 8 6 9 7 7 8 6 9 5 10 1 11 2 12 3 13
REMARK SMILES IDX 93 14 4 15 92 16 85 17 86 18 90 19 87 20 89 21 88 22 91 23
REMARK SMILES IDX 15 25 16 26 17 27 18 28 19 29 20 30 21 31 22 32 23 33 84 34
REMARK SMILES IDX 24 35 83 36 25 37 26 38 27 39 77 40 28 41 82 42 76 43 78 44
REMARK SMILES IDX 29 45 81 46 75 47 74 48 30 50 62 51 42 52 61 53 43 54 46 55
REMARK SMILES IDX 60 56 79 57 44 58 45 59 59 61 80 62 47 63 31 64 32 65 40 66
REMARK SMILES IDX 33 67 34 68 38 69 41 70 35 71 36 72 39 73 37 74 63 75 64 76
REMARK SMILES IDX 72 77 65 78 66 79 70 80 73 81 67 82 68 83 71 84 69 85 48 86
REMARK SMILES IDX 49 87 57 88 50 89 51 90 55 91 58 92 52 93 53 94 56 95 54 96
REMARK H PARENT 91 24 78 49 46 60
REMARK Flexibility Score: inf
ROOT
ATOM      1  C   UNL A   1      30.610  28.610  22.899  1.00  0.00     0.188 C 
ENDROOT
BRANCH   1   2
ATOM      2  O   UNL A   1      30.690  27.490  21.997  1.00  0.00    -0.376 OA
BRANCH   2   3
ATOM      3  C   UNL A   1      31.780  26.565  21.863  1.00  0.00     0.202 C 
BRANCH   3   4
ATOM      4  C   UNL A   1      31.845  24.925  22.326  1.00  0.00     0.261 C 
BRANCH   4   5
ATOM      5  O   UNL A   1      31.400  24.097  23.692  1.00  0.00    -0.463 OA
BRANCH   5   6
ATOM      6  C   UNL A   1      31.850  23.607  24.912  1.00  0.00     0.309 C 
ATOM      7  O   UNL A   1      31.430  23.949  26.010  1.00  0.00    -0.252 OA
BRANCH   6   8
ATOM      8  C   UNL A   1      32.860  22.454  25.045  1.00  0.00     0.109 C 
BRANCH   8   9
ATOM      9  C   UNL A   1      32.877  21.552  23.802  1.00  0.00     0.051 C 
BRANCH   9  10
ATOM     10  C   UNL A   1      32.598  20.086  24.068  1.00  0.00    -0.047 A 
ATOM     11  C   UNL A   1      33.132  15.879  24.856  1.00  0.00     0.044 C 
ATOM     12  C   UNL A   1      32.762  17.317  24.606  1.00  0.00    -0.051 A 
ATOM     13  C   UNL A   1      32.578  17.782  23.293  1.00  0.00     0.004 A 
ATOM     14  C   UNL A   1      32.795  18.245  25.654  1.00  0.00     0.004 A 
ATOM     15  C   UNL A   1      32.492  19.155  23.024  1.00  0.00     0.004 A 
ATOM     16  C   UNL A   1      32.701  19.614  25.388  1.00  0.00     0.004 A 
ENDBRANCH   9  10
ENDBRANCH   8   9
BRANCH   8  17
ATOM     17  C   UNL A   1      34.341  23.134  25.393  1.00  0.00     0.032 C 
ATOM     18  C   UNL A   1      35.099  23.884  24.282  1.00  0.00     0.007 C 
ATOM     19  C   UNL A   1      35.416  22.258  26.142  1.00  0.00     0.118 C 
ATOM     20  C   UNL A   1      35.897  22.978  23.354  1.00  0.00     0.001 C 
ATOM     21  C   UNL A   1      36.181  21.316  25.221  1.00  0.00     0.032 C 
ATOM     22  C   UNL A   1      36.872  22.078  24.106  1.00  0.00     0.003 C 
BRANCH  19  23
ATOM     23  O   UNL A   1      34.919  21.481  27.207  1.00  0.00    -0.393 OA
ATOM     24  H   UNL A   1      33.978  21.675  27.337  1.00  0.00     0.210 HD
ENDBRANCH  19  23
ENDBRANCH   8  17
ENDBRANCH   6   8
ENDBRANCH   5   6
ENDBRANCH   4   5
ENDBRANCH   3   4
ENDBRANCH   2   3
ENDBRANCH   1   2
BRANCH   1  25
ATOM     25  C   UNL A   1      31.530  28.927  24.089  1.00  0.00     0.188 C 
BRANCH  25  26
ATOM     26  O   UNL A   1      31.434  28.003  25.154  1.00  0.00    -0.376 OA
BRANCH  26  27
ATOM     27  C   UNL A   1      31.850  28.513  26.420  1.00  0.00     0.202 C 
BRANCH  27  28
ATOM     28  C   UNL A   1      32.247  30.007  26.430  1.00  0.00     0.261 C 
BRANCH  28  29
ATOM     29  O   UNL A   1      32.877  30.396  27.674  1.00  0.00    -0.460 OA
BRANCH  29  30
ATOM     30  C   UNL A   1      33.572  31.580  27.657  1.00  0.00     0.338 C 
ATOM     31  O   UNL A   1      33.057  32.678  27.501  1.00  0.00    -0.246 OA
BRANCH  30  32
ATOM     32  C   UNL A   1      35.042  31.325  27.741  1.00  0.00     0.060 A 
ATOM     33  C   UNL A   1      35.710  30.094  27.683  1.00  0.00     0.016 A 
ATOM     34  C   UNL A   1      35.806  32.383  28.090  1.00  0.00     0.016 A 
ATOM     35  C   UNL A   1      37.084  29.934  28.168  1.00  0.00     0.010 A 
ATOM     36  C   UNL A   1      37.041  32.125  28.681  1.00  0.00     0.010 A 
ATOM     37  C   UNL A   1      37.815  30.943  28.792  1.00  0.00    -0.014 A 
BRANCH  37  38
ATOM     38  C   UNL A   1      39.279  30.819  29.589  1.00  0.00     0.031 A 
ATOM     39  C   UNL A   1      40.425  29.645  29.648  1.00  0.00     0.074 A 
ATOM     40  C   UNL A   1      39.783  31.935  30.154  1.00  0.00     0.049 A 
ATOM     41  N   UNL A   1      41.669  29.772  29.228  1.00  0.00    -0.248 NA
ATOM     42  C   UNL A   1      40.271  28.268  30.210  1.00  0.00     0.031 C 
ATOM     43  C   UNL A   1      41.173  32.229  30.520  1.00  0.00     0.029 A 
ATOM     44  N   UNL A   1      39.073  32.980  30.747  1.00  0.00    -0.354 N 
ATOM     45  C   UNL A   1      42.290  28.522  29.158  1.00  0.00     0.074 A 
ATOM     46  C   UNL A   1      41.334  27.601  29.740  1.00  0.00     0.031 C 
ATOM     47  C   UNL A   1      41.168  33.074  31.560  1.00  0.00     0.029 A 
ATOM     48  C   UNL A   1      39.782  33.208  31.957  1.00  0.00     0.049 A 
ATOM     49  H   UNL A   1      38.275  33.446  30.408  1.00  0.00     0.167 HD
ATOM     50  C   UNL A   1      43.631  28.345  29.356  1.00  0.00     0.037 A 
ATOM     51  C   UNL A   1      39.229  32.718  33.105  1.00  0.00     0.037 A 
ATOM     52  C   UNL A   1      44.074  29.092  30.498  1.00  0.00     0.049 A 
ATOM     53  C   UNL A   1      40.032  31.585  33.738  1.00  0.00     0.074 A 
ATOM     54  C   UNL A   1      44.490  30.382  30.744  1.00  0.00     0.029 A 
ATOM     55  N   UNL A   1      43.728  28.558  31.717  1.00  0.00    -0.354 N 
ATOM     56  N   UNL A   1      41.181  31.128  33.305  1.00  0.00    -0.248 NA
ATOM     57  C   UNL A   1      39.547  30.827  34.891  1.00  0.00     0.031 C 
ATOM     58  C   UNL A   1      44.066  30.687  32.081  1.00  0.00     0.029 A 
ATOM     59  C   UNL A   1      43.464  29.561  32.625  1.00  0.00     0.049 A 
ATOM     60  H   UNL A   1      43.676  27.594  31.913  1.00  0.00     0.167 HD
ATOM     61  C   UNL A   1      41.537  30.021  34.029  1.00  0.00     0.074 A 
ATOM     62  C   UNL A   1      40.486  29.878  35.019  1.00  0.00     0.031 C 
ATOM     63  C   UNL A   1      42.633  29.246  33.779  1.00  0.00     0.037 A 
BRANCH  50  64
ATOM     64  C   UNL A   1      44.476  27.418  28.514  1.00  0.00     0.064 A 
ATOM     65  C   UNL A   1      44.343  27.400  27.109  1.00  0.00     0.173 A 
ATOM     66  C   UNL A   1      45.354  26.452  29.043  1.00  0.00     0.173 A 
ATOM     67  F   UNL A   1      43.554  28.286  26.484  1.00  0.00    -0.203 F 
ATOM     68  C   UNL A   1      44.989  26.450  26.305  1.00  0.00     0.198 A 
ATOM     69  C   UNL A   1      45.996  25.497  28.240  1.00  0.00     0.198 A 
ATOM     70  F   UNL A   1      45.616  26.411  30.356  1.00  0.00    -0.203 F 
ATOM     71  F   UNL A   1      44.802  26.457  24.977  1.00  0.00    -0.200 F 
ATOM     72  C   UNL A   1      45.803  25.487  26.873  1.00  0.00     0.200 A 
ATOM     73  F   UNL A   1      46.793  24.577  28.803  1.00  0.00    -0.200 F 
ATOM     74  F   UNL A   1      46.392  24.557  26.109  1.00  0.00    -0.200 F 
ENDBRANCH  50  64
BRANCH  51  75
ATOM     75  C   UNL A   1      37.732  32.878  33.072  1.00  0.00     0.064 A 
ATOM     76  C   UNL A   1      37.216  34.182  33.300  1.00  0.00     0.173 A 
ATOM     77  C   UNL A   1      36.873  31.966  32.450  1.00  0.00     0.173 A 
ATOM     78  F   UNL A   1      37.982  35.112  33.898  1.00  0.00    -0.203 F 
ATOM     79  C   UNL A   1      36.002  34.597  32.757  1.00  0.00     0.198 A 
ATOM     80  C   UNL A   1      35.609  32.364  31.994  1.00  0.00     0.198 A 
ATOM     81  F   UNL A   1      37.290  30.730  32.141  1.00  0.00    -0.203 F 
ATOM     82  F   UNL A   1      35.657  35.893  32.801  1.00  0.00    -0.200 F 
ATOM     83  C   UNL A   1      35.207  33.691  32.086  1.00  0.00     0.200 A 
ATOM     84  F   UNL A   1      34.858  31.501  31.290  1.00  0.00    -0.200 F 
ATOM     85  F   UNL A   1      34.097  34.106  31.458  1.00  0.00    -0.200 F 
ENDBRANCH  51  75
BRANCH  63  86
ATOM     86  C   UNL A   1      42.952  28.076  34.663  1.00  0.00     0.064 A 
ATOM     87  C   UNL A   1      44.108  28.087  35.457  1.00  0.00     0.173 A 
ATOM     88  C   UNL A   1      42.195  26.889  34.673  1.00  0.00     0.173 A 
ATOM     89  F   UNL A   1      44.886  29.179  35.503  1.00  0.00    -0.203 F 
ATOM     90  C   UNL A   1      44.478  26.981  36.220  1.00  0.00     0.198 A 
ATOM     91  C   UNL A   1      42.599  25.764  35.386  1.00  0.00     0.198 A 
ATOM     92  F   UNL A   1      41.039  26.798  33.995  1.00  0.00    -0.203 F 
ATOM     93  F   UNL A   1      45.559  27.052  37.008  1.00  0.00    -0.200 F 
ATOM     94  C   UNL A   1      43.738  25.813  36.168  1.00  0.00     0.200 A 
ATOM     95  F   UNL A   1      41.882  24.634  35.308  1.00  0.00    -0.200 F 
ATOM     96  F   UNL A   1      44.115  24.739  36.874  1.00  0.00    -0.200 F 
ENDBRANCH  63  86
ENDBRANCH  37  38
ENDBRANCH  30  32
ENDBRANCH  29  30
ENDBRANCH  28  29
ENDBRANCH  27  28
ENDBRANCH  26  27
ENDBRANCH  25  26
ENDBRANCH   1  25
TORSDOF 21
ENDMDL
MODEL 3
REMARK VINA RESULT:     -12.0      1.949      3.448
REMARK SMILES Cc1ccc(C[C@H](C(=O)OCCOCCOCCOC(=O)c2ccc(-c3c4nc(c(-c5c(F)c(F)c(F)c(F)c5F)c5ccc([nH]5)c(-c5c(F)c(F)c(F)c(F)c5F)c5nc(c(-c6c(F)c(F)c(F)c(F)c6F)c6ccc3[nH]6)C=C5)C=C4)cc2)[C@@H]2CCCC[C@@H]2O)cc1
REMARK SMILES IDX 14 1 13 2 12 3 11 4 10 5 8 6 9 7 7 8 6 9 5 10 1 11 2 12 3 13
REMARK SMILES IDX 93 14 4 15 92 16 85 17 86 18 90 19 87 20 89 21 88 22 91 23
REMARK SMILES IDX 15 25 16 26 17 27 18 28 19 29 20 30 21 31 22 32 23 33 84 34
REMARK SMILES IDX 24 35 83 36 25 37 26 38 27 39 77 40 28 41 82 42 76 43 78 44
REMARK SMILES IDX 29 45 81 46 75 47 74 48 30 50 62 51 42 52 61 53 43 54 46 55
REMARK SMILES IDX 60 56 79 57 44 58 45 59 59 61 80 62 47 63 31 64 32 65 40 66
REMARK SMILES IDX 33 67 34 68 38 69 41 70 35 71 36 72 39 73 37 74 63 75 64 76
REMARK SMILES IDX 72 77 65 78 66 79 70 80 73 81 67 82 68 83 71 84 69 85 48 86
REMARK SMILES IDX 49 87 57 88 50 89 51 90 55 91 58 92 52 93 53 94 56 95 54 96
REMARK H PARENT 91 24 78 49 46 60
REMARK Flexibility Score: inf
ROOT
ATOM      1  C   UNL A   1      41.065  20.865  26.487  1.00  0.00     0.188 C 
ENDROOT
BRANCH   1   2
ATOM      2  O   UNL A   1      40.047  21.578  27.215  1.00  0.00    -0.376 OA
BRANCH   2   3
ATOM      3  C   UNL A   1      39.525  22.882  26.916  1.00  0.00     0.202 C 
BRANCH   3   4
ATOM      4  C   UNL A   1      38.349  23.316  25.760  1.00  0.00     0.261 C 
BRANCH   4   5
ATOM      5  O   UNL A   1      37.194  22.472  24.921  1.00  0.00    -0.463 OA
BRANCH   5   6
ATOM      6  C   UNL A   1      36.265  22.550  23.891  1.00  0.00     0.309 C 
ATOM      7  O   UNL A   1      36.487  22.989  22.770  1.00  0.00    -0.252 OA
BRANCH   6   8
ATOM      8  C   UNL A   1      34.845  21.962  23.980  1.00  0.00     0.109 C 
BRANCH   8   9
ATOM      9  C   UNL A   1      34.672  21.048  25.202  1.00  0.00     0.051 C 
BRANCH   9  10
ATOM     10  C   UNL A   1      34.181  19.648  24.892  1.00  0.00    -0.047 A 
ATOM     11  C   UNL A   1      33.084  15.495  25.293  1.00  0.00     0.044 C 
ATOM     12  C   UNL A   1      33.393  16.935  24.980  1.00  0.00    -0.051 A 
ATOM     13  C   UNL A   1      34.661  17.297  24.496  1.00  0.00     0.004 A 
ATOM     14  C   UNL A   1      32.499  17.945  25.356  1.00  0.00     0.004 A 
ATOM     15  C   UNL A   1      35.052  18.643  24.446  1.00  0.00     0.004 A 
ATOM     16  C   UNL A   1      32.885  19.287  25.300  1.00  0.00     0.004 A 
ENDBRANCH   9  10
ENDBRANCH   8   9
BRANCH   8  17
ATOM     17  C   UNL A   1      33.779  23.243  23.951  1.00  0.00     0.032 C 
ATOM     18  C   UNL A   1      33.922  24.358  25.004  1.00  0.00     0.007 C 
ATOM     19  C   UNL A   1      32.238  22.939  23.841  1.00  0.00     0.118 C 
ATOM     20  C   UNL A   1      33.271  24.035  26.342  1.00  0.00     0.001 C 
ATOM     21  C   UNL A   1      31.595  22.569  25.172  1.00  0.00     0.032 C 
ATOM     22  C   UNL A   1      31.798  23.662  26.204  1.00  0.00     0.003 C 
BRANCH  19  23
ATOM     23  O   UNL A   1      31.889  21.931  22.920  1.00  0.00    -0.393 OA
ATOM     24  H   UNL A   1      31.260  21.319  23.333  1.00  0.00     0.210 HD
ENDBRANCH  19  23
ENDBRANCH   8  17
ENDBRANCH   6   8
ENDBRANCH   5   6
ENDBRANCH   4   5
ENDBRANCH   3   4
ENDBRANCH   2   3
ENDBRANCH   1   2
BRANCH   1  25
ATOM     25  C   UNL A   1      41.256  19.343  26.384  1.00  0.00     0.188 C 
BRANCH  25  26
ATOM     26  O   UNL A   1      42.154  18.942  25.370  1.00  0.00    -0.376 OA
BRANCH  26  27
ATOM     27  C   UNL A   1      43.385  18.403  25.848  1.00  0.00     0.202 C 
BRANCH  27  28
ATOM     28  C   UNL A   1      44.638  18.791  25.028  1.00  0.00     0.261 C 
BRANCH  28  29
ATOM     29  O   UNL A   1      44.557  20.142  24.516  1.00  0.00    -0.460 OA
BRANCH  29  30
ATOM     30  C   UNL A   1      45.720  20.873  24.548  1.00  0.00     0.338 C 
ATOM     31  O   UNL A   1      46.838  20.388  24.459  1.00  0.00    -0.246 OA
BRANCH  30  32
ATOM     32  C   UNL A   1      45.426  22.313  24.818  1.00  0.00     0.060 A 
ATOM     33  C   UNL A   1      46.265  23.418  24.614  1.00  0.00     0.016 A 
ATOM     34  C   UNL A   1      44.289  22.566  25.501  1.00  0.00     0.016 A 
ATOM     35  C   UNL A   1      46.025  24.705  25.274  1.00  0.00     0.010 A 
ATOM     36  C   UNL A   1      44.216  23.757  26.219  1.00  0.00     0.010 A 
ATOM     37  C   UNL A   1      45.014  24.929  26.206  1.00  0.00    -0.014 A 
BRANCH  37  38
ATOM     38  C   UNL A   1      44.789  26.262  27.189  1.00  0.00     0.031 A 
ATOM     39  C   UNL A   1      43.587  27.373  27.309  1.00  0.00     0.074 A 
ATOM     40  C   UNL A   1      45.611  26.407  28.248  1.00  0.00     0.049 A 
ATOM     41  N   UNL A   1      42.829  27.566  28.371  1.00  0.00    -0.248 NA
ATOM     42  C   UNL A   1      43.176  28.365  26.268  1.00  0.00     0.031 C 
ATOM     43  C   UNL A   1      45.396  27.185  29.473  1.00  0.00     0.029 A 
ATOM     44  N   UNL A   1      46.957  26.049  28.333  1.00  0.00    -0.354 N 
ATOM     45  C   UNL A   1      41.735  28.373  28.050  1.00  0.00     0.074 A 
ATOM     46  C   UNL A   1      41.980  28.803  26.687  1.00  0.00     0.031 C 
ATOM     47  C   UNL A   1      46.589  27.583  29.937  1.00  0.00     0.029 A 
ATOM     48  C   UNL A   1      47.557  27.188  28.935  1.00  0.00     0.049 A 
ATOM     49  H   UNL A   1      47.386  25.211  28.046  1.00  0.00     0.167 HD
ATOM     50  C   UNL A   1      41.146  29.220  28.946  1.00  0.00     0.037 A 
ATOM     51  C   UNL A   1      48.250  28.033  28.116  1.00  0.00     0.037 A 
ATOM     52  C   UNL A   1      42.141  29.946  29.682  1.00  0.00     0.049 A 
ATOM     53  C   UNL A   1      47.599  29.405  27.959  1.00  0.00     0.074 A 
ATOM     54  C   UNL A   1      42.902  29.728  30.810  1.00  0.00     0.029 A 
ATOM     55  N   UNL A   1      42.758  30.960  28.989  1.00  0.00    -0.354 N 
ATOM     56  N   UNL A   1      46.517  29.813  28.574  1.00  0.00    -0.248 NA
ATOM     57  C   UNL A   1      48.100  30.408  27.019  1.00  0.00     0.031 C 
ATOM     58  C   UNL A   1      44.147  30.408  30.585  1.00  0.00     0.029 A 
ATOM     59  C   UNL A   1      44.080  31.065  29.365  1.00  0.00     0.049 A 
ATOM     60  H   UNL A   1      42.318  31.529  28.317  1.00  0.00     0.167 HD
ATOM     61  C   UNL A   1      46.145  31.038  28.086  1.00  0.00     0.074 A 
ATOM     62  C   UNL A   1      47.174  31.374  27.120  1.00  0.00     0.031 C 
ATOM     63  C   UNL A   1      45.009  31.707  28.445  1.00  0.00     0.037 A 
BRANCH  50  64
ATOM     64  C   UNL A   1      39.650  29.395  29.059  1.00  0.00     0.064 A 
ATOM     65  C   UNL A   1      39.004  29.278  30.309  1.00  0.00     0.173 A 
ATOM     66  C   UNL A   1      38.791  29.571  27.957  1.00  0.00     0.173 A 
ATOM     67  F   UNL A   1      39.715  29.130  31.437  1.00  0.00    -0.203 F 
ATOM     68  C   UNL A   1      37.607  29.276  30.436  1.00  0.00     0.198 A 
ATOM     69  C   UNL A   1      37.393  29.563  28.082  1.00  0.00     0.198 A 
ATOM     70  F   UNL A   1      39.285  29.761  26.727  1.00  0.00    -0.203 F 
ATOM     71  F   UNL A   1      37.044  29.128  31.644  1.00  0.00    -0.200 F 
ATOM     72  C   UNL A   1      36.801  29.401  29.319  1.00  0.00     0.200 A 
ATOM     73  F   UNL A   1      36.623  29.698  26.992  1.00  0.00    -0.200 F 
ATOM     74  F   UNL A   1      35.466  29.362  29.436  1.00  0.00    -0.200 F 
ENDBRANCH  50  64
BRANCH  51  75
ATOM     75  C   UNL A   1      49.006  27.249  27.077  1.00  0.00     0.064 A 
ATOM     76  C   UNL A   1      48.523  27.312  25.742  1.00  0.00     0.173 A 
ATOM     77  C   UNL A   1      50.327  26.820  27.244  1.00  0.00     0.173 A 
ATOM     78  F   UNL A   1      47.262  27.710  25.502  1.00  0.00    -0.203 F 
ATOM     79  C   UNL A   1      49.370  27.155  24.647  1.00  0.00     0.198 A 
ATOM     80  C   UNL A   1      51.147  26.566  26.137  1.00  0.00     0.198 A 
ATOM     81  F   UNL A   1      50.889  26.785  28.461  1.00  0.00    -0.203 F 
ATOM     82  F   UNL A   1      48.930  27.444  23.413  1.00  0.00    -0.200 F 
ATOM     83  C   UNL A   1      50.689  26.800  24.846  1.00  0.00     0.200 A 
ATOM     84  F   UNL A   1      52.445  26.278  26.327  1.00  0.00    -0.200 F 
ATOM     85  F   UNL A   1      51.539  26.765  23.810  1.00  0.00    -0.200 F 
ENDBRANCH  51  75
BRANCH  63  86
ATOM     86  C   UNL A   1      44.719  33.065  27.876  1.00  0.00     0.064 A 
ATOM     87  C   UNL A   1      44.968  34.216  28.637  1.00  0.00     0.173 A 
ATOM     88  C   UNL A   1      44.100  33.259  26.626  1.00  0.00     0.173 A 
ATOM     89  F   UNL A   1      45.554  34.118  29.840  1.00  0.00    -0.203 F 
ATOM     90  C   UNL A   1      44.627  35.485  28.171  1.00  0.00     0.198 A 
ATOM     91  C   UNL A   1      43.702  34.521  26.191  1.00  0.00     0.198 A 
ATOM     92  F   UNL A   1      43.874  32.229  25.796  1.00  0.00    -0.203 F 
ATOM     93  F   UNL A   1      44.932  36.564  28.905  1.00  0.00    -0.200 F 
ATOM     94  C   UNL A   1      43.974  35.635  26.961  1.00  0.00     0.200 A 
ATOM     95  F   UNL A   1      43.052  34.647  25.025  1.00  0.00    -0.200 F 
ATOM     96  F   UNL A   1      43.613  36.853  26.532  1.00  0.00    -0.200 F 
ENDBRANCH  63  86
ENDBRANCH  37  38
ENDBRANCH  30  32
ENDBRANCH  29  30
ENDBRANCH  28  29
ENDBRANCH  27  28
ENDBRANCH  26  27
ENDBRANCH  25  26
ENDBRANCH   1  25
TORSDOF 21
ENDMDL
