MODEL 1
REMARK VINA RESULT:     -11.7      0.000      0.000
REMARK SMILES CN1C(=O)C[C@H](C(=O)Nc2ccc(C(=O)OCCOCCOCCOC(=O)c3ccc(-c4c5nc(c(-c6c(F)c(F)c(F)c(F)c6F)c6ccc([nH]6)c(-c6c(F)c(F)c(F)c(F)c6F)c6nc(c(-c7c(F)c(F)c(F)c(F)c7F)c7ccc4[nH]7)C=C6)C=C5)cc3)cc2)S/C1=[NH+]\c1cccc(C(F)(F)F)c1
REMARK SMILES IDX 20 1 19 2 18 3 17 4 16 5 14 6 15 7 13 8 10 9 11 10 92 11
REMARK SMILES IDX 12 12 91 13 9 14 7 15 8 16 6 18 1 19 2 20 3 21 94 22 4 23
REMARK SMILES IDX 5 24 93 25 95 26 96 28 97 29 105 30 98 31 100 32 99 33
REMARK SMILES IDX 101 34 102 35 103 36 104 37 21 38 22 39 23 40 24 41 25 42
REMARK SMILES IDX 26 43 27 44 28 45 29 46 90 47 30 48 89 49 31 50 32 51 33 52
REMARK SMILES IDX 83 53 34 54 88 55 82 56 84 57 35 58 87 59 81 60 80 61 36 63
REMARK SMILES IDX 68 64 48 65 67 66 49 67 52 68 66 69 85 70 50 71 51 72 65 74
REMARK SMILES IDX 86 75 53 76 37 77 38 78 46 79 39 80 40 81 44 82 47 83 41 84
REMARK SMILES IDX 42 85 45 86 43 87 69 88 70 89 78 90 71 91 72 92 76 93 79 94
REMARK SMILES IDX 73 95 74 96 77 97 75 98 54 99 55 100 63 101 56 102 57 103
REMARK SMILES IDX 61 104 64 105 58 106 59 107 62 108 60 109
REMARK H PARENT 9 17 95 27 84 62 52 73
REMARK Flexibility Score: inf
ROOT
ATOM      1  C   UNL A   1      29.289  32.352  23.827  1.00  0.00     0.188 C 
ENDROOT
BRANCH   1   2
ATOM      2  O   UNL A   1      29.027  32.170  22.445  1.00  0.00    -0.376 OA
BRANCH   2   3
ATOM      3  C   UNL A   1      27.864  31.478  22.019  1.00  0.00     0.202 C 
BRANCH   3   4
ATOM      4  C   UNL A   1      28.043  30.150  21.285  1.00  0.00     0.261 C 
BRANCH   4   5
ATOM      5  O   UNL A   1      29.147  29.392  21.798  1.00  0.00    -0.460 OA
BRANCH   5   6
ATOM      6  C   UNL A   1      28.841  28.524  22.799  1.00  0.00     0.338 C 
ATOM      7  O   UNL A   1      27.815  28.490  23.435  1.00  0.00    -0.246 OA
BRANCH   6   8
ATOM      8  C   UNL A   1      29.933  27.525  22.965  1.00  0.00     0.060 A 
ATOM      9  C   UNL A   1      31.948  25.645  22.672  1.00  0.00     0.041 A 
ATOM     10  C   UNL A   1      32.262  27.002  22.612  1.00  0.00     0.027 A 
ATOM     11  C   UNL A   1      30.722  25.253  23.182  1.00  0.00     0.027 A 
ATOM     12  C   UNL A   1      31.239  27.944  22.703  1.00  0.00     0.018 A 
ATOM     13  C   UNL A   1      29.704  26.195  23.330  1.00  0.00     0.018 A 
BRANCH   9  14
ATOM     14  N   UNL A   1      32.889  24.739  22.193  1.00  0.00    -0.325 N 
ATOM     15  C   UNL A   1      33.840  23.993  22.823  1.00  0.00     0.238 C 
ATOM     16  O   UNL A   1      34.541  23.303  22.065  1.00  0.00    -0.273 OA
ATOM     17  H   UNL A   1      32.864  24.615  21.216  1.00  0.00     0.169 HD
BRANCH  15  18
ATOM     18  C   UNL A   1      34.022  23.816  24.343  1.00  0.00     0.160 C 
ATOM     19  C   UNL A   1      30.575  22.711  26.879  1.00  0.00     0.301 C 
ATOM     20  N   UNL A   1      31.760  23.000  26.068  1.00  0.00    -0.194 N 
ATOM     21  C   UNL A   1      32.270  24.288  26.208  1.00  0.00     0.311 C 
ATOM     22  C   UNL A   1      32.280  21.968  25.288  1.00  0.00     0.319 C 
ATOM     23  O   UNL A   1      31.785  25.098  27.007  1.00  0.00    -0.247 OA
ATOM     24  C   UNL A   1      33.409  24.764  25.334  1.00  0.00     0.153 C 
ATOM     25  S   UNL A   1      33.960  22.103  24.860  1.00  0.00    -0.024 SA
ATOM     26  N   UNL A   1      31.538  20.945  24.992  1.00  0.00    -0.235 N 
ATOM     27  H   UNL A   1      30.584  20.955  25.235  1.00  0.00     0.313 HD
BRANCH  26  28
ATOM     28  C   UNL A   1      32.066  19.827  24.334  1.00  0.00     0.126 A 
ATOM     29  C   UNL A   1      32.242  19.774  22.950  1.00  0.00     0.052 A 
ATOM     30  C   UNL A   1      32.422  18.722  25.101  1.00  0.00     0.064 A 
ATOM     31  C   UNL A   1      32.805  18.654  22.341  1.00  0.00     0.005 A 
ATOM     32  C   UNL A   1      33.012  17.597  24.512  1.00  0.00     0.060 A 
ATOM     33  C   UNL A   1      33.197  17.570  23.121  1.00  0.00     0.013 A 
BRANCH  32  34
ATOM     34  C   UNL A   1      33.471  16.445  25.364  1.00  0.00     0.416 C 
ATOM     35  F   UNL A   1      34.815  16.451  25.572  1.00  0.00    -0.166 F 
ATOM     36  F   UNL A   1      32.899  16.460  26.600  1.00  0.00    -0.166 F 
ATOM     37  F   UNL A   1      33.178  15.224  24.834  1.00  0.00    -0.166 F 
ENDBRANCH  32  34
ENDBRANCH  26  28
ENDBRANCH  15  18
ENDBRANCH   9  14
ENDBRANCH   6   8
ENDBRANCH   5   6
ENDBRANCH   4   5
ENDBRANCH   3   4
ENDBRANCH   2   3
ENDBRANCH   1   2
BRANCH   1  38
ATOM     38  C   UNL A   1      29.934  31.234  24.674  1.00  0.00     0.188 C 
BRANCH  38  39
ATOM     39  O   UNL A   1      30.966  31.513  25.599  1.00  0.00    -0.376 OA
BRANCH  39  40
ATOM     40  C   UNL A   1      31.862  30.472  25.948  1.00  0.00     0.202 C 
BRANCH  40  41
ATOM     41  C   UNL A   1      32.609  30.593  27.279  1.00  0.00     0.261 C 
BRANCH  41  42
ATOM     42  O   UNL A   1      34.037  30.658  27.119  1.00  0.00    -0.460 OA
BRANCH  42  43
ATOM     43  C   UNL A   1      34.726  31.128  28.189  1.00  0.00     0.338 C 
ATOM     44  O   UNL A   1      34.344  31.930  29.022  1.00  0.00    -0.246 OA
BRANCH  43  45
ATOM     45  C   UNL A   1      35.985  30.367  28.340  1.00  0.00     0.060 A 
ATOM     46  C   UNL A   1      36.217  29.702  29.554  1.00  0.00     0.016 A 
ATOM     47  C   UNL A   1      36.949  30.353  27.333  1.00  0.00     0.016 A 
ATOM     48  C   UNL A   1      37.430  29.052  29.778  1.00  0.00     0.010 A 
ATOM     49  C   UNL A   1      38.174  29.722  27.568  1.00  0.00     0.010 A 
ATOM     50  C   UNL A   1      38.433  29.098  28.803  1.00  0.00    -0.014 A 
BRANCH  50  51
ATOM     51  C   UNL A   1      39.818  28.688  29.146  1.00  0.00     0.031 A 
ATOM     52  C   UNL A   1      40.663  29.634  29.955  1.00  0.00     0.074 A 
ATOM     53  C   UNL A   1      40.322  27.505  28.754  1.00  0.00     0.049 A 
ATOM     54  N   UNL A   1      41.921  29.541  30.303  1.00  0.00    -0.248 NA
ATOM     55  C   UNL A   1      39.994  30.855  30.433  1.00  0.00     0.031 C 
ATOM     56  C   UNL A   1      39.596  26.478  28.012  1.00  0.00     0.029 A 
ATOM     57  N   UNL A   1      41.581  26.980  28.918  1.00  0.00    -0.354 N 
ATOM     58  C   UNL A   1      42.195  30.691  31.032  1.00  0.00     0.074 A 
ATOM     59  C   UNL A   1      40.980  31.478  31.059  1.00  0.00     0.031 C 
ATOM     60  C   UNL A   1      40.430  25.452  27.765  1.00  0.00     0.029 A 
ATOM     61  C   UNL A   1      41.754  25.766  28.301  1.00  0.00     0.049 A 
ATOM     62  H   UNL A   1      42.291  27.430  29.431  1.00  0.00     0.167 HD
ATOM     63  C   UNL A   1      43.352  31.057  31.631  1.00  0.00     0.037 A 
ATOM     64  C   UNL A   1      42.863  25.014  28.161  1.00  0.00     0.037 A 
ATOM     65  C   UNL A   1      44.564  30.283  31.600  1.00  0.00     0.049 A 
ATOM     66  C   UNL A   1      44.166  25.485  28.761  1.00  0.00     0.074 A 
ATOM     67  C   UNL A   1      45.786  30.567  32.184  1.00  0.00     0.029 A 
ATOM     68  N   UNL A   1      44.708  29.073  30.938  1.00  0.00    -0.354 N 
ATOM     69  N   UNL A   1      44.415  26.563  29.466  1.00  0.00    -0.248 NA
ATOM     70  C   UNL A   1      45.344  24.633  28.543  1.00  0.00     0.031 C 
ATOM     71  C   UNL A   1      46.683  29.553  31.834  1.00  0.00     0.029 A 
ATOM     72  C   UNL A   1      46.006  28.610  31.078  1.00  0.00     0.049 A 
ATOM     73  H   UNL A   1      43.994  28.611  30.441  1.00  0.00     0.167 HD
ATOM     74  C   UNL A   1      45.762  26.500  29.801  1.00  0.00     0.074 A 
ATOM     75  C   UNL A   1      46.278  25.275  29.231  1.00  0.00     0.031 C 
ATOM     76  C   UNL A   1      46.504  27.380  30.518  1.00  0.00     0.037 A 
BRANCH  63  77
ATOM     77  C   UNL A   1      43.369  32.373  32.349  1.00  0.00     0.064 A 
ATOM     78  C   UNL A   1      43.656  33.574  31.681  1.00  0.00     0.173 A 
ATOM     79  C   UNL A   1      43.068  32.439  33.719  1.00  0.00     0.173 A 
ATOM     80  F   UNL A   1      43.966  33.561  30.376  1.00  0.00    -0.203 F 
ATOM     81  C   UNL A   1      43.665  34.787  32.363  1.00  0.00     0.198 A 
ATOM     82  C   UNL A   1      43.051  33.658  34.391  1.00  0.00     0.198 A 
ATOM     83  F   UNL A   1      42.786  31.320  34.403  1.00  0.00    -0.203 F 
ATOM     84  F   UNL A   1      43.989  35.915  31.715  1.00  0.00    -0.200 F 
ATOM     85  C   UNL A   1      43.357  34.829  33.715  1.00  0.00     0.200 A 
ATOM     86  F   UNL A   1      42.742  33.698  35.694  1.00  0.00    -0.200 F 
ATOM     87  F   UNL A   1      43.361  35.999  34.368  1.00  0.00    -0.200 F 
ENDBRANCH  63  77
BRANCH  64  88
ATOM     88  C   UNL A   1      42.808  23.735  27.403  1.00  0.00     0.064 A 
ATOM     89  C   UNL A   1      42.347  22.558  28.008  1.00  0.00     0.173 A 
ATOM     90  C   UNL A   1      43.248  23.657  26.075  1.00  0.00     0.173 A 
ATOM     91  F   UNL A   1      41.945  22.576  29.287  1.00  0.00    -0.203 F 
ATOM     92  C   UNL A   1      42.348  21.347  27.319  1.00  0.00     0.198 A 
ATOM     93  C   UNL A   1      43.223  22.451  25.377  1.00  0.00     0.198 A 
ATOM     94  F   UNL A   1      43.707  24.754  25.453  1.00  0.00    -0.203 F 
ATOM     95  F   UNL A   1      41.953  20.226  27.939  1.00  0.00    -0.200 F 
ATOM     96  C   UNL A   1      42.781  21.295  26.003  1.00  0.00     0.200 A 
ATOM     97  F   UNL A   1      43.637  22.406  24.103  1.00  0.00    -0.200 F 
ATOM     98  F   UNL A   1      42.785  20.130  25.342  1.00  0.00    -0.200 F 
ENDBRANCH  64  88
BRANCH  76  99
ATOM     99  C   UNL A   1      47.944  27.031  30.772  1.00  0.00     0.064 A 
ATOM    100  C   UNL A   1      48.324  26.171  31.812  1.00  0.00     0.173 A 
ATOM    101  C   UNL A   1      48.951  27.524  29.927  1.00  0.00     0.173 A 
ATOM    102  F   UNL A   1      47.401  25.682  32.655  1.00  0.00    -0.203 F 
ATOM    103  C   UNL A   1      49.661  25.837  32.013  1.00  0.00     0.198 A 
ATOM    104  C   UNL A   1      50.284  27.164  30.112  1.00  0.00     0.198 A 
ATOM    105  F   UNL A   1      48.641  28.342  28.911  1.00  0.00    -0.203 F 
ATOM    106  F   UNL A   1      50.006  25.050  33.041  1.00  0.00    -0.200 F 
ATOM    107  C   UNL A   1      50.638  26.327  31.159  1.00  0.00     0.200 A 
ATOM    108  F   UNL A   1      51.224  27.627  29.276  1.00  0.00    -0.200 F 
ATOM    109  F   UNL A   1      51.923  25.997  31.348  1.00  0.00    -0.200 F 
ENDBRANCH  76  99
ENDBRANCH  50  51
ENDBRANCH  43  45
ENDBRANCH  42  43
ENDBRANCH  41  42
ENDBRANCH  40  41
ENDBRANCH  39  40
ENDBRANCH  38  39
ENDBRANCH   1  38
TORSDOF 21
ENDMDL
MODEL 2
REMARK VINA RESULT:     -11.7      4.057      6.369
REMARK SMILES CN1C(=O)C[C@H](C(=O)Nc2ccc(C(=O)OCCOCCOCCOC(=O)c3ccc(-c4c5nc(c(-c6c(F)c(F)c(F)c(F)c6F)c6ccc([nH]6)c(-c6c(F)c(F)c(F)c(F)c6F)c6nc(c(-c7c(F)c(F)c(F)c(F)c7F)c7ccc4[nH]7)C=C6)C=C5)cc3)cc2)S/C1=[NH+]\c1cccc(C(F)(F)F)c1
REMARK SMILES IDX 20 1 19 2 18 3 17 4 16 5 14 6 15 7 13 8 10 9 11 10 92 11
REMARK SMILES IDX 12 12 91 13 9 14 7 15 8 16 6 18 1 19 2 20 3 21 94 22 4 23
REMARK SMILES IDX 5 24 93 25 95 26 96 28 97 29 105 30 98 31 100 32 99 33
REMARK SMILES IDX 101 34 102 35 103 36 104 37 21 38 22 39 23 40 24 41 25 42
REMARK SMILES IDX 26 43 27 44 28 45 29 46 90 47 30 48 89 49 31 50 32 51 33 52
REMARK SMILES IDX 83 53 34 54 88 55 82 56 84 57 35 58 87 59 81 60 80 61 36 63
REMARK SMILES IDX 68 64 48 65 67 66 49 67 52 68 66 69 85 70 50 71 51 72 65 74
REMARK SMILES IDX 86 75 53 76 37 77 38 78 46 79 39 80 40 81 44 82 47 83 41 84
REMARK SMILES IDX 42 85 45 86 43 87 69 88 70 89 78 90 71 91 72 92 76 93 79 94
REMARK SMILES IDX 73 95 74 96 77 97 75 98 54 99 55 100 63 101 56 102 57 103
REMARK SMILES IDX 61 104 64 105 58 106 59 107 62 108 60 109
REMARK H PARENT 9 17 95 27 84 62 52 73
REMARK Flexibility Score: inf
ROOT
ATOM      1  C   UNL A   1      34.181  32.719  28.229  1.00  0.00     0.188 C 
ENDROOT
BRANCH   1   2
ATOM      2  O   UNL A   1      34.543  31.430  28.700  1.00  0.00    -0.376 OA
BRANCH   2   3
ATOM      3  C   UNL A   1      34.742  30.362  27.787  1.00  0.00     0.202 C 
BRANCH   3   4
ATOM      4  C   UNL A   1      33.600  30.004  26.836  1.00  0.00     0.261 C 
BRANCH   4   5
ATOM      5  O   UNL A   1      34.058  29.799  25.493  1.00  0.00    -0.460 OA
BRANCH   5   6
ATOM      6  C   UNL A   1      33.237  29.054  24.707  1.00  0.00     0.338 C 
ATOM      7  O   UNL A   1      33.029  29.211  23.527  1.00  0.00    -0.246 OA
BRANCH   6   8
ATOM      8  C   UNL A   1      32.666  27.921  25.488  1.00  0.00     0.060 A 
ATOM      9  C   UNL A   1      31.616  25.528  26.410  1.00  0.00     0.041 A 
ATOM     10  C   UNL A   1      32.999  25.692  26.350  1.00  0.00     0.027 A 
ATOM     11  C   UNL A   1      30.794  26.639  26.316  1.00  0.00     0.027 A 
ATOM     12  C   UNL A   1      33.524  26.875  25.832  1.00  0.00     0.018 A 
ATOM     13  C   UNL A   1      31.318  27.844  25.851  1.00  0.00     0.018 A 
BRANCH   9  14
ATOM     14  N   UNL A   1      31.122  24.234  26.546  1.00  0.00    -0.325 N 
ATOM     15  C   UNL A   1      30.678  23.327  25.630  1.00  0.00     0.238 C 
ATOM     16  O   UNL A   1      30.271  22.259  26.117  1.00  0.00    -0.273 OA
ATOM     17  H   UNL A   1      31.085  23.915  27.477  1.00  0.00     0.169 HD
BRANCH  15  18
ATOM     18  C   UNL A   1      30.771  23.438  24.095  1.00  0.00     0.160 C 
ATOM     19  C   UNL A   1      33.716  26.161  22.240  1.00  0.00     0.301 C 
ATOM     20  N   UNL A   1      32.780  25.189  22.809  1.00  0.00    -0.194 N 
ATOM     21  C   UNL A   1      31.436  25.532  22.702  1.00  0.00     0.311 C 
ATOM     22  C   UNL A   1      33.311  24.017  23.349  1.00  0.00     0.319 C 
ATOM     23  O   UNL A   1      31.069  26.557  22.114  1.00  0.00    -0.247 OA
ATOM     24  C   UNL A   1      30.370  24.686  23.362  1.00  0.00     0.153 C 
ATOM     25  S   UNL A   1      32.234  22.654  23.425  1.00  0.00    -0.024 SA
ATOM     26  N   UNL A   1      34.563  23.969  23.684  1.00  0.00    -0.235 N 
ATOM     27  H   UNL A   1      35.103  24.792  23.649  1.00  0.00     0.313 HD
BRANCH  26  28
ATOM     28  C   UNL A   1      35.164  22.773  24.094  1.00  0.00     0.126 A 
ATOM     29  C   UNL A   1      36.510  22.683  24.453  1.00  0.00     0.052 A 
ATOM     30  C   UNL A   1      34.377  21.625  24.136  1.00  0.00     0.064 A 
ATOM     31  C   UNL A   1      37.057  21.478  24.890  1.00  0.00     0.005 A 
ATOM     32  C   UNL A   1      34.901  20.410  24.595  1.00  0.00     0.060 A 
ATOM     33  C   UNL A   1      36.252  20.345  24.969  1.00  0.00     0.013 A 
BRANCH  32  34
ATOM     34  C   UNL A   1      34.018  19.199  24.717  1.00  0.00     0.416 C 
ATOM     35  F   UNL A   1      34.657  18.048  24.373  1.00  0.00    -0.166 F 
ATOM     36  F   UNL A   1      33.570  19.014  25.990  1.00  0.00    -0.166 F 
ATOM     37  F   UNL A   1      32.903  19.257  23.937  1.00  0.00    -0.166 F 
ENDBRANCH  32  34
ENDBRANCH  26  28
ENDBRANCH  15  18
ENDBRANCH   9  14
ENDBRANCH   6   8
ENDBRANCH   5   6
ENDBRANCH   4   5
ENDBRANCH   3   4
ENDBRANCH   2   3
ENDBRANCH   1   2
BRANCH   1  38
ATOM     38  C   UNL A   1      35.230  33.841  28.085  1.00  0.00     0.188 C 
BRANCH  38  39
ATOM     39  O   UNL A   1      35.039  35.109  28.681  1.00  0.00    -0.376 OA
BRANCH  39  40
ATOM     40  C   UNL A   1      33.845  35.818  28.398  1.00  0.00     0.202 C 
BRANCH  40  41
ATOM     41  C   UNL A   1      33.031  36.342  29.584  1.00  0.00     0.261 C 
BRANCH  41  42
ATOM     42  O   UNL A   1      32.683  35.312  30.527  1.00  0.00    -0.460 OA
BRANCH  42  43
ATOM     43  C   UNL A   1      32.716  35.678  31.832  1.00  0.00     0.338 C 
ATOM     44  O   UNL A   1      31.880  36.320  32.444  1.00  0.00    -0.246 OA
BRANCH  43  45
ATOM     45  C   UNL A   1      33.849  35.009  32.506  1.00  0.00     0.060 A 
ATOM     46  C   UNL A   1      35.108  35.628  32.460  1.00  0.00     0.016 A 
ATOM     47  C   UNL A   1      33.695  33.768  33.124  1.00  0.00     0.016 A 
ATOM     48  C   UNL A   1      36.225  34.989  32.999  1.00  0.00     0.010 A 
ATOM     49  C   UNL A   1      34.820  33.118  33.641  1.00  0.00     0.010 A 
ATOM     50  C   UNL A   1      36.094  33.710  33.551  1.00  0.00    -0.014 A 
BRANCH  50  51
ATOM     51  C   UNL A   1      37.304  32.900  33.839  1.00  0.00     0.031 A 
ATOM     52  C   UNL A   1      38.062  33.179  35.109  1.00  0.00     0.074 A 
ATOM     53  C   UNL A   1      37.728  31.939  33.002  1.00  0.00     0.049 A 
ATOM     54  N   UNL A   1      39.189  32.671  35.538  1.00  0.00    -0.248 NA
ATOM     55  C   UNL A   1      37.465  34.171  36.018  1.00  0.00     0.031 C 
ATOM     56  C   UNL A   1      37.060  31.534  31.768  1.00  0.00     0.029 A 
ATOM     57  N   UNL A   1      38.841  31.136  33.064  1.00  0.00    -0.354 N 
ATOM     58  C   UNL A   1      39.439  33.286  36.757  1.00  0.00     0.074 A 
ATOM     59  C   UNL A   1      38.359  34.220  36.993  1.00  0.00     0.031 C 
ATOM     60  C   UNL A   1      37.790  30.572  31.176  1.00  0.00     0.029 A 
ATOM     61  C   UNL A   1      38.992  30.319  31.970  1.00  0.00     0.049 A 
ATOM     62  H   UNL A   1      39.472  31.146  33.821  1.00  0.00     0.167 HD
ATOM     63  C   UNL A   1      40.472  33.085  37.610  1.00  0.00     0.037 A 
ATOM     64  C   UNL A   1      39.999  29.488  31.640  1.00  0.00     0.037 A 
ATOM     65  C   UNL A   1      41.551  32.164  37.377  1.00  0.00     0.049 A 
ATOM     66  C   UNL A   1      41.185  29.348  32.563  1.00  0.00     0.074 A 
ATOM     67  C   UNL A   1      42.639  31.886  38.185  1.00  0.00     0.029 A 
ATOM     68  N   UNL A   1      41.684  31.377  36.243  1.00  0.00    -0.354 N 
ATOM     69  N   UNL A   1      41.407  29.916  33.725  1.00  0.00    -0.248 NA
ATOM     70  C   UNL A   1      42.264  28.449  32.126  1.00  0.00     0.031 C 
ATOM     71  C   UNL A   1      43.455  30.967  37.518  1.00  0.00     0.029 A 
ATOM     72  C   UNL A   1      42.849  30.631  36.319  1.00  0.00     0.049 A 
ATOM     73  H   UNL A   1      41.045  31.352  35.493  1.00  0.00     0.167 HD
ATOM     74  C   UNL A   1      42.627  29.421  34.168  1.00  0.00     0.074 A 
ATOM     75  C   UNL A   1      43.096  28.499  33.157  1.00  0.00     0.031 C 
ATOM     76  C   UNL A   1      43.298  29.705  35.312  1.00  0.00     0.037 A 
BRANCH  63  77
ATOM     77  C   UNL A   1      40.496  33.905  38.865  1.00  0.00     0.064 A 
ATOM     78  C   UNL A   1      41.194  35.121  38.938  1.00  0.00     0.173 A 
ATOM     79  C   UNL A   1      39.791  33.483  40.003  1.00  0.00     0.173 A 
ATOM     80  F   UNL A   1      41.897  35.559  37.883  1.00  0.00    -0.203 F 
ATOM     81  C   UNL A   1      41.204  35.870  40.111  1.00  0.00     0.198 A 
ATOM     82  C   UNL A   1      39.782  34.250  41.165  1.00  0.00     0.198 A 
ATOM     83  F   UNL A   1      39.108  32.329  39.984  1.00  0.00    -0.203 F 
ATOM     84  F   UNL A   1      41.916  37.004  40.173  1.00  0.00    -0.200 F 
ATOM     85  C   UNL A   1      40.494  35.437  41.221  1.00  0.00     0.200 A 
ATOM     86  F   UNL A   1      39.085  33.835  42.233  1.00  0.00    -0.200 F 
ATOM     87  F   UNL A   1      40.501  36.163  42.347  1.00  0.00    -0.200 F 
ENDBRANCH  63  77
BRANCH  64  88
ATOM     88  C   UNL A   1      39.951  28.727  30.363  1.00  0.00     0.064 A 
ATOM     89  C   UNL A   1      40.458  29.277  29.177  1.00  0.00     0.173 A 
ATOM     90  C   UNL A   1      39.366  27.455  30.295  1.00  0.00     0.173 A 
ATOM     91  F   UNL A   1      40.999  30.503  29.186  1.00  0.00    -0.203 F 
ATOM     92  C   UNL A   1      40.363  28.590  27.968  1.00  0.00     0.198 A 
ATOM     93  C   UNL A   1      39.296  26.758  29.091  1.00  0.00     0.198 A 
ATOM     94  F   UNL A   1      38.858  26.889  31.400  1.00  0.00    -0.203 F 
ATOM     95  F   UNL A   1      40.807  29.161  26.840  1.00  0.00    -0.200 F 
ATOM     96  C   UNL A   1      39.786  27.330  27.926  1.00  0.00     0.200 A 
ATOM     97  F   UNL A   1      38.743  25.537  29.056  1.00  0.00    -0.200 F 
ATOM     98  F   UNL A   1      39.692  26.672  26.763  1.00  0.00    -0.200 F 
ENDBRANCH  64  88
BRANCH  76  99
ATOM     99  C   UNL A   1      44.588  28.977  35.560  1.00  0.00     0.064 A 
ATOM    100  C   UNL A   1      45.822  29.491  35.135  1.00  0.00     0.173 A 
ATOM    101  C   UNL A   1      44.593  27.772  36.281  1.00  0.00     0.173 A 
ATOM    102  F   UNL A   1      45.870  30.633  34.433  1.00  0.00    -0.203 F 
ATOM    103  C   UNL A   1      47.010  28.815  35.401  1.00  0.00     0.198 A 
ATOM    104  C   UNL A   1      45.786  27.113  36.570  1.00  0.00     0.198 A 
ATOM    105  F   UNL A   1      43.443  27.240  36.719  1.00  0.00    -0.203 F 
ATOM    106  F   UNL A   1      48.172  29.302  34.946  1.00  0.00    -0.200 F 
ATOM    107  C   UNL A   1      46.992  27.631  36.124  1.00  0.00     0.200 A 
ATOM    108  F   UNL A   1      45.767  25.978  37.283  1.00  0.00    -0.200 F 
ATOM    109  F   UNL A   1      48.137  26.987  36.387  1.00  0.00    -0.200 F 
ENDBRANCH  76  99
ENDBRANCH  50  51
ENDBRANCH  43  45
ENDBRANCH  42  43
ENDBRANCH  41  42
ENDBRANCH  40  41
ENDBRANCH  39  40
ENDBRANCH  38  39
ENDBRANCH   1  38
TORSDOF 21
ENDMDL
MODEL 3
REMARK VINA RESULT:     -11.7      0.981      2.091
REMARK SMILES CN1C(=O)C[C@H](C(=O)Nc2ccc(C(=O)OCCOCCOCCOC(=O)c3ccc(-c4c5nc(c(-c6c(F)c(F)c(F)c(F)c6F)c6ccc([nH]6)c(-c6c(F)c(F)c(F)c(F)c6F)c6nc(c(-c7c(F)c(F)c(F)c(F)c7F)c7ccc4[nH]7)C=C6)C=C5)cc3)cc2)S/C1=[NH+]\c1cccc(C(F)(F)F)c1
REMARK SMILES IDX 20 1 19 2 18 3 17 4 16 5 14 6 15 7 13 8 10 9 11 10 92 11
REMARK SMILES IDX 12 12 91 13 9 14 7 15 8 16 6 18 1 19 2 20 3 21 94 22 4 23
REMARK SMILES IDX 5 24 93 25 95 26 96 28 97 29 105 30 98 31 100 32 99 33
REMARK SMILES IDX 101 34 102 35 103 36 104 37 21 38 22 39 23 40 24 41 25 42
REMARK SMILES IDX 26 43 27 44 28 45 29 46 90 47 30 48 89 49 31 50 32 51 33 52
REMARK SMILES IDX 83 53 34 54 88 55 82 56 84 57 35 58 87 59 81 60 80 61 36 63
REMARK SMILES IDX 68 64 48 65 67 66 49 67 52 68 66 69 85 70 50 71 51 72 65 74
REMARK SMILES IDX 86 75 53 76 37 77 38 78 46 79 39 80 40 81 44 82 47 83 41 84
REMARK SMILES IDX 42 85 45 86 43 87 69 88 70 89 78 90 71 91 72 92 76 93 79 94
REMARK SMILES IDX 73 95 74 96 77 97 75 98 54 99 55 100 63 101 56 102 57 103
REMARK SMILES IDX 61 104 64 105 58 106 59 107 62 108 60 109
REMARK H PARENT 9 17 95 27 84 62 52 73
REMARK Flexibility Score: inf
ROOT
ATOM      1  C   UNL A   1      29.083  32.593  23.642  1.00  0.00     0.188 C 
ENDROOT
BRANCH   1   2
ATOM      2  O   UNL A   1      29.157  32.583  22.226  1.00  0.00    -0.376 OA
BRANCH   2   3
ATOM      3  C   UNL A   1      28.039  32.181  21.451  1.00  0.00     0.202 C 
BRANCH   3   4
ATOM      4  C   UNL A   1      28.080  30.807  20.785  1.00  0.00     0.261 C 
BRANCH   4   5
ATOM      5  O   UNL A   1      29.103  29.967  21.336  1.00  0.00    -0.460 OA
BRANCH   5   6
ATOM      6  C   UNL A   1      28.685  29.084  22.280  1.00  0.00     0.338 C 
ATOM      7  O   UNL A   1      27.559  28.956  22.700  1.00  0.00    -0.246 OA
BRANCH   6   8
ATOM      8  C   UNL A   1      29.809  28.197  22.689  1.00  0.00     0.060 A 
ATOM      9  C   UNL A   1      31.951  26.446  22.858  1.00  0.00     0.041 A 
ATOM     10  C   UNL A   1      32.189  27.803  22.645  1.00  0.00     0.027 A 
ATOM     11  C   UNL A   1      30.702  26.035  23.292  1.00  0.00     0.027 A 
ATOM     12  C   UNL A   1      31.109  28.672  22.504  1.00  0.00     0.018 A 
ATOM     13  C   UNL A   1      29.621  26.911  23.207  1.00  0.00     0.018 A 
BRANCH   9  14
ATOM     14  N   UNL A   1      32.991  25.558  22.603  1.00  0.00    -0.325 N 
ATOM     15  C   UNL A   1      33.896  24.953  23.424  1.00  0.00     0.238 C 
ATOM     16  O   UNL A   1      34.720  24.230  22.840  1.00  0.00    -0.273 OA
ATOM     17  H   UNL A   1      33.092  25.322  21.652  1.00  0.00     0.169 HD
BRANCH  15  18
ATOM     18  C   UNL A   1      33.901  24.962  24.965  1.00  0.00     0.160 C 
ATOM     19  C   UNL A   1      30.649  22.979  27.207  1.00  0.00     0.301 C 
ATOM     20  N   UNL A   1      31.786  23.581  26.507  1.00  0.00    -0.194 N 
ATOM     21  C   UNL A   1      31.836  24.971  26.549  1.00  0.00     0.311 C 
ATOM     22  C   UNL A   1      32.714  22.721  25.920  1.00  0.00     0.319 C 
ATOM     23  O   UNL A   1      31.008  25.634  27.185  1.00  0.00    -0.247 OA
ATOM     24  C   UNL A   1      32.881  25.728  25.759  1.00  0.00     0.153 C 
ATOM     25  S   UNL A   1      34.308  23.370  25.673  1.00  0.00    -0.024 SA
ATOM     26  N   UNL A   1      32.386  21.491  25.666  1.00  0.00    -0.235 N 
ATOM     27  H   UNL A   1      31.453  21.205  25.797  1.00  0.00     0.313 HD
BRANCH  26  28
ATOM     28  C   UNL A   1      33.330  20.563  25.211  1.00  0.00     0.126 A 
ATOM     29  C   UNL A   1      34.704  20.715  25.414  1.00  0.00     0.052 A 
ATOM     30  C   UNL A   1      32.871  19.444  24.522  1.00  0.00     0.064 A 
ATOM     31  C   UNL A   1      35.605  19.748  24.976  1.00  0.00     0.005 A 
ATOM     32  C   UNL A   1      33.758  18.448  24.095  1.00  0.00     0.060 A 
ATOM     33  C   UNL A   1      35.133  18.612  24.324  1.00  0.00     0.013 A 
BRANCH  32  34
ATOM     34  C   UNL A   1      33.240  17.204  23.427  1.00  0.00     0.416 C 
ATOM     35  F   UNL A   1      34.216  16.512  22.781  1.00  0.00    -0.166 F 
ATOM     36  F   UNL A   1      32.688  16.334  24.319  1.00  0.00    -0.166 F 
ATOM     37  F   UNL A   1      32.273  17.446  22.499  1.00  0.00    -0.166 F 
ENDBRANCH  32  34
ENDBRANCH  26  28
ENDBRANCH  15  18
ENDBRANCH   9  14
ENDBRANCH   6   8
ENDBRANCH   5   6
ENDBRANCH   4   5
ENDBRANCH   3   4
ENDBRANCH   2   3
ENDBRANCH   1   2
BRANCH   1  38
ATOM     38  C   UNL A   1      29.699  31.455  24.484  1.00  0.00     0.188 C 
BRANCH  38  39
ATOM     39  O   UNL A   1      30.670  31.716  25.478  1.00  0.00    -0.376 OA
BRANCH  39  40
ATOM     40  C   UNL A   1      31.637  30.720  25.759  1.00  0.00     0.202 C 
BRANCH  40  41
ATOM     41  C   UNL A   1      32.235  30.685  27.168  1.00  0.00     0.261 C 
BRANCH  41  42
ATOM     42  O   UNL A   1      33.621  30.299  27.183  1.00  0.00    -0.460 OA
BRANCH  42  43
ATOM     43  C   UNL A   1      34.432  31.056  27.962  1.00  0.00     0.338 C 
ATOM     44  O   UNL A   1      34.153  32.097  28.531  1.00  0.00    -0.246 OA
BRANCH  43  45
ATOM     45  C   UNL A   1      35.698  30.334  28.209  1.00  0.00     0.060 A 
ATOM     46  C   UNL A   1      35.896  29.754  29.472  1.00  0.00     0.016 A 
ATOM     47  C   UNL A   1      36.699  30.273  27.241  1.00  0.00     0.016 A 
ATOM     48  C   UNL A   1      37.111  29.145  29.783  1.00  0.00     0.010 A 
ATOM     49  C   UNL A   1      37.926  29.684  27.562  1.00  0.00     0.010 A 
ATOM     50  C   UNL A   1      38.150  29.149  28.844  1.00  0.00    -0.014 A 
BRANCH  50  51
ATOM     51  C   UNL A   1      39.527  28.790  29.263  1.00  0.00     0.031 A 
ATOM     52  C   UNL A   1      40.278  29.752  30.143  1.00  0.00     0.074 A 
ATOM     53  C   UNL A   1      40.107  27.640  28.878  1.00  0.00     0.049 A 
ATOM     54  N   UNL A   1      41.516  29.705  30.567  1.00  0.00    -0.248 NA
ATOM     55  C   UNL A   1      39.528  30.931  30.605  1.00  0.00     0.031 C 
ATOM     56  C   UNL A   1      39.474  26.601  28.071  1.00  0.00     0.029 A 
ATOM     57  N   UNL A   1      41.375  27.166  29.109  1.00  0.00    -0.354 N 
ATOM     58  C   UNL A   1      41.693  30.848  31.335  1.00  0.00     0.074 A 
ATOM     59  C   UNL A   1      40.446  31.581  31.303  1.00  0.00     0.031 C 
ATOM     60  C   UNL A   1      40.367  25.617  27.854  1.00  0.00     0.029 A 
ATOM     61  C   UNL A   1      41.640  25.975  28.478  1.00  0.00     0.049 A 
ATOM     62  H   UNL A   1      42.032  27.634  29.674  1.00  0.00     0.167 HD
ATOM     63  C   UNL A   1      42.794  31.249  32.013  1.00  0.00     0.037 A 
ATOM     64  C   UNL A   1      42.788  25.275  28.392  1.00  0.00     0.037 A 
ATOM     65  C   UNL A   1      44.039  30.529  32.041  1.00  0.00     0.049 A 
ATOM     66  C   UNL A   1      44.029  25.788  29.081  1.00  0.00     0.074 A 
ATOM     67  C   UNL A   1      45.209  30.851  32.705  1.00  0.00     0.029 A 
ATOM     68  N   UNL A   1      44.277  29.342  31.364  1.00  0.00    -0.354 N 
ATOM     69  N   UNL A   1      44.186  26.858  29.823  1.00  0.00    -0.248 NA
ATOM     70  C   UNL A   1      45.256  24.992  28.919  1.00  0.00     0.031 C 
ATOM     71  C   UNL A   1      46.170  29.885  32.391  1.00  0.00     0.029 A 
ATOM     72  C   UNL A   1      45.584  28.932  31.574  1.00  0.00     0.049 A 
ATOM     73  H   UNL A   1      43.616  28.862  30.813  1.00  0.00     0.167 HD
ATOM     74  C   UNL A   1      45.512  26.845  30.239  1.00  0.00     0.074 A 
ATOM     75  C   UNL A   1      46.116  25.658  29.677  1.00  0.00     0.031 C 
ATOM     76  C   UNL A   1      46.169  27.739  31.020  1.00  0.00     0.037 A 
BRANCH  63  77
ATOM     77  C   UNL A   1      42.709  32.547  32.759  1.00  0.00     0.064 A 
ATOM     78  C   UNL A   1      42.346  32.597  34.113  1.00  0.00     0.173 A 
ATOM     79  C   UNL A   1      43.020  33.756  32.117  1.00  0.00     0.173 A 
ATOM     80  F   UNL A   1      42.023  31.470  34.766  1.00  0.00    -0.203 F 
ATOM     81  C   UNL A   1      42.273  33.811  34.790  1.00  0.00     0.198 A 
ATOM     82  C   UNL A   1      42.973  34.965  32.805  1.00  0.00     0.198 A 
ATOM     83  F   UNL A   1      43.374  33.762  30.823  1.00  0.00    -0.203 F 
ATOM     84  F   UNL A   1      41.878  33.839  36.070  1.00  0.00    -0.200 F 
ATOM     85  C   UNL A   1      42.593  34.993  34.138  1.00  0.00     0.200 A 
ATOM     86  F   UNL A   1      43.293  36.105  32.176  1.00  0.00    -0.200 F 
ATOM     87  F   UNL A   1      42.528  36.160  34.793  1.00  0.00    -0.200 F 
ENDBRANCH  63  77
BRANCH  64  88
ATOM     88  C   UNL A   1      42.836  24.014  27.605  1.00  0.00     0.064 A 
ATOM     89  C   UNL A   1      43.158  24.028  26.240  1.00  0.00     0.173 A 
ATOM     90  C   UNL A   1      42.527  22.779  28.190  1.00  0.00     0.173 A 
ATOM     91  F   UNL A   1      43.431  25.189  25.628  1.00  0.00    -0.203 F 
ATOM     92  C   UNL A   1      43.148  22.855  25.487  1.00  0.00     0.198 A 
ATOM     93  C   UNL A   1      42.544  21.603  27.442  1.00  0.00     0.198 A 
ATOM     94  F   UNL A   1      42.204  22.713  29.490  1.00  0.00    -0.203 F 
ATOM     95  F   UNL A   1      43.406  22.904  24.173  1.00  0.00    -0.200 F 
ATOM     96  C   UNL A   1      42.846  21.643  26.089  1.00  0.00     0.200 A 
ATOM     97  F   UNL A   1      42.257  20.432  28.029  1.00  0.00    -0.200 F 
ATOM     98  F   UNL A   1      42.833  20.517  25.364  1.00  0.00    -0.200 F 
ENDBRANCH  64  88
BRANCH  76  99
ATOM     99  C   UNL A   1      47.604  27.446  31.355  1.00  0.00     0.064 A 
ATOM    100  C   UNL A   1      48.656  27.851  30.521  1.00  0.00     0.173 A 
ATOM    101  C   UNL A   1      47.932  26.796  32.556  1.00  0.00     0.173 A 
ATOM    102  F   UNL A   1      48.396  28.464  29.357  1.00  0.00    -0.203 F 
ATOM    103  C   UNL A   1      49.982  27.595  30.864  1.00  0.00     0.198 A 
ATOM    104  C   UNL A   1      49.260  26.568  32.910  1.00  0.00     0.198 A 
ATOM    105  F   UNL A   1      46.965  26.397  33.394  1.00  0.00    -0.203 F 
ATOM    106  F   UNL A   1      50.968  27.951  30.030  1.00  0.00    -0.200 F 
ATOM    107  C   UNL A   1      50.282  26.961  32.061  1.00  0.00     0.200 A 
ATOM    108  F   UNL A   1      49.548  25.970  34.074  1.00  0.00    -0.200 F 
ATOM    109  F   UNL A   1      51.559  26.725  32.393  1.00  0.00    -0.200 F 
ENDBRANCH  76  99
ENDBRANCH  50  51
ENDBRANCH  43  45
ENDBRANCH  42  43
ENDBRANCH  41  42
ENDBRANCH  40  41
ENDBRANCH  39  40
ENDBRANCH  38  39
ENDBRANCH   1  38
TORSDOF 21
ENDMDL
