MODEL 1
REMARK VINA RESULT:     -11.4      0.000      0.000
REMARK SMILES CCOc1ccc(-c2cc(Cl)cc3c2O[C@H](C(F)(F)F)C(C(=O)OCCOCCOCCOC(=O)c2ccc(-c4c5nc(c(-c6c(F)c(F)c(F)c(F)c6F)c6ccc([nH]6)c(-c6c(F)c(F)c(F)c(F)c6F)c6nc(c(-c7c(F)c(F)c(F)c(F)c7F)c7ccc4[nH]7)C=C6)C=C5)cc2)=C3)cc1
REMARK SMILES IDX 28 1 27 2 26 3 25 4 24 5 22 6 23 7 21 8 8 9 9 10 14 11 10 12
REMARK SMILES IDX 13 13 15 14 11 15 12 16 99 17 16 18 7 19 4 20 5 21 101 22
REMARK SMILES IDX 6 23 100 24 3 25 2 26 1 27 17 28 18 29 19 30 20 31 29 32
REMARK SMILES IDX 30 33 31 34 32 35 33 36 34 37 35 38 36 39 37 40 98 41 38 42
REMARK SMILES IDX 97 43 39 44 40 45 41 46 91 47 42 48 96 49 90 50 92 51 43 52
REMARK SMILES IDX 95 53 89 54 88 55 44 57 76 58 56 59 75 60 57 61 60 62 74 63
REMARK SMILES IDX 93 64 58 65 59 66 73 68 94 69 61 70 45 71 46 72 54 73 47 74
REMARK SMILES IDX 48 75 52 76 55 77 49 78 50 79 53 80 51 81 77 82 78 83 86 84
REMARK SMILES IDX 79 85 80 86 84 87 87 88 81 89 82 90 85 91 83 92 62 93 63 94
REMARK SMILES IDX 71 95 64 96 65 97 69 98 72 99 66 100 67 101 70 102 68 103
REMARK H PARENT 92 56 60 67
REMARK Flexibility Score: inf
ROOT
ATOM      1  C   UNL A   1      30.988  25.621  25.813  1.00  0.00     0.188 C 
ENDROOT
BRANCH   1   2
ATOM      2  O   UNL A   1      31.682  25.034  26.899  1.00  0.00    -0.376 OA
BRANCH   2   3
ATOM      3  C   UNL A   1      31.708  23.609  26.912  1.00  0.00     0.202 C 
BRANCH   3   4
ATOM      4  C   UNL A   1      30.523  22.931  26.204  1.00  0.00     0.261 C 
BRANCH   4   5
ATOM      5  O   UNL A   1      30.928  21.767  25.432  1.00  0.00    -0.460 OA
BRANCH   5   6
ATOM      6  C   UNL A   1      31.478  22.048  24.230  1.00  0.00     0.338 C 
ATOM      7  O   UNL A   1      31.040  22.895  23.461  1.00  0.00    -0.246 OA
BRANCH   6   8
ATOM      8  C   UNL A   1      32.751  21.313  23.973  1.00  0.00     0.087 C 
ATOM      9  C   UNL A   1      36.393  22.521  25.526  1.00  0.00     0.026 A 
ATOM     10  C   UNL A   1      36.116  23.857  25.888  1.00  0.00     0.033 A 
ATOM     11  C   UNL A   1      35.378  21.899  24.779  1.00  0.00     0.135 A 
ATOM     12  C   UNL A   1      35.059  24.592  25.351  1.00  0.00     0.042 A 
ATOM     13  C   UNL A   1      34.473  22.699  24.051  1.00  0.00     0.019 A 
ATOM     14  O   UNL A   1      34.993  20.554  24.904  1.00  0.00    -0.475 OA
ATOM     15  Cl  UNL A   1      34.760  26.206  25.850  1.00  0.00    -0.084 Cl
ATOM     16  C   UNL A   1      34.285  24.040  24.356  1.00  0.00     0.032 A 
ATOM     17  C   UNL A   1      33.538  22.008  23.138  1.00  0.00     0.027 C 
ATOM     18  C   UNL A   1      33.472  20.421  24.983  1.00  0.00     0.316 C 
BRANCH   9  19
ATOM     19  C   UNL A   1      37.865  22.206  25.600  1.00  0.00    -0.014 A 
ATOM     20  C   UNL A   1      40.448  21.312  26.575  1.00  0.00     0.119 A 
ATOM     21  C   UNL A   1      39.633  20.489  25.802  1.00  0.00     0.047 A 
ATOM     22  C   UNL A   1      39.973  22.585  26.867  1.00  0.00     0.047 A 
ATOM     23  C   UNL A   1      38.379  20.929  25.321  1.00  0.00     0.013 A 
ATOM     24  C   UNL A   1      38.710  23.023  26.382  1.00  0.00     0.013 A 
BRANCH  20  25
ATOM     25  O   UNL A   1      41.708  20.837  26.797  1.00  0.00    -0.494 OA
BRANCH  25  26
ATOM     26  C   UNL A   1      42.013  19.449  26.922  1.00  0.00     0.226 C 
ATOM     27  C   UNL A   1      42.936  18.886  25.853  1.00  0.00     0.049 C 
ENDBRANCH  25  26
ENDBRANCH  20  25
ENDBRANCH   9  19
BRANCH  18  28
ATOM     28  C   UNL A   1      32.973  18.983  24.773  1.00  0.00     0.430 C 
ATOM     29  F   UNL A   1      32.013  18.911  23.824  1.00  0.00    -0.167 F 
ATOM     30  F   UNL A   1      33.969  18.141  24.426  1.00  0.00    -0.167 F 
ATOM     31  F   UNL A   1      32.431  18.494  25.920  1.00  0.00    -0.167 F 
ENDBRANCH  18  28
ENDBRANCH   6   8
ENDBRANCH   5   6
ENDBRANCH   4   5
ENDBRANCH   3   4
ENDBRANCH   2   3
ENDBRANCH   1   2
BRANCH   1  32
ATOM     32  C   UNL A   1      31.704  26.829  25.167  1.00  0.00     0.188 C 
BRANCH  32  33
ATOM     33  O   UNL A   1      30.968  27.873  24.557  1.00  0.00    -0.376 OA
BRANCH  33  34
ATOM     34  C   UNL A   1      31.192  29.217  24.950  1.00  0.00     0.202 C 
BRANCH  34  35
ATOM     35  C   UNL A   1      32.593  29.682  25.382  1.00  0.00     0.261 C 
BRANCH  35  36
ATOM     36  O   UNL A   1      32.806  29.863  26.794  1.00  0.00    -0.460 OA
BRANCH  36  37
ATOM     37  C   UNL A   1      33.366  31.038  27.159  1.00  0.00     0.338 C 
ATOM     38  O   UNL A   1      32.813  32.130  27.241  1.00  0.00    -0.246 OA
BRANCH  37  39
ATOM     39  C   UNL A   1      34.746  30.821  27.633  1.00  0.00     0.060 A 
ATOM     40  C   UNL A   1      35.168  29.510  27.858  1.00  0.00     0.016 A 
ATOM     41  C   UNL A   1      35.595  31.889  27.940  1.00  0.00     0.016 A 
ATOM     42  C   UNL A   1      36.430  29.270  28.402  1.00  0.00     0.010 A 
ATOM     43  C   UNL A   1      36.863  31.641  28.495  1.00  0.00     0.010 A 
ATOM     44  C   UNL A   1      37.290  30.327  28.741  1.00  0.00    -0.014 A 
BRANCH  44  45
ATOM     45  C   UNL A   1      38.542  30.035  29.502  1.00  0.00     0.031 A 
ATOM     46  C   UNL A   1      38.599  30.400  30.954  1.00  0.00     0.074 A 
ATOM     47  C   UNL A   1      39.608  29.442  28.933  1.00  0.00     0.049 A 
ATOM     48  N   UNL A   1      39.554  30.199  31.824  1.00  0.00    -0.248 NA
ATOM     49  C   UNL A   1      37.445  31.143  31.476  1.00  0.00     0.031 C 
ATOM     50  C   UNL A   1      39.709  29.136  27.518  1.00  0.00     0.029 A 
ATOM     51  N   UNL A   1      40.780  28.947  29.460  1.00  0.00    -0.354 N 
ATOM     52  C   UNL A   1      39.157  30.866  32.973  1.00  0.00     0.074 A 
ATOM     53  C   UNL A   1      37.852  31.432  32.702  1.00  0.00     0.031 C 
ATOM     54  C   UNL A   1      40.792  28.370  27.306  1.00  0.00     0.029 A 
ATOM     55  C   UNL A   1      41.527  28.219  28.557  1.00  0.00     0.049 A 
ATOM     56  H   UNL A   1      41.057  29.098  30.393  1.00  0.00     0.167 HD
ATOM     57  C   UNL A   1      39.850  31.040  34.123  1.00  0.00     0.037 A 
ATOM     58  C   UNL A   1      42.670  27.515  28.719  1.00  0.00     0.037 A 
ATOM     59  C   UNL A   1      41.158  30.485  34.365  1.00  0.00     0.049 A 
ATOM     60  C   UNL A   1      43.356  27.588  30.065  1.00  0.00     0.074 A 
ATOM     61  C   UNL A   1      41.954  30.615  35.490  1.00  0.00     0.029 A 
ATOM     62  N   UNL A   1      41.870  29.704  33.463  1.00  0.00    -0.354 N 
ATOM     63  N   UNL A   1      42.967  28.199  31.160  1.00  0.00    -0.248 NA
ATOM     64  C   UNL A   1      44.661  26.922  30.191  1.00  0.00     0.031 C 
ATOM     65  C   UNL A   1      43.171  29.971  35.241  1.00  0.00     0.029 A 
ATOM     66  C   UNL A   1      43.109  29.370  33.992  1.00  0.00     0.049 A 
ATOM     67  H   UNL A   1      41.543  29.427  32.576  1.00  0.00     0.167 HD
ATOM     68  C   UNL A   1      43.986  28.026  32.090  1.00  0.00     0.074 A 
ATOM     69  C   UNL A   1      44.984  27.192  31.451  1.00  0.00     0.031 C 
ATOM     70  C   UNL A   1      44.099  28.542  33.341  1.00  0.00     0.037 A 
BRANCH  57  71
ATOM     71  C   UNL A   1      39.249  31.967  35.143  1.00  0.00     0.064 A 
ATOM     72  C   UNL A   1      39.473  33.352  35.129  1.00  0.00     0.173 A 
ATOM     73  C   UNL A   1      38.472  31.443  36.189  1.00  0.00     0.173 A 
ATOM     74  F   UNL A   1      40.226  33.904  34.165  1.00  0.00    -0.203 F 
ATOM     75  C   UNL A   1      38.991  34.167  36.151  1.00  0.00     0.198 A 
ATOM     76  C   UNL A   1      37.957  32.266  37.187  1.00  0.00     0.198 A 
ATOM     77  F   UNL A   1      38.223  30.126  36.255  1.00  0.00    -0.203 F 
ATOM     78  F   UNL A   1      39.292  35.472  36.163  1.00  0.00    -0.200 F 
ATOM     79  C   UNL A   1      38.231  33.623  37.177  1.00  0.00     0.200 A 
ATOM     80  F   UNL A   1      37.213  31.739  38.169  1.00  0.00    -0.200 F 
ATOM     81  F   UNL A   1      37.779  34.407  38.165  1.00  0.00    -0.200 F 
ENDBRANCH  57  71
BRANCH  58  82
ATOM     82  C   UNL A   1      43.242  26.712  27.586  1.00  0.00     0.064 A 
ATOM     83  C   UNL A   1      42.924  25.356  27.405  1.00  0.00     0.173 A 
ATOM     84  C   UNL A   1      44.095  27.278  26.627  1.00  0.00     0.173 A 
ATOM     85  F   UNL A   1      42.132  24.726  28.272  1.00  0.00    -0.203 F 
ATOM     86  C   UNL A   1      43.425  24.605  26.341  1.00  0.00     0.198 A 
ATOM     87  C   UNL A   1      44.566  26.540  25.536  1.00  0.00     0.198 A 
ATOM     88  F   UNL A   1      44.454  28.565  26.728  1.00  0.00    -0.203 F 
ATOM     89  F   UNL A   1      43.116  23.304  26.242  1.00  0.00    -0.200 F 
ATOM     90  C   UNL A   1      44.235  25.201  25.397  1.00  0.00     0.200 A 
ATOM     91  F   UNL A   1      45.333  27.133  24.611  1.00  0.00    -0.200 F 
ATOM     92  F   UNL A   1      44.697  24.490  24.361  1.00  0.00    -0.200 F 
ENDBRANCH  58  82
BRANCH  70  93
ATOM     93  C   UNL A   1      45.360  28.246  34.114  1.00  0.00     0.064 A 
ATOM     94  C   UNL A   1      46.480  29.090  34.047  1.00  0.00     0.173 A 
ATOM     95  C   UNL A   1      45.417  27.160  35.003  1.00  0.00     0.173 A 
ATOM     96  F   UNL A   1      46.483  30.143  33.216  1.00  0.00    -0.203 F 
ATOM     97  C   UNL A   1      47.613  28.845  34.819  1.00  0.00     0.198 A 
ATOM     98  C   UNL A   1      46.539  26.939  35.801  1.00  0.00     0.198 A 
ATOM     99  F   UNL A   1      44.371  26.329  35.123  1.00  0.00    -0.203 F 
ATOM    100  F   UNL A   1      48.685  29.643  34.706  1.00  0.00    -0.200 F 
ATOM    101  C   UNL A   1      47.638  27.777  35.702  1.00  0.00     0.200 A 
ATOM    102  F   UNL A   1      46.551  25.919  36.669  1.00  0.00    -0.200 F 
ATOM    103  F   UNL A   1      48.724  27.553  36.456  1.00  0.00    -0.200 F 
ENDBRANCH  70  93
ENDBRANCH  44  45
ENDBRANCH  37  39
ENDBRANCH  36  37
ENDBRANCH  35  36
ENDBRANCH  34  35
ENDBRANCH  33  34
ENDBRANCH  32  33
ENDBRANCH   1  32
TORSDOF 21
ENDMDL
MODEL 2
REMARK VINA RESULT:     -11.1      3.184      5.382
REMARK SMILES CCOc1ccc(-c2cc(Cl)cc3c2O[C@H](C(F)(F)F)C(C(=O)OCCOCCOCCOC(=O)c2ccc(-c4c5nc(c(-c6c(F)c(F)c(F)c(F)c6F)c6ccc([nH]6)c(-c6c(F)c(F)c(F)c(F)c6F)c6nc(c(-c7c(F)c(F)c(F)c(F)c7F)c7ccc4[nH]7)C=C6)C=C5)cc2)=C3)cc1
REMARK SMILES IDX 28 1 27 2 26 3 25 4 24 5 22 6 23 7 21 8 8 9 9 10 14 11 10 12
REMARK SMILES IDX 13 13 15 14 11 15 12 16 99 17 16 18 7 19 4 20 5 21 101 22
REMARK SMILES IDX 6 23 100 24 3 25 2 26 1 27 17 28 18 29 19 30 20 31 29 32
REMARK SMILES IDX 30 33 31 34 32 35 33 36 34 37 35 38 36 39 37 40 98 41 38 42
REMARK SMILES IDX 97 43 39 44 40 45 41 46 91 47 42 48 96 49 90 50 92 51 43 52
REMARK SMILES IDX 95 53 89 54 88 55 44 57 76 58 56 59 75 60 57 61 60 62 74 63
REMARK SMILES IDX 93 64 58 65 59 66 73 68 94 69 61 70 45 71 46 72 54 73 47 74
REMARK SMILES IDX 48 75 52 76 55 77 49 78 50 79 53 80 51 81 77 82 78 83 86 84
REMARK SMILES IDX 79 85 80 86 84 87 87 88 81 89 82 90 85 91 83 92 62 93 63 94
REMARK SMILES IDX 71 95 64 96 65 97 69 98 72 99 66 100 67 101 70 102 68 103
REMARK H PARENT 92 56 60 67
REMARK Flexibility Score: inf
ROOT
ATOM      1  C   UNL A   1      34.478  31.252  27.963  1.00  0.00     0.188 C 
ENDROOT
BRANCH   1   2
ATOM      2  O   UNL A   1      34.224  30.437  26.833  1.00  0.00    -0.376 OA
BRANCH   2   3
ATOM      3  C   UNL A   1      32.849  30.189  26.552  1.00  0.00     0.202 C 
BRANCH   3   4
ATOM      4  C   UNL A   1      32.576  29.494  25.208  1.00  0.00     0.261 C 
BRANCH   4   5
ATOM      5  O   UNL A   1      33.213  28.190  25.117  1.00  0.00    -0.460 OA
BRANCH   5   6
ATOM      6  C   UNL A   1      33.514  27.793  23.861  1.00  0.00     0.338 C 
ATOM      7  O   UNL A   1      34.420  28.273  23.192  1.00  0.00    -0.246 OA
BRANCH   6   8
ATOM      8  C   UNL A   1      32.713  26.620  23.402  1.00  0.00     0.087 C 
ATOM      9  C   UNL A   1      33.213  22.814  24.952  1.00  0.00     0.026 A 
ATOM     10  C   UNL A   1      34.476  22.927  25.572  1.00  0.00     0.033 A 
ATOM     11  C   UNL A   1      32.856  23.918  24.158  1.00  0.00     0.135 A 
ATOM     12  C   UNL A   1      35.407  23.912  25.242  1.00  0.00     0.042 A 
ATOM     13  C   UNL A   1      33.871  24.751  23.644  1.00  0.00     0.019 A 
ATOM     14  O   UNL A   1      31.560  24.447  24.050  1.00  0.00    -0.475 OA
ATOM     15  Cl  UNL A   1      36.918  24.010  26.049  1.00  0.00    -0.084 Cl
ATOM     16  C   UNL A   1      35.140  24.776  24.204  1.00  0.00     0.032 A 
ATOM     17  C   UNL A   1      33.470  25.788  22.670  1.00  0.00     0.027 C 
ATOM     18  C   UNL A   1      31.573  25.970  24.185  1.00  0.00     0.316 C 
BRANCH   9  19
ATOM     19  C   UNL A   1      32.738  21.386  24.885  1.00  0.00    -0.014 A 
ATOM     20  C   UNL A   1      32.669  18.522  24.419  1.00  0.00     0.119 A 
ATOM     21  C   UNL A   1      32.996  19.053  25.664  1.00  0.00     0.047 A 
ATOM     22  C   UNL A   1      32.378  19.421  23.400  1.00  0.00     0.047 A 
ATOM     23  C   UNL A   1      33.021  20.448  25.891  1.00  0.00     0.013 A 
ATOM     24  C   UNL A   1      32.406  20.825  23.633  1.00  0.00     0.013 A 
BRANCH  20  25
ATOM     25  O   UNL A   1      32.486  17.171  24.395  1.00  0.00    -0.494 OA
BRANCH  25  26
ATOM     26  C   UNL A   1      33.197  16.266  25.239  1.00  0.00     0.226 C 
ATOM     27  C   UNL A   1      32.547  14.906  25.430  1.00  0.00     0.049 C 
ENDBRANCH  25  26
ENDBRANCH  20  25
ENDBRANCH   9  19
BRANCH  18  28
ATOM     28  C   UNL A   1      30.262  26.635  23.737  1.00  0.00     0.430 C 
ATOM     29  F   UNL A   1      30.390  27.258  22.544  1.00  0.00    -0.167 F 
ATOM     30  F   UNL A   1      29.247  25.751  23.642  1.00  0.00    -0.167 F 
ATOM     31  F   UNL A   1      29.875  27.578  24.636  1.00  0.00    -0.167 F 
ENDBRANCH  18  28
ENDBRANCH   6   8
ENDBRANCH   5   6
ENDBRANCH   4   5
ENDBRANCH   3   4
ENDBRANCH   2   3
ENDBRANCH   1   2
BRANCH   1  32
ATOM     32  C   UNL A   1      33.748  32.615  27.953  1.00  0.00     0.188 C 
BRANCH  32  33
ATOM     33  O   UNL A   1      34.436  33.809  27.629  1.00  0.00    -0.376 OA
BRANCH  33  34
ATOM     34  C   UNL A   1      34.447  34.889  28.548  1.00  0.00     0.202 C 
BRANCH  34  35
ATOM     35  C   UNL A   1      33.131  35.548  28.994  1.00  0.00     0.261 C 
BRANCH  35  36
ATOM     36  O   UNL A   1      32.507  35.009  30.173  1.00  0.00    -0.460 OA
BRANCH  36  37
ATOM     37  C   UNL A   1      32.860  35.589  31.343  1.00  0.00     0.338 C 
ATOM     38  O   UNL A   1      32.272  36.491  31.931  1.00  0.00    -0.246 OA
BRANCH  37  39
ATOM     39  C   UNL A   1      33.993  34.865  31.950  1.00  0.00     0.060 A 
ATOM     40  C   UNL A   1      35.184  35.562  32.163  1.00  0.00     0.016 A 
ATOM     41  C   UNL A   1      33.927  33.498  32.231  1.00  0.00     0.016 A 
ATOM     42  C   UNL A   1      36.308  34.888  32.640  1.00  0.00     0.010 A 
ATOM     43  C   UNL A   1      35.065  32.822  32.705  1.00  0.00     0.010 A 
ATOM     44  C   UNL A   1      36.272  33.510  32.906  1.00  0.00    -0.014 A 
BRANCH  44  45
ATOM     45  C   UNL A   1      37.544  32.794  33.221  1.00  0.00     0.031 A 
ATOM     46  C   UNL A   1      38.135  32.952  34.589  1.00  0.00     0.074 A 
ATOM     47  C   UNL A   1      38.165  32.003  32.326  1.00  0.00     0.049 A 
ATOM     48  N   UNL A   1      39.198  32.391  35.104  1.00  0.00    -0.248 NA
ATOM     49  C   UNL A   1      37.465  33.916  35.472  1.00  0.00     0.031 C 
ATOM     50  C   UNL A   1      37.747  31.854  30.945  1.00  0.00     0.029 A 
ATOM     51  N   UNL A   1      39.236  31.145  32.439  1.00  0.00    -0.354 N 
ATOM     52  C   UNL A   1      39.377  32.999  36.338  1.00  0.00     0.074 A 
ATOM     53  C   UNL A   1      38.283  33.931  36.512  1.00  0.00     0.031 C 
ATOM     54  C   UNL A   1      38.437  30.850  30.378  1.00  0.00     0.029 A 
ATOM     55  C   UNL A   1      39.428  30.352  31.326  1.00  0.00     0.049 A 
ATOM     56  H   UNL A   1      39.809  31.099  33.239  1.00  0.00     0.167 HD
ATOM     57  C   UNL A   1      40.398  32.834  37.212  1.00  0.00     0.037 A 
ATOM     58  C   UNL A   1      40.302  29.346  31.096  1.00  0.00     0.037 A 
ATOM     59  C   UNL A   1      41.490  31.915  37.011  1.00  0.00     0.049 A 
ATOM     60  C   UNL A   1      41.344  29.064  32.156  1.00  0.00     0.074 A 
ATOM     61  C   UNL A   1      42.583  31.684  37.827  1.00  0.00     0.029 A 
ATOM     62  N   UNL A   1      41.635  31.082  35.907  1.00  0.00    -0.354 N 
ATOM     63  N   UNL A   1      41.497  29.623  33.334  1.00  0.00    -0.248 NA
ATOM     64  C   UNL A   1      42.365  28.054  31.842  1.00  0.00     0.031 C 
ATOM     65  C   UNL A   1      43.420  30.764  37.186  1.00  0.00     0.029 A 
ATOM     66  C   UNL A   1      42.814  30.358  36.006  1.00  0.00     0.049 A 
ATOM     67  H   UNL A   1      40.993  31.016  35.163  1.00  0.00     0.167 HD
ATOM     68  C   UNL A   1      42.645  29.064  33.886  1.00  0.00     0.074 A 
ATOM     69  C   UNL A   1      43.111  28.070  32.941  1.00  0.00     0.031 C 
ATOM     70  C   UNL A   1      43.272  29.374  35.051  1.00  0.00     0.037 A 
BRANCH  57  71
ATOM     71  C   UNL A   1      40.432  33.761  38.395  1.00  0.00     0.064 A 
ATOM     72  C   UNL A   1      41.208  34.929  38.417  1.00  0.00     0.173 A 
ATOM     73  C   UNL A   1      39.708  33.439  39.555  1.00  0.00     0.173 A 
ATOM     74  F   UNL A   1      41.939  35.274  37.346  1.00  0.00    -0.203 F 
ATOM     75  C   UNL A   1      41.302  35.707  39.569  1.00  0.00     0.198 A 
ATOM     76  C   UNL A   1      39.771  34.240  40.691  1.00  0.00     0.198 A 
ATOM     77  F   UNL A   1      38.947  32.334  39.594  1.00  0.00    -0.203 F 
ATOM     78  F   UNL A   1      42.118  36.769  39.594  1.00  0.00    -0.200 F 
ATOM     79  C   UNL A   1      40.581  35.364  40.704  1.00  0.00     0.200 A 
ATOM     80  F   UNL A   1      39.063  33.912  41.780  1.00  0.00    -0.200 F 
ATOM     81  F   UNL A   1      40.682  36.106  41.815  1.00  0.00    -0.200 F 
ENDBRANCH  57  71
BRANCH  58  82
ATOM     82  C   UNL A   1      40.245  28.559  29.818  1.00  0.00     0.064 A 
ATOM     83  C   UNL A   1      40.929  28.971  28.664  1.00  0.00     0.173 A 
ATOM     84  C   UNL A   1      39.534  27.354  29.717  1.00  0.00     0.173 A 
ATOM     85  F   UNL A   1      41.621  30.110  28.659  1.00  0.00    -0.203 F 
ATOM     86  C   UNL A   1      40.909  28.235  27.479  1.00  0.00     0.198 A 
ATOM     87  C   UNL A   1      39.545  26.592  28.543  1.00  0.00     0.198 A 
ATOM     88  F   UNL A   1      38.847  26.891  30.770  1.00  0.00    -0.203 F 
ATOM     89  F   UNL A   1      41.552  28.699  26.397  1.00  0.00    -0.200 F 
ATOM     90  C   UNL A   1      40.227  27.037  27.422  1.00  0.00     0.200 A 
ATOM     91  F   UNL A   1      38.900  25.418  28.504  1.00  0.00    -0.200 F 
ATOM     92  F   UNL A   1      40.226  26.316  26.293  1.00  0.00    -0.200 F 
ENDBRANCH  58  82
BRANCH  70  93
ATOM     93  C   UNL A   1      44.555  28.650  35.374  1.00  0.00     0.064 A 
ATOM     94  C   UNL A   1      44.558  27.441  36.089  1.00  0.00     0.173 A 
ATOM     95  C   UNL A   1      45.785  29.118  34.885  1.00  0.00     0.173 A 
ATOM     96  F   UNL A   1      43.414  26.945  36.581  1.00  0.00    -0.203 F 
ATOM     97  C   UNL A   1      45.743  26.745  36.321  1.00  0.00     0.198 A 
ATOM     98  C   UNL A   1      46.963  28.401  35.088  1.00  0.00     0.198 A 
ATOM     99  F   UNL A   1      45.843  30.258  34.180  1.00  0.00    -0.203 F 
ATOM    100  F   UNL A   1      45.723  25.614  37.041  1.00  0.00    -0.200 F 
ATOM    101  C   UNL A   1      46.941  27.220  35.812  1.00  0.00     0.200 A 
ATOM    102  F   UNL A   1      48.116  28.851  34.576  1.00  0.00    -0.200 F 
ATOM    103  F   UNL A   1      48.077  26.540  36.023  1.00  0.00    -0.200 F 
ENDBRANCH  70  93
ENDBRANCH  44  45
ENDBRANCH  37  39
ENDBRANCH  36  37
ENDBRANCH  35  36
ENDBRANCH  34  35
ENDBRANCH  33  34
ENDBRANCH  32  33
ENDBRANCH   1  32
TORSDOF 21
ENDMDL
MODEL 3
REMARK VINA RESULT:     -10.6      3.432      5.659
REMARK SMILES CCOc1ccc(-c2cc(Cl)cc3c2O[C@H](C(F)(F)F)C(C(=O)OCCOCCOCCOC(=O)c2ccc(-c4c5nc(c(-c6c(F)c(F)c(F)c(F)c6F)c6ccc([nH]6)c(-c6c(F)c(F)c(F)c(F)c6F)c6nc(c(-c7c(F)c(F)c(F)c(F)c7F)c7ccc4[nH]7)C=C6)C=C5)cc2)=C3)cc1
REMARK SMILES IDX 28 1 27 2 26 3 25 4 24 5 22 6 23 7 21 8 8 9 9 10 14 11 10 12
REMARK SMILES IDX 13 13 15 14 11 15 12 16 99 17 16 18 7 19 4 20 5 21 101 22
REMARK SMILES IDX 6 23 100 24 3 25 2 26 1 27 17 28 18 29 19 30 20 31 29 32
REMARK SMILES IDX 30 33 31 34 32 35 33 36 34 37 35 38 36 39 37 40 98 41 38 42
REMARK SMILES IDX 97 43 39 44 40 45 41 46 91 47 42 48 96 49 90 50 92 51 43 52
REMARK SMILES IDX 95 53 89 54 88 55 44 57 76 58 56 59 75 60 57 61 60 62 74 63
REMARK SMILES IDX 93 64 58 65 59 66 73 68 94 69 61 70 45 71 46 72 54 73 47 74
REMARK SMILES IDX 48 75 52 76 55 77 49 78 50 79 53 80 51 81 77 82 78 83 86 84
REMARK SMILES IDX 79 85 80 86 84 87 87 88 81 89 82 90 85 91 83 92 62 93 63 94
REMARK SMILES IDX 71 95 64 96 65 97 69 98 72 99 66 100 67 101 70 102 68 103
REMARK H PARENT 92 56 60 67
REMARK Flexibility Score: inf
ROOT
ATOM      1  C   UNL A   1      34.492  31.606  27.822  1.00  0.00     0.188 C 
ENDROOT
BRANCH   1   2
ATOM      2  O   UNL A   1      33.736  30.761  26.973  1.00  0.00    -0.376 OA
BRANCH   2   3
ATOM      3  C   UNL A   1      32.348  31.069  26.880  1.00  0.00     0.202 C 
BRANCH   3   4
ATOM      4  C   UNL A   1      31.646  30.529  25.623  1.00  0.00     0.261 C 
BRANCH   4   5
ATOM      5  O   UNL A   1      32.520  29.694  24.814  1.00  0.00    -0.460 OA
BRANCH   5   6
ATOM      6  C   UNL A   1      31.881  28.869  23.957  1.00  0.00     0.338 C 
ATOM      7  O   UNL A   1      31.810  29.060  22.749  1.00  0.00    -0.246 OA
BRANCH   6   8
ATOM      8  C   UNL A   1      31.367  27.625  24.602  1.00  0.00     0.087 C 
ATOM      9  C   UNL A   1      32.181  23.837  23.143  1.00  0.00     0.026 A 
ATOM     10  C   UNL A   1      32.607  24.128  21.829  1.00  0.00     0.033 A 
ATOM     11  C   UNL A   1      31.643  24.936  23.835  1.00  0.00     0.135 A 
ATOM     12  C   UNL A   1      32.300  25.318  21.170  1.00  0.00     0.042 A 
ATOM     13  C   UNL A   1      31.119  26.021  23.100  1.00  0.00     0.019 A 
ATOM     14  O   UNL A   1      31.825  25.196  25.203  1.00  0.00    -0.475 OA
ATOM     15  Cl  UNL A   1      32.868  25.621  19.579  1.00  0.00    -0.084 Cl
ATOM     16  C   UNL A   1      31.471  26.235  21.776  1.00  0.00     0.032 A 
ATOM     17  C   UNL A   1      30.401  27.069  23.856  1.00  0.00     0.027 C 
ATOM     18  C   UNL A   1      32.202  26.658  25.441  1.00  0.00     0.316 C 
BRANCH   9  19
ATOM     19  C   UNL A   1      31.957  22.363  23.355  1.00  0.00    -0.014 A 
ATOM     20  C   UNL A   1      32.414  19.503  23.537  1.00  0.00     0.119 A 
ATOM     21  C   UNL A   1      32.489  20.328  24.657  1.00  0.00     0.047 A 
ATOM     22  C   UNL A   1      32.113  20.104  22.321  1.00  0.00     0.047 A 
ATOM     23  C   UNL A   1      32.258  21.719  24.567  1.00  0.00     0.013 A 
ATOM     24  C   UNL A   1      31.883  21.505  22.236  1.00  0.00     0.013 A 
BRANCH  20  25
ATOM     25  O   UNL A   1      32.457  18.164  23.800  1.00  0.00    -0.494 OA
BRANCH  25  26
ATOM     26  C   UNL A   1      33.552  17.528  24.458  1.00  0.00     0.226 C 
ATOM     27  C   UNL A   1      34.386  16.603  23.587  1.00  0.00     0.049 C 
ENDBRANCH  25  26
ENDBRANCH  20  25
ENDBRANCH   9  19
BRANCH  18  28
ATOM     28  C   UNL A   1      32.078  27.090  26.911  1.00  0.00     0.430 C 
ATOM     29  F   UNL A   1      31.024  27.912  27.111  1.00  0.00    -0.167 F 
ATOM     30  F   UNL A   1      31.953  26.036  27.744  1.00  0.00    -0.167 F 
ATOM     31  F   UNL A   1      33.188  27.768  27.303  1.00  0.00    -0.167 F 
ENDBRANCH  18  28
ENDBRANCH   6   8
ENDBRANCH   5   6
ENDBRANCH   4   5
ENDBRANCH   3   4
ENDBRANCH   2   3
ENDBRANCH   1   2
BRANCH   1  32
ATOM     32  C   UNL A   1      33.859  32.992  28.084  1.00  0.00     0.188 C 
BRANCH  32  33
ATOM     33  O   UNL A   1      34.549  34.183  27.756  1.00  0.00    -0.376 OA
BRANCH  33  34
ATOM     34  C   UNL A   1      34.361  35.347  28.544  1.00  0.00     0.202 C 
BRANCH  34  35
ATOM     35  C   UNL A   1      32.972  35.696  29.105  1.00  0.00     0.261 C 
BRANCH  35  36
ATOM     36  O   UNL A   1      32.549  34.974  30.276  1.00  0.00    -0.460 OA
BRANCH  36  37
ATOM     37  C   UNL A   1      32.863  35.542  31.462  1.00  0.00     0.338 C 
ATOM     38  O   UNL A   1      32.232  36.408  32.061  1.00  0.00    -0.246 OA
BRANCH  37  39
ATOM     39  C   UNL A   1      34.017  34.852  32.070  1.00  0.00     0.060 A 
ATOM     40  C   UNL A   1      35.235  35.531  32.133  1.00  0.00     0.016 A 
ATOM     41  C   UNL A   1      33.937  33.523  32.496  1.00  0.00     0.016 A 
ATOM     42  C   UNL A   1      36.371  34.876  32.607  1.00  0.00     0.010 A 
ATOM     43  C   UNL A   1      35.088  32.866  32.966  1.00  0.00     0.010 A 
ATOM     44  C   UNL A   1      36.321  33.534  33.018  1.00  0.00    -0.014 A 
BRANCH  44  45
ATOM     45  C   UNL A   1      37.594  32.817  33.327  1.00  0.00     0.031 A 
ATOM     46  C   UNL A   1      38.188  32.968  34.693  1.00  0.00     0.074 A 
ATOM     47  C   UNL A   1      38.213  32.031  32.426  1.00  0.00     0.049 A 
ATOM     48  N   UNL A   1      39.252  32.405  35.203  1.00  0.00    -0.248 NA
ATOM     49  C   UNL A   1      37.521  33.928  35.583  1.00  0.00     0.031 C 
ATOM     50  C   UNL A   1      37.791  31.888  31.045  1.00  0.00     0.029 A 
ATOM     51  N   UNL A   1      39.283  31.172  32.532  1.00  0.00    -0.354 N 
ATOM     52  C   UNL A   1      39.435  33.007  36.439  1.00  0.00     0.074 A 
ATOM     53  C   UNL A   1      38.342  33.938  36.621  1.00  0.00     0.031 C 
ATOM     54  C   UNL A   1      38.480  30.887  30.472  1.00  0.00     0.029 A 
ATOM     55  C   UNL A   1      39.473  30.385  31.415  1.00  0.00     0.049 A 
ATOM     56  H   UNL A   1      39.859  31.123  33.330  1.00  0.00     0.167 HD
ATOM     57  C   UNL A   1      40.458  32.838  37.310  1.00  0.00     0.037 A 
ATOM     58  C   UNL A   1      40.346  29.380  31.177  1.00  0.00     0.037 A 
ATOM     59  C   UNL A   1      41.550  31.920  37.101  1.00  0.00     0.049 A 
ATOM     60  C   UNL A   1      41.392  29.093  32.233  1.00  0.00     0.074 A 
ATOM     61  C   UNL A   1      42.645  31.685  37.914  1.00  0.00     0.029 A 
ATOM     62  N   UNL A   1      41.691  31.093  35.993  1.00  0.00    -0.354 N 
ATOM     63  N   UNL A   1      41.548  29.646  33.414  1.00  0.00    -0.248 NA
ATOM     64  C   UNL A   1      42.411  28.084  31.911  1.00  0.00     0.031 C 
ATOM     65  C   UNL A   1      43.480  30.768  37.266  1.00  0.00     0.029 A 
ATOM     66  C   UNL A   1      42.872  30.368  36.085  1.00  0.00     0.049 A 
ATOM     67  H   UNL A   1      41.048  31.030  35.250  1.00  0.00     0.167 HD
ATOM     68  C   UNL A   1      42.697  29.085  33.960  1.00  0.00     0.074 A 
ATOM     69  C   UNL A   1      43.161  28.095  33.008  1.00  0.00     0.031 C 
ATOM     70  C   UNL A   1      43.327  29.389  35.124  1.00  0.00     0.037 A 
BRANCH  57  71
ATOM     71  C   UNL A   1      40.496  33.759  38.498  1.00  0.00     0.064 A 
ATOM     72  C   UNL A   1      39.777  33.503  39.675  1.00  0.00     0.173 A 
ATOM     73  C   UNL A   1      41.230  34.955  38.431  1.00  0.00     0.173 A 
ATOM     74  F   UNL A   1      39.039  32.388  39.785  1.00  0.00    -0.203 F 
ATOM     75  C   UNL A   1      39.747  34.431  40.713  1.00  0.00     0.198 A 
ATOM     76  C   UNL A   1      41.231  35.862  39.487  1.00  0.00     0.198 A 
ATOM     77  F   UNL A   1      41.938  35.255  37.331  1.00  0.00    -0.203 F 
ATOM     78  F   UNL A   1      38.982  34.204  41.790  1.00  0.00    -0.200 F 
ATOM     79  C   UNL A   1      40.476  35.608  40.620  1.00  0.00     0.200 A 
ATOM     80  F   UNL A   1      41.947  36.991  39.397  1.00  0.00    -0.200 F 
ATOM     81  F   UNL A   1      40.436  36.504  41.614  1.00  0.00    -0.200 F 
ENDBRANCH  57  71
BRANCH  58  82
ATOM     82  C   UNL A   1      40.286  28.599  29.896  1.00  0.00     0.064 A 
ATOM     83  C   UNL A   1      40.980  29.009  28.746  1.00  0.00     0.173 A 
ATOM     84  C   UNL A   1      39.563  27.402  29.786  1.00  0.00     0.173 A 
ATOM     85  F   UNL A   1      41.683  30.140  28.749  1.00  0.00    -0.203 F 
ATOM     86  C   UNL A   1      40.956  28.279  27.558  1.00  0.00     0.198 A 
ATOM     87  C   UNL A   1      39.570  26.645  28.609  1.00  0.00     0.198 A 
ATOM     88  F   UNL A   1      38.866  26.942  30.835  1.00  0.00    -0.203 F 
ATOM     89  F   UNL A   1      41.608  28.740  26.481  1.00  0.00    -0.200 F 
ATOM     90  C   UNL A   1      40.262  27.088  27.493  1.00  0.00     0.200 A 
ATOM     91  F   UNL A   1      38.913  25.479  28.563  1.00  0.00    -0.200 F 
ATOM     92  F   UNL A   1      40.257  26.372  26.361  1.00  0.00    -0.200 F 
ENDBRANCH  58  82
BRANCH  70  93
ATOM     93  C   UNL A   1      44.611  28.664  35.441  1.00  0.00     0.064 A 
ATOM     94  C   UNL A   1      45.855  29.144  35.000  1.00  0.00     0.173 A 
ATOM     95  C   UNL A   1      44.609  27.532  36.271  1.00  0.00     0.173 A 
ATOM     96  F   UNL A   1      45.920  30.221  34.204  1.00  0.00    -0.203 F 
ATOM     97  C   UNL A   1      47.040  28.504  35.357  1.00  0.00     0.198 A 
ATOM     98  C   UNL A   1      45.799  26.916  36.656  1.00  0.00     0.198 A 
ATOM     99  F   UNL A   1      43.452  27.037  36.738  1.00  0.00    -0.203 F 
ATOM    100  F   UNL A   1      48.212  28.959  34.890  1.00  0.00    -0.200 F 
ATOM    101  C   UNL A   1      47.012  27.399  36.193  1.00  0.00     0.200 A 
ATOM    102  F   UNL A   1      45.770  25.861  37.482  1.00  0.00    -0.200 F 
ATOM    103  F   UNL A   1      48.156  26.796  36.549  1.00  0.00    -0.200 F 
ENDBRANCH  70  93
ENDBRANCH  44  45
ENDBRANCH  37  39
ENDBRANCH  36  37
ENDBRANCH  35  36
ENDBRANCH  34  35
ENDBRANCH  33  34
ENDBRANCH  32  33
ENDBRANCH   1  32
TORSDOF 21
ENDMDL
