MODEL 1
REMARK VINA RESULT:     -11.4      0.000      0.000
REMARK SMILES O=C(C[C@@H](NS(=O)(=O)c1ccc(Cl)cc1)c1ccc(F)cc1)OCCOCCOCCOC(=O)c1ccc(-c2c3nc(c(-c4c(F)c(F)c(F)c(F)c4F)c4ccc([nH]4)c(-c4c(F)c(F)c(F)c(F)c4F)c4nc(c(-c5c(F)c(F)c(F)c(F)c5F)c5ccc2[nH]5)C=C4)C=C3)cc1
REMARK SMILES IDX 27 1 26 2 25 3 24 4 23 5 2 6 1 7 3 8 4 9 5 10 6 12 7 13 8 14
REMARK SMILES IDX 9 15 10 16 15 17 11 18 14 19 12 20 13 21 16 22 17 23 22 24
REMARK SMILES IDX 18 25 21 26 19 27 20 28 28 29 29 30 30 31 31 32 32 33 33 34
REMARK SMILES IDX 34 35 35 36 36 37 97 38 37 39 96 40 38 41 39 42 40 43 90 44
REMARK SMILES IDX 41 45 95 46 89 47 91 48 42 49 94 50 88 51 87 52 43 54 75 55
REMARK SMILES IDX 55 56 74 57 56 58 59 59 73 60 92 61 57 62 58 63 72 65 93 66
REMARK SMILES IDX 60 67 44 68 45 69 53 70 46 71 47 72 51 73 54 74 48 75 49 76
REMARK SMILES IDX 52 77 50 78 76 79 77 80 85 81 78 82 79 83 83 84 86 85 80 86
REMARK SMILES IDX 81 87 84 88 82 89 61 90 62 91 70 92 63 93 64 94 68 95 71 96
REMARK SMILES IDX 65 97 66 98 69 99 67 100
REMARK H PARENT 5 11 91 53 59 64
REMARK Flexibility Score: inf
ROOT
ATOM      1  C   UNL A   1      40.615  21.118  27.149  1.00  0.00     0.188 C 
ENDROOT
BRANCH   1   2
ATOM      2  O   UNL A   1      39.622  21.818  26.417  1.00  0.00    -0.376 OA
BRANCH   2   3
ATOM      3  C   UNL A   1      38.700  21.102  25.593  1.00  0.00     0.202 C 
BRANCH   3   4
ATOM      4  C   UNL A   1      37.217  21.484  25.599  1.00  0.00     0.261 C 
BRANCH   4   5
ATOM      5  O   UNL A   1      36.626  21.706  24.289  1.00  0.00    -0.463 OA
BRANCH   5   6
ATOM      6  C   UNL A   1      36.381  22.956  23.822  1.00  0.00     0.307 C 
ATOM      7  O   UNL A   1      36.588  23.270  22.656  1.00  0.00    -0.252 OA
BRANCH   6   8
ATOM      8  C   UNL A   1      35.815  23.913  24.836  1.00  0.00     0.147 C 
BRANCH   8   9
ATOM      9  C   UNL A   1      34.296  24.136  24.828  1.00  0.00     0.111 C 
BRANCH   9  10
ATOM     10  N   UNL A   1      33.653  23.911  26.138  1.00  0.00    -0.203 NA
ATOM     11  H   UNL A   1      33.435  24.832  26.519  1.00  0.00     0.142 HD
BRANCH  10  12
ATOM     12  S   UNL A   1      32.248  22.997  26.246  1.00  0.00     0.241 S 
ATOM     13  O   UNL A   1      32.018  22.690  27.639  1.00  0.00    -0.207 OA
ATOM     14  O   UNL A   1      31.272  23.708  25.449  1.00  0.00    -0.207 OA
BRANCH  12  15
ATOM     15  C   UNL A   1      32.695  21.518  25.386  1.00  0.00     0.082 A 
ATOM     16  C   UNL A   1      32.066  21.234  24.169  1.00  0.00     0.023 A 
ATOM     17  C   UNL A   1      33.613  20.626  25.947  1.00  0.00     0.023 A 
ATOM     18  C   UNL A   1      32.296  20.009  23.547  1.00  0.00     0.022 A 
ATOM     19  C   UNL A   1      33.858  19.410  25.306  1.00  0.00     0.022 A 
ATOM     20  C   UNL A   1      33.184  19.100  24.122  1.00  0.00     0.041 A 
ATOM     21  Cl  UNL A   1      33.436  17.574  23.371  1.00  0.00    -0.084 Cl
ENDBRANCH  12  15
ENDBRANCH  10  12
ENDBRANCH   9  10
BRANCH   9  22
ATOM     22  C   UNL A   1      34.033  25.554  24.298  1.00  0.00    -0.029 A 
ATOM     23  C   UNL A   1      33.959  26.670  25.157  1.00  0.00     0.008 A 
ATOM     24  C   UNL A   1      33.867  25.769  22.918  1.00  0.00     0.008 A 
ATOM     25  C   UNL A   1      33.668  27.943  24.664  1.00  0.00     0.039 A 
ATOM     26  C   UNL A   1      33.594  27.048  22.426  1.00  0.00     0.039 A 
ATOM     27  C   UNL A   1      33.485  28.119  23.303  1.00  0.00     0.123 A 
ATOM     28  F   UNL A   1      33.197  29.337  22.826  1.00  0.00    -0.207 F 
ENDBRANCH   9  22
ENDBRANCH   8   9
ENDBRANCH   6   8
ENDBRANCH   5   6
ENDBRANCH   4   5
ENDBRANCH   3   4
ENDBRANCH   2   3
ENDBRANCH   1   2
BRANCH   1  29
ATOM     29  C   UNL A   1      41.890  20.797  26.368  1.00  0.00     0.188 C 
BRANCH  29  30
ATOM     30  O   UNL A   1      42.345  21.779  25.449  1.00  0.00    -0.376 OA
BRANCH  30  31
ATOM     31  C   UNL A   1      43.713  22.183  25.527  1.00  0.00     0.202 C 
BRANCH  31  32
ATOM     32  C   UNL A   1      44.209  23.310  24.606  1.00  0.00     0.261 C 
BRANCH  32  33
ATOM     33  O   UNL A   1      43.397  24.502  24.651  1.00  0.00    -0.460 OA
BRANCH  33  34
ATOM     34  C   UNL A   1      44.025  25.615  25.101  1.00  0.00     0.338 C 
ATOM     35  O   UNL A   1      45.139  26.010  24.799  1.00  0.00    -0.246 OA
BRANCH  34  36
ATOM     36  C   UNL A   1      43.142  26.412  25.971  1.00  0.00     0.060 A 
ATOM     37  C   UNL A   1      43.534  27.710  26.322  1.00  0.00     0.016 A 
ATOM     38  C   UNL A   1      42.065  25.799  26.612  1.00  0.00     0.016 A 
ATOM     39  C   UNL A   1      42.881  28.384  27.357  1.00  0.00     0.010 A 
ATOM     40  C   UNL A   1      41.418  26.470  27.655  1.00  0.00     0.010 A 
ATOM     41  C   UNL A   1      41.852  27.745  28.064  1.00  0.00    -0.014 A 
BRANCH  41  42
ATOM     42  C   UNL A   1      41.352  28.310  29.343  1.00  0.00     0.031 A 
ATOM     43  C   UNL A   1      40.124  29.179  29.321  1.00  0.00     0.074 A 
ATOM     44  C   UNL A   1      41.977  28.069  30.508  1.00  0.00     0.049 A 
ATOM     45  N   UNL A   1      39.584  29.881  30.286  1.00  0.00    -0.248 NA
ATOM     46  C   UNL A   1      39.409  29.269  28.038  1.00  0.00     0.031 C 
ATOM     47  C   UNL A   1      43.130  27.191  30.678  1.00  0.00     0.029 A 
ATOM     48  N   UNL A   1      41.735  28.561  31.767  1.00  0.00    -0.354 N 
ATOM     49  C   UNL A   1      38.475  30.500  29.726  1.00  0.00     0.074 A 
ATOM     50  C   UNL A   1      38.429  30.111  28.332  1.00  0.00     0.031 C 
ATOM     51  C   UNL A   1      43.512  27.224  31.967  1.00  0.00     0.029 A 
ATOM     52  C   UNL A   1      42.658  28.159  32.700  1.00  0.00     0.049 A 
ATOM     53  H   UNL A   1      40.973  29.147  31.981  1.00  0.00     0.167 HD
ATOM     54  C   UNL A   1      37.573  31.317  30.321  1.00  0.00     0.037 A 
ATOM     55  C   UNL A   1      42.817  28.528  33.987  1.00  0.00     0.037 A 
ATOM     56  C   UNL A   1      37.616  31.703  31.706  1.00  0.00     0.049 A 
ATOM     57  C   UNL A   1      41.861  29.515  34.606  1.00  0.00     0.074 A 
ATOM     58  C   UNL A   1      36.740  32.519  32.400  1.00  0.00     0.029 A 
ATOM     59  N   UNL A   1      38.592  31.305  32.608  1.00  0.00    -0.354 N 
ATOM     60  N   UNL A   1      40.818  30.099  34.071  1.00  0.00    -0.248 NA
ATOM     61  C   UNL A   1      42.105  29.895  36.006  1.00  0.00     0.031 C 
ATOM     62  C   UNL A   1      37.213  32.656  33.708  1.00  0.00     0.029 A 
ATOM     63  C   UNL A   1      38.352  31.879  33.845  1.00  0.00     0.049 A 
ATOM     64  H   UNL A   1      39.344  30.704  32.399  1.00  0.00     0.167 HD
ATOM     65  C   UNL A   1      40.263  30.887  35.073  1.00  0.00     0.074 A 
ATOM     66  C   UNL A   1      41.085  30.707  36.250  1.00  0.00     0.031 C 
ATOM     67  C   UNL A   1      39.166  31.682  35.017  1.00  0.00     0.037 A 
BRANCH  54  68
ATOM     68  C   UNL A   1      36.467  31.871  29.473  1.00  0.00     0.064 A 
ATOM     69  C   UNL A   1      36.424  33.241  29.171  1.00  0.00     0.173 A 
ATOM     70  C   UNL A   1      35.417  31.063  29.013  1.00  0.00     0.173 A 
ATOM     71  F   UNL A   1      37.401  34.057  29.592  1.00  0.00    -0.203 F 
ATOM     72  C   UNL A   1      35.363  33.782  28.449  1.00  0.00     0.198 A 
ATOM     73  C   UNL A   1      34.372  31.604  28.269  1.00  0.00     0.198 A 
ATOM     74  F   UNL A   1      35.418  29.745  29.267  1.00  0.00    -0.203 F 
ATOM     75  F   UNL A   1      35.329  35.099  28.199  1.00  0.00    -0.200 F 
ATOM     76  C   UNL A   1      34.341  32.964  27.996  1.00  0.00     0.200 A 
ATOM     77  F   UNL A   1      33.395  30.808  27.810  1.00  0.00    -0.200 F 
ATOM     78  F   UNL A   1      33.327  33.484  27.292  1.00  0.00    -0.200 F 
ENDBRANCH  54  68
BRANCH  55  79
ATOM     79  C   UNL A   1      43.940  27.958  34.777  1.00  0.00     0.064 A 
ATOM     80  C   UNL A   1      43.796  26.756  35.486  1.00  0.00     0.173 A 
ATOM     81  C   UNL A   1      45.173  28.618  34.855  1.00  0.00     0.173 A 
ATOM     82  F   UNL A   1      42.635  26.087  35.445  1.00  0.00    -0.203 F 
ATOM     83  C   UNL A   1      44.835  26.250  36.264  1.00  0.00     0.198 A 
ATOM     84  C   UNL A   1      46.220  28.098  35.613  1.00  0.00     0.198 A 
ATOM     85  F   UNL A   1      45.366  29.758  34.175  1.00  0.00    -0.203 F 
ATOM     86  F   UNL A   1      44.658  25.122  36.965  1.00  0.00    -0.200 F 
ATOM     87  C   UNL A   1      46.047  26.920  36.325  1.00  0.00     0.200 A 
ATOM     88  F   UNL A   1      47.397  28.738  35.653  1.00  0.00    -0.200 F 
ATOM     89  F   UNL A   1      47.048  26.432  37.070  1.00  0.00    -0.200 F 
ENDBRANCH  55  79
BRANCH  67  90
ATOM     90  C   UNL A   1      38.747  32.397  36.270  1.00  0.00     0.064 A 
ATOM     91  C   UNL A   1      39.154  33.722  36.495  1.00  0.00     0.173 A 
ATOM     92  C   UNL A   1      38.040  31.744  37.289  1.00  0.00     0.173 A 
ATOM     93  F   UNL A   1      39.841  34.387  35.554  1.00  0.00    -0.203 F 
ATOM     94  C   UNL A   1      38.890  34.357  37.705  1.00  0.00     0.198 A 
ATOM     95  C   UNL A   1      37.755  32.393  38.488  1.00  0.00     0.198 A 
ATOM     96  F   UNL A   1      37.620  30.483  37.117  1.00  0.00    -0.203 F 
ATOM     97  F   UNL A   1      39.326  35.607  37.914  1.00  0.00    -0.200 F 
ATOM     98  C   UNL A   1      38.190  33.692  38.700  1.00  0.00     0.200 A 
ATOM     99  F   UNL A   1      37.060  31.757  39.442  1.00  0.00    -0.200 F 
ATOM    100  F   UNL A   1      37.936  34.305  39.865  1.00  0.00    -0.200 F 
ENDBRANCH  67  90
ENDBRANCH  41  42
ENDBRANCH  34  36
ENDBRANCH  33  34
ENDBRANCH  32  33
ENDBRANCH  31  32
ENDBRANCH  30  31
ENDBRANCH  29  30
ENDBRANCH   1  29
TORSDOF 22
ENDMDL
MODEL 2
REMARK VINA RESULT:     -11.3      4.903      7.689
REMARK SMILES O=C(C[C@@H](NS(=O)(=O)c1ccc(Cl)cc1)c1ccc(F)cc1)OCCOCCOCCOC(=O)c1ccc(-c2c3nc(c(-c4c(F)c(F)c(F)c(F)c4F)c4ccc([nH]4)c(-c4c(F)c(F)c(F)c(F)c4F)c4nc(c(-c5c(F)c(F)c(F)c(F)c5F)c5ccc2[nH]5)C=C4)C=C3)cc1
REMARK SMILES IDX 27 1 26 2 25 3 24 4 23 5 2 6 1 7 3 8 4 9 5 10 6 12 7 13 8 14
REMARK SMILES IDX 9 15 10 16 15 17 11 18 14 19 12 20 13 21 16 22 17 23 22 24
REMARK SMILES IDX 18 25 21 26 19 27 20 28 28 29 29 30 30 31 31 32 32 33 33 34
REMARK SMILES IDX 34 35 35 36 36 37 97 38 37 39 96 40 38 41 39 42 40 43 90 44
REMARK SMILES IDX 41 45 95 46 89 47 91 48 42 49 94 50 88 51 87 52 43 54 75 55
REMARK SMILES IDX 55 56 74 57 56 58 59 59 73 60 92 61 57 62 58 63 72 65 93 66
REMARK SMILES IDX 60 67 44 68 45 69 53 70 46 71 47 72 51 73 54 74 48 75 49 76
REMARK SMILES IDX 52 77 50 78 76 79 77 80 85 81 78 82 79 83 83 84 86 85 80 86
REMARK SMILES IDX 81 87 84 88 82 89 61 90 62 91 70 92 63 93 64 94 68 95 71 96
REMARK SMILES IDX 65 97 66 98 69 99 67 100
REMARK H PARENT 5 11 91 53 59 64
REMARK Flexibility Score: inf
ROOT
ATOM      1  C   UNL A   1      35.271  21.692  24.835  1.00  0.00     0.188 C 
ENDROOT
BRANCH   1   2
ATOM      2  O   UNL A   1      34.242  22.292  24.065  1.00  0.00    -0.376 OA
BRANCH   2   3
ATOM      3  C   UNL A   1      32.984  21.630  23.912  1.00  0.00     0.202 C 
BRANCH   3   4
ATOM      4  C   UNL A   1      31.999  21.585  25.083  1.00  0.00     0.261 C 
BRANCH   4   5
ATOM      5  O   UNL A   1      32.524  22.050  26.357  1.00  0.00    -0.463 OA
BRANCH   5   6
ATOM      6  C   UNL A   1      32.059  23.180  26.948  1.00  0.00     0.307 C 
ATOM      7  O   UNL A   1      31.017  23.200  27.591  1.00  0.00    -0.252 OA
BRANCH   6   8
ATOM      8  C   UNL A   1      32.932  24.393  26.772  1.00  0.00     0.147 C 
BRANCH   8   9
ATOM      9  C   UNL A   1      32.581  25.358  25.631  1.00  0.00     0.111 C 
BRANCH   9  10
ATOM     10  N   UNL A   1      31.261  25.103  25.019  1.00  0.00    -0.203 NA
ATOM     11  H   UNL A   1      30.612  25.773  25.432  1.00  0.00     0.142 HD
BRANCH  10  12
ATOM     12  S   UNL A   1      31.066  25.204  23.354  1.00  0.00     0.241 S 
ATOM     13  O   UNL A   1      32.369  25.384  22.759  1.00  0.00    -0.207 OA
ATOM     14  O   UNL A   1      30.213  24.088  23.004  1.00  0.00    -0.207 OA
BRANCH  12  15
ATOM     15  C   UNL A   1      30.130  26.694  23.177  1.00  0.00     0.082 A 
ATOM     16  C   UNL A   1      30.786  27.849  22.737  1.00  0.00     0.023 A 
ATOM     17  C   UNL A   1      28.778  26.725  23.530  1.00  0.00     0.023 A 
ATOM     18  C   UNL A   1      30.105  29.064  22.728  1.00  0.00     0.022 A 
ATOM     19  C   UNL A   1      28.094  27.942  23.496  1.00  0.00     0.022 A 
ATOM     20  C   UNL A   1      28.765  29.106  23.115  1.00  0.00     0.041 A 
ATOM     21  Cl  UNL A   1      27.939  30.614  23.138  1.00  0.00    -0.084 Cl
ENDBRANCH  12  15
ENDBRANCH  10  12
ENDBRANCH   9  10
BRANCH   9  22
ATOM     22  C   UNL A   1      32.690  26.790  26.177  1.00  0.00    -0.029 A 
ATOM     23  C   UNL A   1      33.869  27.553  26.043  1.00  0.00     0.008 A 
ATOM     24  C   UNL A   1      31.590  27.381  26.825  1.00  0.00     0.008 A 
ATOM     25  C   UNL A   1      33.967  28.833  26.590  1.00  0.00     0.039 A 
ATOM     26  C   UNL A   1      31.686  28.670  27.356  1.00  0.00     0.039 A 
ATOM     27  C   UNL A   1      32.876  29.379  27.244  1.00  0.00     0.123 A 
ATOM     28  F   UNL A   1      32.968  30.603  27.778  1.00  0.00    -0.207 F 
ENDBRANCH   9  22
ENDBRANCH   8   9
ENDBRANCH   6   8
ENDBRANCH   5   6
ENDBRANCH   4   5
ENDBRANCH   3   4
ENDBRANCH   2   3
ENDBRANCH   1   2
BRANCH   1  29
ATOM     29  C   UNL A   1      35.187  20.169  24.957  1.00  0.00     0.188 C 
BRANCH  29  30
ATOM     30  O   UNL A   1      36.405  19.449  24.848  1.00  0.00    -0.376 OA
BRANCH  30  31
ATOM     31  C   UNL A   1      37.626  20.181  24.962  1.00  0.00     0.202 C 
BRANCH  31  32
ATOM     32  C   UNL A   1      38.915  19.427  25.326  1.00  0.00     0.261 C 
BRANCH  32  33
ATOM     33  O   UNL A   1      39.862  20.217  26.077  1.00  0.00    -0.460 OA
BRANCH  33  34
ATOM     34  C   UNL A   1      41.135  19.754  26.074  1.00  0.00     0.338 C 
ATOM     35  O   UNL A   1      41.523  18.657  25.708  1.00  0.00    -0.246 OA
BRANCH  34  36
ATOM     36  C   UNL A   1      42.086  20.801  26.486  1.00  0.00     0.060 A 
ATOM     37  C   UNL A   1      42.237  21.076  27.852  1.00  0.00     0.016 A 
ATOM     38  C   UNL A   1      42.639  21.651  25.528  1.00  0.00     0.016 A 
ATOM     39  C   UNL A   1      42.900  22.234  28.264  1.00  0.00     0.010 A 
ATOM     40  C   UNL A   1      43.294  22.815  25.942  1.00  0.00     0.010 A 
ATOM     41  C   UNL A   1      43.387  23.137  27.309  1.00  0.00    -0.014 A 
BRANCH  41  42
ATOM     42  C   UNL A   1      43.820  24.500  27.709  1.00  0.00     0.031 A 
ATOM     43  C   UNL A   1      42.771  25.527  28.038  1.00  0.00     0.074 A 
ATOM     44  C   UNL A   1      45.121  24.832  27.771  1.00  0.00     0.049 A 
ATOM     45  N   UNL A   1      42.907  26.806  28.284  1.00  0.00    -0.248 NA
ATOM     46  C   UNL A   1      41.381  25.046  28.099  1.00  0.00     0.031 C 
ATOM     47  C   UNL A   1      46.234  23.917  27.546  1.00  0.00     0.029 A 
ATOM     48  N   UNL A   1      45.720  26.042  28.024  1.00  0.00    -0.354 N 
ATOM     49  C   UNL A   1      41.625  27.283  28.518  1.00  0.00     0.074 A 
ATOM     50  C   UNL A   1      40.720  26.163  28.365  1.00  0.00     0.031 C 
ATOM     51  C   UNL A   1      47.386  24.603  27.649  1.00  0.00     0.029 A 
ATOM     52  C   UNL A   1      47.087  26.013  27.902  1.00  0.00     0.049 A 
ATOM     53  H   UNL A   1      45.218  26.852  28.270  1.00  0.00     0.167 HD
ATOM     54  C   UNL A   1      41.237  28.540  28.837  1.00  0.00     0.037 A 
ATOM     55  C   UNL A   1      47.989  27.013  27.954  1.00  0.00     0.037 A 
ATOM     56  C   UNL A   1      42.135  29.654  28.992  1.00  0.00     0.049 A 
ATOM     57  C   UNL A   1      47.529  28.424  28.213  1.00  0.00     0.074 A 
ATOM     58  C   UNL A   1      41.833  30.963  29.324  1.00  0.00     0.029 A 
ATOM     59  N   UNL A   1      43.509  29.590  28.820  1.00  0.00    -0.354 N 
ATOM     60  N   UNL A   1      46.316  28.869  28.430  1.00  0.00    -0.248 NA
ATOM     61  C   UNL A   1      48.561  29.472  28.232  1.00  0.00     0.031 C 
ATOM     62  C   UNL A   1      43.019  31.703  29.302  1.00  0.00     0.029 A 
ATOM     63  C   UNL A   1      44.066  30.843  29.014  1.00  0.00     0.049 A 
ATOM     64  H   UNL A   1      44.014  28.776  28.593  1.00  0.00     0.167 HD
ATOM     65  C   UNL A   1      46.441  30.236  28.644  1.00  0.00     0.074 A 
ATOM     66  C   UNL A   1      47.849  30.551  28.531  1.00  0.00     0.031 C 
ATOM     67  C   UNL A   1      45.471  31.144  28.916  1.00  0.00     0.037 A 
BRANCH  54  68
ATOM     68  C   UNL A   1      39.769  28.793  29.022  1.00  0.00     0.064 A 
ATOM     69  C   UNL A   1      38.992  29.266  27.954  1.00  0.00     0.173 A 
ATOM     70  C   UNL A   1      39.146  28.629  30.268  1.00  0.00     0.173 A 
ATOM     71  F   UNL A   1      39.542  29.444  26.744  1.00  0.00    -0.203 F 
ATOM     72  C   UNL A   1      37.646  29.576  28.130  1.00  0.00     0.198 A 
ATOM     73  C   UNL A   1      37.793  28.915  30.433  1.00  0.00     0.198 A 
ATOM     74  F   UNL A   1      39.844  28.169  31.317  1.00  0.00    -0.203 F 
ATOM     75  F   UNL A   1      36.931  30.056  27.102  1.00  0.00    -0.200 F 
ATOM     76  C   UNL A   1      37.047  29.397  29.367  1.00  0.00     0.200 A 
ATOM     77  F   UNL A   1      37.209  28.719  31.624  1.00  0.00    -0.200 F 
ATOM     78  F   UNL A   1      35.749  29.686  29.532  1.00  0.00    -0.200 F 
ENDBRANCH  54  68
BRANCH  55  79
ATOM     79  C   UNL A   1      49.430  26.708  27.749  1.00  0.00     0.064 A 
ATOM     80  C   UNL A   1      50.305  26.564  28.836  1.00  0.00     0.173 A 
ATOM     81  C   UNL A   1      49.961  26.577  26.460  1.00  0.00     0.173 A 
ATOM     82  F   UNL A   1      49.846  26.682  30.090  1.00  0.00    -0.203 F 
ATOM     83  C   UNL A   1      51.664  26.326  28.639  1.00  0.00     0.198 A 
ATOM     84  C   UNL A   1      51.316  26.314  26.265  1.00  0.00     0.198 A 
ATOM     85  F   UNL A   1      49.159  26.683  25.391  1.00  0.00    -0.203 F 
ATOM     86  F   UNL A   1      52.487  26.234  29.692  1.00  0.00    -0.200 F 
ATOM     87  C   UNL A   1      52.168  26.199  27.354  1.00  0.00     0.200 A 
ATOM     88  F   UNL A   1      51.795  26.171  25.021  1.00  0.00    -0.200 F 
ATOM     89  F   UNL A   1      53.474  25.966  27.163  1.00  0.00    -0.200 F 
ENDBRANCH  55  79
BRANCH  67  90
ATOM     90  C   UNL A   1      45.884  32.569  29.155  1.00  0.00     0.064 A 
ATOM     91  C   UNL A   1      45.964  33.470  28.082  1.00  0.00     0.173 A 
ATOM     92  C   UNL A   1      46.302  33.012  30.417  1.00  0.00     0.173 A 
ATOM     93  F   UNL A   1      45.584  33.092  26.851  1.00  0.00    -0.203 F 
ATOM     94  C   UNL A   1      46.470  34.755  28.259  1.00  0.00     0.198 A 
ATOM     95  C   UNL A   1      46.784  34.307  30.596  1.00  0.00     0.198 A 
ATOM     96  F   UNL A   1      46.235  32.193  31.477  1.00  0.00    -0.203 F 
ATOM     97  F   UNL A   1      46.577  35.583  27.210  1.00  0.00    -0.200 F 
ATOM     98  C   UNL A   1      46.879  35.172  29.516  1.00  0.00     0.200 A 
ATOM     99  F   UNL A   1      47.159  34.717  31.816  1.00  0.00    -0.200 F 
ATOM    100  F   UNL A   1      47.367  36.409  29.686  1.00  0.00    -0.200 F 
ENDBRANCH  67  90
ENDBRANCH  41  42
ENDBRANCH  34  36
ENDBRANCH  33  34
ENDBRANCH  32  33
ENDBRANCH  31  32
ENDBRANCH  30  31
ENDBRANCH  29  30
ENDBRANCH   1  29
TORSDOF 22
ENDMDL
MODEL 3
REMARK VINA RESULT:     -11.3      4.761      7.910
REMARK SMILES O=C(C[C@@H](NS(=O)(=O)c1ccc(Cl)cc1)c1ccc(F)cc1)OCCOCCOCCOC(=O)c1ccc(-c2c3nc(c(-c4c(F)c(F)c(F)c(F)c4F)c4ccc([nH]4)c(-c4c(F)c(F)c(F)c(F)c4F)c4nc(c(-c5c(F)c(F)c(F)c(F)c5F)c5ccc2[nH]5)C=C4)C=C3)cc1
REMARK SMILES IDX 27 1 26 2 25 3 24 4 23 5 2 6 1 7 3 8 4 9 5 10 6 12 7 13 8 14
REMARK SMILES IDX 9 15 10 16 15 17 11 18 14 19 12 20 13 21 16 22 17 23 22 24
REMARK SMILES IDX 18 25 21 26 19 27 20 28 28 29 29 30 30 31 31 32 32 33 33 34
REMARK SMILES IDX 34 35 35 36 36 37 97 38 37 39 96 40 38 41 39 42 40 43 90 44
REMARK SMILES IDX 41 45 95 46 89 47 91 48 42 49 94 50 88 51 87 52 43 54 75 55
REMARK SMILES IDX 55 56 74 57 56 58 59 59 73 60 92 61 57 62 58 63 72 65 93 66
REMARK SMILES IDX 60 67 44 68 45 69 53 70 46 71 47 72 51 73 54 74 48 75 49 76
REMARK SMILES IDX 52 77 50 78 76 79 77 80 85 81 78 82 79 83 83 84 86 85 80 86
REMARK SMILES IDX 81 87 84 88 82 89 61 90 62 91 70 92 63 93 64 94 68 95 71 96
REMARK SMILES IDX 65 97 66 98 69 99 67 100
REMARK H PARENT 5 11 91 53 59 64
REMARK Flexibility Score: inf
ROOT
ATOM      1  C   UNL A   1      35.155  21.741  26.235  1.00  0.00     0.188 C 
ENDROOT
BRANCH   1   2
ATOM      2  O   UNL A   1      33.957  22.274  26.775  1.00  0.00    -0.376 OA
BRANCH   2   3
ATOM      3  C   UNL A   1      32.841  22.537  25.923  1.00  0.00     0.202 C 
BRANCH   3   4
ATOM      4  C   UNL A   1      31.762  23.530  26.364  1.00  0.00     0.261 C 
BRANCH   4   5
ATOM      5  O   UNL A   1      30.958  24.093  25.291  1.00  0.00    -0.463 OA
BRANCH   5   6
ATOM      6  C   UNL A   1      30.172  25.181  25.488  1.00  0.00     0.307 C 
ATOM      7  O   UNL A   1      29.921  25.613  26.606  1.00  0.00    -0.252 OA
BRANCH   6   8
ATOM      8  C   UNL A   1      29.656  25.827  24.230  1.00  0.00     0.147 C 
BRANCH   8   9
ATOM      9  C   UNL A   1      30.606  26.770  23.479  1.00  0.00     0.111 C 
BRANCH   9  10
ATOM     10  N   UNL A   1      31.335  26.123  22.369  1.00  0.00    -0.203 NA
ATOM     11  H   UNL A   1      31.200  26.712  21.547  1.00  0.00     0.142 HD
BRANCH  10  12
ATOM     12  S   UNL A   1      32.985  25.836  22.493  1.00  0.00     0.241 S 
ATOM     13  O   UNL A   1      33.174  24.454  22.867  1.00  0.00    -0.207 OA
ATOM     14  O   UNL A   1      33.557  26.386  21.284  1.00  0.00    -0.207 OA
BRANCH  12  15
ATOM     15  C   UNL A   1      33.445  26.877  23.847  1.00  0.00     0.082 A 
ATOM     16  C   UNL A   1      33.595  26.301  25.114  1.00  0.00     0.023 A 
ATOM     17  C   UNL A   1      33.592  28.254  23.661  1.00  0.00     0.023 A 
ATOM     18  C   UNL A   1      33.814  27.121  26.219  1.00  0.00     0.022 A 
ATOM     19  C   UNL A   1      33.836  29.068  24.769  1.00  0.00     0.022 A 
ATOM     20  C   UNL A   1      33.926  28.500  26.042  1.00  0.00     0.041 A 
ATOM     21  Cl  UNL A   1      34.159  29.511  27.413  1.00  0.00    -0.084 Cl
ENDBRANCH  12  15
ENDBRANCH  10  12
ENDBRANCH   9  10
BRANCH   9  22
ATOM     22  C   UNL A   1      29.785  27.976  22.997  1.00  0.00    -0.029 A 
ATOM     23  C   UNL A   1      28.406  28.098  23.268  1.00  0.00     0.008 A 
ATOM     24  C   UNL A   1      30.410  29.006  22.272  1.00  0.00     0.008 A 
ATOM     25  C   UNL A   1      27.666  29.175  22.779  1.00  0.00     0.039 A 
ATOM     26  C   UNL A   1      29.670  30.093  21.798  1.00  0.00     0.039 A 
ATOM     27  C   UNL A   1      28.305  30.161  22.045  1.00  0.00     0.123 A 
ATOM     28  F   UNL A   1      27.597  31.193  21.567  1.00  0.00    -0.207 F 
ENDBRANCH   9  22
ENDBRANCH   8   9
ENDBRANCH   6   8
ENDBRANCH   5   6
ENDBRANCH   4   5
ENDBRANCH   3   4
ENDBRANCH   2   3
ENDBRANCH   1   2
BRANCH   1  29
ATOM     29  C   UNL A   1      34.965  20.588  25.247  1.00  0.00     0.188 C 
BRANCH  29  30
ATOM     30  O   UNL A   1      36.140  19.949  24.772  1.00  0.00    -0.376 OA
BRANCH  30  31
ATOM     31  C   UNL A   1      37.389  20.610  24.982  1.00  0.00     0.202 C 
BRANCH  31  32
ATOM     32  C   UNL A   1      38.653  19.761  25.196  1.00  0.00     0.261 C 
BRANCH  32  33
ATOM     33  O   UNL A   1      39.275  19.953  26.485  1.00  0.00    -0.460 OA
BRANCH  33  34
ATOM     34  C   UNL A   1      40.567  20.358  26.450  1.00  0.00     0.338 C 
ATOM     35  O   UNL A   1      41.515  19.769  25.958  1.00  0.00    -0.246 OA
BRANCH  34  36
ATOM     36  C   UNL A   1      40.717  21.713  27.011  1.00  0.00     0.060 A 
ATOM     37  C   UNL A   1      40.242  22.805  26.273  1.00  0.00     0.016 A 
ATOM     38  C   UNL A   1      41.522  21.912  28.133  1.00  0.00     0.016 A 
ATOM     39  C   UNL A   1      40.614  24.104  26.627  1.00  0.00     0.010 A 
ATOM     40  C   UNL A   1      41.902  23.212  28.480  1.00  0.00     0.010 A 
ATOM     41  C   UNL A   1      41.490  24.310  27.702  1.00  0.00    -0.014 A 
BRANCH  41  42
ATOM     42  C   UNL A   1      42.132  25.633  27.909  1.00  0.00     0.031 A 
ATOM     43  C   UNL A   1      41.371  26.702  28.644  1.00  0.00     0.074 A 
ATOM     44  C   UNL A   1      43.367  25.893  27.447  1.00  0.00     0.049 A 
ATOM     45  N   UNL A   1      41.675  27.963  28.829  1.00  0.00    -0.248 NA
ATOM     46  C   UNL A   1      40.094  26.295  29.253  1.00  0.00     0.031 C 
ATOM     47  C   UNL A   1      44.237  24.929  26.783  1.00  0.00     0.029 A 
ATOM     48  N   UNL A   1      44.093  27.059  27.452  1.00  0.00    -0.354 N 
ATOM     49  C   UNL A   1      40.626  28.499  29.564  1.00  0.00     0.074 A 
ATOM     50  C   UNL A   1      39.667  27.435  29.775  1.00  0.00     0.031 C 
ATOM     51  C   UNL A   1      45.375  25.548  26.422  1.00  0.00     0.029 A 
ATOM     52  C   UNL A   1      45.291  26.962  26.790  1.00  0.00     0.049 A 
ATOM     53  H   UNL A   1      43.784  27.886  27.888  1.00  0.00     0.167 HD
ATOM     54  C   UNL A   1      40.479  29.763  30.027  1.00  0.00     0.037 A 
ATOM     55  C   UNL A   1      46.201  27.909  26.486  1.00  0.00     0.037 A 
ATOM     56  C   UNL A   1      41.432  30.821  29.820  1.00  0.00     0.049 A 
ATOM     57  C   UNL A   1      45.973  29.333  26.924  1.00  0.00     0.074 A 
ATOM     58  C   UNL A   1      41.372  32.131  30.260  1.00  0.00     0.029 A 
ATOM     59  N   UNL A   1      42.616  30.690  29.109  1.00  0.00    -0.354 N 
ATOM     60  N   UNL A   1      44.979  29.834  27.616  1.00  0.00    -0.248 NA
ATOM     61  C   UNL A   1      46.990  30.323  26.539  1.00  0.00     0.031 C 
ATOM     62  C   UNL A   1      42.494  32.807  29.772  1.00  0.00     0.029 A 
ATOM     63  C   UNL A   1      43.282  31.903  29.077  1.00  0.00     0.049 A 
ATOM     64  H   UNL A   1      42.934  29.858  28.689  1.00  0.00     0.167 HD
ATOM     65  C   UNL A   1      45.266  31.185  27.777  1.00  0.00     0.074 A 
ATOM     66  C   UNL A   1      46.528  31.427  27.110  1.00  0.00     0.031 C 
ATOM     67  C   UNL A   1      44.546  32.133  28.425  1.00  0.00     0.037 A 
BRANCH  54  68
ATOM     68  C   UNL A   1      39.228  30.087  30.788  1.00  0.00     0.064 A 
ATOM     69  C   UNL A   1      38.103  30.595  30.121  1.00  0.00     0.173 A 
ATOM     70  C   UNL A   1      39.161  29.956  32.183  1.00  0.00     0.173 A 
ATOM     71  F   UNL A   1      38.118  30.744  28.788  1.00  0.00    -0.203 F 
ATOM     72  C   UNL A   1      36.962  30.971  30.824  1.00  0.00     0.198 A 
ATOM     73  C   UNL A   1      38.008  30.308  32.880  1.00  0.00     0.198 A 
ATOM     74  F   UNL A   1      40.207  29.465  32.866  1.00  0.00    -0.203 F 
ATOM     75  F   UNL A   1      35.911  31.482  30.167  1.00  0.00    -0.200 F 
ATOM     76  C   UNL A   1      36.914  30.824  32.201  1.00  0.00     0.200 A 
ATOM     77  F   UNL A   1      37.954  30.143  34.210  1.00  0.00    -0.200 F 
ATOM     78  F   UNL A   1      35.810  31.175  32.876  1.00  0.00    -0.200 F 
ENDBRANCH  54  68
BRANCH  55  79
ATOM     79  C   UNL A   1      47.416  27.535  25.716  1.00  0.00     0.064 A 
ATOM     80  C   UNL A   1      48.582  27.099  26.362  1.00  0.00     0.173 A 
ATOM     81  C   UNL A   1      47.440  27.629  24.319  1.00  0.00     0.173 A 
ATOM     82  F   UNL A   1      48.611  26.995  27.699  1.00  0.00    -0.203 F 
ATOM     83  C   UNL A   1      49.735  26.796  25.640  1.00  0.00     0.198 A 
ATOM     84  C   UNL A   1      48.585  27.302  23.596  1.00  0.00     0.198 A 
ATOM     85  F   UNL A   1      46.341  28.018  23.655  1.00  0.00    -0.203 F 
ATOM     86  F   UNL A   1      50.849  26.422  26.284  1.00  0.00    -0.200 F 
ATOM     87  C   UNL A   1      49.735  26.895  24.258  1.00  0.00     0.200 A 
ATOM     88  F   UNL A   1      48.574  27.378  22.258  1.00  0.00    -0.200 F 
ATOM     89  F   UNL A   1      50.841  26.599  23.562  1.00  0.00    -0.200 F 
ENDBRANCH  55  79
BRANCH  67  90
ATOM     90  C   UNL A   1      45.109  33.523  28.495  1.00  0.00     0.064 A 
ATOM     91  C   UNL A   1      44.836  34.447  27.473  1.00  0.00     0.173 A 
ATOM     92  C   UNL A   1      46.001  33.908  29.506  1.00  0.00     0.173 A 
ATOM     93  F   UNL A   1      43.997  34.125  26.477  1.00  0.00    -0.203 F 
ATOM     94  C   UNL A   1      45.453  35.694  27.449  1.00  0.00     0.198 A 
ATOM     95  C   UNL A   1      46.596  35.167  29.492  1.00  0.00     0.198 A 
ATOM     96  F   UNL A   1      46.286  33.066  30.510  1.00  0.00    -0.203 F 
ATOM     97  F   UNL A   1      45.210  36.543  26.440  1.00  0.00    -0.200 F 
ATOM     98  C   UNL A   1      46.332  36.053  28.459  1.00  0.00     0.200 A 
ATOM     99  F   UNL A   1      47.430  35.521  30.481  1.00  0.00    -0.200 F 
ATOM    100  F   UNL A   1      46.927  37.254  28.436  1.00  0.00    -0.200 F 
ENDBRANCH  67  90
ENDBRANCH  41  42
ENDBRANCH  34  36
ENDBRANCH  33  34
ENDBRANCH  32  33
ENDBRANCH  31  32
ENDBRANCH  30  31
ENDBRANCH  29  30
ENDBRANCH   1  29
TORSDOF 22
ENDMDL
