MODEL 1
REMARK VINA RESULT:     -11.3      0.000      0.000
REMARK SMILES CS(=O)(=O)c1ccc(/C=C(/C(=O)OCCOCCOCCOC(=O)c2ccc(-c3c4nc(c(-c5c(F)c(F)c(F)c(F)c5F)c5ccc([nH]5)c(-c5c(F)c(F)c(F)c(F)c5F)c5nc(c(-c6c(F)c(F)c(F)c(F)c6F)c6ccc3[nH]6)C=C5)C=C4)cc2)c2ccc(O)cc2)cc1
REMARK SMILES IDX 17 1 16 2 15 3 14 4 13 5 11 6 12 7 10 8 9 9 8 10 5 11 6 12
REMARK SMILES IDX 96 13 7 14 95 15 2 16 1 17 3 18 4 19 88 20 89 21 94 22 90 23
REMARK SMILES IDX 93 24 91 25 92 26 18 28 19 29 20 30 21 31 22 32 23 33 24 34
REMARK SMILES IDX 25 35 26 36 87 37 27 38 86 39 28 40 29 41 30 42 80 43 31 44
REMARK SMILES IDX 85 45 79 46 81 47 32 48 84 49 78 50 77 51 33 53 65 54 45 55
REMARK SMILES IDX 64 56 46 57 49 58 63 59 82 60 47 61 48 62 62 64 83 65 50 66
REMARK SMILES IDX 34 67 35 68 43 69 36 70 37 71 41 72 44 73 38 74 39 75 42 76
REMARK SMILES IDX 40 77 66 78 67 79 75 80 68 81 69 82 73 83 76 84 70 85 71 86
REMARK SMILES IDX 74 87 72 88 51 89 52 90 60 91 53 92 54 93 58 94 61 95 55 96
REMARK SMILES IDX 56 97 59 98 57 99
REMARK H PARENT 92 27 81 52 49 63
REMARK Flexibility Score: inf
ROOT
ATOM      1  C   UNL A   1      32.450  28.954  25.211  1.00  0.00     0.188 C 
ENDROOT
BRANCH   1   2
ATOM      2  O   UNL A   1      33.123  29.339  24.023  1.00  0.00    -0.376 OA
BRANCH   2   3
ATOM      3  C   UNL A   1      33.843  28.314  23.353  1.00  0.00     0.202 C 
BRANCH   3   4
ATOM      4  C   UNL A   1      32.977  27.369  22.514  1.00  0.00     0.261 C 
BRANCH   4   5
ATOM      5  O   UNL A   1      33.208  25.968  22.743  1.00  0.00    -0.460 OA
BRANCH   5   6
ATOM      6  C   UNL A   1      32.384  25.323  23.602  1.00  0.00     0.338 C 
ATOM      7  O   UNL A   1      31.324  25.763  24.023  1.00  0.00    -0.246 OA
BRANCH   6   8
ATOM      8  C   UNL A   1      32.897  23.937  23.888  1.00  0.00     0.067 C 
ATOM      9  C   UNL A   1      32.029  22.895  23.900  1.00  0.00     0.024 C 
BRANCH   9  10
ATOM     10  C   UNL A   1      32.313  21.447  24.052  1.00  0.00    -0.025 A 
ATOM     11  C   UNL A   1      33.093  18.748  24.106  1.00  0.00     0.067 A 
ATOM     12  C   UNL A   1      33.160  19.510  25.271  1.00  0.00     0.021 A 
ATOM     13  C   UNL A   1      32.545  19.288  22.943  1.00  0.00     0.021 A 
ATOM     14  C   UNL A   1      32.745  20.847  25.243  1.00  0.00     0.009 A 
ATOM     15  C   UNL A   1      32.153  20.630  22.922  1.00  0.00     0.009 A 
BRANCH  11  16
ATOM     16  S   UNL A   1      33.769  17.104  24.077  1.00  0.00     0.175 S 
ATOM     17  C   UNL A   1      32.787  16.190  25.241  1.00  0.00     0.163 C 
ATOM     18  O   UNL A   1      35.111  17.179  24.629  1.00  0.00    -0.224 OA
ATOM     19  O   UNL A   1      33.529  16.571  22.753  1.00  0.00    -0.224 OA
ENDBRANCH  11  16
ENDBRANCH   9  10
BRANCH   8  20
ATOM     20  C   UNL A   1      34.342  23.769  24.146  1.00  0.00    -0.011 A 
ATOM     21  C   UNL A   1      34.844  24.017  25.434  1.00  0.00     0.013 A 
ATOM     22  C   UNL A   1      35.202  23.250  23.167  1.00  0.00     0.013 A 
ATOM     23  C   UNL A   1      36.168  23.712  25.747  1.00  0.00     0.047 A 
ATOM     24  C   UNL A   1      36.527  22.941  23.484  1.00  0.00     0.047 A 
ATOM     25  C   UNL A   1      36.994  23.164  24.776  1.00  0.00     0.115 A 
BRANCH  25  26
ATOM     26  O   UNL A   1      38.265  22.840  25.144  1.00  0.00    -0.508 OA
ATOM     27  H   UNL A   1      38.415  22.130  25.737  1.00  0.00     0.293 HD
ENDBRANCH  25  26
ENDBRANCH   8  20
ENDBRANCH   6   8
ENDBRANCH   5   6
ENDBRANCH   4   5
ENDBRANCH   3   4
ENDBRANCH   2   3
ENDBRANCH   1   2
BRANCH   1  28
ATOM     28  C   UNL A   1      33.141  29.434  26.503  1.00  0.00     0.188 C 
BRANCH  28  29
ATOM     29  O   UNL A   1      32.692  30.600  27.183  1.00  0.00    -0.376 OA
BRANCH  29  30
ATOM     30  C   UNL A   1      31.758  31.463  26.555  1.00  0.00     0.202 C 
BRANCH  30  31
ATOM     31  C   UNL A   1      31.794  32.950  26.926  1.00  0.00     0.261 C 
BRANCH  31  32
ATOM     32  O   UNL A   1      33.112  33.487  27.117  1.00  0.00    -0.460 OA
BRANCH  32  33
ATOM     33  C   UNL A   1      33.240  34.321  28.178  1.00  0.00     0.338 C 
ATOM     34  O   UNL A   1      32.529  35.266  28.471  1.00  0.00    -0.246 OA
BRANCH  33  35
ATOM     35  C   UNL A   1      34.316  33.839  29.070  1.00  0.00     0.060 A 
ATOM     36  C   UNL A   1      35.626  34.254  28.798  1.00  0.00     0.016 A 
ATOM     37  C   UNL A   1      34.060  32.931  30.100  1.00  0.00     0.016 A 
ATOM     38  C   UNL A   1      36.691  33.735  29.531  1.00  0.00     0.010 A 
ATOM     39  C   UNL A   1      35.133  32.390  30.819  1.00  0.00     0.010 A 
ATOM     40  C   UNL A   1      36.454  32.766  30.514  1.00  0.00    -0.014 A 
BRANCH  40  41
ATOM     41  C   UNL A   1      37.599  32.013  31.081  1.00  0.00     0.031 A 
ATOM     42  C   UNL A   1      38.029  32.308  32.490  1.00  0.00     0.074 A 
ATOM     43  C   UNL A   1      38.226  31.061  30.370  1.00  0.00     0.049 A 
ATOM     44  N   UNL A   1      38.997  31.779  33.194  1.00  0.00    -0.248 NA
ATOM     45  C   UNL A   1      37.261  33.342  33.203  1.00  0.00     0.031 C 
ATOM     46  C   UNL A   1      37.882  30.658  29.009  1.00  0.00     0.029 A 
ATOM     47  N   UNL A   1      39.289  30.258  30.703  1.00  0.00    -0.354 N 
ATOM     48  C   UNL A   1      38.953  32.411  34.429  1.00  0.00     0.074 A 
ATOM     49  C   UNL A   1      37.881  33.381  34.373  1.00  0.00     0.031 C 
ATOM     50  C   UNL A   1      38.718  29.679  28.621  1.00  0.00     0.029 A 
ATOM     51  C   UNL A   1      39.678  29.413  29.693  1.00  0.00     0.049 A 
ATOM     52  H   UNL A   1      39.731  30.287  31.582  1.00  0.00     0.167 HD
ATOM     53  C   UNL A   1      39.735  32.201  35.515  1.00  0.00     0.037 A 
ATOM     54  C   UNL A   1      40.703  28.541  29.638  1.00  0.00     0.037 A 
ATOM     55  C   UNL A   1      40.814  31.251  35.567  1.00  0.00     0.049 A 
ATOM     56  C   UNL A   1      41.606  28.379  30.834  1.00  0.00     0.074 A 
ATOM     57  C   UNL A   1      41.661  30.965  36.623  1.00  0.00     0.029 A 
ATOM     58  N   UNL A   1      41.201  30.439  34.511  1.00  0.00    -0.354 N 
ATOM     59  N   UNL A   1      41.540  28.959  32.009  1.00  0.00    -0.248 NA
ATOM     60  C   UNL A   1      42.730  27.442  30.695  1.00  0.00     0.031 C 
ATOM     61  C   UNL A   1      42.593  30.015  36.191  1.00  0.00     0.029 A 
ATOM     62  C   UNL A   1      42.293  29.672  34.882  1.00  0.00     0.049 A 
ATOM     63  H   UNL A   1      40.766  30.415  33.629  1.00  0.00     0.167 HD
ATOM     64  C   UNL A   1      42.590  28.435  32.755  1.00  0.00     0.074 A 
ATOM     65  C   UNL A   1      43.272  27.484  31.904  1.00  0.00     0.031 C 
ATOM     66  C   UNL A   1      42.954  28.717  34.029  1.00  0.00     0.037 A 
BRANCH  53  67
ATOM     67  C   UNL A   1      39.466  33.041  36.727  1.00  0.00     0.064 A 
ATOM     68  C   UNL A   1      38.559  32.634  37.717  1.00  0.00     0.173 A 
ATOM     69  C   UNL A   1      40.142  34.256  36.913  1.00  0.00     0.173 A 
ATOM     70  F   UNL A   1      37.877  31.487  37.577  1.00  0.00    -0.203 F 
ATOM     71  C   UNL A   1      38.322  33.424  38.838  1.00  0.00     0.198 A 
ATOM     72  C   UNL A   1      39.920  35.031  38.047  1.00  0.00     0.198 A 
ATOM     73  F   UNL A   1      41.020  34.687  35.996  1.00  0.00    -0.203 F 
ATOM     74  F   UNL A   1      37.419  33.038  39.749  1.00  0.00    -0.200 F 
ATOM     75  C   UNL A   1      39.007  34.619  39.004  1.00  0.00     0.200 A 
ATOM     76  F   UNL A   1      40.590  36.181  38.212  1.00  0.00    -0.200 F 
ATOM     77  F   UNL A   1      38.779  35.378  40.086  1.00  0.00    -0.200 F 
ENDBRANCH  53  67
BRANCH  54  78
ATOM     78  C   UNL A   1      40.946  27.756  28.400  1.00  0.00     0.064 A 
ATOM     79  C   UNL A   1      40.395  26.478  28.233  1.00  0.00     0.173 A 
ATOM     80  C   UNL A   1      41.762  28.255  27.374  1.00  0.00     0.173 A 
ATOM     81  F   UNL A   1      39.634  25.945  29.201  1.00  0.00    -0.203 F 
ATOM     82  C   UNL A   1      40.667  25.720  27.096  1.00  0.00     0.198 A 
ATOM     83  C   UNL A   1      42.012  27.507  26.225  1.00  0.00     0.198 A 
ATOM     84  F   UNL A   1      42.320  29.468  27.489  1.00  0.00    -0.203 F 
ATOM     85  F   UNL A   1      40.169  24.481  26.984  1.00  0.00    -0.200 F 
ATOM     86  C   UNL A   1      41.471  26.237  26.090  1.00  0.00     0.200 A 
ATOM     87  F   UNL A   1      42.783  28.012  25.254  1.00  0.00    -0.200 F 
ATOM     88  F   UNL A   1      41.735  25.506  24.999  1.00  0.00    -0.200 F 
ENDBRANCH  54  78
BRANCH  66  89
ATOM     89  C   UNL A   1      44.117  27.961  34.603  1.00  0.00     0.064 A 
ATOM     90  C   UNL A   1      43.952  26.715  35.225  1.00  0.00     0.173 A 
ATOM     91  C   UNL A   1      45.420  28.467  34.483  1.00  0.00     0.173 A 
ATOM     92  F   UNL A   1      42.725  26.194  35.379  1.00  0.00    -0.203 F 
ATOM     93  C   UNL A   1      45.048  26.013  35.724  1.00  0.00     0.198 A 
ATOM     94  C   UNL A   1      46.515  27.750  34.956  1.00  0.00     0.198 A 
ATOM     95  F   UNL A   1      45.632  29.652  33.889  1.00  0.00    -0.203 F 
ATOM     96  F   UNL A   1      44.862  24.844  36.352  1.00  0.00    -0.200 F 
ATOM     97  C   UNL A   1      46.328  26.528  35.582  1.00  0.00     0.200 A 
ATOM     98  F   UNL A   1      47.753  28.243  34.806  1.00  0.00    -0.200 F 
ATOM     99  F   UNL A   1      47.381  25.847  36.055  1.00  0.00    -0.200 F 
ENDBRANCH  66  89
ENDBRANCH  40  41
ENDBRANCH  33  35
ENDBRANCH  32  33
ENDBRANCH  31  32
ENDBRANCH  30  31
ENDBRANCH  29  30
ENDBRANCH  28  29
ENDBRANCH   1  28
TORSDOF 21
ENDMDL
MODEL 2
REMARK VINA RESULT:     -11.2      0.750      7.047
REMARK SMILES CS(=O)(=O)c1ccc(/C=C(/C(=O)OCCOCCOCCOC(=O)c2ccc(-c3c4nc(c(-c5c(F)c(F)c(F)c(F)c5F)c5ccc([nH]5)c(-c5c(F)c(F)c(F)c(F)c5F)c5nc(c(-c6c(F)c(F)c(F)c(F)c6F)c6ccc3[nH]6)C=C5)C=C4)cc2)c2ccc(O)cc2)cc1
REMARK SMILES IDX 17 1 16 2 15 3 14 4 13 5 11 6 12 7 10 8 9 9 8 10 5 11 6 12
REMARK SMILES IDX 96 13 7 14 95 15 2 16 1 17 3 18 4 19 88 20 89 21 94 22 90 23
REMARK SMILES IDX 93 24 91 25 92 26 18 28 19 29 20 30 21 31 22 32 23 33 24 34
REMARK SMILES IDX 25 35 26 36 87 37 27 38 86 39 28 40 29 41 30 42 80 43 31 44
REMARK SMILES IDX 85 45 79 46 81 47 32 48 84 49 78 50 77 51 33 53 65 54 45 55
REMARK SMILES IDX 64 56 46 57 49 58 63 59 82 60 47 61 48 62 62 64 83 65 50 66
REMARK SMILES IDX 34 67 35 68 43 69 36 70 37 71 41 72 44 73 38 74 39 75 42 76
REMARK SMILES IDX 40 77 66 78 67 79 75 80 68 81 69 82 73 83 76 84 70 85 71 86
REMARK SMILES IDX 74 87 72 88 51 89 52 90 60 91 53 92 54 93 58 94 61 95 55 96
REMARK SMILES IDX 56 97 59 98 57 99
REMARK H PARENT 92 27 81 52 49 63
REMARK Flexibility Score: inf
ROOT
ATOM      1  C   UNL A   1      32.304  28.923  25.140  1.00  0.00     0.188 C 
ENDROOT
BRANCH   1   2
ATOM      2  O   UNL A   1      33.265  29.330  24.179  1.00  0.00    -0.376 OA
BRANCH   2   3
ATOM      3  C   UNL A   1      33.897  28.289  23.449  1.00  0.00     0.202 C 
BRANCH   3   4
ATOM      4  C   UNL A   1      32.935  27.324  22.750  1.00  0.00     0.261 C 
BRANCH   4   5
ATOM      5  O   UNL A   1      33.240  25.929  22.923  1.00  0.00    -0.460 OA
BRANCH   5   6
ATOM      6  C   UNL A   1      32.299  25.141  23.495  1.00  0.00     0.338 C 
ATOM      7  O   UNL A   1      31.125  25.445  23.646  1.00  0.00    -0.246 OA
BRANCH   6   8
ATOM      8  C   UNL A   1      32.870  23.788  23.825  1.00  0.00     0.067 C 
ATOM      9  C   UNL A   1      32.053  22.706  23.845  1.00  0.00     0.024 C 
BRANCH   9  10
ATOM     10  C   UNL A   1      32.401  21.278  24.038  1.00  0.00    -0.025 A 
ATOM     11  C   UNL A   1      33.277  18.610  24.143  1.00  0.00     0.067 A 
ATOM     12  C   UNL A   1      33.438  19.434  25.255  1.00  0.00     0.021 A 
ATOM     13  C   UNL A   1      32.592  19.070  23.019  1.00  0.00     0.021 A 
ATOM     14  C   UNL A   1      32.976  20.754  25.205  1.00  0.00     0.009 A 
ATOM     15  C   UNL A   1      32.153  20.397  22.972  1.00  0.00     0.009 A 
BRANCH  11  16
ATOM     16  S   UNL A   1      34.003  16.987  24.125  1.00  0.00     0.175 S 
ATOM     17  C   UNL A   1      32.896  15.984  25.085  1.00  0.00     0.163 C 
ATOM     18  O   UNL A   1      35.249  17.064  24.867  1.00  0.00    -0.224 OA
ATOM     19  O   UNL A   1      33.971  16.524  22.753  1.00  0.00    -0.224 OA
ENDBRANCH  11  16
ENDBRANCH   9  10
BRANCH   8  20
ATOM     20  C   UNL A   1      34.316  23.695  24.117  1.00  0.00    -0.011 A 
ATOM     21  C   UNL A   1      34.781  24.027  25.400  1.00  0.00     0.013 A 
ATOM     22  C   UNL A   1      35.217  23.167  23.180  1.00  0.00     0.013 A 
ATOM     23  C   UNL A   1      36.111  23.795  25.751  1.00  0.00     0.047 A 
ATOM     24  C   UNL A   1      36.547  22.931  23.536  1.00  0.00     0.047 A 
ATOM     25  C   UNL A   1      36.979  23.237  24.823  1.00  0.00     0.115 A 
BRANCH  25  26
ATOM     26  O   UNL A   1      38.254  22.986  25.229  1.00  0.00    -0.508 OA
ATOM     27  H   UNL A   1      38.977  23.357  24.762  1.00  0.00     0.293 HD
ENDBRANCH  25  26
ENDBRANCH   8  20
ENDBRANCH   6   8
ENDBRANCH   5   6
ENDBRANCH   4   5
ENDBRANCH   3   4
ENDBRANCH   2   3
ENDBRANCH   1   2
BRANCH   1  28
ATOM     28  C   UNL A   1      32.710  29.230  26.596  1.00  0.00     0.188 C 
BRANCH  28  29
ATOM     29  O   UNL A   1      32.255  30.409  27.248  1.00  0.00    -0.376 OA
BRANCH  29  30
ATOM     30  C   UNL A   1      31.579  31.409  26.503  1.00  0.00     0.202 C 
BRANCH  30  31
ATOM     31  C   UNL A   1      31.831  32.874  26.874  1.00  0.00     0.261 C 
BRANCH  31  32
ATOM     32  O   UNL A   1      33.160  33.153  27.341  1.00  0.00    -0.460 OA
BRANCH  32  33
ATOM     33  C   UNL A   1      33.248  34.152  28.253  1.00  0.00     0.338 C 
ATOM     34  O   UNL A   1      32.506  35.111  28.378  1.00  0.00    -0.246 OA
BRANCH  33  35
ATOM     35  C   UNL A   1      34.321  33.854  29.224  1.00  0.00     0.060 A 
ATOM     36  C   UNL A   1      35.638  34.160  28.857  1.00  0.00     0.016 A 
ATOM     37  C   UNL A   1      34.055  33.210  30.434  1.00  0.00     0.016 A 
ATOM     38  C   UNL A   1      36.698  33.791  29.683  1.00  0.00     0.010 A 
ATOM     39  C   UNL A   1      35.122  32.816  31.251  1.00  0.00     0.010 A 
ATOM     40  C   UNL A   1      36.448  33.076  30.861  1.00  0.00    -0.014 A 
BRANCH  40  41
ATOM     41  C   UNL A   1      37.580  32.439  31.577  1.00  0.00     0.031 A 
ATOM     42  C   UNL A   1      38.283  31.282  30.925  1.00  0.00     0.074 A 
ATOM     43  C   UNL A   1      37.997  32.897  32.769  1.00  0.00     0.049 A 
ATOM     44  N   UNL A   1      39.293  30.571  31.358  1.00  0.00    -0.248 NA
ATOM     45  C   UNL A   1      37.780  30.872  29.605  1.00  0.00     0.031 C 
ATOM     46  C   UNL A   1      37.420  34.030  33.487  1.00  0.00     0.029 A 
ATOM     47  N   UNL A   1      39.010  32.459  33.585  1.00  0.00    -0.354 N 
ATOM     48  C   UNL A   1      39.547  29.634  30.365  1.00  0.00     0.074 A 
ATOM     49  C   UNL A   1      38.570  29.849  29.319  1.00  0.00     0.031 C 
ATOM     50  C   UNL A   1      38.092  34.202  34.639  1.00  0.00     0.029 A 
ATOM     51  C   UNL A   1      39.120  33.167  34.755  1.00  0.00     0.049 A 
ATOM     52  H   UNL A   1      39.601  31.706  33.353  1.00  0.00     0.167 HD
ATOM     53  C   UNL A   1      40.508  28.681  30.326  1.00  0.00     0.037 A 
ATOM     54  C   UNL A   1      39.945  32.987  35.805  1.00  0.00     0.037 A 
ATOM     55  C   UNL A   1      41.468  28.453  31.374  1.00  0.00     0.049 A 
ATOM     56  C   UNL A   1      40.958  31.870  35.771  1.00  0.00     0.074 A 
ATOM     57  C   UNL A   1      42.481  27.512  31.425  1.00  0.00     0.029 A 
ATOM     58  N   UNL A   1      41.524  29.168  32.561  1.00  0.00    -0.354 N 
ATOM     59  N   UNL A   1      41.211  31.008  34.816  1.00  0.00    -0.248 NA
ATOM     60  C   UNL A   1      41.799  31.701  36.964  1.00  0.00     0.031 C 
ATOM     61  C   UNL A   1      43.121  27.626  32.664  1.00  0.00     0.029 A 
ATOM     62  C   UNL A   1      42.538  28.672  33.363  1.00  0.00     0.049 A 
ATOM     63  H   UNL A   1      40.930  29.915  32.798  1.00  0.00     0.167 HD
ATOM     64  C   UNL A   1      42.257  30.218  35.279  1.00  0.00     0.074 A 
ATOM     65  C   UNL A   1      42.598  30.709  36.597  1.00  0.00     0.031 C 
ATOM     66  C   UNL A   1      42.877  29.180  34.667  1.00  0.00     0.037 A 
BRANCH  53  67
ATOM     67  C   UNL A   1      40.547  27.792  29.119  1.00  0.00     0.064 A 
ATOM     68  C   UNL A   1      39.726  26.660  29.015  1.00  0.00     0.173 A 
ATOM     69  C   UNL A   1      41.398  28.091  28.045  1.00  0.00     0.173 A 
ATOM     70  F   UNL A   1      38.907  26.324  30.023  1.00  0.00    -0.203 F 
ATOM     71  C   UNL A   1      39.774  25.845  27.887  1.00  0.00     0.198 A 
ATOM     72  C   UNL A   1      41.424  27.288  26.909  1.00  0.00     0.198 A 
ATOM     73  F   UNL A   1      42.200  29.165  28.097  1.00  0.00    -0.203 F 
ATOM     74  F   UNL A   1      39.013  24.743  27.826  1.00  0.00    -0.200 F 
ATOM     75  C   UNL A   1      40.618  26.163  26.833  1.00  0.00     0.200 A 
ATOM     76  F   UNL A   1      42.232  27.602  25.887  1.00  0.00    -0.200 F 
ATOM     77  F   UNL A   1      40.659  25.379  25.746  1.00  0.00    -0.200 F 
ENDBRANCH  53  67
BRANCH  54  78
ATOM     78  C   UNL A   1      39.844  33.875  36.992  1.00  0.00     0.064 A 
ATOM     79  C   UNL A   1      40.634  35.027  37.103  1.00  0.00     0.173 A 
ATOM     80  C   UNL A   1      38.979  33.571  38.054  1.00  0.00     0.173 A 
ATOM     81  F   UNL A   1      41.499  35.343  36.128  1.00  0.00    -0.203 F 
ATOM     82  C   UNL A   1      40.579  35.831  38.240  1.00  0.00     0.198 A 
ATOM     83  C   UNL A   1      38.905  34.389  39.179  1.00  0.00     0.198 A 
ATOM     84  F   UNL A   1      38.209  32.475  38.000  1.00  0.00    -0.203 F 
ATOM     85  F   UNL A   1      41.382  36.899  38.343  1.00  0.00    -0.200 F 
ATOM     86  C   UNL A   1      39.710  35.515  39.275  1.00  0.00     0.200 A 
ATOM     87  F   UNL A   1      38.061  34.084  40.173  1.00  0.00    -0.200 F 
ATOM     88  F   UNL A   1      39.661  36.286  40.369  1.00  0.00    -0.200 F 
ENDBRANCH  54  78
BRANCH  66  89
ATOM     89  C   UNL A   1      44.019  28.528  35.392  1.00  0.00     0.064 A 
ATOM     90  C   UNL A   1      43.824  27.423  36.233  1.00  0.00     0.173 A 
ATOM     91  C   UNL A   1      45.332  28.984  35.201  1.00  0.00     0.173 A 
ATOM     92  F   UNL A   1      42.586  26.958  36.461  1.00  0.00    -0.203 F 
ATOM     93  C   UNL A   1      44.900  26.811  36.873  1.00  0.00     0.198 A 
ATOM     94  C   UNL A   1      46.408  28.352  35.819  1.00  0.00     0.198 A 
ATOM     95  F   UNL A   1      45.573  30.033  34.400  1.00  0.00    -0.203 F 
ATOM     96  F   UNL A   1      44.685  25.784  37.705  1.00  0.00    -0.200 F 
ATOM     97  C   UNL A   1      46.190  27.272  36.659  1.00  0.00     0.200 A 
ATOM     98  F   UNL A   1      47.656  28.789  35.600  1.00  0.00    -0.200 F 
ATOM     99  F   UNL A   1      47.225  26.676  37.268  1.00  0.00    -0.200 F 
ENDBRANCH  66  89
ENDBRANCH  40  41
ENDBRANCH  33  35
ENDBRANCH  32  33
ENDBRANCH  31  32
ENDBRANCH  30  31
ENDBRANCH  29  30
ENDBRANCH  28  29
ENDBRANCH   1  28
TORSDOF 21
ENDMDL
MODEL 3
REMARK VINA RESULT:     -10.9      0.688      2.056
REMARK SMILES CS(=O)(=O)c1ccc(/C=C(/C(=O)OCCOCCOCCOC(=O)c2ccc(-c3c4nc(c(-c5c(F)c(F)c(F)c(F)c5F)c5ccc([nH]5)c(-c5c(F)c(F)c(F)c(F)c5F)c5nc(c(-c6c(F)c(F)c(F)c(F)c6F)c6ccc3[nH]6)C=C5)C=C4)cc2)c2ccc(O)cc2)cc1
REMARK SMILES IDX 17 1 16 2 15 3 14 4 13 5 11 6 12 7 10 8 9 9 8 10 5 11 6 12
REMARK SMILES IDX 96 13 7 14 95 15 2 16 1 17 3 18 4 19 88 20 89 21 94 22 90 23
REMARK SMILES IDX 93 24 91 25 92 26 18 28 19 29 20 30 21 31 22 32 23 33 24 34
REMARK SMILES IDX 25 35 26 36 87 37 27 38 86 39 28 40 29 41 30 42 80 43 31 44
REMARK SMILES IDX 85 45 79 46 81 47 32 48 84 49 78 50 77 51 33 53 65 54 45 55
REMARK SMILES IDX 64 56 46 57 49 58 63 59 82 60 47 61 48 62 62 64 83 65 50 66
REMARK SMILES IDX 34 67 35 68 43 69 36 70 37 71 41 72 44 73 38 74 39 75 42 76
REMARK SMILES IDX 40 77 66 78 67 79 75 80 68 81 69 82 73 83 76 84 70 85 71 86
REMARK SMILES IDX 74 87 72 88 51 89 52 90 60 91 53 92 54 93 58 94 61 95 55 96
REMARK SMILES IDX 56 97 59 98 57 99
REMARK H PARENT 92 27 81 52 49 63
REMARK Flexibility Score: inf
ROOT
ATOM      1  C   UNL A   1      32.612  29.343  24.363  1.00  0.00     0.188 C 
ENDROOT
BRANCH   1   2
ATOM      2  O   UNL A   1      32.125  28.809  23.142  1.00  0.00    -0.376 OA
BRANCH   2   3
ATOM      3  C   UNL A   1      30.935  28.040  23.227  1.00  0.00     0.202 C 
BRANCH   3   4
ATOM      4  C   UNL A   1      31.129  26.619  23.765  1.00  0.00     0.261 C 
BRANCH   4   5
ATOM      5  O   UNL A   1      31.757  25.703  22.852  1.00  0.00    -0.460 OA
BRANCH   5   6
ATOM      6  C   UNL A   1      33.091  25.507  22.969  1.00  0.00     0.338 C 
ATOM      7  O   UNL A   1      33.944  26.370  22.821  1.00  0.00    -0.246 OA
BRANCH   6   8
ATOM      8  C   UNL A   1      33.383  24.099  23.415  1.00  0.00     0.067 C 
ATOM      9  C   UNL A   1      32.394  23.172  23.387  1.00  0.00     0.024 C 
BRANCH   9  10
ATOM     10  C   UNL A   1      32.468  21.720  23.675  1.00  0.00    -0.025 A 
ATOM     11  C   UNL A   1      32.840  18.951  23.973  1.00  0.00     0.067 A 
ATOM     12  C   UNL A   1      33.098  19.801  25.046  1.00  0.00     0.021 A 
ATOM     13  C   UNL A   1      32.301  19.454  22.789  1.00  0.00     0.021 A 
ATOM     14  C   UNL A   1      32.886  21.177  24.899  1.00  0.00     0.009 A 
ATOM     15  C   UNL A   1      32.112  20.833  22.647  1.00  0.00     0.009 A 
BRANCH  11  16
ATOM     16  S   UNL A   1      33.260  17.226  24.082  1.00  0.00     0.175 S 
ATOM     17  C   UNL A   1      34.905  17.201  24.750  1.00  0.00     0.163 C 
ATOM     18  O   UNL A   1      33.351  16.718  22.724  1.00  0.00    -0.224 OA
ATOM     19  O   UNL A   1      32.361  16.632  25.048  1.00  0.00    -0.224 OA
ENDBRANCH  11  16
ENDBRANCH   9  10
BRANCH   8  20
ATOM     20  C   UNL A   1      34.753  23.783  23.871  1.00  0.00    -0.011 A 
ATOM     21  C   UNL A   1      35.139  24.129  25.177  1.00  0.00     0.013 A 
ATOM     22  C   UNL A   1      35.634  23.039  23.074  1.00  0.00     0.013 A 
ATOM     23  C   UNL A   1      36.364  23.701  25.688  1.00  0.00     0.047 A 
ATOM     24  C   UNL A   1      36.859  22.607  23.589  1.00  0.00     0.047 A 
ATOM     25  C   UNL A   1      37.207  22.933  24.896  1.00  0.00     0.115 A 
BRANCH  25  26
ATOM     26  O   UNL A   1      38.371  22.500  25.456  1.00  0.00    -0.508 OA
ATOM     27  H   UNL A   1      39.171  22.549  24.972  1.00  0.00     0.293 HD
ENDBRANCH  25  26
ENDBRANCH   8  20
ENDBRANCH   6   8
ENDBRANCH   5   6
ENDBRANCH   4   5
ENDBRANCH   3   4
ENDBRANCH   2   3
ENDBRANCH   1   2
BRANCH   1  28
ATOM     28  C   UNL A   1      31.503  29.703  25.372  1.00  0.00     0.188 C 
BRANCH  28  29
ATOM     29  O   UNL A   1      31.205  31.059  25.678  1.00  0.00    -0.376 OA
BRANCH  29  30
ATOM     30  C   UNL A   1      31.611  31.605  26.922  1.00  0.00     0.202 C 
BRANCH  30  31
ATOM     31  C   UNL A   1      31.891  33.110  26.989  1.00  0.00     0.261 C 
BRANCH  31  32
ATOM     32  O   UNL A   1      33.244  33.452  27.329  1.00  0.00    -0.460 OA
BRANCH  32  33
ATOM     33  C   UNL A   1      33.373  34.282  28.394  1.00  0.00     0.338 C 
ATOM     34  O   UNL A   1      32.651  35.214  28.701  1.00  0.00    -0.246 OA
BRANCH  33  35
ATOM     35  C   UNL A   1      34.467  33.811  29.268  1.00  0.00     0.060 A 
ATOM     36  C   UNL A   1      35.765  34.261  28.991  1.00  0.00     0.016 A 
ATOM     37  C   UNL A   1      34.242  32.882  30.286  1.00  0.00     0.016 A 
ATOM     38  C   UNL A   1      36.848  33.756  29.707  1.00  0.00     0.010 A 
ATOM     39  C   UNL A   1      35.334  32.356  30.988  1.00  0.00     0.010 A 
ATOM     40  C   UNL A   1      36.642  32.767  30.678  1.00  0.00    -0.014 A 
BRANCH  40  41
ATOM     41  C   UNL A   1      37.810  32.031  31.222  1.00  0.00     0.031 A 
ATOM     42  C   UNL A   1      38.284  32.360  32.610  1.00  0.00     0.074 A 
ATOM     43  C   UNL A   1      38.418  31.067  30.512  1.00  0.00     0.049 A 
ATOM     44  N   UNL A   1      39.277  31.851  33.293  1.00  0.00    -0.248 NA
ATOM     45  C   UNL A   1      37.534  33.405  33.325  1.00  0.00     0.031 C 
ATOM     46  C   UNL A   1      38.033  30.634  29.172  1.00  0.00     0.029 A 
ATOM     47  N   UNL A   1      39.496  30.277  30.827  1.00  0.00    -0.354 N 
ATOM     48  C   UNL A   1      39.270  32.509  34.515  1.00  0.00     0.074 A 
ATOM     49  C   UNL A   1      38.191  33.472  34.473  1.00  0.00     0.031 C 
ATOM     50  C   UNL A   1      38.861  29.650  28.778  1.00  0.00     0.029 A 
ATOM     51  C   UNL A   1      39.857  29.413  29.824  1.00  0.00     0.049 A 
ATOM     52  H   UNL A   1      39.966  30.327  31.690  1.00  0.00     0.167 HD
ATOM     53  C   UNL A   1      40.088  32.327  35.579  1.00  0.00     0.037 A 
ATOM     54  C   UNL A   1      40.885  28.544  29.754  1.00  0.00     0.037 A 
ATOM     55  C   UNL A   1      41.174  31.383  35.616  1.00  0.00     0.049 A 
ATOM     56  C   UNL A   1      41.827  28.413  30.923  1.00  0.00     0.074 A 
ATOM     57  C   UNL A   1      42.057  31.125  36.650  1.00  0.00     0.029 A 
ATOM     58  N   UNL A   1      41.531  30.551  34.566  1.00  0.00    -0.354 N 
ATOM     59  N   UNL A   1      41.796  29.018  32.087  1.00  0.00    -0.248 NA
ATOM     60  C   UNL A   1      42.951  27.479  30.767  1.00  0.00     0.031 C 
ATOM     61  C   UNL A   1      42.979  30.170  36.208  1.00  0.00     0.029 A 
ATOM     62  C   UNL A   1      42.639  29.797  34.918  1.00  0.00     0.049 A 
ATOM     63  H   UNL A   1      41.067  30.505  33.699  1.00  0.00     0.167 HD
ATOM     64  C   UNL A   1      42.873  28.515  32.809  1.00  0.00     0.074 A 
ATOM     65  C   UNL A   1      43.532  27.549  31.957  1.00  0.00     0.031 C 
ATOM     66  C   UNL A   1      43.276  28.827  34.064  1.00  0.00     0.037 A 
BRANCH  53  67
ATOM     67  C   UNL A   1      39.854  33.191  36.781  1.00  0.00     0.064 A 
ATOM     68  C   UNL A   1      40.547  34.397  36.965  1.00  0.00     0.173 A 
ATOM     69  C   UNL A   1      38.910  32.820  37.749  1.00  0.00     0.173 A 
ATOM     70  F   UNL A   1      41.471  34.787  36.074  1.00  0.00    -0.203 F 
ATOM     71  C   UNL A   1      40.318  35.189  38.087  1.00  0.00     0.198 A 
ATOM     72  C   UNL A   1      38.666  33.626  38.857  1.00  0.00     0.198 A 
ATOM     73  F   UNL A   1      38.221  31.677  37.618  1.00  0.00    -0.203 F 
ATOM     74  F   UNL A   1      41.022  36.315  38.264  1.00  0.00    -0.200 F 
ATOM     75  C   UNL A   1      39.374  34.806  39.028  1.00  0.00     0.200 A 
ATOM     76  F   UNL A   1      37.747  33.261  39.761  1.00  0.00    -0.200 F 
ATOM     77  F   UNL A   1      39.152  35.572  40.106  1.00  0.00    -0.200 F 
ENDBRANCH  53  67
BRANCH  54  78
ATOM     78  C   UNL A   1      41.091  27.734  28.526  1.00  0.00     0.064 A 
ATOM     79  C   UNL A   1      41.920  28.188  27.491  1.00  0.00     0.173 A 
ATOM     80  C   UNL A   1      40.437  26.506  28.348  1.00  0.00     0.173 A 
ATOM     81  F   UNL A   1      42.542  29.371  27.600  1.00  0.00    -0.203 F 
ATOM     82  C   UNL A   1      42.071  27.454  26.316  1.00  0.00     0.198 A 
ATOM     83  C   UNL A   1      40.609  25.760  27.184  1.00  0.00     0.198 A 
ATOM     84  F   UNL A   1      39.626  26.032  29.305  1.00  0.00    -0.203 F 
ATOM     85  F   UNL A   1      42.829  27.935  25.321  1.00  0.00    -0.200 F 
ATOM     86  C   UNL A   1      41.420  26.238  26.165  1.00  0.00     0.200 A 
ATOM     87  F   UNL A   1      39.984  24.584  27.045  1.00  0.00    -0.200 F 
ATOM     88  F   UNL A   1      41.563  25.535  25.034  1.00  0.00    -0.200 F 
ENDBRANCH  54  78
BRANCH  66  89
ATOM     89  C   UNL A   1      44.462  28.089  34.616  1.00  0.00     0.064 A 
ATOM     90  C   UNL A   1      45.766  28.590  34.491  1.00  0.00     0.173 A 
ATOM     91  C   UNL A   1      44.283  26.891  35.324  1.00  0.00     0.173 A 
ATOM     92  F   UNL A   1      45.992  29.724  33.811  1.00  0.00    -0.203 F 
ATOM     93  C   UNL A   1      46.850  27.906  35.037  1.00  0.00     0.198 A 
ATOM     94  C   UNL A   1      45.366  26.226  35.894  1.00  0.00     0.198 A 
ATOM     95  F   UNL A   1      43.055  26.374  35.479  1.00  0.00    -0.203 F 
ATOM     96  F   UNL A   1      48.092  28.381  34.870  1.00  0.00    -0.200 F 
ATOM     97  C   UNL A   1      46.648  26.730  35.744  1.00  0.00     0.200 A 
ATOM     98  F   UNL A   1      45.167  25.097  36.588  1.00  0.00    -0.200 F 
ATOM     99  F   UNL A   1      47.692  26.079  36.276  1.00  0.00    -0.200 F 
ENDBRANCH  66  89
ENDBRANCH  40  41
ENDBRANCH  33  35
ENDBRANCH  32  33
ENDBRANCH  31  32
ENDBRANCH  30  31
ENDBRANCH  29  30
ENDBRANCH  28  29
ENDBRANCH   1  28
TORSDOF 21
ENDMDL
