MODEL 1
REMARK VINA RESULT:     -11.9      0.000      0.000
REMARK SMILES NS(=O)(=O)c1ccc(-c2cc(Cl)cc3c2O[C@H](C(F)(F)F)C(C(=O)OCCOCCOCCOC(=O)c2ccc(-c4c5nc(c(-c6c(F)c(F)c(F)c(F)c6F)c6ccc([nH]6)c(-c6c(F)c(F)c(F)c(F)c6F)c6nc(c(-c7c(F)c(F)c(F)c(F)c7F)c7ccc4[nH]7)C=C6)C=C5)cc2)=C3)cc1
REMARK SMILES IDX 29 1 28 2 27 3 26 4 25 5 23 6 24 7 22 8 9 9 10 10 15 11
REMARK SMILES IDX 11 12 14 13 16 14 12 15 13 16 100 17 17 18 8 19 5 20 6 21
REMARK SMILES IDX 102 22 7 23 101 24 2 25 3 26 4 27 1 28 18 31 19 32 20 33
REMARK SMILES IDX 21 34 30 35 31 36 32 37 33 38 34 39 35 40 36 41 37 42 38 43
REMARK SMILES IDX 99 44 39 45 98 46 40 47 41 48 42 49 92 50 43 51 97 52 91 53
REMARK SMILES IDX 93 54 44 55 96 56 90 57 89 58 45 60 77 61 57 62 76 63 58 64
REMARK SMILES IDX 61 65 75 66 94 67 59 68 60 69 74 71 95 72 62 73 46 74 47 75
REMARK SMILES IDX 55 76 48 77 49 78 53 79 56 80 50 81 51 82 54 83 52 84 78 85
REMARK SMILES IDX 79 86 87 87 80 88 81 89 85 90 88 91 82 92 83 93 86 94 84 95
REMARK SMILES IDX 63 96 64 97 72 98 65 99 66 100 70 101 73 102 67 103 68 104
REMARK SMILES IDX 71 105 69 106
REMARK H PARENT 1 29 1 30 93 59 61 70
REMARK Flexibility Score: inf
ROOT
ATOM      1  C   UNL A   1      39.829  20.451  25.839  1.00  0.00     0.188 C 
ENDROOT
BRANCH   1   2
ATOM      2  O   UNL A   1      38.990  21.536  26.183  1.00  0.00    -0.376 OA
BRANCH   2   3
ATOM      3  C   UNL A   1      37.805  21.698  25.406  1.00  0.00     0.202 C 
BRANCH   3   4
ATOM      4  C   UNL A   1      36.897  22.900  25.729  1.00  0.00     0.261 C 
BRANCH   4   5
ATOM      5  O   UNL A   1      35.579  22.811  25.120  1.00  0.00    -0.460 OA
BRANCH   5   6
ATOM      6  C   UNL A   1      34.535  22.843  25.974  1.00  0.00     0.338 C 
ATOM      7  O   UNL A   1      34.642  22.741  27.190  1.00  0.00    -0.246 OA
BRANCH   6   8
ATOM      8  C   UNL A   1      33.235  23.139  25.307  1.00  0.00     0.087 C 
ATOM      9  C   UNL A   1      32.148  26.892  23.899  1.00  0.00     0.026 A 
ATOM     10  C   UNL A   1      33.011  27.749  24.622  1.00  0.00     0.033 A 
ATOM     11  C   UNL A   1      32.185  25.549  24.311  1.00  0.00     0.135 A 
ATOM     12  C   UNL A   1      33.705  27.363  25.768  1.00  0.00     0.042 A 
ATOM     13  C   UNL A   1      32.655  25.250  25.610  1.00  0.00     0.019 A 
ATOM     14  O   UNL A   1      31.993  24.428  23.494  1.00  0.00    -0.475 OA
ATOM     15  Cl  UNL A   1      34.797  28.425  26.556  1.00  0.00    -0.084 Cl
ATOM     16  C   UNL A   1      33.458  26.130  26.320  1.00  0.00     0.032 A 
ATOM     17  C   UNL A   1      32.452  23.875  26.110  1.00  0.00     0.027 C 
ATOM     18  C   UNL A   1      33.018  23.334  23.807  1.00  0.00     0.316 C 
BRANCH   9  19
ATOM     19  C   UNL A   1      31.129  27.644  23.083  1.00  0.00    -0.015 A 
ATOM     20  C   UNL A   1      29.271  29.724  22.357  1.00  0.00     0.082 A 
ATOM     21  C   UNL A   1      30.594  29.789  21.941  1.00  0.00     0.022 A 
ATOM     22  C   UNL A   1      28.855  28.623  23.113  1.00  0.00     0.022 A 
ATOM     23  C   UNL A   1      31.489  28.757  22.295  1.00  0.00     0.010 A 
ATOM     24  C   UNL A   1      29.770  27.596  23.457  1.00  0.00     0.010 A 
BRANCH  20  25
ATOM     25  S   UNL A   1      28.140  31.058  22.020  1.00  0.00     0.238 S 
ATOM     26  O   UNL A   1      27.226  31.190  23.121  1.00  0.00    -0.207 OA
ATOM     27  O   UNL A   1      27.679  30.915  20.654  1.00  0.00    -0.207 OA
BRANCH  25  28
ATOM     28  N   UNL A   1      29.087  32.442  22.045  1.00  0.00    -0.225 NA
ATOM     29  H   UNL A   1      30.056  32.188  22.237  1.00  0.00     0.137 HD
ATOM     30  H   UNL A   1      28.750  33.071  22.773  1.00  0.00     0.137 HD
ENDBRANCH  25  28
ENDBRANCH  20  25
ENDBRANCH   9  19
BRANCH  18  31
ATOM     31  C   UNL A   1      32.649  21.966  23.216  1.00  0.00     0.430 C 
ATOM     32  F   UNL A   1      32.576  21.998  21.866  1.00  0.00    -0.167 F 
ATOM     33  F   UNL A   1      33.530  21.004  23.564  1.00  0.00    -0.167 F 
ATOM     34  F   UNL A   1      31.433  21.565  23.669  1.00  0.00    -0.167 F 
ENDBRANCH  18  31
ENDBRANCH   6   8
ENDBRANCH   5   6
ENDBRANCH   4   5
ENDBRANCH   3   4
ENDBRANCH   2   3
ENDBRANCH   1   2
BRANCH   1  35
ATOM     35  C   UNL A   1      41.288  20.599  26.327  1.00  0.00     0.188 C 
BRANCH  35  36
ATOM     36  O   UNL A   1      42.359  20.265  25.461  1.00  0.00    -0.376 OA
BRANCH  36  37
ATOM     37  C   UNL A   1      43.623  20.889  25.651  1.00  0.00     0.202 C 
BRANCH  37  38
ATOM     38  C   UNL A   1      44.044  22.076  24.766  1.00  0.00     0.261 C 
BRANCH  38  39
ATOM     39  O   UNL A   1      43.194  23.240  24.814  1.00  0.00    -0.460 OA
BRANCH  39  40
ATOM     40  C   UNL A   1      43.821  24.416  25.065  1.00  0.00     0.338 C 
ATOM     41  O   UNL A   1      44.761  24.896  24.452  1.00  0.00    -0.246 OA
BRANCH  40  42
ATOM     42  C   UNL A   1      43.096  25.185  26.099  1.00  0.00     0.060 A 
ATOM     43  C   UNL A   1      43.324  26.559  26.163  1.00  0.00     0.016 A 
ATOM     44  C   UNL A   1      42.303  24.569  27.071  1.00  0.00     0.016 A 
ATOM     45  C   UNL A   1      42.768  27.307  27.203  1.00  0.00     0.010 A 
ATOM     46  C   UNL A   1      41.737  25.336  28.109  1.00  0.00     0.010 A 
ATOM     47  C   UNL A   1      41.960  26.719  28.189  1.00  0.00    -0.014 A 
BRANCH  47  48
ATOM     48  C   UNL A   1      41.503  27.531  29.365  1.00  0.00     0.031 A 
ATOM     49  C   UNL A   1      42.378  27.598  30.581  1.00  0.00     0.074 A 
ATOM     50  C   UNL A   1      40.348  28.229  29.367  1.00  0.00     0.049 A 
ATOM     51  N   UNL A   1      42.189  28.248  31.701  1.00  0.00    -0.248 NA
ATOM     52  C   UNL A   1      43.609  26.798  30.541  1.00  0.00     0.031 C 
ATOM     53  C   UNL A   1      39.400  28.235  28.271  1.00  0.00     0.029 A 
ATOM     54  N   UNL A   1      39.796  29.108  30.279  1.00  0.00    -0.354 N 
ATOM     55  C   UNL A   1      43.236  27.873  32.530  1.00  0.00     0.074 A 
ATOM     56  C   UNL A   1      44.085  26.985  31.763  1.00  0.00     0.031 C 
ATOM     57  C   UNL A   1      38.473  29.186  28.489  1.00  0.00     0.029 A 
ATOM     58  C   UNL A   1      38.685  29.782  29.804  1.00  0.00     0.049 A 
ATOM     59  H   UNL A   1      40.160  29.242  31.183  1.00  0.00     0.167 HD
ATOM     60  C   UNL A   1      43.435  28.196  33.830  1.00  0.00     0.037 A 
ATOM     61  C   UNL A   1      37.927  30.758  30.357  1.00  0.00     0.037 A 
ATOM     62  C   UNL A   1      42.578  29.067  34.592  1.00  0.00     0.049 A 
ATOM     63  C   UNL A   1      38.191  31.137  31.798  1.00  0.00     0.074 A 
ATOM     64  C   UNL A   1      42.697  29.437  35.921  1.00  0.00     0.029 A 
ATOM     65  N   UNL A   1      41.437  29.690  34.107  1.00  0.00    -0.354 N 
ATOM     66  N   UNL A   1      39.188  30.784  32.574  1.00  0.00    -0.248 NA
ATOM     67  C   UNL A   1      37.216  32.022  32.456  1.00  0.00     0.031 C 
ATOM     68  C   UNL A   1      41.596  30.229  36.255  1.00  0.00     0.029 A 
ATOM     69  C   UNL A   1      40.834  30.430  35.114  1.00  0.00     0.049 A 
ATOM     70  H   UNL A   1      41.104  29.618  33.184  1.00  0.00     0.167 HD
ATOM     71  C   UNL A   1      38.943  31.367  33.812  1.00  0.00     0.074 A 
ATOM     72  C   UNL A   1      37.749  32.170  33.662  1.00  0.00     0.031 C 
ATOM     73  C   UNL A   1      39.646  31.237  34.964  1.00  0.00     0.037 A 
BRANCH  60  74
ATOM     74  C   UNL A   1      44.569  27.511  34.536  1.00  0.00     0.064 A 
ATOM     75  C   UNL A   1      45.857  28.062  34.602  1.00  0.00     0.173 A 
ATOM     76  C   UNL A   1      44.356  26.268  35.156  1.00  0.00     0.173 A 
ATOM     77  F   UNL A   1      46.120  29.235  34.006  1.00  0.00    -0.203 F 
ATOM     78  C   UNL A   1      46.896  27.380  35.232  1.00  0.00     0.198 A 
ATOM     79  C   UNL A   1      45.386  25.607  35.816  1.00  0.00     0.198 A 
ATOM     80  F   UNL A   1      43.143  25.696  35.120  1.00  0.00    -0.203 F 
ATOM     81  F   UNL A   1      48.133  27.894  35.227  1.00  0.00    -0.200 F 
ATOM     82  C   UNL A   1      46.658  26.157  35.843  1.00  0.00     0.200 A 
ATOM     83  F   UNL A   1      45.149  24.432  36.415  1.00  0.00    -0.200 F 
ATOM     84  F   UNL A   1      47.657  25.503  36.451  1.00  0.00    -0.200 F 
ENDBRANCH  60  74
BRANCH  61  85
ATOM     85  C   UNL A   1      36.856  31.471  29.583  1.00  0.00     0.064 A 
ATOM     86  C   UNL A   1      36.993  32.834  29.270  1.00  0.00     0.173 A 
ATOM     87  C   UNL A   1      35.669  30.856  29.164  1.00  0.00     0.173 A 
ATOM     88  F   UNL A   1      38.063  33.508  29.697  1.00  0.00    -0.203 F 
ATOM     89  C   UNL A   1      36.013  33.544  28.576  1.00  0.00     0.198 A 
ATOM     90  C   UNL A   1      34.701  31.553  28.436  1.00  0.00     0.198 A 
ATOM     91  F   UNL A   1      35.438  29.568  29.460  1.00  0.00    -0.203 F 
ATOM     92  F   UNL A   1      36.171  34.856  28.347  1.00  0.00    -0.200 F 
ATOM     93  C   UNL A   1      34.871  32.899  28.147  1.00  0.00     0.200 A 
ATOM     94  F   UNL A   1      33.596  30.920  28.019  1.00  0.00    -0.200 F 
ATOM     95  F   UNL A   1      33.928  33.572  27.475  1.00  0.00    -0.200 F 
ENDBRANCH  61  85
BRANCH  73  96
ATOM     96  C   UNL A   1      39.171  32.011  36.165  1.00  0.00     0.064 A 
ATOM     97  C   UNL A   1      39.609  33.316  36.435  1.00  0.00     0.173 A 
ATOM     98  C   UNL A   1      38.207  31.456  37.023  1.00  0.00     0.173 A 
ATOM     99  F   UNL A   1      40.536  33.892  35.653  1.00  0.00    -0.203 F 
ATOM    100  C   UNL A   1      39.119  34.027  37.529  1.00  0.00     0.198 A 
ATOM    101  C   UNL A   1      37.693  32.183  38.094  1.00  0.00     0.198 A 
ATOM    102  F   UNL A   1      37.747  30.215  36.806  1.00  0.00    -0.203 F 
ATOM    103  F   UNL A   1      39.586  35.256  37.792  1.00  0.00    -0.200 F 
ATOM    104  C   UNL A   1      38.154  33.464  38.351  1.00  0.00     0.200 A 
ATOM    105  F   UNL A   1      36.743  31.643  38.871  1.00  0.00    -0.200 F 
ATOM    106  F   UNL A   1      37.671  34.155  39.392  1.00  0.00    -0.200 F 
ENDBRANCH  73  96
ENDBRANCH  47  48
ENDBRANCH  40  42
ENDBRANCH  39  40
ENDBRANCH  38  39
ENDBRANCH  37  38
ENDBRANCH  36  37
ENDBRANCH  35  36
ENDBRANCH   1  35
TORSDOF 21
ENDMDL
MODEL 2
REMARK VINA RESULT:     -10.7      5.854     12.555
REMARK SMILES NS(=O)(=O)c1ccc(-c2cc(Cl)cc3c2O[C@H](C(F)(F)F)C(C(=O)OCCOCCOCCOC(=O)c2ccc(-c4c5nc(c(-c6c(F)c(F)c(F)c(F)c6F)c6ccc([nH]6)c(-c6c(F)c(F)c(F)c(F)c6F)c6nc(c(-c7c(F)c(F)c(F)c(F)c7F)c7ccc4[nH]7)C=C6)C=C5)cc2)=C3)cc1
REMARK SMILES IDX 29 1 28 2 27 3 26 4 25 5 23 6 24 7 22 8 9 9 10 10 15 11
REMARK SMILES IDX 11 12 14 13 16 14 12 15 13 16 100 17 17 18 8 19 5 20 6 21
REMARK SMILES IDX 102 22 7 23 101 24 2 25 3 26 4 27 1 28 18 31 19 32 20 33
REMARK SMILES IDX 21 34 30 35 31 36 32 37 33 38 34 39 35 40 36 41 37 42 38 43
REMARK SMILES IDX 99 44 39 45 98 46 40 47 41 48 42 49 92 50 43 51 97 52 91 53
REMARK SMILES IDX 93 54 44 55 96 56 90 57 89 58 45 60 77 61 57 62 76 63 58 64
REMARK SMILES IDX 61 65 75 66 94 67 59 68 60 69 74 71 95 72 62 73 46 74 47 75
REMARK SMILES IDX 55 76 48 77 49 78 53 79 56 80 50 81 51 82 54 83 52 84 78 85
REMARK SMILES IDX 79 86 87 87 80 88 81 89 85 90 88 91 82 92 83 93 86 94 84 95
REMARK SMILES IDX 63 96 64 97 72 98 65 99 66 100 70 101 73 102 67 103 68 104
REMARK SMILES IDX 71 105 69 106
REMARK H PARENT 1 29 1 30 93 59 61 70
REMARK Flexibility Score: inf
ROOT
ATOM      1  C   UNL A   1      39.384  34.640  33.677  1.00  0.00     0.188 C 
ENDROOT
BRANCH   1   2
ATOM      2  O   UNL A   1      38.243  34.133  33.013  1.00  0.00    -0.376 OA
BRANCH   2   3
ATOM      3  C   UNL A   1      38.470  33.439  31.789  1.00  0.00     0.202 C 
BRANCH   3   4
ATOM      4  C   UNL A   1      37.583  32.217  31.483  1.00  0.00     0.261 C 
BRANCH   4   5
ATOM      5  O   UNL A   1      37.737  31.713  30.128  1.00  0.00    -0.460 OA
BRANCH   5   6
ATOM      6  C   UNL A   1      38.753  30.845  29.938  1.00  0.00     0.338 C 
ATOM      7  O   UNL A   1      39.922  31.181  29.785  1.00  0.00    -0.246 OA
BRANCH   6   8
ATOM      8  C   UNL A   1      38.339  29.417  30.056  1.00  0.00     0.087 C 
ATOM      9  C   UNL A   1      40.357  26.257  28.271  1.00  0.00     0.026 A 
ATOM     10  C   UNL A   1      41.094  26.905  27.252  1.00  0.00     0.033 A 
ATOM     11  C   UNL A   1      39.436  27.085  28.937  1.00  0.00     0.135 A 
ATOM     12  C   UNL A   1      40.821  28.194  26.798  1.00  0.00     0.042 A 
ATOM     13  C   UNL A   1      38.988  28.258  28.290  1.00  0.00     0.019 A 
ATOM     14  O   UNL A   1      39.054  26.982  30.280  1.00  0.00    -0.475 OA
ATOM     15  Cl  UNL A   1      41.801  28.954  25.613  1.00  0.00    -0.084 Cl
ATOM     16  C   UNL A   1      39.703  28.846  27.258  1.00  0.00     0.032 A 
ATOM     17  C   UNL A   1      37.844  28.975  28.891  1.00  0.00     0.027 C 
ATOM     18  C   UNL A   1      38.996  28.361  30.944  1.00  0.00     0.316 C 
BRANCH   9  19
ATOM     19  C   UNL A   1      40.460  24.755  28.201  1.00  0.00    -0.015 A 
ATOM     20  C   UNL A   1      41.114  22.152  27.152  1.00  0.00     0.082 A 
ATOM     21  C   UNL A   1      42.001  22.812  27.992  1.00  0.00     0.022 A 
ATOM     22  C   UNL A   1      39.894  22.762  26.845  1.00  0.00     0.022 A 
ATOM     23  C   UNL A   1      41.661  24.082  28.507  1.00  0.00     0.010 A 
ATOM     24  C   UNL A   1      39.571  24.038  27.374  1.00  0.00     0.010 A 
BRANCH  20  25
ATOM     25  S   UNL A   1      41.552  20.598  26.401  1.00  0.00     0.238 S 
ATOM     26  O   UNL A   1      42.576  20.823  25.417  1.00  0.00    -0.207 OA
ATOM     27  O   UNL A   1      40.326  19.896  26.084  1.00  0.00    -0.207 OA
BRANCH  25  28
ATOM     28  N   UNL A   1      42.284  19.719  27.627  1.00  0.00    -0.225 NA
ATOM     29  H   UNL A   1      42.316  18.733  27.367  1.00  0.00     0.137 HD
ATOM     30  H   UNL A   1      41.750  19.826  28.489  1.00  0.00     0.137 HD
ENDBRANCH  25  28
ENDBRANCH  20  25
ENDBRANCH   9  19
BRANCH  18  31
ATOM     31  C   UNL A   1      38.248  28.360  32.285  1.00  0.00     0.430 C 
ATOM     32  F   UNL A   1      36.993  28.847  32.167  1.00  0.00    -0.167 F 
ATOM     33  F   UNL A   1      38.169  27.126  32.826  1.00  0.00    -0.167 F 
ATOM     34  F   UNL A   1      38.893  29.143  33.189  1.00  0.00    -0.167 F 
ENDBRANCH  18  31
ENDBRANCH   6   8
ENDBRANCH   5   6
ENDBRANCH   4   5
ENDBRANCH   3   4
ENDBRANCH   2   3
ENDBRANCH   1   2
BRANCH   1  35
ATOM     35  C   UNL A   1      39.102  35.195  35.091  1.00  0.00     0.188 C 
BRANCH  35  36
ATOM     36  O   UNL A   1      39.688  36.419  35.500  1.00  0.00    -0.376 OA
BRANCH  36  37
ATOM     37  C   UNL A   1      40.581  36.424  36.606  1.00  0.00     0.202 C 
BRANCH  37  38
ATOM     38  C   UNL A   1      40.089  36.006  38.004  1.00  0.00     0.261 C 
BRANCH  38  39
ATOM     39  O   UNL A   1      40.872  35.003  38.682  1.00  0.00    -0.460 OA
BRANCH  39  40
ATOM     40  C   UNL A   1      40.314  33.769  38.750  1.00  0.00     0.338 C 
ATOM     41  O   UNL A   1      39.370  33.424  39.442  1.00  0.00    -0.246 OA
BRANCH  40  42
ATOM     42  C   UNL A   1      40.879  32.881  37.711  1.00  0.00     0.060 A 
ATOM     43  C   UNL A   1      42.267  32.827  37.590  1.00  0.00     0.016 A 
ATOM     44  C   UNL A   1      40.077  32.207  36.787  1.00  0.00     0.016 A 
ATOM     45  C   UNL A   1      42.845  32.110  36.541  1.00  0.00     0.010 A 
ATOM     46  C   UNL A   1      40.671  31.476  35.739  1.00  0.00     0.010 A 
ATOM     47  C   UNL A   1      42.066  31.414  35.602  1.00  0.00    -0.014 A 
BRANCH  47  48
ATOM     48  C   UNL A   1      42.720  30.778  34.411  1.00  0.00     0.031 A 
ATOM     49  C   UNL A   1      43.063  31.636  33.230  1.00  0.00     0.074 A 
ATOM     50  C   UNL A   1      43.040  29.468  34.366  1.00  0.00     0.049 A 
ATOM     51  N   UNL A   1      43.642  31.301  32.105  1.00  0.00    -0.248 NA
ATOM     52  C   UNL A   1      42.668  33.048  33.315  1.00  0.00     0.031 C 
ATOM     53  C   UNL A   1      42.747  28.523  35.425  1.00  0.00     0.029 A 
ATOM     54  N   UNL A   1      43.726  28.711  33.436  1.00  0.00    -0.354 N 
ATOM     55  C   UNL A   1      43.610  32.442  31.316  1.00  0.00     0.074 A 
ATOM     56  C   UNL A   1      43.006  33.489  32.113  1.00  0.00     0.031 C 
ATOM     57  C   UNL A   1      43.380  27.362  35.174  1.00  0.00     0.029 A 
ATOM     58  C   UNL A   1      44.030  27.432  33.869  1.00  0.00     0.049 A 
ATOM     59  H   UNL A   1      43.976  29.050  32.547  1.00  0.00     0.167 HD
ATOM     60  C   UNL A   1      43.996  32.581  30.026  1.00  0.00     0.037 A 
ATOM     61  C   UNL A   1      44.741  26.437  33.290  1.00  0.00     0.037 A 
ATOM     62  C   UNL A   1      44.580  31.531  29.233  1.00  0.00     0.049 A 
ATOM     63  C   UNL A   1      45.202  26.627  31.861  1.00  0.00     0.074 A 
ATOM     64  C   UNL A   1      44.987  31.581  27.911  1.00  0.00     0.029 A 
ATOM     65  N   UNL A   1      44.826  30.239  29.675  1.00  0.00    -0.354 N 
ATOM     66  N   UNL A   1      45.175  27.711  31.124  1.00  0.00    -0.248 NA
ATOM     67  C   UNL A   1      45.763  25.456  31.168  1.00  0.00     0.031 C 
ATOM     68  C   UNL A   1      45.418  30.306  27.536  1.00  0.00     0.029 A 
ATOM     69  C   UNL A   1      45.366  29.478  28.647  1.00  0.00     0.049 A 
ATOM     70  H   UNL A   1      44.645  29.909  30.585  1.00  0.00     0.167 HD
ATOM     71  C   UNL A   1      45.675  27.347  29.878  1.00  0.00     0.074 A 
ATOM     72  C   UNL A   1      46.082  25.963  29.984  1.00  0.00     0.031 C 
ATOM     73  C   UNL A   1      45.778  28.099  28.754  1.00  0.00     0.037 A 
BRANCH  60  74
ATOM     74  C   UNL A   1      43.692  33.894  29.362  1.00  0.00     0.064 A 
ATOM     75  C   UNL A   1      42.389  34.277  29.014  1.00  0.00     0.173 A 
ATOM     76  C   UNL A   1      44.738  34.783  29.064  1.00  0.00     0.173 A 
ATOM     77  F   UNL A   1      41.357  33.454  29.255  1.00  0.00    -0.203 F 
ATOM     78  C   UNL A   1      42.148  35.485  28.364  1.00  0.00     0.198 A 
ATOM     79  C   UNL A   1      44.490  36.004  28.447  1.00  0.00     0.198 A 
ATOM     80  F   UNL A   1      46.004  34.463  29.372  1.00  0.00    -0.203 F 
ATOM     81  F   UNL A   1      40.903  35.802  27.983  1.00  0.00    -0.200 F 
ATOM     82  C   UNL A   1      43.197  36.349  28.087  1.00  0.00     0.200 A 
ATOM     83  F   UNL A   1      45.505  36.842  28.193  1.00  0.00    -0.200 F 
ATOM     84  F   UNL A   1      42.964  37.512  27.463  1.00  0.00    -0.200 F 
ENDBRANCH  60  74
BRANCH  61  85
ATOM     85  C   UNL A   1      45.090  25.174  34.024  1.00  0.00     0.064 A 
ATOM     86  C   UNL A   1      46.164  25.152  34.930  1.00  0.00     0.173 A 
ATOM     87  C   UNL A   1      44.413  23.962  33.836  1.00  0.00     0.173 A 
ATOM     88  F   UNL A   1      46.903  26.249  35.108  1.00  0.00    -0.203 F 
ATOM     89  C   UNL A   1      46.541  23.997  35.614  1.00  0.00     0.198 A 
ATOM     90  C   UNL A   1      44.763  22.811  34.548  1.00  0.00     0.198 A 
ATOM     91  F   UNL A   1      43.403  23.885  32.957  1.00  0.00    -0.203 F 
ATOM     92  F   UNL A   1      47.605  24.017  36.429  1.00  0.00    -0.200 F 
ATOM     93  C   UNL A   1      45.830  22.827  35.432  1.00  0.00     0.200 A 
ATOM     94  F   UNL A   1      44.067  21.680  34.369  1.00  0.00    -0.200 F 
ATOM     95  F   UNL A   1      46.183  21.715  36.091  1.00  0.00    -0.200 F 
ENDBRANCH  61  85
BRANCH  73  96
ATOM     96  C   UNL A   1      46.391  27.457  27.538  1.00  0.00     0.064 A 
ATOM     97  C   UNL A   1      47.775  27.461  27.306  1.00  0.00     0.173 A 
ATOM     98  C   UNL A   1      45.579  26.766  26.622  1.00  0.00     0.173 A 
ATOM     99  F   UNL A   1      48.596  28.113  28.144  1.00  0.00    -0.203 F 
ATOM    100  C   UNL A   1      48.319  26.821  26.195  1.00  0.00     0.198 A 
ATOM    101  C   UNL A   1      46.130  26.097  25.533  1.00  0.00     0.198 A 
ATOM    102  F   UNL A   1      44.250  26.723  26.800  1.00  0.00    -0.203 F 
ATOM    103  F   UNL A   1      49.640  26.878  25.971  1.00  0.00    -0.200 F 
ATOM    104  C   UNL A   1      47.498  26.131  25.316  1.00  0.00     0.200 A 
ATOM    105  F   UNL A   1      45.335  25.412  24.699  1.00  0.00    -0.200 F 
ATOM    106  F   UNL A   1      48.026  25.500  24.258  1.00  0.00    -0.200 F 
ENDBRANCH  73  96
ENDBRANCH  47  48
ENDBRANCH  40  42
ENDBRANCH  39  40
ENDBRANCH  38  39
ENDBRANCH  37  38
ENDBRANCH  36  37
ENDBRANCH  35  36
ENDBRANCH   1  35
TORSDOF 21
ENDMDL
MODEL 3
REMARK VINA RESULT:     -10.6      1.134      6.940
REMARK SMILES NS(=O)(=O)c1ccc(-c2cc(Cl)cc3c2O[C@H](C(F)(F)F)C(C(=O)OCCOCCOCCOC(=O)c2ccc(-c4c5nc(c(-c6c(F)c(F)c(F)c(F)c6F)c6ccc([nH]6)c(-c6c(F)c(F)c(F)c(F)c6F)c6nc(c(-c7c(F)c(F)c(F)c(F)c7F)c7ccc4[nH]7)C=C6)C=C5)cc2)=C3)cc1
REMARK SMILES IDX 29 1 28 2 27 3 26 4 25 5 23 6 24 7 22 8 9 9 10 10 15 11
REMARK SMILES IDX 11 12 14 13 16 14 12 15 13 16 100 17 17 18 8 19 5 20 6 21
REMARK SMILES IDX 102 22 7 23 101 24 2 25 3 26 4 27 1 28 18 31 19 32 20 33
REMARK SMILES IDX 21 34 30 35 31 36 32 37 33 38 34 39 35 40 36 41 37 42 38 43
REMARK SMILES IDX 99 44 39 45 98 46 40 47 41 48 42 49 92 50 43 51 97 52 91 53
REMARK SMILES IDX 93 54 44 55 96 56 90 57 89 58 45 60 77 61 57 62 76 63 58 64
REMARK SMILES IDX 61 65 75 66 94 67 59 68 60 69 74 71 95 72 62 73 46 74 47 75
REMARK SMILES IDX 55 76 48 77 49 78 53 79 56 80 50 81 51 82 54 83 52 84 78 85
REMARK SMILES IDX 79 86 87 87 80 88 81 89 85 90 88 91 82 92 83 93 86 94 84 95
REMARK SMILES IDX 63 96 64 97 72 98 65 99 66 100 70 101 73 102 67 103 68 104
REMARK SMILES IDX 71 105 69 106
REMARK H PARENT 1 29 1 30 93 59 61 70
REMARK Flexibility Score: inf
ROOT
ATOM      1  C   UNL A   1      39.538  20.288  25.845  1.00  0.00     0.188 C 
ENDROOT
BRANCH   1   2
ATOM      2  O   UNL A   1      38.460  21.135  26.189  1.00  0.00    -0.376 OA
BRANCH   2   3
ATOM      3  C   UNL A   1      37.880  21.894  25.130  1.00  0.00     0.202 C 
BRANCH   3   4
ATOM      4  C   UNL A   1      36.950  23.062  25.512  1.00  0.00     0.261 C 
BRANCH   4   5
ATOM      5  O   UNL A   1      35.624  22.963  24.924  1.00  0.00    -0.460 OA
BRANCH   5   6
ATOM      6  C   UNL A   1      34.593  23.019  25.792  1.00  0.00     0.338 C 
ATOM      7  O   UNL A   1      34.714  22.937  27.008  1.00  0.00    -0.246 OA
BRANCH   6   8
ATOM      8  C   UNL A   1      33.286  23.318  25.137  1.00  0.00     0.087 C 
ATOM      9  C   UNL A   1      32.134  27.101  23.869  1.00  0.00     0.026 A 
ATOM     10  C   UNL A   1      32.983  27.945  24.622  1.00  0.00     0.033 A 
ATOM     11  C   UNL A   1      32.194  25.744  24.232  1.00  0.00     0.135 A 
ATOM     12  C   UNL A   1      33.686  27.530  25.753  1.00  0.00     0.042 A 
ATOM     13  C   UNL A   1      32.671  25.407  25.518  1.00  0.00     0.019 A 
ATOM     14  O   UNL A   1      32.020  24.651  23.374  1.00  0.00    -0.475 OA
ATOM     15  Cl  UNL A   1      34.761  28.581  26.577  1.00  0.00    -0.084 Cl
ATOM     16  C   UNL A   1      33.461  26.273  26.259  1.00  0.00     0.032 A 
ATOM     17  C   UNL A   1      32.493  24.011  25.968  1.00  0.00     0.027 C 
ATOM     18  C   UNL A   1      33.063  23.564  23.646  1.00  0.00     0.316 C 
BRANCH   9  19
ATOM     19  C   UNL A   1      31.100  27.865  23.082  1.00  0.00    -0.015 A 
ATOM     20  C   UNL A   1      29.186  29.923  22.448  1.00  0.00     0.082 A 
ATOM     21  C   UNL A   1      30.511  30.052  22.052  1.00  0.00     0.022 A 
ATOM     22  C   UNL A   1      28.796  28.770  23.136  1.00  0.00     0.022 A 
ATOM     23  C   UNL A   1      31.434  29.030  22.361  1.00  0.00     0.010 A 
ATOM     24  C   UNL A   1      29.739  27.754  23.435  1.00  0.00     0.010 A 
BRANCH  20  25
ATOM     25  S   UNL A   1      28.017  31.238  22.169  1.00  0.00     0.238 S 
ATOM     26  O   UNL A   1      27.096  31.291  23.272  1.00  0.00    -0.207 OA
ATOM     27  O   UNL A   1      27.564  31.146  20.796  1.00  0.00    -0.207 OA
BRANCH  25  28
ATOM     28  N   UNL A   1      28.923  32.646  22.263  1.00  0.00    -0.225 NA
ATOM     29  H   UNL A   1      29.106  32.997  21.323  1.00  0.00     0.137 HD
ATOM     30  H   UNL A   1      29.807  32.451  22.731  1.00  0.00     0.137 HD
ENDBRANCH  25  28
ENDBRANCH  20  25
ENDBRANCH   9  19
BRANCH  18  31
ATOM     31  C   UNL A   1      32.716  22.213  23.006  1.00  0.00     0.430 C 
ATOM     32  F   UNL A   1      32.913  22.218  21.668  1.00  0.00    -0.167 F 
ATOM     33  F   UNL A   1      33.437  21.198  23.530  1.00  0.00    -0.167 F 
ATOM     34  F   UNL A   1      31.408  21.911  23.212  1.00  0.00    -0.167 F 
ENDBRANCH  18  31
ENDBRANCH   6   8
ENDBRANCH   5   6
ENDBRANCH   4   5
ENDBRANCH   3   4
ENDBRANCH   2   3
ENDBRANCH   1   2
BRANCH   1  35
ATOM     35  C   UNL A   1      40.903  20.736  26.414  1.00  0.00     0.188 C 
BRANCH  35  36
ATOM     36  O   UNL A   1      42.029  20.833  25.558  1.00  0.00    -0.376 OA
BRANCH  36  37
ATOM     37  C   UNL A   1      43.208  21.469  26.033  1.00  0.00     0.202 C 
BRANCH  37  38
ATOM     38  C   UNL A   1      43.463  22.958  25.736  1.00  0.00     0.261 C 
BRANCH  38  39
ATOM     39  O   UNL A   1      42.342  23.846  25.919  1.00  0.00    -0.460 OA
BRANCH  39  40
ATOM     40  C   UNL A   1      42.585  25.158  25.674  1.00  0.00     0.338 C 
ATOM     41  O   UNL A   1      42.691  25.696  24.584  1.00  0.00    -0.246 OA
BRANCH  40  42
ATOM     42  C   UNL A   1      42.523  25.944  26.924  1.00  0.00     0.060 A 
ATOM     43  C   UNL A   1      41.590  25.560  27.886  1.00  0.00     0.016 A 
ATOM     44  C   UNL A   1      43.270  27.110  27.112  1.00  0.00     0.016 A 
ATOM     45  C   UNL A   1      41.401  26.347  29.023  1.00  0.00     0.010 A 
ATOM     46  C   UNL A   1      43.079  27.892  28.269  1.00  0.00     0.010 A 
ATOM     47  C   UNL A   1      42.141  27.519  29.245  1.00  0.00    -0.014 A 
BRANCH  47  48
ATOM     48  C   UNL A   1      41.806  28.410  30.404  1.00  0.00     0.031 A 
ATOM     49  C   UNL A   1      40.534  29.203  30.362  1.00  0.00     0.074 A 
ATOM     50  C   UNL A   1      42.587  28.509  31.501  1.00  0.00     0.049 A 
ATOM     51  N   UNL A   1      40.039  30.021  31.256  1.00  0.00    -0.248 NA
ATOM     52  C   UNL A   1      39.733  29.084  29.137  1.00  0.00     0.031 C 
ATOM     53  C   UNL A   1      43.850  27.818  31.663  1.00  0.00     0.029 A 
ATOM     54  N   UNL A   1      42.421  29.170  32.702  1.00  0.00    -0.354 N 
ATOM     55  C   UNL A   1      38.912  30.577  30.669  1.00  0.00     0.074 A 
ATOM     56  C   UNL A   1      38.766  29.959  29.368  1.00  0.00     0.031 C 
ATOM     57  C   UNL A   1      44.270  27.950  32.934  1.00  0.00     0.029 A 
ATOM     58  C   UNL A   1      43.368  28.841  33.656  1.00  0.00     0.049 A 
ATOM     59  H   UNL A   1      41.697  29.815  32.865  1.00  0.00     0.167 HD
ATOM     60  C   UNL A   1      38.110  31.555  31.152  1.00  0.00     0.037 A 
ATOM     61  C   UNL A   1      43.498  29.211  34.952  1.00  0.00     0.037 A 
ATOM     62  C   UNL A   1      38.270  32.178  32.441  1.00  0.00     0.049 A 
ATOM     63  C   UNL A   1      42.565  30.275  35.488  1.00  0.00     0.074 A 
ATOM     64  C   UNL A   1      37.511  33.188  33.004  1.00  0.00     0.029 A 
ATOM     65  N   UNL A   1      39.262  31.867  33.360  1.00  0.00    -0.354 N 
ATOM     66  N   UNL A   1      41.495  30.791  34.929  1.00  0.00    -0.248 NA
ATOM     67  C   UNL A   1      42.865  30.835  36.815  1.00  0.00     0.031 C 
ATOM     68  C   UNL A   1      38.081  33.532  34.233  1.00  0.00     0.029 A 
ATOM     69  C   UNL A   1      39.144  32.677  34.481  1.00  0.00     0.049 A 
ATOM     70  H   UNL A   1      39.950  31.173  33.236  1.00  0.00     0.167 HD
ATOM     71  C   UNL A   1      41.021  31.754  35.813  1.00  0.00     0.074 A 
ATOM     72  C   UNL A   1      41.867  31.692  36.985  1.00  0.00     0.031 C 
ATOM     73  C   UNL A   1      39.983  32.611  35.654  1.00  0.00     0.037 A 
BRANCH  60  74
ATOM     74  C   UNL A   1      37.051  32.086  30.229  1.00  0.00     0.064 A 
ATOM     75  C   UNL A   1      37.086  33.389  29.715  1.00  0.00     0.173 A 
ATOM     76  C   UNL A   1      35.974  31.264  29.858  1.00  0.00     0.173 A 
ATOM     77  F   UNL A   1      38.081  34.223  30.056  1.00  0.00    -0.203 F 
ATOM     78  C   UNL A   1      36.067  33.861  28.891  1.00  0.00     0.198 A 
ATOM     79  C   UNL A   1      34.976  31.727  29.006  1.00  0.00     0.198 A 
ATOM     80  F   UNL A   1      35.890  30.008  30.324  1.00  0.00    -0.203 F 
ATOM     81  F   UNL A   1      36.087  35.131  28.464  1.00  0.00    -0.200 F 
ATOM     82  C   UNL A   1      35.017  33.028  28.533  1.00  0.00     0.200 A 
ATOM     83  F   UNL A   1      33.971  30.914  28.653  1.00  0.00    -0.200 F 
ATOM     84  F   UNL A   1      34.038  33.483  27.739  1.00  0.00    -0.200 F 
ENDBRANCH  60  74
BRANCH  61  85
ATOM     85  C   UNL A   1      44.521  28.592  35.860  1.00  0.00     0.064 A 
ATOM     86  C   UNL A   1      44.160  27.550  36.732  1.00  0.00     0.173 A 
ATOM     87  C   UNL A   1      45.854  29.019  35.923  1.00  0.00     0.173 A 
ATOM     88  F   UNL A   1      42.892  27.137  36.781  1.00  0.00    -0.203 F 
ATOM     89  C   UNL A   1      45.069  26.962  37.611  1.00  0.00     0.198 A 
ATOM     90  C   UNL A   1      46.778  28.408  36.776  1.00  0.00     0.198 A 
ATOM     91  F   UNL A   1      46.271  30.037  35.157  1.00  0.00    -0.203 F 
ATOM     92  F   UNL A   1      44.661  26.006  38.458  1.00  0.00    -0.200 F 
ATOM     93  C   UNL A   1      46.384  27.384  37.623  1.00  0.00     0.200 A 
ATOM     94  F   UNL A   1      48.053  28.819  36.780  1.00  0.00    -0.200 F 
ATOM     95  F   UNL A   1      47.264  26.820  38.461  1.00  0.00    -0.200 F 
ENDBRANCH  61  85
BRANCH  73  96
ATOM     96  C   UNL A   1      39.664  33.542  36.793  1.00  0.00     0.064 A 
ATOM     97  C   UNL A   1      40.143  34.860  36.840  1.00  0.00     0.173 A 
ATOM     98  C   UNL A   1      38.806  33.124  37.824  1.00  0.00     0.173 A 
ATOM     99  F   UNL A   1      40.973  35.310  35.886  1.00  0.00    -0.203 F 
ATOM    100  C   UNL A   1      39.796  35.714  37.885  1.00  0.00     0.198 A 
ATOM    101  C   UNL A   1      38.431  33.992  38.847  1.00  0.00     0.198 A 
ATOM    102  F   UNL A   1      38.311  31.877  37.824  1.00  0.00    -0.203 F 
ATOM    103  F   UNL A   1      40.302  36.955  37.931  1.00  0.00    -0.200 F 
ATOM    104  C   UNL A   1      38.932  35.283  38.881  1.00  0.00     0.200 A 
ATOM    105  F   UNL A   1      37.579  33.578  39.795  1.00  0.00    -0.200 F 
ATOM    106  F   UNL A   1      38.585  36.112  39.875  1.00  0.00    -0.200 F 
ENDBRANCH  73  96
ENDBRANCH  47  48
ENDBRANCH  40  42
ENDBRANCH  39  40
ENDBRANCH  38  39
ENDBRANCH  37  38
ENDBRANCH  36  37
ENDBRANCH  35  36
ENDBRANCH   1  35
TORSDOF 21
ENDMDL
