MODEL 1
REMARK VINA RESULT:     -10.5      0.000      0.000
REMARK SMILES C[C@@H]1CN(C(=O)C[N@H+]2CCO[C@H](CC(=O)OCCOCCOCCOC(=O)c3ccc(-c4c5nc(c(-c6c(F)c(F)c(F)c(F)c6F)c6ccc([nH]6)c(-c6c(F)c(F)c(F)c(F)c6F)c6nc(c(-c7c(F)c(F)c(F)c(F)c7F)c7ccc4[nH]7)C=C6)C=C5)cc3)C2)C[C@H](C)O1
REMARK SMILES IDX 20 1 19 2 18 3 17 4 16 5 14 6 15 7 13 8 12 9 8 10 9 11 91 12
REMARK SMILES IDX 10 14 11 15 7 16 5 17 6 18 4 19 1 20 2 21 3 22 95 23 93 24
REMARK SMILES IDX 92 25 94 26 21 27 22 28 23 29 24 30 25 31 26 32 27 33 28 34
REMARK SMILES IDX 29 35 90 36 30 37 89 38 31 39 32 40 33 41 83 42 34 43 88 44
REMARK SMILES IDX 82 45 84 46 35 47 87 48 81 49 80 50 36 52 68 53 48 54 67 55
REMARK SMILES IDX 49 56 52 57 66 58 85 59 50 60 51 61 65 63 86 64 53 65 37 66
REMARK SMILES IDX 38 67 46 68 39 69 40 70 44 71 47 72 41 73 42 74 45 75 43 76
REMARK SMILES IDX 69 77 70 78 78 79 71 80 72 81 76 82 79 83 73 84 74 85 77 86
REMARK SMILES IDX 75 87 54 88 55 89 63 90 56 91 57 92 61 93 64 94 58 95 59 96
REMARK SMILES IDX 62 97 60 98
REMARK H PARENT 8 13 84 51 52 62
REMARK Flexibility Score: inf
ROOT
ATOM      1  C   UNL A   1      33.973  33.525  28.444  1.00  0.00     0.188 C 
ENDROOT
BRANCH   1   2
ATOM      2  O   UNL A   1      34.767  32.690  27.610  1.00  0.00    -0.376 OA
BRANCH   2   3
ATOM      3  C   UNL A   1      35.021  31.366  28.086  1.00  0.00     0.202 C 
BRANCH   3   4
ATOM      4  C   UNL A   1      34.441  30.214  27.249  1.00  0.00     0.261 C 
BRANCH   4   5
ATOM      5  O   UNL A   1      33.311  30.599  26.439  1.00  0.00    -0.463 OA
BRANCH   5   6
ATOM      6  C   UNL A   1      32.194  29.832  26.560  1.00  0.00     0.308 C 
ATOM      7  O   UNL A   1      31.743  29.425  27.627  1.00  0.00    -0.252 OA
BRANCH   6   8
ATOM      8  C   UNL A   1      31.432  29.633  25.265  1.00  0.00     0.160 C 
BRANCH   8   9
ATOM      9  C   UNL A   1      31.266  28.200  24.764  1.00  0.00     0.184 C 
ATOM     10  N   UNL A   1      32.501  26.484  23.268  1.00  0.00    -0.323 N 
ATOM     11  C   UNL A   1      31.300  26.600  22.423  1.00  0.00     0.291 C 
ATOM     12  C   UNL A   1      32.599  27.708  24.101  1.00  0.00     0.295 C 
ATOM     13  H   UNL A   1      33.327  26.419  22.674  1.00  0.00     0.348 HD
ATOM     14  C   UNL A   1      30.033  26.936  23.206  1.00  0.00     0.222 C 
ATOM     15  O   UNL A   1      30.187  28.214  23.816  1.00  0.00    -0.366 OA
BRANCH  10  16
ATOM     16  C   UNL A   1      32.549  25.230  24.050  1.00  0.00     0.363 C 
BRANCH  16  17
ATOM     17  C   UNL A   1      33.833  24.429  23.718  1.00  0.00     0.277 C 
ATOM     18  O   UNL A   1      34.412  24.633  22.645  1.00  0.00    -0.268 OA
BRANCH  17  19
ATOM     19  N   UNL A   1      34.328  23.518  24.645  1.00  0.00    -0.333 N 
ATOM     20  C   UNL A   1      31.964  23.092  26.722  1.00  0.00     0.040 C 
ATOM     21  C   UNL A   1      33.437  22.706  26.799  1.00  0.00     0.135 C 
ATOM     22  C   UNL A   1      34.394  23.688  26.092  1.00  0.00     0.151 C 
ATOM     23  O   UNL A   1      33.649  21.349  26.368  1.00  0.00    -0.372 OA
ATOM     24  C   UNL A   1      33.739  21.134  24.945  1.00  0.00     0.135 C 
ATOM     25  C   UNL A   1      34.658  22.151  24.244  1.00  0.00     0.151 C 
ATOM     26  C   UNL A   1      32.367  21.035  24.287  1.00  0.00     0.040 C 
ENDBRANCH  17  19
ENDBRANCH  16  17
ENDBRANCH  10  16
ENDBRANCH   8   9
ENDBRANCH   6   8
ENDBRANCH   5   6
ENDBRANCH   4   5
ENDBRANCH   3   4
ENDBRANCH   2   3
ENDBRANCH   1   2
BRANCH   1  27
ATOM     27  C   UNL A   1      34.126  33.314  29.951  1.00  0.00     0.188 C 
BRANCH  27  28
ATOM     28  O   UNL A   1      34.905  34.290  30.627  1.00  0.00    -0.376 OA
BRANCH  28  29
ATOM     29  C   UNL A   1      34.473  34.678  31.934  1.00  0.00     0.202 C 
BRANCH  29  30
ATOM     30  C   UNL A   1      34.436  33.590  33.029  1.00  0.00     0.261 C 
BRANCH  30  31
ATOM     31  O   UNL A   1      35.228  32.408  32.772  1.00  0.00    -0.460 OA
BRANCH  31  32
ATOM     32  C   UNL A   1      36.413  32.284  33.412  1.00  0.00     0.338 C 
ATOM     33  O   UNL A   1      36.609  32.439  34.606  1.00  0.00    -0.246 OA
BRANCH  32  34
ATOM     34  C   UNL A   1      37.392  31.645  32.484  1.00  0.00     0.060 A 
ATOM     35  C   UNL A   1      38.448  30.921  33.052  1.00  0.00     0.016 A 
ATOM     36  C   UNL A   1      37.246  31.670  31.091  1.00  0.00     0.016 A 
ATOM     37  C   UNL A   1      39.376  30.259  32.244  1.00  0.00     0.010 A 
ATOM     38  C   UNL A   1      38.187  31.018  30.279  1.00  0.00     0.010 A 
ATOM     39  C   UNL A   1      39.276  30.336  30.850  1.00  0.00    -0.014 A 
BRANCH  39  40
ATOM     40  C   UNL A   1      40.419  29.873  30.018  1.00  0.00     0.031 A 
ATOM     41  C   UNL A   1      41.533  30.844  29.729  1.00  0.00     0.074 A 
ATOM     42  C   UNL A   1      40.515  28.604  29.578  1.00  0.00     0.049 A 
ATOM     43  N   UNL A   1      42.638  30.672  29.048  1.00  0.00    -0.248 NA
ATOM     44  C   UNL A   1      41.378  32.197  30.288  1.00  0.00     0.031 C 
ATOM     45  C   UNL A   1      39.537  27.548  29.819  1.00  0.00     0.029 A 
ATOM     46  N   UNL A   1      41.496  27.992  28.833  1.00  0.00    -0.354 N 
ATOM     47  C   UNL A   1      43.305  31.888  29.095  1.00  0.00     0.074 A 
ATOM     48  C   UNL A   1      42.467  32.802  29.841  1.00  0.00     0.031 C 
ATOM     49  C   UNL A   1      39.964  26.417  29.227  1.00  0.00     0.029 A 
ATOM     50  C   UNL A   1      41.231  26.676  28.542  1.00  0.00     0.049 A 
ATOM     51  H   UNL A   1      42.313  28.454  28.536  1.00  0.00     0.167 HD
ATOM     52  C   UNL A   1      44.512  32.215  28.576  1.00  0.00     0.037 A 
ATOM     53  C   UNL A   1      41.922  25.789  27.797  1.00  0.00     0.037 A 
ATOM     54  C   UNL A   1      45.356  31.312  27.839  1.00  0.00     0.049 A 
ATOM     55  C   UNL A   1      43.231  26.201  27.167  1.00  0.00     0.074 A 
ATOM     56  C   UNL A   1      46.609  31.549  27.300  1.00  0.00     0.029 A 
ATOM     57  N   UNL A   1      45.030  30.001  27.528  1.00  0.00    -0.354 N 
ATOM     58  N   UNL A   1      43.871  27.342  27.246  1.00  0.00    -0.248 NA
ATOM     59  C   UNL A   1      43.918  25.191  26.345  1.00  0.00     0.031 C 
ATOM     60  C   UNL A   1      47.012  30.403  26.608  1.00  0.00     0.029 A 
ATOM     61  C   UNL A   1      46.042  29.429  26.772  1.00  0.00     0.049 A 
ATOM     62  H   UNL A   1      44.203  29.543  27.803  1.00  0.00     0.167 HD
ATOM     63  C   UNL A   1      45.041  27.181  26.513  1.00  0.00     0.074 A 
ATOM     64  C   UNL A   1      45.035  25.823  26.012  1.00  0.00     0.031 C 
ATOM     65  C   UNL A   1      46.032  28.076  26.278  1.00  0.00     0.037 A 
BRANCH  52  66
ATOM     66  C   UNL A   1      44.984  33.629  28.757  1.00  0.00     0.064 A 
ATOM     67  C   UNL A   1      44.747  34.620  27.791  1.00  0.00     0.173 A 
ATOM     68  C   UNL A   1      45.648  34.005  29.933  1.00  0.00     0.173 A 
ATOM     69  F   UNL A   1      44.129  34.308  26.641  1.00  0.00    -0.203 F 
ATOM     70  C   UNL A   1      45.181  35.928  27.987  1.00  0.00     0.198 A 
ATOM     71  C   UNL A   1      46.053  35.321  30.140  1.00  0.00     0.198 A 
ATOM     72  F   UNL A   1      45.896  33.098  30.890  1.00  0.00    -0.203 F 
ATOM     73  F   UNL A   1      44.989  36.847  27.031  1.00  0.00    -0.200 F 
ATOM     74  C   UNL A   1      45.826  36.279  29.164  1.00  0.00     0.200 A 
ATOM     75  F   UNL A   1      46.662  35.662  31.284  1.00  0.00    -0.200 F 
ATOM     76  F   UNL A   1      46.234  37.541  29.355  1.00  0.00    -0.200 F 
ENDBRANCH  52  66
BRANCH  53  77
ATOM     77  C   UNL A   1      41.384  24.418  27.576  1.00  0.00     0.064 A 
ATOM     78  C   UNL A   1      41.997  23.293  28.144  1.00  0.00     0.173 A 
ATOM     79  C   UNL A   1      40.270  24.204  26.749  1.00  0.00     0.173 A 
ATOM     80  F   UNL A   1      43.086  23.440  28.913  1.00  0.00    -0.203 F 
ATOM     81  C   UNL A   1      41.533  22.006  27.874  1.00  0.00     0.198 A 
ATOM     82  C   UNL A   1      39.788  22.919  26.507  1.00  0.00     0.198 A 
ATOM     83  F   UNL A   1      39.653  25.244  26.170  1.00  0.00    -0.203 F 
ATOM     84  F   UNL A   1      42.177  20.944  28.380  1.00  0.00    -0.200 F 
ATOM     85  C   UNL A   1      40.426  21.820  27.062  1.00  0.00     0.200 A 
ATOM     86  F   UNL A   1      38.713  22.747  25.725  1.00  0.00    -0.200 F 
ATOM     87  F   UNL A   1      39.982  20.584  26.800  1.00  0.00    -0.200 F 
ENDBRANCH  53  77
BRANCH  65  88
ATOM     88  C   UNL A   1      47.212  27.613  25.468  1.00  0.00     0.064 A 
ATOM     89  C   UNL A   1      48.316  26.980  26.061  1.00  0.00     0.173 A 
ATOM     90  C   UNL A   1      47.225  27.774  24.073  1.00  0.00     0.173 A 
ATOM     91  F   UNL A   1      48.361  26.809  27.391  1.00  0.00    -0.203 F 
ATOM     92  C   UNL A   1      49.399  26.557  25.294  1.00  0.00     0.198 A 
ATOM     93  C   UNL A   1      48.294  27.318  23.305  1.00  0.00     0.198 A 
ATOM     94  F   UNL A   1      46.193  28.361  23.450  1.00  0.00    -0.203 F 
ATOM     95  F   UNL A   1      50.466  26.007  25.890  1.00  0.00    -0.200 F 
ATOM     96  C   UNL A   1      49.385  26.720  23.916  1.00  0.00     0.200 A 
ATOM     97  F   UNL A   1      48.270  27.460  21.973  1.00  0.00    -0.200 F 
ATOM     98  F   UNL A   1      50.425  26.308  23.180  1.00  0.00    -0.200 F 
ENDBRANCH  65  88
ENDBRANCH  39  40
ENDBRANCH  32  34
ENDBRANCH  31  32
ENDBRANCH  30  31
ENDBRANCH  29  30
ENDBRANCH  28  29
ENDBRANCH  27  28
ENDBRANCH   1  27
TORSDOF 21
ENDMDL
MODEL 2
REMARK VINA RESULT:     -10.3      5.079     10.525
REMARK SMILES C[C@@H]1CN(C(=O)C[N@H+]2CCO[C@H](CC(=O)OCCOCCOCCOC(=O)c3ccc(-c4c5nc(c(-c6c(F)c(F)c(F)c(F)c6F)c6ccc([nH]6)c(-c6c(F)c(F)c(F)c(F)c6F)c6nc(c(-c7c(F)c(F)c(F)c(F)c7F)c7ccc4[nH]7)C=C6)C=C5)cc3)C2)C[C@H](C)O1
REMARK SMILES IDX 20 1 19 2 18 3 17 4 16 5 14 6 15 7 13 8 12 9 8 10 9 11 91 12
REMARK SMILES IDX 10 14 11 15 7 16 5 17 6 18 4 19 1 20 2 21 3 22 95 23 93 24
REMARK SMILES IDX 92 25 94 26 21 27 22 28 23 29 24 30 25 31 26 32 27 33 28 34
REMARK SMILES IDX 29 35 90 36 30 37 89 38 31 39 32 40 33 41 83 42 34 43 88 44
REMARK SMILES IDX 82 45 84 46 35 47 87 48 81 49 80 50 36 52 68 53 48 54 67 55
REMARK SMILES IDX 49 56 52 57 66 58 85 59 50 60 51 61 65 63 86 64 53 65 37 66
REMARK SMILES IDX 38 67 46 68 39 69 40 70 44 71 47 72 41 73 42 74 45 75 43 76
REMARK SMILES IDX 69 77 70 78 78 79 71 80 72 81 76 82 79 83 73 84 74 85 77 86
REMARK SMILES IDX 75 87 54 88 55 89 63 90 56 91 57 92 61 93 64 94 58 95 59 96
REMARK SMILES IDX 62 97 60 98
REMARK H PARENT 8 13 84 51 52 62
REMARK Flexibility Score: inf
ROOT
ATOM      1  C   UNL A   1      38.021  22.145  25.707  1.00  0.00     0.188 C 
ENDROOT
BRANCH   1   2
ATOM      2  O   UNL A   1      36.752  21.621  25.333  1.00  0.00    -0.376 OA
BRANCH   2   3
ATOM      3  C   UNL A   1      35.661  21.900  26.213  1.00  0.00     0.202 C 
BRANCH   3   4
ATOM      4  C   UNL A   1      34.379  21.080  25.994  1.00  0.00     0.261 C 
BRANCH   4   5
ATOM      5  O   UNL A   1      34.123  20.762  24.610  1.00  0.00    -0.463 OA
BRANCH   5   6
ATOM      6  C   UNL A   1      32.826  20.534  24.274  1.00  0.00     0.308 C 
ATOM      7  O   UNL A   1      32.178  19.553  24.627  1.00  0.00    -0.252 OA
BRANCH   6   8
ATOM      8  C   UNL A   1      32.163  21.682  23.537  1.00  0.00     0.160 C 
BRANCH   8   9
ATOM      9  C   UNL A   1      31.465  22.746  24.381  1.00  0.00     0.184 C 
ATOM     10  N   UNL A   1      32.055  24.842  25.783  1.00  0.00    -0.323 N 
ATOM     11  C   UNL A   1      31.534  24.040  26.903  1.00  0.00     0.291 C 
ATOM     12  C   UNL A   1      32.463  23.912  24.701  1.00  0.00     0.295 C 
ATOM     13  H   UNL A   1      32.871  25.368  26.095  1.00  0.00     0.348 HD
ATOM     14  C   UNL A   1      30.457  23.040  26.489  1.00  0.00     0.222 C 
ATOM     15  O   UNL A   1      31.021  22.096  25.583  1.00  0.00    -0.366 OA
BRANCH  10  16
ATOM     16  C   UNL A   1      31.124  25.899  25.335  1.00  0.00     0.363 C 
BRANCH  16  17
ATOM     17  C   UNL A   1      31.488  27.258  25.985  1.00  0.00     0.277 C 
ATOM     18  O   UNL A   1      31.362  27.395  27.208  1.00  0.00    -0.268 OA
BRANCH  17  19
ATOM     19  N   UNL A   1      31.978  28.286  25.188  1.00  0.00    -0.333 N 
ATOM     20  C   UNL A   1      33.657  26.837  22.916  1.00  0.00     0.040 C 
ATOM     21  C   UNL A   1      33.602  28.303  23.330  1.00  0.00     0.135 C 
ATOM     22  C   UNL A   1      33.371  28.535  24.837  1.00  0.00     0.151 C 
ATOM     23  O   UNL A   1      32.665  29.042  22.525  1.00  0.00    -0.372 OA
ATOM     24  C   UNL A   1      31.278  28.954  22.911  1.00  0.00     0.135 C 
ATOM     25  C   UNL A   1      31.066  29.138  24.425  1.00  0.00     0.151 C 
ATOM     26  C   UNL A   1      30.607  27.693  22.376  1.00  0.00     0.040 C 
ENDBRANCH  17  19
ENDBRANCH  16  17
ENDBRANCH  10  16
ENDBRANCH   8   9
ENDBRANCH   6   8
ENDBRANCH   5   6
ENDBRANCH   4   5
ENDBRANCH   3   4
ENDBRANCH   2   3
ENDBRANCH   1   2
BRANCH   1  27
ATOM     27  C   UNL A   1      39.178  21.144  25.749  1.00  0.00     0.188 C 
BRANCH  27  28
ATOM     28  O   UNL A   1      40.380  21.626  26.331  1.00  0.00    -0.376 OA
BRANCH  28  29
ATOM     29  C   UNL A   1      41.548  20.817  26.178  1.00  0.00     0.202 C 
BRANCH  29  30
ATOM     30  C   UNL A   1      42.785  21.461  25.516  1.00  0.00     0.261 C 
BRANCH  30  31
ATOM     31  O   UNL A   1      42.604  22.803  25.009  1.00  0.00    -0.460 OA
BRANCH  31  32
ATOM     32  C   UNL A   1      43.627  23.677  25.141  1.00  0.00     0.338 C 
ATOM     33  O   UNL A   1      44.530  23.858  24.341  1.00  0.00    -0.246 OA
BRANCH  32  34
ATOM     34  C   UNL A   1      43.327  24.595  26.279  1.00  0.00     0.060 A 
ATOM     35  C   UNL A   1      42.668  24.056  27.392  1.00  0.00     0.016 A 
ATOM     36  C   UNL A   1      43.749  25.930  26.310  1.00  0.00     0.016 A 
ATOM     37  C   UNL A   1      42.395  24.847  28.511  1.00  0.00     0.010 A 
ATOM     38  C   UNL A   1      43.462  26.728  27.427  1.00  0.00     0.010 A 
ATOM     39  C   UNL A   1      42.754  26.200  28.523  1.00  0.00    -0.014 A 
BRANCH  39  40
ATOM     40  C   UNL A   1      42.208  27.083  29.587  1.00  0.00     0.031 A 
ATOM     41  C   UNL A   1      42.932  27.147  30.906  1.00  0.00     0.074 A 
ATOM     42  C   UNL A   1      41.133  27.867  29.383  1.00  0.00     0.049 A 
ATOM     43  N   UNL A   1      42.663  27.853  31.975  1.00  0.00    -0.248 NA
ATOM     44  C   UNL A   1      44.127  26.298  31.033  1.00  0.00     0.031 C 
ATOM     45  C   UNL A   1      40.362  27.942  28.146  1.00  0.00     0.029 A 
ATOM     46  N   UNL A   1      40.509  28.759  30.223  1.00  0.00    -0.354 N 
ATOM     47  C   UNL A   1      43.649  27.532  32.898  1.00  0.00     0.074 A 
ATOM     48  C   UNL A   1      44.504  26.543  32.278  1.00  0.00     0.031 C 
ATOM     49  C   UNL A   1      39.361  28.827  28.310  1.00  0.00     0.029 A 
ATOM     50  C   UNL A   1      39.405  29.362  29.671  1.00  0.00     0.049 A 
ATOM     51  H   UNL A   1      40.824  28.948  31.137  1.00  0.00     0.167 HD
ATOM     52  C   UNL A   1      43.837  28.024  34.145  1.00  0.00     0.037 A 
ATOM     53  C   UNL A   1      38.523  30.230  30.207  1.00  0.00     0.037 A 
ATOM     54  C   UNL A   1      42.997  29.013  34.768  1.00  0.00     0.049 A 
ATOM     55  C   UNL A   1      38.712  30.708  31.627  1.00  0.00     0.074 A 
ATOM     56  C   UNL A   1      43.128  29.591  36.019  1.00  0.00     0.029 A 
ATOM     57  N   UNL A   1      41.863  29.565  34.191  1.00  0.00    -0.354 N 
ATOM     58  N   UNL A   1      39.668  30.427  32.479  1.00  0.00    -0.248 NA
ATOM     59  C   UNL A   1      37.698  31.634  32.156  1.00  0.00     0.031 C 
ATOM     60  C   UNL A   1      42.039  30.443  36.224  1.00  0.00     0.029 A 
ATOM     61  C   UNL A   1      41.265  30.448  35.076  1.00  0.00     0.049 A 
ATOM     62  H   UNL A   1      41.531  29.360  33.287  1.00  0.00     0.167 HD
ATOM     63  C   UNL A   1      39.387  31.157  33.629  1.00  0.00     0.074 A 
ATOM     64  C   UNL A   1      38.182  31.913  33.359  1.00  0.00     0.031 C 
ATOM     65  C   UNL A   1      40.067  31.200  34.802  1.00  0.00     0.037 A 
BRANCH  52  66
ATOM     66  C   UNL A   1      44.983  27.473  34.942  1.00  0.00     0.064 A 
ATOM     67  C   UNL A   1      46.229  28.118  34.995  1.00  0.00     0.173 A 
ATOM     68  C   UNL A   1      44.819  26.301  35.695  1.00  0.00     0.173 A 
ATOM     69  F   UNL A   1      46.443  29.234  34.281  1.00  0.00    -0.203 F 
ATOM     70  C   UNL A   1      47.274  27.595  35.753  1.00  0.00     0.198 A 
ATOM     71  C   UNL A   1      45.855  25.798  36.476  1.00  0.00     0.198 A 
ATOM     72  F   UNL A   1      43.648  25.647  35.682  1.00  0.00    -0.203 F 
ATOM     73  F   UNL A   1      48.469  28.200  35.751  1.00  0.00    -0.200 F 
ATOM     74  C   UNL A   1      47.083  26.441  36.499  1.00  0.00     0.200 A 
ATOM     75  F   UNL A   1      45.666  24.691  37.207  1.00  0.00    -0.200 F 
ATOM     76  F   UNL A   1      48.087  25.945  37.235  1.00  0.00    -0.200 F 
ENDBRANCH  52  66
BRANCH  53  77
ATOM     77  C   UNL A   1      37.354  30.696  29.411  1.00  0.00     0.064 A 
ATOM     78  C   UNL A   1      36.281  29.842  29.120  1.00  0.00     0.173 A 
ATOM     79  C   UNL A   1      37.312  31.996  28.883  1.00  0.00     0.173 A 
ATOM     80  F   UNL A   1      36.289  28.579  29.571  1.00  0.00    -0.203 F 
ATOM     81  C   UNL A   1      35.224  30.261  28.314  1.00  0.00     0.198 A 
ATOM     82  C   UNL A   1      36.238  32.424  28.104  1.00  0.00     0.198 A 
ATOM     83  F   UNL A   1      38.318  32.850  29.120  1.00  0.00    -0.203 F 
ATOM     84  F   UNL A   1      34.242  29.404  28.001  1.00  0.00    -0.200 F 
ATOM     85  C   UNL A   1      35.200  31.553  27.812  1.00  0.00     0.200 A 
ATOM     86  F   UNL A   1      36.218  33.676  27.627  1.00  0.00    -0.200 F 
ATOM     87  F   UNL A   1      34.186  31.955  27.034  1.00  0.00    -0.200 F 
ENDBRANCH  53  77
BRANCH  65  88
ATOM     88  C   UNL A   1      39.547  32.115  35.876  1.00  0.00     0.064 A 
ATOM     89  C   UNL A   1      40.019  33.429  36.022  1.00  0.00     0.173 A 
ATOM     90  C   UNL A   1      38.538  31.683  36.751  1.00  0.00     0.173 A 
ATOM     91  F   UNL A   1      40.989  33.891  35.219  1.00  0.00    -0.203 F 
ATOM     92  C   UNL A   1      39.524  34.262  37.023  1.00  0.00     0.198 A 
ATOM     93  C   UNL A   1      38.021  32.531  37.729  1.00  0.00     0.198 A 
ATOM     94  F   UNL A   1      38.041  30.441  36.652  1.00  0.00    -0.203 F 
ATOM     95  F   UNL A   1      40.030  35.493  37.179  1.00  0.00    -0.200 F 
ATOM     96  C   UNL A   1      38.521  33.815  37.871  1.00  0.00     0.200 A 
ATOM     97  F   UNL A   1      37.040  32.103  38.535  1.00  0.00    -0.200 F 
ATOM     98  F   UNL A   1      38.043  34.620  38.829  1.00  0.00    -0.200 F 
ENDBRANCH  65  88
ENDBRANCH  39  40
ENDBRANCH  32  34
ENDBRANCH  31  32
ENDBRANCH  30  31
ENDBRANCH  29  30
ENDBRANCH  28  29
ENDBRANCH  27  28
ENDBRANCH   1  27
TORSDOF 21
ENDMDL
MODEL 3
REMARK VINA RESULT:     -10.1      0.771      2.082
REMARK SMILES C[C@@H]1CN(C(=O)C[N@H+]2CCO[C@H](CC(=O)OCCOCCOCCOC(=O)c3ccc(-c4c5nc(c(-c6c(F)c(F)c(F)c(F)c6F)c6ccc([nH]6)c(-c6c(F)c(F)c(F)c(F)c6F)c6nc(c(-c7c(F)c(F)c(F)c(F)c7F)c7ccc4[nH]7)C=C6)C=C5)cc3)C2)C[C@H](C)O1
REMARK SMILES IDX 20 1 19 2 18 3 17 4 16 5 14 6 15 7 13 8 12 9 8 10 9 11 91 12
REMARK SMILES IDX 10 14 11 15 7 16 5 17 6 18 4 19 1 20 2 21 3 22 95 23 93 24
REMARK SMILES IDX 92 25 94 26 21 27 22 28 23 29 24 30 25 31 26 32 27 33 28 34
REMARK SMILES IDX 29 35 90 36 30 37 89 38 31 39 32 40 33 41 83 42 34 43 88 44
REMARK SMILES IDX 82 45 84 46 35 47 87 48 81 49 80 50 36 52 68 53 48 54 67 55
REMARK SMILES IDX 49 56 52 57 66 58 85 59 50 60 51 61 65 63 86 64 53 65 37 66
REMARK SMILES IDX 38 67 46 68 39 69 40 70 44 71 47 72 41 73 42 74 45 75 43 76
REMARK SMILES IDX 69 77 70 78 78 79 71 80 72 81 76 82 79 83 73 84 74 85 77 86
REMARK SMILES IDX 75 87 54 88 55 89 63 90 56 91 57 92 61 93 64 94 58 95 59 96
REMARK SMILES IDX 62 97 60 98
REMARK H PARENT 8 13 84 51 52 62
REMARK Flexibility Score: inf
ROOT
ATOM      1  C   UNL A   1      34.556  32.817  27.689  1.00  0.00     0.188 C 
ENDROOT
BRANCH   1   2
ATOM      2  O   UNL A   1      33.664  31.753  27.996  1.00  0.00    -0.376 OA
BRANCH   2   3
ATOM      3  C   UNL A   1      33.200  30.968  26.895  1.00  0.00     0.202 C 
BRANCH   3   4
ATOM      4  C   UNL A   1      33.174  29.444  27.104  1.00  0.00     0.261 C 
BRANCH   4   5
ATOM      5  O   UNL A   1      31.868  28.927  27.431  1.00  0.00    -0.463 OA
BRANCH   5   6
ATOM      6  C   UNL A   1      31.420  27.896  26.666  1.00  0.00     0.308 C 
ATOM      7  O   UNL A   1      31.007  26.829  27.111  1.00  0.00    -0.252 OA
BRANCH   6   8
ATOM      8  C   UNL A   1      31.319  28.215  25.188  1.00  0.00     0.160 C 
BRANCH   8   9
ATOM      9  C   UNL A   1      31.619  27.084  24.206  1.00  0.00     0.184 C 
ATOM     10  N   UNL A   1      33.648  25.759  23.294  1.00  0.00    -0.323 N 
ATOM     11  C   UNL A   1      33.264  26.369  22.009  1.00  0.00     0.291 C 
ATOM     12  C   UNL A   1      33.099  26.600  24.386  1.00  0.00     0.295 C 
ATOM     13  H   UNL A   1      34.665  25.741  23.368  1.00  0.00     0.348 HD
ATOM     14  C   UNL A   1      31.769  26.658  21.895  1.00  0.00     0.222 C 
ATOM     15  O   UNL A   1      31.401  27.612  22.887  1.00  0.00    -0.366 OA
BRANCH  10  16
ATOM     16  C   UNL A   1      33.277  24.332  23.400  1.00  0.00     0.363 C 
BRANCH  16  17
ATOM     17  C   UNL A   1      34.535  23.456  23.621  1.00  0.00     0.277 C 
ATOM     18  O   UNL A   1      35.387  23.385  22.727  1.00  0.00    -0.268 OA
BRANCH  17  19
ATOM     19  N   UNL A   1      34.699  22.790  24.831  1.00  0.00    -0.333 N 
ATOM     20  C   UNL A   1      31.760  22.436  25.980  1.00  0.00     0.040 C 
ATOM     21  C   UNL A   1      33.119  22.259  26.651  1.00  0.00     0.135 C 
ATOM     22  C   UNL A   1      34.215  23.215  26.138  1.00  0.00     0.151 C 
ATOM     23  O   UNL A   1      33.548  20.885  26.614  1.00  0.00    -0.372 OA
ATOM     24  C   UNL A   1      34.170  20.440  25.393  1.00  0.00     0.135 C 
ATOM     25  C   UNL A   1      35.228  21.427  24.865  1.00  0.00     0.151 C 
ATOM     26  C   UNL A   1      33.148  20.055  24.328  1.00  0.00     0.040 C 
ENDBRANCH  17  19
ENDBRANCH  16  17
ENDBRANCH  10  16
ENDBRANCH   8   9
ENDBRANCH   6   8
ENDBRANCH   5   6
ENDBRANCH   4   5
ENDBRANCH   3   4
ENDBRANCH   2   3
ENDBRANCH   1   2
BRANCH   1  27
ATOM     27  C   UNL A   1      34.867  33.787  28.830  1.00  0.00     0.188 C 
BRANCH  27  28
ATOM     28  O   UNL A   1      35.412  33.196  30.001  1.00  0.00    -0.376 OA
BRANCH  28  29
ATOM     29  C   UNL A   1      35.577  34.041  31.141  1.00  0.00     0.202 C 
BRANCH  29  30
ATOM     30  C   UNL A   1      35.080  33.512  32.504  1.00  0.00     0.261 C 
BRANCH  30  31
ATOM     31  O   UNL A   1      35.512  32.179  32.860  1.00  0.00    -0.460 OA
BRANCH  31  32
ATOM     32  C   UNL A   1      36.692  32.043  33.506  1.00  0.00     0.338 C 
ATOM     33  O   UNL A   1      36.883  32.202  34.701  1.00  0.00    -0.246 OA
BRANCH  32  34
ATOM     34  C   UNL A   1      37.667  31.386  32.588  1.00  0.00     0.060 A 
ATOM     35  C   UNL A   1      38.951  31.121  33.084  1.00  0.00     0.016 A 
ATOM     36  C   UNL A   1      37.326  30.953  31.301  1.00  0.00     0.016 A 
ATOM     37  C   UNL A   1      39.900  30.467  32.295  1.00  0.00     0.010 A 
ATOM     38  C   UNL A   1      38.284  30.311  30.502  1.00  0.00     0.010 A 
ATOM     39  C   UNL A   1      39.588  30.092  30.983  1.00  0.00    -0.014 A 
BRANCH  39  40
ATOM     40  C   UNL A   1      40.685  29.664  30.074  1.00  0.00     0.031 A 
ATOM     41  C   UNL A   1      41.779  30.649  29.759  1.00  0.00     0.074 A 
ATOM     42  C   UNL A   1      40.759  28.412  29.585  1.00  0.00     0.049 A 
ATOM     43  N   UNL A   1      42.845  30.505  29.012  1.00  0.00    -0.248 NA
ATOM     44  C   UNL A   1      41.651  31.981  30.373  1.00  0.00     0.031 C 
ATOM     45  C   UNL A   1      39.798  27.343  29.843  1.00  0.00     0.029 A 
ATOM     46  N   UNL A   1      41.699  27.830  28.767  1.00  0.00    -0.354 N 
ATOM     47  C   UNL A   1      43.511  31.722  29.066  1.00  0.00     0.074 A 
ATOM     48  C   UNL A   1      42.713  32.606  29.888  1.00  0.00     0.031 C 
ATOM     49  C   UNL A   1      40.194  26.235  29.189  1.00  0.00     0.029 A 
ATOM     50  C   UNL A   1      41.422  26.523  28.446  1.00  0.00     0.049 A 
ATOM     51  H   UNL A   1      42.497  28.305  28.442  1.00  0.00     0.167 HD
ATOM     52  C   UNL A   1      44.687  32.072  28.493  1.00  0.00     0.037 A 
ATOM     53  C   UNL A   1      42.072  25.666  27.633  1.00  0.00     0.037 A 
ATOM     54  C   UNL A   1      45.491  31.198  27.680  1.00  0.00     0.049 A 
ATOM     55  C   UNL A   1      43.344  26.105  26.947  1.00  0.00     0.074 A 
ATOM     56  C   UNL A   1      46.711  31.459  27.082  1.00  0.00     0.029 A 
ATOM     57  N   UNL A   1      45.152  29.898  27.341  1.00  0.00    -0.354 N 
ATOM     58  N   UNL A   1      43.984  27.245  27.031  1.00  0.00    -0.248 NA
ATOM     59  C   UNL A   1      43.987  25.127  26.054  1.00  0.00     0.031 C 
ATOM     60  C   UNL A   1      47.079  30.340  26.329  1.00  0.00     0.029 A 
ATOM     61  C   UNL A   1      46.122  29.356  26.512  1.00  0.00     0.049 A 
ATOM     62  H   UNL A   1      44.342  29.427  27.645  1.00  0.00     0.167 HD
ATOM     63  C   UNL A   1      45.113  27.114  26.230  1.00  0.00     0.074 A 
ATOM     64  C   UNL A   1      45.083  25.775  25.682  1.00  0.00     0.031 C 
ATOM     65  C   UNL A   1      46.088  28.021  25.972  1.00  0.00     0.037 A 
BRANCH  52  66
ATOM     66  C   UNL A   1      45.164  33.480  28.697  1.00  0.00     0.064 A 
ATOM     67  C   UNL A   1      46.024  33.827  29.751  1.00  0.00     0.173 A 
ATOM     68  C   UNL A   1      44.786  34.490  27.800  1.00  0.00     0.173 A 
ATOM     69  F   UNL A   1      46.403  32.902  30.647  1.00  0.00    -0.203 F 
ATOM     70  C   UNL A   1      46.465  35.138  29.913  1.00  0.00     0.198 A 
ATOM     71  C   UNL A   1      45.254  35.792  27.945  1.00  0.00     0.198 A 
ATOM     72  F   UNL A   1      43.969  34.211  26.773  1.00  0.00    -0.203 F 
ATOM     73  F   UNL A   1      47.246  35.458  30.953  1.00  0.00    -0.200 F 
ATOM     74  C   UNL A   1      46.088  36.117  29.005  1.00  0.00     0.200 A 
ATOM     75  F   UNL A   1      44.900  36.734  27.060  1.00  0.00    -0.200 F 
ATOM     76  F   UNL A   1      46.521  37.376  29.156  1.00  0.00    -0.200 F 
ENDBRANCH  52  66
BRANCH  53  77
ATOM     77  C   UNL A   1      41.526  24.301  27.394  1.00  0.00     0.064 A 
ATOM     78  C   UNL A   1      40.354  24.104  26.651  1.00  0.00     0.173 A 
ATOM     79  C   UNL A   1      42.143  23.169  27.949  1.00  0.00     0.173 A 
ATOM     80  F   UNL A   1      39.706  25.156  26.129  1.00  0.00    -0.203 F 
ATOM     81  C   UNL A   1      39.808  22.831  26.492  1.00  0.00     0.198 A 
ATOM     82  C   UNL A   1      41.613  21.894  27.761  1.00  0.00     0.198 A 
ATOM     83  F   UNL A   1      43.260  23.303  28.679  1.00  0.00    -0.203 F 
ATOM     84  F   UNL A   1      38.652  22.678  25.828  1.00  0.00    -0.200 F 
ATOM     85  C   UNL A   1      40.441  21.727  27.041  1.00  0.00     0.200 A 
ATOM     86  F   UNL A   1      42.233  20.830  28.290  1.00  0.00    -0.200 F 
ATOM     87  F   UNL A   1      39.914  20.504  26.891  1.00  0.00    -0.200 F 
ENDBRANCH  53  77
BRANCH  65  88
ATOM     88  C   UNL A   1      47.223  27.592  25.083  1.00  0.00     0.064 A 
ATOM     89  C   UNL A   1      47.233  27.872  23.707  1.00  0.00     0.173 A 
ATOM     90  C   UNL A   1      48.332  26.921  25.620  1.00  0.00     0.173 A 
ATOM     91  F   UNL A   1      46.194  28.502  23.138  1.00  0.00    -0.203 F 
ATOM     92  C   UNL A   1      48.294  27.467  22.900  1.00  0.00     0.198 A 
ATOM     93  C   UNL A   1      49.407  26.548  24.816  1.00  0.00     0.198 A 
ATOM     94  F   UNL A   1      48.382  26.636  26.930  1.00  0.00    -0.203 F 
ATOM     95  F   UNL A   1      48.255  27.695  21.580  1.00  0.00    -0.200 F 
ATOM     96  C   UNL A   1      49.383  26.811  23.456  1.00  0.00     0.200 A 
ATOM     97  F   UNL A   1      50.466  25.931  25.359  1.00  0.00    -0.200 F 
ATOM     98  F   UNL A   1      50.405  26.428  22.679  1.00  0.00    -0.200 F 
ENDBRANCH  65  88
ENDBRANCH  39  40
ENDBRANCH  32  34
ENDBRANCH  31  32
ENDBRANCH  30  31
ENDBRANCH  29  30
ENDBRANCH  28  29
ENDBRANCH  27  28
ENDBRANCH   1  27
TORSDOF 21
ENDMDL
