MODEL 1
REMARK VINA RESULT:     -12.0      0.000      0.000
REMARK SMILES CS(=O)(=O)c1ccc(/C=C(/C(=O)OCCOCCOCCOC(=O)c2ccc(-c3c4nc(c(-c5c(F)c(F)c(F)c(F)c5F)c5ccc([nH]5)c(-c5c(F)c(F)c(F)c(F)c5F)c5nc(c(-c6c(F)c(F)c(F)c(F)c6F)c6ccc3[nH]6)C=C5)C=C4)cc2)c2cccc(-c3ccc(S(C)(=O)=O)cc3)c2)cc1
REMARK SMILES IDX 17 1 16 2 15 3 14 4 13 5 11 6 12 7 10 8 9 9 8 10 5 11 6 12
REMARK SMILES IDX 105 13 7 14 104 15 2 16 1 17 3 18 4 19 88 20 89 21 103 22
REMARK SMILES IDX 90 23 92 24 91 25 93 26 94 27 102 28 95 29 101 30 96 31
REMARK SMILES IDX 97 32 98 33 99 34 100 35 18 36 19 37 20 38 21 39 22 40 23 41
REMARK SMILES IDX 24 42 25 43 26 44 87 45 27 46 86 47 28 48 29 49 30 50 80 51
REMARK SMILES IDX 31 52 85 53 79 54 81 55 32 56 84 57 78 58 77 59 33 61 65 62
REMARK SMILES IDX 45 63 64 64 46 65 49 66 63 67 82 68 47 69 48 70 62 72 83 73
REMARK SMILES IDX 50 74 34 75 35 76 43 77 36 78 37 79 41 80 44 81 38 82 39 83
REMARK SMILES IDX 42 84 40 85 66 86 67 87 75 88 68 89 69 90 73 91 76 92 70 93
REMARK SMILES IDX 71 94 74 95 72 96 51 97 52 98 60 99 53 100 54 101 58 102
REMARK SMILES IDX 61 103 55 104 56 105 59 106 57 107
REMARK H PARENT 81 60 49 71
REMARK Flexibility Score: inf
ROOT
ATOM      1  C   UNL A   1      34.029  28.250  25.616  1.00  0.00     0.188 C 
ENDROOT
BRANCH   1   2
ATOM      2  O   UNL A   1      33.194  28.137  24.480  1.00  0.00    -0.376 OA
BRANCH   2   3
ATOM      3  C   UNL A   1      33.796  28.488  23.241  1.00  0.00     0.202 C 
BRANCH   3   4
ATOM      4  C   UNL A   1      33.511  27.572  22.037  1.00  0.00     0.261 C 
BRANCH   4   5
ATOM      5  O   UNL A   1      34.025  26.230  22.122  1.00  0.00    -0.460 OA
BRANCH   5   6
ATOM      6  C   UNL A   1      33.299  25.239  21.549  1.00  0.00     0.338 C 
ATOM      7  O   UNL A   1      32.905  25.240  20.392  1.00  0.00    -0.246 OA
BRANCH   6   8
ATOM      8  C   UNL A   1      33.170  24.059  22.478  1.00  0.00     0.067 C 
ATOM      9  C   UNL A   1      32.527  22.935  22.066  1.00  0.00     0.024 C 
BRANCH   9  10
ATOM     10  C   UNL A   1      32.430  21.606  22.734  1.00  0.00    -0.025 A 
ATOM     11  C   UNL A   1      32.738  18.990  23.728  1.00  0.00     0.067 A 
ATOM     12  C   UNL A   1      32.953  20.079  24.566  1.00  0.00     0.021 A 
ATOM     13  C   UNL A   1      32.249  19.187  22.436  1.00  0.00     0.021 A 
ATOM     14  C   UNL A   1      32.739  21.374  24.083  1.00  0.00     0.009 A 
ATOM     15  C   UNL A   1      32.102  20.492  21.945  1.00  0.00     0.009 A 
BRANCH  11  16
ATOM     16  S   UNL A   1      33.198  17.363  24.271  1.00  0.00     0.175 S 
ATOM     17  C   UNL A   1      34.930  17.464  24.624  1.00  0.00     0.163 C 
ATOM     18  O   UNL A   1      33.027  16.486  23.128  1.00  0.00    -0.224 OA
ATOM     19  O   UNL A   1      32.515  17.109  25.525  1.00  0.00    -0.224 OA
ENDBRANCH  11  16
ENDBRANCH   9  10
BRANCH   8  20
ATOM     20  C   UNL A   1      33.798  24.175  23.812  1.00  0.00    -0.010 A 
ATOM     21  C   UNL A   1      33.101  24.713  24.903  1.00  0.00     0.009 A 
ATOM     22  C   UNL A   1      35.053  23.612  24.035  1.00  0.00     0.017 A 
ATOM     23  C   UNL A   1      33.639  24.653  26.189  1.00  0.00     0.001 A 
ATOM     24  C   UNL A   1      35.593  23.514  25.328  1.00  0.00    -0.018 A 
ATOM     25  C   UNL A   1      34.872  24.044  26.404  1.00  0.00     0.009 A 
BRANCH  24  26
ATOM     26  C   UNL A   1      36.866  22.814  25.505  1.00  0.00    -0.018 A 
ATOM     27  C   UNL A   1      37.958  23.427  26.141  1.00  0.00     0.010 A 
ATOM     28  C   UNL A   1      36.969  21.465  25.128  1.00  0.00     0.010 A 
ATOM     29  C   UNL A   1      39.116  22.699  26.419  1.00  0.00     0.021 A 
ATOM     30  C   UNL A   1      38.118  20.732  25.398  1.00  0.00     0.021 A 
ATOM     31  C   UNL A   1      39.186  21.355  26.041  1.00  0.00     0.067 A 
BRANCH  31  32
ATOM     32  S   UNL A   1      40.649  20.419  26.400  1.00  0.00     0.175 S 
ATOM     33  C   UNL A   1      41.943  21.443  25.753  1.00  0.00     0.163 C 
ATOM     34  O   UNL A   1      40.788  20.361  27.841  1.00  0.00    -0.224 OA
ATOM     35  O   UNL A   1      40.607  19.209  25.600  1.00  0.00    -0.224 OA
ENDBRANCH  31  32
ENDBRANCH  24  26
ENDBRANCH   8  20
ENDBRANCH   6   8
ENDBRANCH   5   6
ENDBRANCH   4   5
ENDBRANCH   3   4
ENDBRANCH   2   3
ENDBRANCH   1   2
BRANCH   1  36
ATOM     36  C   UNL A   1      33.428  29.114  26.746  1.00  0.00     0.188 C 
BRANCH  36  37
ATOM     37  O   UNL A   1      33.042  30.456  26.507  1.00  0.00    -0.376 OA
BRANCH  37  38
ATOM     38  C   UNL A   1      33.366  31.445  27.470  1.00  0.00     0.202 C 
BRANCH  38  39
ATOM     39  C   UNL A   1      32.650  32.808  27.442  1.00  0.00     0.261 C 
BRANCH  39  40
ATOM     40  O   UNL A   1      33.484  33.981  27.473  1.00  0.00    -0.460 OA
BRANCH  40  41
ATOM     41  C   UNL A   1      33.420  34.728  28.602  1.00  0.00     0.338 C 
ATOM     42  O   UNL A   1      32.528  35.500  28.930  1.00  0.00    -0.246 OA
BRANCH  41  43
ATOM     43  C   UNL A   1      34.512  34.342  29.524  1.00  0.00     0.060 A 
ATOM     44  C   UNL A   1      35.839  34.558  29.121  1.00  0.00     0.016 A 
ATOM     45  C   UNL A   1      34.247  33.726  30.749  1.00  0.00     0.016 A 
ATOM     46  C   UNL A   1      36.901  34.153  29.932  1.00  0.00     0.010 A 
ATOM     47  C   UNL A   1      35.315  33.295  31.550  1.00  0.00     0.010 A 
ATOM     48  C   UNL A   1      36.646  33.488  31.139  1.00  0.00    -0.014 A 
BRANCH  48  49
ATOM     49  C   UNL A   1      37.765  32.839  31.870  1.00  0.00     0.031 A 
ATOM     50  C   UNL A   1      38.442  31.652  31.241  1.00  0.00     0.074 A 
ATOM     51  C   UNL A   1      38.195  33.298  33.059  1.00  0.00     0.049 A 
ATOM     52  N   UNL A   1      39.411  30.903  31.703  1.00  0.00    -0.248 NA
ATOM     53  C   UNL A   1      37.955  31.257  29.911  1.00  0.00     0.031 C 
ATOM     54  C   UNL A   1      37.652  34.456  33.762  1.00  0.00     0.029 A 
ATOM     55  N   UNL A   1      39.190  32.838  33.887  1.00  0.00    -0.354 N 
ATOM     56  C   UNL A   1      39.642  29.943  30.727  1.00  0.00     0.074 A 
ATOM     57  C   UNL A   1      38.700  30.192  29.657  1.00  0.00     0.031 C 
ATOM     58  C   UNL A   1      38.325  34.622  34.914  1.00  0.00     0.029 A 
ATOM     59  C   UNL A   1      39.309  33.549  35.055  1.00  0.00     0.049 A 
ATOM     60  H   UNL A   1      39.764  32.069  33.663  1.00  0.00     0.167 HD
ATOM     61  C   UNL A   1      40.556  28.942  30.722  1.00  0.00     0.037 A 
ATOM     62  C   UNL A   1      40.100  33.337  36.129  1.00  0.00     0.037 A 
ATOM     63  C   UNL A   1      41.479  28.677  31.794  1.00  0.00     0.049 A 
ATOM     64  C   UNL A   1      41.048  32.162  36.136  1.00  0.00     0.074 A 
ATOM     65  C   UNL A   1      42.445  27.690  31.876  1.00  0.00     0.029 A 
ATOM     66  N   UNL A   1      41.539  29.393  32.981  1.00  0.00    -0.354 N 
ATOM     67  N   UNL A   1      41.281  31.276  35.199  1.00  0.00    -0.248 NA
ATOM     68  C   UNL A   1      41.839  31.956  37.359  1.00  0.00     0.031 C 
ATOM     69  C   UNL A   1      43.043  27.766  33.138  1.00  0.00     0.029 A 
ATOM     70  C   UNL A   1      42.503  28.848  33.814  1.00  0.00     0.049 A 
ATOM     71  H   UNL A   1      40.978  30.173  33.200  1.00  0.00     0.167 HD
ATOM     72  C   UNL A   1      42.263  30.430  35.704  1.00  0.00     0.074 A 
ATOM     73  C   UNL A   1      42.594  30.919  37.026  1.00  0.00     0.031 C 
ATOM     74  C   UNL A   1      42.838  29.347  35.125  1.00  0.00     0.037 A 
BRANCH  61  75
ATOM     75  C   UNL A   1      40.567  28.026  29.532  1.00  0.00     0.064 A 
ATOM     76  C   UNL A   1      39.686  26.939  29.425  1.00  0.00     0.173 A 
ATOM     77  C   UNL A   1      41.460  28.252  28.473  1.00  0.00     0.173 A 
ATOM     78  F   UNL A   1      38.822  26.671  30.416  1.00  0.00    -0.203 F 
ATOM     79  C   UNL A   1      39.722  26.094  28.319  1.00  0.00     0.198 A 
ATOM     80  C   UNL A   1      41.469  27.426  27.353  1.00  0.00     0.198 A 
ATOM     81  F   UNL A   1      42.321  29.279  28.521  1.00  0.00    -0.203 F 
ATOM     82  F   UNL A   1      38.910  25.029  28.266  1.00  0.00    -0.200 F 
ATOM     83  C   UNL A   1      40.607  26.341  27.281  1.00  0.00     0.200 A 
ATOM     84  F   UNL A   1      42.315  27.676  26.345  1.00  0.00    -0.200 F 
ATOM     85  F   UNL A   1      40.637  25.530  26.215  1.00  0.00    -0.200 F 
ENDBRANCH  61  75
BRANCH  62  86
ATOM     86  C   UNL A   1      40.016  34.241  37.310  1.00  0.00     0.064 A 
ATOM     87  C   UNL A   1      40.884  35.334  37.450  1.00  0.00     0.173 A 
ATOM     88  C   UNL A   1      39.099  34.005  38.345  1.00  0.00     0.173 A 
ATOM     89  F   UNL A   1      41.802  35.584  36.503  1.00  0.00    -0.203 F 
ATOM     90  C   UNL A   1      40.851  36.141  38.586  1.00  0.00     0.198 A 
ATOM     91  C   UNL A   1      39.043  34.833  39.464  1.00  0.00     0.198 A 
ATOM     92  F   UNL A   1      38.251  32.968  38.267  1.00  0.00    -0.203 F 
ATOM     93  F   UNL A   1      41.732  37.142  38.718  1.00  0.00    -0.200 F 
ATOM     94  C   UNL A   1      39.927  35.894  39.589  1.00  0.00     0.200 A 
ATOM     95  F   UNL A   1      38.142  34.596  40.426  1.00  0.00    -0.200 F 
ATOM     96  F   UNL A   1      39.897  36.669  40.681  1.00  0.00    -0.200 F 
ENDBRANCH  62  86
BRANCH  74  97
ATOM     97  C   UNL A   1      43.925  28.639  35.887  1.00  0.00     0.064 A 
ATOM     98  C   UNL A   1      43.654  27.565  36.747  1.00  0.00     0.173 A 
ATOM     99  C   UNL A   1      45.269  29.012  35.712  1.00  0.00     0.173 A 
ATOM    100  F   UNL A   1      42.388  27.174  36.960  1.00  0.00    -0.203 F 
ATOM    101  C   UNL A   1      44.681  26.910  37.426  1.00  0.00     0.198 A 
ATOM    102  C   UNL A   1      46.295  28.333  36.363  1.00  0.00     0.198 A 
ATOM    103  F   UNL A   1      45.589  30.026  34.895  1.00  0.00    -0.203 F 
ATOM    104  F   UNL A   1      44.392  25.921  38.282  1.00  0.00    -0.200 F 
ATOM    105  C   UNL A   1      46.001  27.288  37.226  1.00  0.00     0.200 A 
ATOM    106  F   UNL A   1      47.570  28.689  36.154  1.00  0.00    -0.200 F 
ATOM    107  F   UNL A   1      46.987  26.651  37.871  1.00  0.00    -0.200 F 
ENDBRANCH  74  97
ENDBRANCH  48  49
ENDBRANCH  41  43
ENDBRANCH  40  41
ENDBRANCH  39  40
ENDBRANCH  38  39
ENDBRANCH  37  38
ENDBRANCH  36  37
ENDBRANCH   1  36
TORSDOF 22
ENDMDL
MODEL 2
REMARK VINA RESULT:     -11.9      5.586     12.453
REMARK SMILES CS(=O)(=O)c1ccc(/C=C(/C(=O)OCCOCCOCCOC(=O)c2ccc(-c3c4nc(c(-c5c(F)c(F)c(F)c(F)c5F)c5ccc([nH]5)c(-c5c(F)c(F)c(F)c(F)c5F)c5nc(c(-c6c(F)c(F)c(F)c(F)c6F)c6ccc3[nH]6)C=C5)C=C4)cc2)c2cccc(-c3ccc(S(C)(=O)=O)cc3)c2)cc1
REMARK SMILES IDX 17 1 16 2 15 3 14 4 13 5 11 6 12 7 10 8 9 9 8 10 5 11 6 12
REMARK SMILES IDX 105 13 7 14 104 15 2 16 1 17 3 18 4 19 88 20 89 21 103 22
REMARK SMILES IDX 90 23 92 24 91 25 93 26 94 27 102 28 95 29 101 30 96 31
REMARK SMILES IDX 97 32 98 33 99 34 100 35 18 36 19 37 20 38 21 39 22 40 23 41
REMARK SMILES IDX 24 42 25 43 26 44 87 45 27 46 86 47 28 48 29 49 30 50 80 51
REMARK SMILES IDX 31 52 85 53 79 54 81 55 32 56 84 57 78 58 77 59 33 61 65 62
REMARK SMILES IDX 45 63 64 64 46 65 49 66 63 67 82 68 47 69 48 70 62 72 83 73
REMARK SMILES IDX 50 74 34 75 35 76 43 77 36 78 37 79 41 80 44 81 38 82 39 83
REMARK SMILES IDX 42 84 40 85 66 86 67 87 75 88 68 89 69 90 73 91 76 92 70 93
REMARK SMILES IDX 71 94 74 95 72 96 51 97 52 98 60 99 53 100 54 101 58 102
REMARK SMILES IDX 61 103 55 104 56 105 59 106 57 107
REMARK H PARENT 81 60 49 71
REMARK Flexibility Score: inf
ROOT
ATOM      1  C   UNL A   1      32.731  35.788  31.495  1.00  0.00     0.188 C 
ENDROOT
BRANCH   1   2
ATOM      2  O   UNL A   1      33.662  36.527  32.263  1.00  0.00    -0.376 OA
BRANCH   2   3
ATOM      3  C   UNL A   1      34.370  35.784  33.246  1.00  0.00     0.202 C 
BRANCH   3   4
ATOM      4  C   UNL A   1      34.253  34.251  33.188  1.00  0.00     0.261 C 
BRANCH   4   5
ATOM      5  O   UNL A   1      35.423  33.507  33.575  1.00  0.00    -0.460 OA
BRANCH   5   6
ATOM      6  C   UNL A   1      35.803  32.473  32.785  1.00  0.00     0.338 C 
ATOM      7  O   UNL A   1      35.213  32.108  31.779  1.00  0.00    -0.246 OA
BRANCH   6   8
ATOM      8  C   UNL A   1      37.138  31.926  33.219  1.00  0.00     0.067 C 
ATOM      9  C   UNL A   1      37.361  30.585  33.208  1.00  0.00     0.024 C 
BRANCH   9  10
ATOM     10  C   UNL A   1      38.634  29.839  33.424  1.00  0.00    -0.025 A 
ATOM     11  C   UNL A   1      41.158  28.599  33.300  1.00  0.00     0.067 A 
ATOM     12  C   UNL A   1      40.987  29.746  34.067  1.00  0.00     0.021 A 
ATOM     13  C   UNL A   1      40.058  27.991  32.694  1.00  0.00     0.021 A 
ATOM     14  C   UNL A   1      39.717  30.323  34.173  1.00  0.00     0.009 A 
ATOM     15  C   UNL A   1      38.804  28.615  32.756  1.00  0.00     0.009 A 
BRANCH  11  16
ATOM     16  S   UNL A   1      42.796  27.982  33.000  1.00  0.00     0.175 S 
ATOM     17  C   UNL A   1      42.980  26.601  34.092  1.00  0.00     0.163 C 
ATOM     18  O   UNL A   1      43.711  29.020  33.438  1.00  0.00    -0.224 OA
ATOM     19  O   UNL A   1      42.832  27.470  31.643  1.00  0.00    -0.224 OA
ENDBRANCH  11  16
ENDBRANCH   9  10
BRANCH   8  20
ATOM     20  C   UNL A   1      38.177  32.903  33.610  1.00  0.00    -0.010 A 
ATOM     21  C   UNL A   1      38.963  33.557  32.650  1.00  0.00     0.009 A 
ATOM     22  C   UNL A   1      38.290  33.294  34.943  1.00  0.00     0.017 A 
ATOM     23  C   UNL A   1      39.812  34.601  33.018  1.00  0.00     0.001 A 
ATOM     24  C   UNL A   1      39.114  34.366  35.324  1.00  0.00    -0.018 A 
ATOM     25  C   UNL A   1      39.878  35.013  34.346  1.00  0.00     0.009 A 
BRANCH  24  26
ATOM     26  C   UNL A   1      39.103  34.796  36.723  1.00  0.00    -0.018 A 
ATOM     27  C   UNL A   1      38.530  34.003  37.731  1.00  0.00     0.010 A 
ATOM     28  C   UNL A   1      39.771  35.977  37.086  1.00  0.00     0.010 A 
ATOM     29  C   UNL A   1      38.647  34.368  39.072  1.00  0.00     0.021 A 
ATOM     30  C   UNL A   1      39.892  36.350  38.419  1.00  0.00     0.021 A 
ATOM     31  C   UNL A   1      39.327  35.543  39.404  1.00  0.00     0.067 A 
BRANCH  31  32
ATOM     32  S   UNL A   1      39.491  36.010  41.108  1.00  0.00     0.175 S 
ATOM     33  C   UNL A   1      38.322  34.956  41.922  1.00  0.00     0.163 C 
ATOM     34  O   UNL A   1      40.823  35.633  41.537  1.00  0.00    -0.224 OA
ATOM     35  O   UNL A   1      39.017  37.375  41.240  1.00  0.00    -0.224 OA
ENDBRANCH  31  32
ENDBRANCH  24  26
ENDBRANCH   8  20
ENDBRANCH   6   8
ENDBRANCH   5   6
ENDBRANCH   4   5
ENDBRANCH   3   4
ENDBRANCH   2   3
ENDBRANCH   1   2
BRANCH   1  36
ATOM     36  C   UNL A   1      32.607  36.272  30.034  1.00  0.00     0.188 C 
BRANCH  36  37
ATOM     37  O   UNL A   1      32.953  35.421  28.955  1.00  0.00    -0.376 OA
BRANCH  37  38
ATOM     38  C   UNL A   1      33.985  34.467  29.137  1.00  0.00     0.202 C 
BRANCH  38  39
ATOM     39  C   UNL A   1      33.990  33.172  28.302  1.00  0.00     0.261 C 
BRANCH  39  40
ATOM     40  O   UNL A   1      34.375  31.963  28.982  1.00  0.00    -0.460 OA
BRANCH  40  41
ATOM     41  C   UNL A   1      34.447  30.846  28.216  1.00  0.00     0.338 C 
ATOM     42  O   UNL A   1      33.607  30.437  27.426  1.00  0.00    -0.246 OA
BRANCH  41  43
ATOM     43  C   UNL A   1      35.801  30.256  28.312  1.00  0.00     0.060 A 
ATOM     44  C   UNL A   1      36.206  29.698  29.534  1.00  0.00     0.016 A 
ATOM     45  C   UNL A   1      36.688  30.292  27.234  1.00  0.00     0.016 A 
ATOM     46  C   UNL A   1      37.495  29.185  29.687  1.00  0.00     0.010 A 
ATOM     47  C   UNL A   1      37.992  29.802  27.398  1.00  0.00     0.010 A 
ATOM     48  C   UNL A   1      38.410  29.263  28.628  1.00  0.00    -0.014 A 
BRANCH  48  49
ATOM     49  C   UNL A   1      39.843  28.953  28.871  1.00  0.00     0.031 A 
ATOM     50  C   UNL A   1      40.688  29.971  29.587  1.00  0.00     0.074 A 
ATOM     51  C   UNL A   1      40.388  27.785  28.488  1.00  0.00     0.049 A 
ATOM     52  N   UNL A   1      41.963  29.939  29.877  1.00  0.00    -0.248 NA
ATOM     53  C   UNL A   1      39.997  31.191  30.030  1.00  0.00     0.031 C 
ATOM     54  C   UNL A   1      39.676  26.701  27.818  1.00  0.00     0.029 A 
ATOM     55  N   UNL A   1      41.676  27.319  28.607  1.00  0.00    -0.354 N 
ATOM     56  C   UNL A   1      42.230  31.137  30.528  1.00  0.00     0.074 A 
ATOM     57  C   UNL A   1      40.989  31.880  30.571  1.00  0.00     0.031 C 
ATOM     58  C   UNL A   1      40.535  25.691  27.591  1.00  0.00     0.029 A 
ATOM     59  C   UNL A   1      41.868  26.080  28.049  1.00  0.00     0.049 A 
ATOM     60  H   UNL A   1      42.393  27.828  29.051  1.00  0.00     0.167 HD
ATOM     61  C   UNL A   1      43.404  31.579  31.042  1.00  0.00     0.037 A 
ATOM     62  C   UNL A   1      42.998  25.357  27.897  1.00  0.00     0.037 A 
ATOM     63  C   UNL A   1      44.645  30.852  30.980  1.00  0.00     0.049 A 
ATOM     64  C   UNL A   1      44.311  25.911  28.400  1.00  0.00     0.074 A 
ATOM     65  C   UNL A   1      45.883  31.217  31.478  1.00  0.00     0.029 A 
ATOM     66  N   UNL A   1      44.810  29.618  30.367  1.00  0.00    -0.354 N 
ATOM     67  N   UNL A   1      44.550  27.031  29.039  1.00  0.00    -0.248 NA
ATOM     68  C   UNL A   1      45.511  25.098  28.153  1.00  0.00     0.031 C 
ATOM     69  C   UNL A   1      46.810  30.237  31.109  1.00  0.00     0.029 A 
ATOM     70  C   UNL A   1      46.135  29.224  30.447  1.00  0.00     0.049 A 
ATOM     71  H   UNL A   1      44.090  29.100  29.939  1.00  0.00     0.167 HD
ATOM     72  C   UNL A   1      45.917  27.042  29.295  1.00  0.00     0.074 A 
ATOM     73  C   UNL A   1      46.452  25.809  28.757  1.00  0.00     0.031 C 
ATOM     74  C   UNL A   1      46.661  27.988  29.920  1.00  0.00     0.037 A 
BRANCH  61  75
ATOM     75  C   UNL A   1      43.408  32.940  31.676  1.00  0.00     0.064 A 
ATOM     76  C   UNL A   1      43.332  33.108  33.068  1.00  0.00     0.173 A 
ATOM     77  C   UNL A   1      43.511  34.092  30.882  1.00  0.00     0.173 A 
ATOM     78  F   UNL A   1      43.217  32.041  33.872  1.00  0.00    -0.203 F 
ATOM     79  C   UNL A   1      43.324  34.379  33.636  1.00  0.00     0.198 A 
ATOM     80  C   UNL A   1      43.538  35.360  31.455  1.00  0.00     0.198 A 
ATOM     81  F   UNL A   1      43.591  33.988  29.547  1.00  0.00    -0.203 F 
ATOM     82  F   UNL A   1      43.193  34.517  34.962  1.00  0.00    -0.200 F 
ATOM     83  C   UNL A   1      43.434  35.503  32.832  1.00  0.00     0.200 A 
ATOM     84  F   UNL A   1      43.660  36.443  30.677  1.00  0.00    -0.200 F 
ATOM     85  F   UNL A   1      43.432  36.726  33.380  1.00  0.00    -0.200 F 
ENDBRANCH  61  75
BRANCH  62  86
ATOM     86  C   UNL A   1      42.955  24.034  27.213  1.00  0.00     0.064 A 
ATOM     87  C   UNL A   1      42.617  22.867  27.913  1.00  0.00     0.173 A 
ATOM     88  C   UNL A   1      43.295  23.903  25.859  1.00  0.00     0.173 A 
ATOM     89  F   UNL A   1      42.315  22.933  29.219  1.00  0.00    -0.203 F 
ATOM     90  C   UNL A   1      42.641  21.620  27.290  1.00  0.00     0.198 A 
ATOM     91  C   UNL A   1      43.284  22.661  25.228  1.00  0.00     0.198 A 
ATOM     92  F   UNL A   1      43.635  24.986  25.144  1.00  0.00    -0.203 F 
ATOM     93  F   UNL A   1      42.371  20.516  27.999  1.00  0.00    -0.200 F 
ATOM     94  C   UNL A   1      42.968  21.519  25.947  1.00  0.00     0.200 A 
ATOM     95  F   UNL A   1      43.593  22.570  23.928  1.00  0.00    -0.200 F 
ATOM     96  F   UNL A   1      42.992  20.320  25.350  1.00  0.00    -0.200 F 
ENDBRANCH  62  86
BRANCH  74  97
ATOM     97  C   UNL A   1      48.128  27.714  30.110  1.00  0.00     0.064 A 
ATOM     98  C   UNL A   1      49.094  28.162  29.195  1.00  0.00     0.173 A 
ATOM     99  C   UNL A   1      48.578  27.035  31.254  1.00  0.00     0.173 A 
ATOM    100  F   UNL A   1      48.719  28.805  28.080  1.00  0.00    -0.203 F 
ATOM    101  C   UNL A   1      50.450  27.915  29.404  1.00  0.00     0.198 A 
ATOM    102  C   UNL A   1      49.936  26.822  31.477  1.00  0.00     0.198 A 
ATOM    103  F   UNL A   1      47.701  26.592  32.167  1.00  0.00    -0.203 F 
ATOM    104  F   UNL A   1      51.349  28.307  28.491  1.00  0.00    -0.200 F 
ATOM    105  C   UNL A   1      50.870  27.254  30.549  1.00  0.00     0.200 A 
ATOM    106  F   UNL A   1      50.340  26.199  32.593  1.00  0.00    -0.200 F 
ATOM    107  F   UNL A   1      52.175  27.027  30.753  1.00  0.00    -0.200 F 
ENDBRANCH  74  97
ENDBRANCH  48  49
ENDBRANCH  41  43
ENDBRANCH  40  41
ENDBRANCH  39  40
ENDBRANCH  38  39
ENDBRANCH  37  38
ENDBRANCH  36  37
ENDBRANCH   1  36
TORSDOF 22
ENDMDL
MODEL 3
REMARK VINA RESULT:     -11.2      4.480     10.495
REMARK SMILES CS(=O)(=O)c1ccc(/C=C(/C(=O)OCCOCCOCCOC(=O)c2ccc(-c3c4nc(c(-c5c(F)c(F)c(F)c(F)c5F)c5ccc([nH]5)c(-c5c(F)c(F)c(F)c(F)c5F)c5nc(c(-c6c(F)c(F)c(F)c(F)c6F)c6ccc3[nH]6)C=C5)C=C4)cc2)c2cccc(-c3ccc(S(C)(=O)=O)cc3)c2)cc1
REMARK SMILES IDX 17 1 16 2 15 3 14 4 13 5 11 6 12 7 10 8 9 9 8 10 5 11 6 12
REMARK SMILES IDX 105 13 7 14 104 15 2 16 1 17 3 18 4 19 88 20 89 21 103 22
REMARK SMILES IDX 90 23 92 24 91 25 93 26 94 27 102 28 95 29 101 30 96 31
REMARK SMILES IDX 97 32 98 33 99 34 100 35 18 36 19 37 20 38 21 39 22 40 23 41
REMARK SMILES IDX 24 42 25 43 26 44 87 45 27 46 86 47 28 48 29 49 30 50 80 51
REMARK SMILES IDX 31 52 85 53 79 54 81 55 32 56 84 57 78 58 77 59 33 61 65 62
REMARK SMILES IDX 45 63 64 64 46 65 49 66 63 67 82 68 47 69 48 70 62 72 83 73
REMARK SMILES IDX 50 74 34 75 35 76 43 77 36 78 37 79 41 80 44 81 38 82 39 83
REMARK SMILES IDX 42 84 40 85 66 86 67 87 75 88 68 89 69 90 73 91 76 92 70 93
REMARK SMILES IDX 71 94 74 95 72 96 51 97 52 98 60 99 53 100 54 101 58 102
REMARK SMILES IDX 61 103 55 104 56 105 59 106 57 107
REMARK H PARENT 81 60 49 71
REMARK Flexibility Score: inf
ROOT
ATOM      1  C   UNL A   1      41.952  23.570  28.322  1.00  0.00     0.188 C 
ENDROOT
BRANCH   1   2
ATOM      2  O   UNL A   1      41.503  24.676  27.562  1.00  0.00    -0.376 OA
BRANCH   2   3
ATOM      3  C   UNL A   1      40.913  25.731  28.308  1.00  0.00     0.202 C 
BRANCH   3   4
ATOM      4  C   UNL A   1      40.189  26.834  27.515  1.00  0.00     0.261 C 
BRANCH   4   5
ATOM      5  O   UNL A   1      39.195  27.588  28.234  1.00  0.00    -0.460 OA
BRANCH   5   6
ATOM      6  C   UNL A   1      39.056  28.901  27.926  1.00  0.00     0.338 C 
ATOM      7  O   UNL A   1      39.429  29.418  26.884  1.00  0.00    -0.246 OA
BRANCH   6   8
ATOM      8  C   UNL A   1      38.238  29.615  28.971  1.00  0.00     0.067 C 
ATOM      9  C   UNL A   1      38.734  29.786  30.225  1.00  0.00     0.024 C 
BRANCH   9  10
ATOM     10  C   UNL A   1      38.189  30.597  31.351  1.00  0.00    -0.025 A 
ATOM     11  C   UNL A   1      36.996  32.484  33.065  1.00  0.00     0.067 A 
ATOM     12  C   UNL A   1      36.369  31.263  32.836  1.00  0.00     0.021 A 
ATOM     13  C   UNL A   1      38.269  32.726  32.550  1.00  0.00     0.021 A 
ATOM     14  C   UNL A   1      36.997  30.307  32.031  1.00  0.00     0.009 A 
ATOM     15  C   UNL A   1      38.858  31.784  31.694  1.00  0.00     0.009 A 
BRANCH  11  16
ATOM     16  S   UNL A   1      36.117  33.772  33.915  1.00  0.00     0.175 S 
ATOM     17  C   UNL A   1      36.860  33.862  35.519  1.00  0.00     0.163 C 
ATOM     18  O   UNL A   1      34.755  33.299  34.081  1.00  0.00    -0.224 OA
ATOM     19  O   UNL A   1      36.402  35.022  33.235  1.00  0.00    -0.224 OA
ENDBRANCH  11  16
ENDBRANCH   9  10
BRANCH   8  20
ATOM     20  C   UNL A   1      36.918  30.139  28.558  1.00  0.00    -0.010 A 
ATOM     21  C   UNL A   1      36.687  31.516  28.429  1.00  0.00     0.009 A 
ATOM     22  C   UNL A   1      35.921  29.255  28.149  1.00  0.00     0.017 A 
ATOM     23  C   UNL A   1      35.498  31.988  27.871  1.00  0.00     0.001 A 
ATOM     24  C   UNL A   1      34.734  29.713  27.554  1.00  0.00    -0.018 A 
ATOM     25  C   UNL A   1      34.532  31.092  27.422  1.00  0.00     0.009 A 
BRANCH  24  26
ATOM     26  C   UNL A   1      33.777  28.728  27.048  1.00  0.00    -0.018 A 
ATOM     27  C   UNL A   1      34.149  27.766  26.094  1.00  0.00     0.010 A 
ATOM     28  C   UNL A   1      32.488  28.673  27.602  1.00  0.00     0.010 A 
ATOM     29  C   UNL A   1      33.260  26.755  25.725  1.00  0.00     0.021 A 
ATOM     30  C   UNL A   1      31.596  27.671  27.240  1.00  0.00     0.021 A 
ATOM     31  C   UNL A   1      31.988  26.719  26.301  1.00  0.00     0.067 A 
BRANCH  31  32
ATOM     32  S   UNL A   1      30.856  25.431  25.846  1.00  0.00     0.175 S 
ATOM     33  C   UNL A   1      31.568  23.993  26.598  1.00  0.00     0.163 C 
ATOM     34  O   UNL A   1      29.592  25.710  26.497  1.00  0.00    -0.224 OA
ATOM     35  O   UNL A   1      30.938  25.258  24.407  1.00  0.00    -0.224 OA
ENDBRANCH  31  32
ENDBRANCH  24  26
ENDBRANCH   8  20
ENDBRANCH   6   8
ENDBRANCH   5   6
ENDBRANCH   4   5
ENDBRANCH   3   4
ENDBRANCH   2   3
ENDBRANCH   1   2
BRANCH   1  36
ATOM     36  C   UNL A   1      42.378  22.359  27.463  1.00  0.00     0.188 C 
BRANCH  36  37
ATOM     37  O   UNL A   1      42.067  22.302  26.082  1.00  0.00    -0.376 OA
BRANCH  37  38
ATOM     38  C   UNL A   1      43.103  22.503  25.136  1.00  0.00     0.202 C 
BRANCH  38  39
ATOM     39  C   UNL A   1      44.287  23.427  25.479  1.00  0.00     0.261 C 
BRANCH  39  40
ATOM     40  O   UNL A   1      44.342  24.693  24.796  1.00  0.00    -0.460 OA
BRANCH  40  41
ATOM     41  C   UNL A   1      45.462  25.430  24.996  1.00  0.00     0.338 C 
ATOM     42  O   UNL A   1      46.544  25.296  24.438  1.00  0.00    -0.246 OA
BRANCH  41  43
ATOM     43  C   UNL A   1      45.157  26.586  25.867  1.00  0.00     0.060 A 
ATOM     44  C   UNL A   1      46.214  27.221  26.536  1.00  0.00     0.016 A 
ATOM     45  C   UNL A   1      43.844  27.016  26.073  1.00  0.00     0.016 A 
ATOM     46  C   UNL A   1      45.965  28.277  27.415  1.00  0.00     0.010 A 
ATOM     47  C   UNL A   1      43.592  28.058  26.977  1.00  0.00     0.010 A 
ATOM     48  C   UNL A   1      44.647  28.682  27.668  1.00  0.00    -0.014 A 
BRANCH  48  49
ATOM     49  C   UNL A   1      44.369  29.623  28.783  1.00  0.00     0.031 A 
ATOM     50  C   UNL A   1      44.139  29.060  30.159  1.00  0.00     0.074 A 
ATOM     51  C   UNL A   1      44.342  30.954  28.594  1.00  0.00     0.049 A 
ATOM     52  N   UNL A   1      43.845  29.679  31.274  1.00  0.00    -0.248 NA
ATOM     53  C   UNL A   1      44.255  27.600  30.290  1.00  0.00     0.031 C 
ATOM     54  C   UNL A   1      44.580  31.632  27.324  1.00  0.00     0.029 A 
ATOM     55  N   UNL A   1      44.094  31.976  29.480  1.00  0.00    -0.354 N 
ATOM     56  C   UNL A   1      43.730  28.684  32.236  1.00  0.00     0.074 A 
ATOM     57  C   UNL A   1      43.966  27.421  31.570  1.00  0.00     0.031 C 
ATOM     58  C   UNL A   1      44.475  32.959  27.511  1.00  0.00     0.029 A 
ATOM     59  C   UNL A   1      44.107  33.222  28.902  1.00  0.00     0.049 A 
ATOM     60  H   UNL A   1      43.923  31.829  30.439  1.00  0.00     0.167 HD
ATOM     61  C   UNL A   1      43.450  28.810  33.556  1.00  0.00     0.037 A 
ATOM     62  C   UNL A   1      43.822  34.432  29.430  1.00  0.00     0.037 A 
ATOM     63  C   UNL A   1      43.191  30.062  34.218  1.00  0.00     0.049 A 
ATOM     64  C   UNL A   1      43.427  34.536  30.884  1.00  0.00     0.074 A 
ATOM     65  C   UNL A   1      42.905  30.289  35.552  1.00  0.00     0.029 A 
ATOM     66  N   UNL A   1      43.170  31.299  33.590  1.00  0.00    -0.354 N 
ATOM     67  N   UNL A   1      43.347  33.595  31.793  1.00  0.00    -0.248 NA
ATOM     68  C   UNL A   1      43.075  35.875  31.381  1.00  0.00     0.031 C 
ATOM     69  C   UNL A   1      42.645  31.653  35.719  1.00  0.00     0.029 A 
ATOM     70  C   UNL A   1      42.844  32.288  34.504  1.00  0.00     0.049 A 
ATOM     71  H   UNL A   1      43.359  31.451  32.635  1.00  0.00     0.167 HD
ATOM     72  C   UNL A   1      42.968  34.230  32.972  1.00  0.00     0.074 A 
ATOM     73  C   UNL A   1      42.849  35.640  32.665  1.00  0.00     0.031 C 
ATOM     74  C   UNL A   1      42.740  33.694  34.196  1.00  0.00     0.037 A 
BRANCH  61  75
ATOM     75  C   UNL A   1      43.362  27.548  34.365  1.00  0.00     0.064 A 
ATOM     76  C   UNL A   1      42.146  26.872  34.554  1.00  0.00     0.173 A 
ATOM     77  C   UNL A   1      44.515  26.995  34.943  1.00  0.00     0.173 A 
ATOM     78  F   UNL A   1      41.012  27.366  34.035  1.00  0.00    -0.203 F 
ATOM     79  C   UNL A   1      42.084  25.710  35.318  1.00  0.00     0.198 A 
ATOM     80  C   UNL A   1      44.455  25.814  35.677  1.00  0.00     0.198 A 
ATOM     81  F   UNL A   1      45.704  27.597  34.790  1.00  0.00    -0.203 F 
ATOM     82  F   UNL A   1      40.903  25.115  35.532  1.00  0.00    -0.200 F 
ATOM     83  C   UNL A   1      43.237  25.178  35.873  1.00  0.00     0.200 A 
ATOM     84  F   UNL A   1      45.574  25.294  36.199  1.00  0.00    -0.200 F 
ATOM     85  F   UNL A   1      43.177  24.057  36.604  1.00  0.00    -0.200 F 
ENDBRANCH  61  75
BRANCH  62  86
ATOM     86  C   UNL A   1      43.870  35.651  28.576  1.00  0.00     0.064 A 
ATOM     87  C   UNL A   1      45.069  36.352  28.380  1.00  0.00     0.173 A 
ATOM     88  C   UNL A   1      42.712  36.167  27.976  1.00  0.00     0.173 A 
ATOM     89  F   UNL A   1      46.200  35.918  28.959  1.00  0.00    -0.203 F 
ATOM     90  C   UNL A   1      45.103  37.530  27.636  1.00  0.00     0.198 A 
ATOM     91  C   UNL A   1      42.753  37.325  27.203  1.00  0.00     0.198 A 
ATOM     92  F   UNL A   1      41.536  35.541  28.138  1.00  0.00    -0.203 F 
ATOM     93  F   UNL A   1      46.252  38.210  27.516  1.00  0.00    -0.200 F 
ATOM     94  C   UNL A   1      43.947  38.013  27.044  1.00  0.00     0.200 A 
ATOM     95  F   UNL A   1      41.635  37.782  26.625  1.00  0.00    -0.200 F 
ATOM     96  F   UNL A   1      43.980  39.146  26.330  1.00  0.00    -0.200 F 
ENDBRANCH  62  86
BRANCH  74  97
ATOM     97  C   UNL A   1      42.389  34.632  35.318  1.00  0.00     0.064 A 
ATOM     98  C   UNL A   1      43.370  35.244  36.112  1.00  0.00     0.173 A 
ATOM     99  C   UNL A   1      41.047  34.962  35.570  1.00  0.00     0.173 A 
ATOM    100  F   UNL A   1      44.667  34.956  35.923  1.00  0.00    -0.203 F 
ATOM    101  C   UNL A   1      43.021  36.127  37.133  1.00  0.00     0.198 A 
ATOM    102  C   UNL A   1      40.704  35.873  36.566  1.00  0.00     0.198 A 
ATOM    103  F   UNL A   1      40.066  34.415  34.837  1.00  0.00    -0.203 F 
ATOM    104  F   UNL A   1      43.973  36.659  37.911  1.00  0.00    -0.200 F 
ATOM    105  C   UNL A   1      41.689  36.448  37.352  1.00  0.00     0.200 A 
ATOM    106  F   UNL A   1      39.418  36.194  36.763  1.00  0.00    -0.200 F 
ATOM    107  F   UNL A   1      41.357  37.305  38.327  1.00  0.00    -0.200 F 
ENDBRANCH  74  97
ENDBRANCH  48  49
ENDBRANCH  41  43
ENDBRANCH  40  41
ENDBRANCH  39  40
ENDBRANCH  38  39
ENDBRANCH  37  38
ENDBRANCH  36  37
ENDBRANCH   1  36
TORSDOF 22
ENDMDL
