MODEL 1
REMARK VINA RESULT:     -10.4      0.000      0.000
REMARK SMILES CC[C@](C)(C(=O)OCCOCCOCCOC(=O)c1ccc(-c2c3nc(c(-c4c(F)c(F)c(F)c(F)c4F)c4ccc([nH]4)c(-c4c(F)c(F)c(F)c(F)c4F)c4nc(c(-c5c(F)c(F)c(F)c(F)c5F)c5ccc2[nH]5)C=C4)C=C3)cc1)[C@@H]1CCC[C@@H]1O
REMARK SMILES IDX 11 1 10 2 9 3 8 4 7 5 5 6 6 7 3 8 4 9 2 10 1 11 82 12 83 13
REMARK SMILES IDX 86 14 84 15 85 16 87 17 12 19 13 20 14 21 15 22 16 23 17 24
REMARK SMILES IDX 18 25 19 26 20 27 81 28 21 29 80 30 22 31 23 32 24 33 74 34
REMARK SMILES IDX 25 35 79 36 73 37 75 38 26 39 78 40 72 41 71 42 27 44 59 45
REMARK SMILES IDX 39 46 58 47 40 48 43 49 57 50 76 51 41 52 42 53 56 55 77 56
REMARK SMILES IDX 44 57 28 58 29 59 37 60 30 61 31 62 35 63 38 64 32 65 33 66
REMARK SMILES IDX 36 67 34 68 60 69 61 70 69 71 62 72 63 73 67 74 70 75 64 76
REMARK SMILES IDX 65 77 68 78 66 79 45 80 46 81 54 82 47 83 48 84 52 85 55 86
REMARK SMILES IDX 49 87 50 88 53 89 51 90
REMARK H PARENT 87 18 75 43 43 54
REMARK Flexibility Score: inf
ROOT
ATOM      1  C   UNL A   1      40.127  21.932  26.886  1.00  0.00     0.188 C 
ENDROOT
BRANCH   1   2
ATOM      2  O   UNL A   1      39.221  21.767  25.810  1.00  0.00    -0.376 OA
BRANCH   2   3
ATOM      3  C   UNL A   1      38.193  22.747  25.720  1.00  0.00     0.202 C 
BRANCH   3   4
ATOM      4  C   UNL A   1      37.218  22.603  24.545  1.00  0.00     0.261 C 
BRANCH   4   5
ATOM      5  O   UNL A   1      35.856  22.971  24.849  1.00  0.00    -0.463 OA
BRANCH   5   6
ATOM      6  C   UNL A   1      35.087  23.512  23.871  1.00  0.00     0.312 C 
ATOM      7  O   UNL A   1      35.430  23.484  22.698  1.00  0.00    -0.252 OA
BRANCH   6   8
ATOM      8  C   UNL A   1      33.808  24.222  24.433  1.00  0.00     0.070 C 
ATOM      9  C   UNL A   1      34.038  24.809  25.886  1.00  0.00     0.024 C 
BRANCH   8  10
ATOM     10  C   UNL A   1      33.636  25.543  23.599  1.00  0.00     0.015 C 
ATOM     11  C   UNL A   1      32.285  26.220  23.528  1.00  0.00     0.005 C 
ENDBRANCH   8  10
BRANCH   8  12
ATOM     12  C   UNL A   1      32.490  23.326  24.400  1.00  0.00     0.035 C 
ATOM     13  C   UNL A   1      32.291  22.313  25.566  1.00  0.00     0.007 C 
ATOM     14  C   UNL A   1      32.085  22.463  23.175  1.00  0.00     0.118 C 
ATOM     15  C   UNL A   1      32.151  20.914  24.977  1.00  0.00     0.003 C 
ATOM     16  C   UNL A   1      32.507  21.047  23.518  1.00  0.00     0.032 C 
BRANCH  14  17
ATOM     17  O   UNL A   1      32.620  22.799  21.927  1.00  0.00    -0.393 OA
ATOM     18  H   UNL A   1      33.329  23.452  22.043  1.00  0.00     0.210 HD
ENDBRANCH  14  17
ENDBRANCH   8  12
ENDBRANCH   6   8
ENDBRANCH   5   6
ENDBRANCH   4   5
ENDBRANCH   3   4
ENDBRANCH   2   3
ENDBRANCH   1   2
BRANCH   1  19
ATOM     19  C   UNL A   1      40.914  20.661  27.255  1.00  0.00     0.188 C 
BRANCH  19  20
ATOM     20  O   UNL A   1      42.315  20.571  27.067  1.00  0.00    -0.376 OA
BRANCH  20  21
ATOM     21  C   UNL A   1      42.835  20.653  25.752  1.00  0.00     0.202 C 
BRANCH  21  22
ATOM     22  C   UNL A   1      43.771  21.819  25.395  1.00  0.00     0.261 C 
BRANCH  22  23
ATOM     23  O   UNL A   1      43.135  22.990  24.852  1.00  0.00    -0.460 OA
BRANCH  23  24
ATOM     24  C   UNL A   1      43.833  24.149  24.979  1.00  0.00     0.338 C 
ATOM     25  O   UNL A   1      44.798  24.502  24.329  1.00  0.00    -0.246 OA
BRANCH  24  26
ATOM     26  C   UNL A   1      43.127  25.056  25.919  1.00  0.00     0.060 A 
ATOM     27  C   UNL A   1      43.588  26.375  26.038  1.00  0.00     0.016 A 
ATOM     28  C   UNL A   1      42.045  24.623  26.688  1.00  0.00     0.016 A 
ATOM     29  C   UNL A   1      42.979  27.259  26.931  1.00  0.00     0.010 A 
ATOM     30  C   UNL A   1      41.456  25.501  27.609  1.00  0.00     0.010 A 
ATOM     31  C   UNL A   1      41.930  26.817  27.750  1.00  0.00    -0.014 A 
BRANCH  31  32
ATOM     32  C   UNL A   1      41.475  27.663  28.885  1.00  0.00     0.031 A 
ATOM     33  C   UNL A   1      42.237  27.582  30.179  1.00  0.00     0.074 A 
ATOM     34  C   UNL A   1      40.414  28.483  28.788  1.00  0.00     0.049 A 
ATOM     35  N   UNL A   1      42.020  28.195  31.314  1.00  0.00    -0.248 NA
ATOM     36  C   UNL A   1      43.399  26.678  30.193  1.00  0.00     0.031 C 
ATOM     37  C   UNL A   1      39.599  28.672  27.594  1.00  0.00     0.029 A 
ATOM     38  N   UNL A   1      39.839  29.313  29.721  1.00  0.00    -0.354 N 
ATOM     39  C   UNL A   1      43.012  27.749  32.176  1.00  0.00     0.074 A 
ATOM     40  C   UNL A   1      43.825  26.806  31.439  1.00  0.00     0.031 C 
ATOM     41  C   UNL A   1      38.636  29.574  27.858  1.00  0.00     0.029 A 
ATOM     42  C   UNL A   1      38.734  29.987  29.257  1.00  0.00     0.049 A 
ATOM     43  H   UNL A   1      40.186  29.416  30.637  1.00  0.00     0.167 HD
ATOM     44  C   UNL A   1      43.223  28.085  33.470  1.00  0.00     0.037 A 
ATOM     45  C   UNL A   1      37.885  30.816  29.899  1.00  0.00     0.037 A 
ATOM     46  C   UNL A   1      42.396  28.989  34.224  1.00  0.00     0.049 A 
ATOM     47  C   UNL A   1      38.093  31.105  31.368  1.00  0.00     0.074 A 
ATOM     48  C   UNL A   1      42.531  29.386  35.542  1.00  0.00     0.029 A 
ATOM     49  N   UNL A   1      41.262  29.618  33.732  1.00  0.00    -0.354 N 
ATOM     50  N   UNL A   1      39.056  30.711  32.165  1.00  0.00    -0.248 NA
ATOM     51  C   UNL A   1      37.084  31.948  32.027  1.00  0.00     0.031 C 
ATOM     52  C   UNL A   1      41.447  30.206  35.866  1.00  0.00     0.029 A 
ATOM     53  C   UNL A   1      40.671  30.375  34.731  1.00  0.00     0.049 A 
ATOM     54  H   UNL A   1      40.927  29.539  32.809  1.00  0.00     0.167 HD
ATOM     55  C   UNL A   1      38.785  31.280  33.405  1.00  0.00     0.074 A 
ATOM     56  C   UNL A   1      37.577  32.060  33.252  1.00  0.00     0.031 C 
ATOM     57  C   UNL A   1      39.475  31.163  34.566  1.00  0.00     0.037 A 
BRANCH  44  58
ATOM     58  C   UNL A   1      44.372  27.422  34.170  1.00  0.00     0.064 A 
ATOM     59  C   UNL A   1      45.645  28.010  34.216  1.00  0.00     0.173 A 
ATOM     60  C   UNL A   1      44.194  26.187  34.810  1.00  0.00     0.173 A 
ATOM     61  F   UNL A   1      45.871  29.181  33.602  1.00  0.00    -0.203 F 
ATOM     62  C   UNL A   1      46.704  27.371  34.854  1.00  0.00     0.198 A 
ATOM     63  C   UNL A   1      45.247  25.566  35.474  1.00  0.00     0.198 A 
ATOM     64  F   UNL A   1      42.996  25.583  34.794  1.00  0.00    -0.203 F 
ATOM     65  F   UNL A   1      47.925  27.925  34.841  1.00  0.00    -0.200 F 
ATOM     66  C   UNL A   1      46.503  26.154  35.488  1.00  0.00     0.200 A 
ATOM     67  F   UNL A   1      45.048  24.395  36.094  1.00  0.00    -0.200 F 
ATOM     68  F   UNL A   1      47.523  25.540  36.105  1.00  0.00    -0.200 F 
ENDBRANCH  44  58
BRANCH  45  69
ATOM     69  C   UNL A   1      36.730  31.421  29.180  1.00  0.00     0.064 A 
ATOM     70  C   UNL A   1      36.702  32.791  28.883  1.00  0.00     0.173 A 
ATOM     71  C   UNL A   1      35.605  30.659  28.829  1.00  0.00     0.173 A 
ATOM     72  F   UNL A   1      37.738  33.572  29.227  1.00  0.00    -0.203 F 
ATOM     73  C   UNL A   1      35.586  33.380  28.289  1.00  0.00     0.198 A 
ATOM     74  C   UNL A   1      34.503  31.242  28.205  1.00  0.00     0.198 A 
ATOM     75  F   UNL A   1      35.572  29.346  29.100  1.00  0.00    -0.203 F 
ATOM     76  F   UNL A   1      35.563  34.703  28.076  1.00  0.00    -0.200 F 
ATOM     77  C   UNL A   1      34.490  32.603  27.946  1.00  0.00     0.200 A 
ATOM     78  F   UNL A   1      33.450  30.486  27.869  1.00  0.00    -0.200 F 
ATOM     79  F   UNL A   1      33.416  33.170  27.380  1.00  0.00    -0.200 F 
ENDBRANCH  45  69
BRANCH  57  80
ATOM     80  C   UNL A   1      38.978  31.932  35.759  1.00  0.00     0.064 A 
ATOM     81  C   UNL A   1      38.179  31.337  36.746  1.00  0.00     0.173 A 
ATOM     82  C   UNL A   1      39.354  33.272  35.942  1.00  0.00     0.173 A 
ATOM     83  F   UNL A   1      37.778  30.063  36.614  1.00  0.00    -0.203 F 
ATOM     84  C   UNL A   1      37.755  32.061  37.859  1.00  0.00     0.198 A 
ATOM     85  C   UNL A   1      38.958  33.983  37.073  1.00  0.00     0.198 A 
ATOM     86  F   UNL A   1      40.125  33.888  35.034  1.00  0.00    -0.203 F 
ATOM     87  F   UNL A   1      36.954  31.485  38.765  1.00  0.00    -0.200 F 
ATOM     88  C   UNL A   1      38.153  33.379  38.026  1.00  0.00     0.200 A 
ATOM     89  F   UNL A   1      39.358  35.251  37.240  1.00  0.00    -0.200 F 
ATOM     90  F   UNL A   1      37.756  34.070  39.103  1.00  0.00    -0.200 F 
ENDBRANCH  57  80
ENDBRANCH  31  32
ENDBRANCH  24  26
ENDBRANCH  23  24
ENDBRANCH  22  23
ENDBRANCH  21  22
ENDBRANCH  20  21
ENDBRANCH  19  20
ENDBRANCH   1  19
TORSDOF 20
ENDMDL
MODEL 2
REMARK VINA RESULT:     -10.2      0.601      2.087
REMARK SMILES CC[C@](C)(C(=O)OCCOCCOCCOC(=O)c1ccc(-c2c3nc(c(-c4c(F)c(F)c(F)c(F)c4F)c4ccc([nH]4)c(-c4c(F)c(F)c(F)c(F)c4F)c4nc(c(-c5c(F)c(F)c(F)c(F)c5F)c5ccc2[nH]5)C=C4)C=C3)cc1)[C@@H]1CCC[C@@H]1O
REMARK SMILES IDX 11 1 10 2 9 3 8 4 7 5 5 6 6 7 3 8 4 9 2 10 1 11 82 12 83 13
REMARK SMILES IDX 86 14 84 15 85 16 87 17 12 19 13 20 14 21 15 22 16 23 17 24
REMARK SMILES IDX 18 25 19 26 20 27 81 28 21 29 80 30 22 31 23 32 24 33 74 34
REMARK SMILES IDX 25 35 79 36 73 37 75 38 26 39 78 40 72 41 71 42 27 44 59 45
REMARK SMILES IDX 39 46 58 47 40 48 43 49 57 50 76 51 41 52 42 53 56 55 77 56
REMARK SMILES IDX 44 57 28 58 29 59 37 60 30 61 31 62 35 63 38 64 32 65 33 66
REMARK SMILES IDX 36 67 34 68 60 69 61 70 69 71 62 72 63 73 67 74 70 75 64 76
REMARK SMILES IDX 65 77 68 78 66 79 45 80 46 81 54 82 47 83 48 84 52 85 55 86
REMARK SMILES IDX 49 87 50 88 53 89 51 90
REMARK H PARENT 87 18 75 43 43 54
REMARK Flexibility Score: inf
ROOT
ATOM      1  C   UNL A   1      40.126  22.018  26.824  1.00  0.00     0.188 C 
ENDROOT
BRANCH   1   2
ATOM      2  O   UNL A   1      39.147  21.402  26.007  1.00  0.00    -0.376 OA
BRANCH   2   3
ATOM      3  C   UNL A   1      37.997  22.193  25.729  1.00  0.00     0.202 C 
BRANCH   3   4
ATOM      4  C   UNL A   1      37.043  21.651  24.657  1.00  0.00     0.261 C 
BRANCH   4   5
ATOM      5  O   UNL A   1      35.748  22.285  24.633  1.00  0.00    -0.463 OA
BRANCH   5   6
ATOM      6  C   UNL A   1      35.320  22.866  23.484  1.00  0.00     0.312 C 
ATOM      7  O   UNL A   1      36.102  23.193  22.603  1.00  0.00    -0.252 OA
BRANCH   6   8
ATOM      8  C   UNL A   1      33.776  23.130  23.479  1.00  0.00     0.070 C 
ATOM      9  C   UNL A   1      33.122  22.840  22.065  1.00  0.00     0.024 C 
BRANCH   8  10
ATOM     10  C   UNL A   1      33.131  21.988  24.347  1.00  0.00     0.015 C 
ATOM     11  C   UNL A   1      32.525  20.778  23.671  1.00  0.00     0.005 C 
ENDBRANCH   8  10
BRANCH   8  12
ATOM     12  C   UNL A   1      33.354  24.577  23.998  1.00  0.00     0.035 C 
ATOM     13  C   UNL A   1      32.005  24.690  24.766  1.00  0.00     0.007 C 
ATOM     14  C   UNL A   1      33.281  25.819  23.070  1.00  0.00     0.118 C 
ATOM     15  C   UNL A   1      31.117  25.697  24.043  1.00  0.00     0.003 C 
ATOM     16  C   UNL A   1      31.811  25.994  22.739  1.00  0.00     0.032 C 
BRANCH  14  17
ATOM     17  O   UNL A   1      34.008  25.792  21.875  1.00  0.00    -0.393 OA
ATOM     18  H   UNL A   1      33.822  24.966  21.401  1.00  0.00     0.210 HD
ENDBRANCH  14  17
ENDBRANCH   8  12
ENDBRANCH   6   8
ENDBRANCH   5   6
ENDBRANCH   4   5
ENDBRANCH   3   4
ENDBRANCH   2   3
ENDBRANCH   1   2
BRANCH   1  19
ATOM     19  C   UNL A   1      40.996  21.033  27.626  1.00  0.00     0.188 C 
BRANCH  19  20
ATOM     20  O   UNL A   1      42.296  20.668  27.198  1.00  0.00    -0.376 OA
BRANCH  20  21
ATOM     21  C   UNL A   1      42.630  20.815  25.829  1.00  0.00     0.202 C 
BRANCH  21  22
ATOM     22  C   UNL A   1      43.658  21.886  25.427  1.00  0.00     0.261 C 
BRANCH  22  23
ATOM     23  O   UNL A   1      43.115  23.088  24.850  1.00  0.00    -0.460 OA
BRANCH  23  24
ATOM     24  C   UNL A   1      43.861  24.211  25.026  1.00  0.00     0.338 C 
ATOM     25  O   UNL A   1      44.858  24.536  24.412  1.00  0.00    -0.246 OA
BRANCH  24  26
ATOM     26  C   UNL A   1      43.169  25.124  25.971  1.00  0.00     0.060 A 
ATOM     27  C   UNL A   1      43.639  26.441  26.082  1.00  0.00     0.016 A 
ATOM     28  C   UNL A   1      42.092  24.700  26.752  1.00  0.00     0.016 A 
ATOM     29  C   UNL A   1      43.044  27.331  26.979  1.00  0.00     0.010 A 
ATOM     30  C   UNL A   1      41.517  25.583  27.676  1.00  0.00     0.010 A 
ATOM     31  C   UNL A   1      42.001  26.897  27.809  1.00  0.00    -0.014 A 
BRANCH  31  32
ATOM     32  C   UNL A   1      41.562  27.748  28.947  1.00  0.00     0.031 A 
ATOM     33  C   UNL A   1      42.332  27.660  30.235  1.00  0.00     0.074 A 
ATOM     34  C   UNL A   1      40.509  28.579  28.856  1.00  0.00     0.049 A 
ATOM     35  N   UNL A   1      42.128  28.276  31.371  1.00  0.00    -0.248 NA
ATOM     36  C   UNL A   1      43.484  26.745  30.242  1.00  0.00     0.031 C 
ATOM     37  C   UNL A   1      39.687  28.775  27.668  1.00  0.00     0.029 A 
ATOM     38  N   UNL A   1      39.948  29.416  29.792  1.00  0.00    -0.354 N 
ATOM     39  C   UNL A   1      43.121  27.822  32.228  1.00  0.00     0.074 A 
ATOM     40  C   UNL A   1      43.920  26.869  31.486  1.00  0.00     0.031 C 
ATOM     41  C   UNL A   1      38.736  29.687  27.937  1.00  0.00     0.029 A 
ATOM     42  C   UNL A   1      38.847  30.100  29.335  1.00  0.00     0.049 A 
ATOM     43  H   UNL A   1      40.302  29.516  30.705  1.00  0.00     0.167 HD
ATOM     44  C   UNL A   1      43.345  28.156  33.520  1.00  0.00     0.037 A 
ATOM     45  C   UNL A   1      38.011  30.939  29.982  1.00  0.00     0.037 A 
ATOM     46  C   UNL A   1      42.532  29.069  34.278  1.00  0.00     0.049 A 
ATOM     47  C   UNL A   1      38.232  31.227  31.449  1.00  0.00     0.074 A 
ATOM     48  C   UNL A   1      42.680  29.465  35.594  1.00  0.00     0.029 A 
ATOM     49  N   UNL A   1      41.401  29.709  33.793  1.00  0.00    -0.354 N 
ATOM     50  N   UNL A   1      39.196  30.824  32.240  1.00  0.00    -0.248 NA
ATOM     51  C   UNL A   1      37.235  32.081  32.115  1.00  0.00     0.031 C 
ATOM     52  C   UNL A   1      41.606  30.297  35.926  1.00  0.00     0.029 A 
ATOM     53  C   UNL A   1      40.824  30.473  34.795  1.00  0.00     0.049 A 
ATOM     54  H   UNL A   1      41.059  29.633  32.873  1.00  0.00     0.167 HD
ATOM     55  C   UNL A   1      38.939  31.396  33.481  1.00  0.00     0.074 A 
ATOM     56  C   UNL A   1      37.738  32.188  33.336  1.00  0.00     0.031 C 
ATOM     57  C   UNL A   1      39.636  31.272  34.638  1.00  0.00     0.037 A 
BRANCH  44  58
ATOM     58  C   UNL A   1      44.491  27.482  34.213  1.00  0.00     0.064 A 
ATOM     59  C   UNL A   1      44.344  26.235  34.840  1.00  0.00     0.173 A 
ATOM     60  C   UNL A   1      45.756  28.088  34.242  1.00  0.00     0.173 A 
ATOM     61  F   UNL A   1      43.150  25.625  34.856  1.00  0.00    -0.203 F 
ATOM     62  C   UNL A   1      45.415  25.634  35.494  1.00  0.00     0.198 A 
ATOM     63  C   UNL A   1      46.832  27.471  34.870  1.00  0.00     0.198 A 
ATOM     64  F   UNL A   1      45.948  29.281  33.658  1.00  0.00    -0.203 F 
ATOM     65  F   UNL A   1      45.240  24.469  36.132  1.00  0.00    -0.200 F 
ATOM     66  C   UNL A   1      46.659  26.249  35.504  1.00  0.00     0.200 A 
ATOM     67  F   UNL A   1      48.035  28.060  34.869  1.00  0.00    -0.200 F 
ATOM     68  F   UNL A   1      47.691  25.668  36.132  1.00  0.00    -0.200 F 
ENDBRANCH  44  58
BRANCH  45  69
ATOM     69  C   UNL A   1      36.857  31.555  29.270  1.00  0.00     0.064 A 
ATOM     70  C   UNL A   1      36.835  32.927  28.984  1.00  0.00     0.173 A 
ATOM     71  C   UNL A   1      35.729  30.801  28.915  1.00  0.00     0.173 A 
ATOM     72  F   UNL A   1      37.875  33.700  29.332  1.00  0.00    -0.203 F 
ATOM     73  C   UNL A   1      35.721  33.527  28.397  1.00  0.00     0.198 A 
ATOM     74  C   UNL A   1      34.628  31.394  28.298  1.00  0.00     0.198 A 
ATOM     75  F   UNL A   1      35.689  29.486  29.175  1.00  0.00    -0.203 F 
ATOM     76  F   UNL A   1      35.704  34.851  28.195  1.00  0.00    -0.200 F 
ATOM     77  C   UNL A   1      34.621  32.757  28.050  1.00  0.00     0.200 A 
ATOM     78  F   UNL A   1      33.570  30.645  27.958  1.00  0.00    -0.200 F 
ATOM     79  F   UNL A   1      33.548  33.334  27.491  1.00  0.00    -0.200 F 
ENDBRANCH  45  69
BRANCH  57  80
ATOM     80  C   UNL A   1      39.154  32.048  35.833  1.00  0.00     0.064 A 
ATOM     81  C   UNL A   1      39.510  33.388  36.042  1.00  0.00     0.173 A 
ATOM     82  C   UNL A   1      38.279  31.453  36.756  1.00  0.00     0.173 A 
ATOM     83  F   UNL A   1      40.354  34.002  35.199  1.00  0.00    -0.203 F 
ATOM     84  C   UNL A   1      39.026  34.097  37.140  1.00  0.00     0.198 A 
ATOM     85  C   UNL A   1      37.770  32.173  37.834  1.00  0.00     0.198 A 
ATOM     86  F   UNL A   1      37.900  30.175  36.601  1.00  0.00    -0.203 F 
ATOM     87  F   UNL A   1      39.417  35.363  37.343  1.00  0.00    -0.200 F 
ATOM     88  C   UNL A   1      38.150  33.492  38.029  1.00  0.00     0.200 A 
ATOM     89  F   UNL A   1      36.910  31.591  38.681  1.00  0.00    -0.200 F 
ATOM     90  F   UNL A   1      37.676  34.178  39.077  1.00  0.00    -0.200 F 
ENDBRANCH  57  80
ENDBRANCH  31  32
ENDBRANCH  24  26
ENDBRANCH  23  24
ENDBRANCH  22  23
ENDBRANCH  21  22
ENDBRANCH  20  21
ENDBRANCH  19  20
ENDBRANCH   1  19
TORSDOF 20
ENDMDL
MODEL 3
REMARK VINA RESULT:      -9.6      4.614      7.148
REMARK SMILES CC[C@](C)(C(=O)OCCOCCOCCOC(=O)c1ccc(-c2c3nc(c(-c4c(F)c(F)c(F)c(F)c4F)c4ccc([nH]4)c(-c4c(F)c(F)c(F)c(F)c4F)c4nc(c(-c5c(F)c(F)c(F)c(F)c5F)c5ccc2[nH]5)C=C4)C=C3)cc1)[C@@H]1CCC[C@@H]1O
REMARK SMILES IDX 11 1 10 2 9 3 8 4 7 5 5 6 6 7 3 8 4 9 2 10 1 11 82 12 83 13
REMARK SMILES IDX 86 14 84 15 85 16 87 17 12 19 13 20 14 21 15 22 16 23 17 24
REMARK SMILES IDX 18 25 19 26 20 27 81 28 21 29 80 30 22 31 23 32 24 33 74 34
REMARK SMILES IDX 25 35 79 36 73 37 75 38 26 39 78 40 72 41 71 42 27 44 59 45
REMARK SMILES IDX 39 46 58 47 40 48 43 49 57 50 76 51 41 52 42 53 56 55 77 56
REMARK SMILES IDX 44 57 28 58 29 59 37 60 30 61 31 62 35 63 38 64 32 65 33 66
REMARK SMILES IDX 36 67 34 68 60 69 61 70 69 71 62 72 63 73 67 74 70 75 64 76
REMARK SMILES IDX 65 77 68 78 66 79 45 80 46 81 54 82 47 83 48 84 52 85 55 86
REMARK SMILES IDX 49 87 50 88 53 89 51 90
REMARK H PARENT 87 18 75 43 43 54
REMARK Flexibility Score: inf
ROOT
ATOM      1  C   UNL A   1      34.016  21.432  25.202  1.00  0.00     0.188 C 
ENDROOT
BRANCH   1   2
ATOM      2  O   UNL A   1      33.352  21.798  24.006  1.00  0.00    -0.376 OA
BRANCH   2   3
ATOM      3  C   UNL A   1      32.867  23.136  23.961  1.00  0.00     0.202 C 
BRANCH   3   4
ATOM      4  C   UNL A   1      31.371  23.325  24.241  1.00  0.00     0.261 C 
BRANCH   4   5
ATOM      5  O   UNL A   1      30.733  24.335  23.431  1.00  0.00    -0.463 OA
BRANCH   5   6
ATOM      6  C   UNL A   1      30.356  25.501  24.011  1.00  0.00     0.312 C 
ATOM      7  O   UNL A   1      29.532  25.530  24.913  1.00  0.00    -0.252 OA
BRANCH   6   8
ATOM      8  C   UNL A   1      31.018  26.752  23.337  1.00  0.00     0.070 C 
ATOM      9  C   UNL A   1      31.423  26.478  21.830  1.00  0.00     0.024 C 
BRANCH   8  10
ATOM     10  C   UNL A   1      29.871  27.811  23.152  1.00  0.00     0.015 C 
ATOM     11  C   UNL A   1      30.142  29.273  23.432  1.00  0.00     0.005 C 
ENDBRANCH   8  10
BRANCH   8  12
ATOM     12  C   UNL A   1      32.256  27.354  24.141  1.00  0.00     0.035 C 
ATOM     13  C   UNL A   1      33.662  26.766  23.825  1.00  0.00     0.007 C 
ATOM     14  C   UNL A   1      32.299  27.432  25.691  1.00  0.00     0.118 C 
ATOM     15  C   UNL A   1      34.264  26.223  25.117  1.00  0.00     0.003 C 
ATOM     16  C   UNL A   1      33.151  26.257  26.133  1.00  0.00     0.032 C 
BRANCH  14  17
ATOM     17  O   UNL A   1      31.087  27.391  26.387  1.00  0.00    -0.393 OA
ATOM     18  H   UNL A   1      31.128  26.705  27.071  1.00  0.00     0.210 HD
ENDBRANCH  14  17
ENDBRANCH   8  12
ENDBRANCH   6   8
ENDBRANCH   5   6
ENDBRANCH   4   5
ENDBRANCH   3   4
ENDBRANCH   2   3
ENDBRANCH   1   2
BRANCH   1  19
ATOM     19  C   UNL A   1      35.325  20.651  24.989  1.00  0.00     0.188 C 
BRANCH  19  20
ATOM     20  O   UNL A   1      36.543  21.060  25.584  1.00  0.00    -0.376 OA
BRANCH  20  21
ATOM     21  C   UNL A   1      37.760  20.763  24.923  1.00  0.00     0.202 C 
BRANCH  21  22
ATOM     22  C   UNL A   1      38.815  19.916  25.655  1.00  0.00     0.261 C 
BRANCH  22  23
ATOM     23  O   UNL A   1      40.128  20.496  25.748  1.00  0.00    -0.460 OA
BRANCH  23  24
ATOM     24  C   UNL A   1      40.660  20.544  26.998  1.00  0.00     0.338 C 
ATOM     25  O   UNL A   1      41.040  19.607  27.673  1.00  0.00    -0.246 OA
BRANCH  24  26
ATOM     26  C   UNL A   1      40.910  21.957  27.380  1.00  0.00     0.060 A 
ATOM     27  C   UNL A   1      40.210  22.961  26.693  1.00  0.00     0.016 A 
ATOM     28  C   UNL A   1      41.825  22.301  28.376  1.00  0.00     0.016 A 
ATOM     29  C   UNL A   1      40.432  24.307  26.991  1.00  0.00     0.010 A 
ATOM     30  C   UNL A   1      42.072  23.654  28.652  1.00  0.00     0.010 A 
ATOM     31  C   UNL A   1      41.392  24.664  27.949  1.00  0.00    -0.014 A 
BRANCH  31  32
ATOM     32  C   UNL A   1      41.826  26.082  28.064  1.00  0.00     0.031 A 
ATOM     33  C   UNL A   1      43.158  26.465  27.481  1.00  0.00     0.074 A 
ATOM     34  C   UNL A   1      41.070  27.016  28.669  1.00  0.00     0.049 A 
ATOM     35  N   UNL A   1      43.765  27.624  27.481  1.00  0.00    -0.248 NA
ATOM     36  C   UNL A   1      43.909  25.388  26.816  1.00  0.00     0.031 C 
ATOM     37  C   UNL A   1      39.757  26.789  29.260  1.00  0.00     0.029 A 
ATOM     38  N   UNL A   1      41.309  28.353  28.888  1.00  0.00    -0.354 N 
ATOM     39  C   UNL A   1      44.969  27.415  26.821  1.00  0.00     0.074 A 
ATOM     40  C   UNL A   1      45.013  26.018  26.446  1.00  0.00     0.031 C 
ATOM     41  C   UNL A   1      39.294  27.948  29.760  1.00  0.00     0.029 A 
ATOM     42  C   UNL A   1      40.303  28.990  29.574  1.00  0.00     0.049 A 
ATOM     43  H   UNL A   1      42.125  28.811  28.581  1.00  0.00     0.167 HD
ATOM     44  C   UNL A   1      45.956  28.303  26.560  1.00  0.00     0.037 A 
ATOM     45  C   UNL A   1      40.222  30.259  30.025  1.00  0.00     0.037 A 
ATOM     46  C   UNL A   1      45.940  29.683  26.965  1.00  0.00     0.049 A 
ATOM     47  C   UNL A   1      41.378  31.206  29.795  1.00  0.00     0.074 A 
ATOM     48  C   UNL A   1      46.899  30.656  26.747  1.00  0.00     0.029 A 
ATOM     49  N   UNL A   1      44.923  30.280  27.695  1.00  0.00    -0.354 N 
ATOM     50  N   UNL A   1      42.494  31.012  29.137  1.00  0.00    -0.248 NA
ATOM     51  C   UNL A   1      41.262  32.549  30.385  1.00  0.00     0.031 C 
ATOM     52  C   UNL A   1      46.492  31.825  27.396  1.00  0.00     0.029 A 
ATOM     53  C   UNL A   1      45.247  31.601  27.963  1.00  0.00     0.049 A 
ATOM     54  H   UNL A   1      44.094  29.832  27.980  1.00  0.00     0.167 HD
ATOM     55  C   UNL A   1      43.196  32.211  29.208  1.00  0.00     0.074 A 
ATOM     56  C   UNL A   1      42.373  33.133  29.960  1.00  0.00     0.031 C 
ATOM     57  C   UNL A   1      44.415  32.518  28.699  1.00  0.00     0.037 A 
BRANCH  44  58
ATOM     58  C   UNL A   1      47.168  27.787  25.842  1.00  0.00     0.064 A 
ATOM     59  C   UNL A   1      47.240  27.763  24.441  1.00  0.00     0.173 A 
ATOM     60  C   UNL A   1      48.274  27.318  26.566  1.00  0.00     0.173 A 
ATOM     61  F   UNL A   1      46.200  28.182  23.704  1.00  0.00    -0.203 F 
ATOM     62  C   UNL A   1      48.365  27.263  23.792  1.00  0.00     0.198 A 
ATOM     63  C   UNL A   1      49.409  26.848  25.914  1.00  0.00     0.198 A 
ATOM     64  F   UNL A   1      48.254  27.319  27.907  1.00  0.00    -0.203 F 
ATOM     65  F   UNL A   1      48.392  27.199  22.454  1.00  0.00    -0.200 F 
ATOM     66  C   UNL A   1      49.451  26.812  24.528  1.00  0.00     0.200 A 
ATOM     67  F   UNL A   1      50.461  26.423  26.627  1.00  0.00    -0.200 F 
ATOM     68  F   UNL A   1      50.535  26.333  23.902  1.00  0.00    -0.200 F 
ENDBRANCH  44  58
BRANCH  45  69
ATOM     69  C   UNL A   1      39.020  30.722  30.772  1.00  0.00     0.064 A 
ATOM     70  C   UNL A   1      38.942  30.591  32.166  1.00  0.00     0.173 A 
ATOM     71  C   UNL A   1      37.902  31.247  30.107  1.00  0.00     0.173 A 
ATOM     72  F   UNL A   1      39.971  30.064  32.847  1.00  0.00    -0.203 F 
ATOM     73  C   UNL A   1      37.785  30.941  32.862  1.00  0.00     0.198 A 
ATOM     74  C   UNL A   1      36.758  31.627  30.806  1.00  0.00     0.198 A 
ATOM     75  F   UNL A   1      37.916  31.384  28.772  1.00  0.00    -0.203 F 
ATOM     76  F   UNL A   1      37.717  30.744  34.185  1.00  0.00    -0.200 F 
ATOM     77  C   UNL A   1      36.697  31.464  32.181  1.00  0.00     0.200 A 
ATOM     78  F   UNL A   1      35.711  32.139  30.145  1.00  0.00    -0.200 F 
ATOM     79  F   UNL A   1      35.583  31.795  32.849  1.00  0.00    -0.200 F 
ENDBRANCH  45  69
BRANCH  57  80
ATOM     80  C   UNL A   1      44.921  33.921  28.887  1.00  0.00     0.064 A 
ATOM     81  C   UNL A   1      45.731  34.279  29.975  1.00  0.00     0.173 A 
ATOM     82  C   UNL A   1      44.633  34.910  27.933  1.00  0.00     0.173 A 
ATOM     83  F   UNL A   1      46.026  33.377  30.923  1.00  0.00    -0.203 F 
ATOM     84  C   UNL A   1      46.215  35.578  30.112  1.00  0.00     0.198 A 
ATOM     85  C   UNL A   1      45.146  36.200  28.056  1.00  0.00     0.198 A 
ATOM     86  F   UNL A   1      43.870  34.621  26.869  1.00  0.00    -0.203 F 
ATOM     87  F   UNL A   1      46.949  35.908  31.184  1.00  0.00    -0.200 F 
ATOM     88  C   UNL A   1      45.930  36.534  29.149  1.00  0.00     0.200 A 
ATOM     89  F   UNL A   1      44.883  37.116  27.114  1.00  0.00    -0.200 F 
ATOM     90  F   UNL A   1      46.407  37.780  29.276  1.00  0.00    -0.200 F 
ENDBRANCH  57  80
ENDBRANCH  31  32
ENDBRANCH  24  26
ENDBRANCH  23  24
ENDBRANCH  22  23
ENDBRANCH  21  22
ENDBRANCH  20  21
ENDBRANCH  19  20
ENDBRANCH   1  19
TORSDOF 20
ENDMDL
