MODEL 1
REMARK VINA RESULT:      -9.9      0.000      0.000
REMARK SMILES C[C@H]1CCN1c1cc(C(=O)OCCOCCOCCOC(=O)c2ccc(-c3c4nc(c(-c5c(F)c(F)c(F)c(F)c5F)c5ccc([nH]5)c(-c5c(F)c(F)c(F)c(F)c5F)c5nc(c(-c6c(F)c(F)c(F)c(F)c6F)c6ccc3[nH]6)C=C5)C=C4)cc2)ccc1Cl
REMARK SMILES IDX 16 1 15 2 14 3 13 4 12 5 11 6 9 7 10 8 8 9 6 10 7 11 88 12
REMARK SMILES IDX 87 13 89 14 86 15 5 16 1 17 2 18 3 19 4 20 17 21 18 22 19 23
REMARK SMILES IDX 20 24 21 25 22 26 23 27 24 28 85 29 25 30 84 31 26 32 27 33
REMARK SMILES IDX 28 34 78 35 29 36 83 37 77 38 79 39 30 40 82 41 76 42 75 43
REMARK SMILES IDX 31 45 63 46 43 47 62 48 44 49 47 50 61 51 80 52 45 53 46 54
REMARK SMILES IDX 60 56 81 57 48 58 32 59 33 60 41 61 34 62 35 63 39 64 42 65
REMARK SMILES IDX 36 66 37 67 40 68 38 69 64 70 65 71 73 72 66 73 67 74 71 75
REMARK SMILES IDX 74 76 68 77 69 78 72 79 70 80 49 81 50 82 58 83 51 84 52 85
REMARK SMILES IDX 56 86 59 87 53 88 54 89 57 90 55 91
REMARK H PARENT 79 44 47 55
REMARK Flexibility Score: inf
ROOT
ATOM      1  C   UNL A   1      33.311  35.506  29.568  1.00  0.00     0.188 C 
ENDROOT
BRANCH   1   2
ATOM      2  C   UNL A   1      32.524  36.210  30.694  1.00  0.00     0.188 C 
BRANCH   2   3
ATOM      3  O   UNL A   1      32.916  37.486  31.169  1.00  0.00    -0.376 OA
BRANCH   3   4
ATOM      4  C   UNL A   1      33.829  37.586  32.253  1.00  0.00     0.202 C 
BRANCH   4   5
ATOM      5  C   UNL A   1      33.881  36.476  33.307  1.00  0.00     0.261 C 
BRANCH   5   6
ATOM      6  O   UNL A   1      34.892  35.489  33.051  1.00  0.00    -0.460 OA
BRANCH   6   7
ATOM      7  C   UNL A   1      34.483  34.202  33.172  1.00  0.00     0.338 C 
ATOM      8  O   UNL A   1      33.392  33.746  32.877  1.00  0.00    -0.246 OA
BRANCH   7   9
ATOM      9  C   UNL A   1      35.631  33.345  33.538  1.00  0.00     0.062 A 
ATOM     10  C   UNL A   1      37.433  32.935  35.133  1.00  0.00     0.057 A 
ATOM     11  C   UNL A   1      36.355  33.706  34.679  1.00  0.00     0.043 A 
ATOM     12  C   UNL A   1      37.782  31.785  34.402  1.00  0.00     0.064 A 
ATOM     13  C   UNL A   1      37.061  31.426  33.253  1.00  0.00     0.023 A 
ATOM     14  Cl  UNL A   1      39.078  30.746  34.882  1.00  0.00    -0.082 Cl
ATOM     15  C   UNL A   1      35.980  32.200  32.820  1.00  0.00     0.017 A 
BRANCH  10  16
ATOM     16  N   UNL A   1      38.077  33.391  36.300  1.00  0.00    -0.367 N 
ATOM     17  C   UNL A   1      39.654  35.236  36.331  1.00  0.00     0.031 C 
ATOM     18  C   UNL A   1      39.462  33.735  36.455  1.00  0.00     0.081 C 
ATOM     19  C   UNL A   1      39.404  33.162  37.875  1.00  0.00     0.046 C 
ATOM     20  C   UNL A   1      37.934  32.856  37.620  1.00  0.00     0.119 C 
ENDBRANCH  10  16
ENDBRANCH   7   9
ENDBRANCH   6   7
ENDBRANCH   5   6
ENDBRANCH   4   5
ENDBRANCH   3   4
ENDBRANCH   2   3
ENDBRANCH   1   2
BRANCH   1  21
ATOM     21  O   UNL A   1      32.664  34.546  28.769  1.00  0.00    -0.376 OA
BRANCH  21  22
ATOM     22  C   UNL A   1      33.378  33.645  27.944  1.00  0.00     0.202 C 
BRANCH  22  23
ATOM     23  C   UNL A   1      34.033  32.326  28.386  1.00  0.00     0.261 C 
BRANCH  23  24
ATOM     24  O   UNL A   1      34.447  31.415  27.370  1.00  0.00    -0.460 OA
BRANCH  24  25
ATOM     25  C   UNL A   1      34.578  30.128  27.777  1.00  0.00     0.338 C 
ATOM     26  O   UNL A   1      33.794  29.212  27.620  1.00  0.00    -0.246 OA
BRANCH  25  27
ATOM     27  C   UNL A   1      35.931  29.948  28.329  1.00  0.00     0.060 A 
ATOM     28  C   UNL A   1      37.028  30.244  27.510  1.00  0.00     0.016 A 
ATOM     29  C   UNL A   1      36.112  29.446  29.618  1.00  0.00     0.016 A 
ATOM     30  C   UNL A   1      38.320  30.007  27.973  1.00  0.00     0.010 A 
ATOM     31  C   UNL A   1      37.407  29.193  30.074  1.00  0.00     0.010 A 
ATOM     32  C   UNL A   1      38.514  29.444  29.243  1.00  0.00    -0.014 A 
BRANCH  32  33
ATOM     33  C   UNL A   1      39.856  28.954  29.629  1.00  0.00     0.031 A 
ATOM     34  C   UNL A   1      40.687  29.792  30.560  1.00  0.00     0.074 A 
ATOM     35  C   UNL A   1      40.325  27.779  29.174  1.00  0.00     0.049 A 
ATOM     36  N   UNL A   1      41.900  29.589  31.006  1.00  0.00    -0.248 NA
ATOM     37  C   UNL A   1      40.062  31.030  31.053  1.00  0.00     0.031 C 
ATOM     38  C   UNL A   1      39.600  26.861  28.299  1.00  0.00     0.029 A 
ATOM     39  N   UNL A   1      41.534  27.164  29.385  1.00  0.00    -0.354 N 
ATOM     40  C   UNL A   1      42.184  30.669  31.830  1.00  0.00     0.074 A 
ATOM     41  C   UNL A   1      41.029  31.543  31.798  1.00  0.00     0.031 C 
ATOM     42  C   UNL A   1      40.387  25.804  28.034  1.00  0.00     0.029 A 
ATOM     43  C   UNL A   1      41.677  25.986  28.697  1.00  0.00     0.049 A 
ATOM     44  H   UNL A   1      42.231  27.534  29.973  1.00  0.00     0.167 HD
ATOM     45  C   UNL A   1      43.301  30.907  32.556  1.00  0.00     0.037 A 
ATOM     46  C   UNL A   1      42.739  25.164  28.599  1.00  0.00     0.037 A 
ATOM     47  C   UNL A   1      44.451  30.044  32.579  1.00  0.00     0.049 A 
ATOM     48  C   UNL A   1      44.004  25.493  29.352  1.00  0.00     0.074 A 
ATOM     49  C   UNL A   1      45.627  30.192  33.293  1.00  0.00     0.029 A 
ATOM     50  N   UNL A   1      44.572  28.874  31.843  1.00  0.00    -0.354 N 
ATOM     51  N   UNL A   1      44.254  26.499  30.155  1.00  0.00    -0.248 NA
ATOM     52  C   UNL A   1      45.134  24.566  29.186  1.00  0.00     0.031 C 
ATOM     53  C   UNL A   1      46.481  29.136  32.951  1.00  0.00     0.029 A 
ATOM     54  C   UNL A   1      45.814  28.303  32.067  1.00  0.00     0.049 A 
ATOM     55  H   UNL A   1      43.879  28.505  31.250  1.00  0.00     0.167 HD
ATOM     56  C   UNL A   1      45.552  26.310  30.614  1.00  0.00     0.074 A 
ATOM     57  C   UNL A   1      46.036  25.088  30.006  1.00  0.00     0.031 C 
ATOM     58  C   UNL A   1      46.277  27.078  31.464  1.00  0.00     0.037 A 
BRANCH  45  59
ATOM     59  C   UNL A   1      43.340  32.170  33.365  1.00  0.00     0.064 A 
ATOM     60  C   UNL A   1      43.690  33.402  32.791  1.00  0.00     0.173 A 
ATOM     61  C   UNL A   1      43.003  32.151  34.726  1.00  0.00     0.173 A 
ATOM     62  F   UNL A   1      44.036  33.469  31.496  1.00  0.00    -0.203 F 
ATOM     63  C   UNL A   1      43.725  34.564  33.557  1.00  0.00     0.198 A 
ATOM     64  C   UNL A   1      43.013  33.321  35.482  1.00  0.00     0.198 A 
ATOM     65  F   UNL A   1      42.661  31.000  35.323  1.00  0.00    -0.203 F 
ATOM     66  F   UNL A   1      44.109  35.720  32.999  1.00  0.00    -0.200 F 
ATOM     67  C   UNL A   1      43.381  34.523  34.900  1.00  0.00     0.200 A 
ATOM     68  F   UNL A   1      42.670  33.282  36.778  1.00  0.00    -0.200 F 
ATOM     69  F   UNL A   1      43.412  35.643  35.635  1.00  0.00    -0.200 F 
ENDBRANCH  45  59
BRANCH  46  70
ATOM     70  C   UNL A   1      42.662  23.948  27.749  1.00  0.00     0.064 A 
ATOM     71  C   UNL A   1      42.986  23.998  26.386  1.00  0.00     0.173 A 
ATOM     72  C   UNL A   1      42.240  22.719  28.274  1.00  0.00     0.173 A 
ATOM     73  F   UNL A   1      43.368  25.158  25.831  1.00  0.00    -0.203 F 
ATOM     74  C   UNL A   1      42.873  22.870  25.577  1.00  0.00     0.198 A 
ATOM     75  C   UNL A   1      42.153  21.584  27.471  1.00  0.00     0.198 A 
ATOM     76  F   UNL A   1      41.912  22.619  29.571  1.00  0.00    -0.203 F 
ATOM     77  F   UNL A   1      43.141  22.958  24.267  1.00  0.00    -0.200 F 
ATOM     78  C   UNL A   1      42.462  21.662  26.121  1.00  0.00     0.200 A 
ATOM     79  F   UNL A   1      41.761  20.417  28.001  1.00  0.00    -0.200 F 
ATOM     80  F   UNL A   1      42.352  20.578  25.341  1.00  0.00    -0.200 F 
ENDBRANCH  46  70
BRANCH  58  81
ATOM     81  C   UNL A   1      47.655  26.602  31.826  1.00  0.00     0.064 A 
ATOM     82  C   UNL A   1      48.796  27.054  31.149  1.00  0.00     0.173 A 
ATOM     83  C   UNL A   1      47.837  25.716  32.901  1.00  0.00     0.173 A 
ATOM     84  F   UNL A   1      48.674  27.890  30.107  1.00  0.00    -0.203 F 
ATOM     85  C   UNL A   1      50.066  26.619  31.518  1.00  0.00     0.198 A 
ATOM     86  C   UNL A   1      49.111  25.307  33.285  1.00  0.00     0.198 A 
ATOM     87  F   UNL A   1      46.778  25.259  33.588  1.00  0.00    -0.203 F 
ATOM     88  F   UNL A   1      51.140  27.030  30.828  1.00  0.00    -0.200 F 
ATOM     89  C   UNL A   1      50.223  25.753  32.590  1.00  0.00     0.200 A 
ATOM     90  F   UNL A   1      49.261  24.482  34.331  1.00  0.00    -0.200 F 
ATOM     91  F   UNL A   1      51.448  25.344  32.949  1.00  0.00    -0.200 F 
ENDBRANCH  58  81
ENDBRANCH  32  33
ENDBRANCH  25  27
ENDBRANCH  24  25
ENDBRANCH  23  24
ENDBRANCH  22  23
ENDBRANCH  21  22
ENDBRANCH   1  21
TORSDOF 18
ENDMDL
MODEL 2
REMARK VINA RESULT:      -9.9      5.832     12.087
REMARK SMILES C[C@H]1CCN1c1cc(C(=O)OCCOCCOCCOC(=O)c2ccc(-c3c4nc(c(-c5c(F)c(F)c(F)c(F)c5F)c5ccc([nH]5)c(-c5c(F)c(F)c(F)c(F)c5F)c5nc(c(-c6c(F)c(F)c(F)c(F)c6F)c6ccc3[nH]6)C=C5)C=C4)cc2)ccc1Cl
REMARK SMILES IDX 16 1 15 2 14 3 13 4 12 5 11 6 9 7 10 8 8 9 6 10 7 11 88 12
REMARK SMILES IDX 87 13 89 14 86 15 5 16 1 17 2 18 3 19 4 20 17 21 18 22 19 23
REMARK SMILES IDX 20 24 21 25 22 26 23 27 24 28 85 29 25 30 84 31 26 32 27 33
REMARK SMILES IDX 28 34 78 35 29 36 83 37 77 38 79 39 30 40 82 41 76 42 75 43
REMARK SMILES IDX 31 45 63 46 43 47 62 48 44 49 47 50 61 51 80 52 45 53 46 54
REMARK SMILES IDX 60 56 81 57 48 58 32 59 33 60 41 61 34 62 35 63 39 64 42 65
REMARK SMILES IDX 36 66 37 67 40 68 38 69 64 70 65 71 73 72 66 73 67 74 71 75
REMARK SMILES IDX 74 76 68 77 69 78 72 79 70 80 49 81 50 82 58 83 51 84 52 85
REMARK SMILES IDX 56 86 59 87 53 88 54 89 57 90 55 91
REMARK H PARENT 79 44 47 55
REMARK Flexibility Score: inf
ROOT
ATOM      1  C   UNL A   1      41.209  19.550  26.286  1.00  0.00     0.188 C 
ENDROOT
BRANCH   1   2
ATOM      2  C   UNL A   1      40.436  20.811  26.725  1.00  0.00     0.188 C 
BRANCH   2   3
ATOM      3  O   UNL A   1      39.617  21.519  25.810  1.00  0.00    -0.376 OA
BRANCH   3   4
ATOM      4  C   UNL A   1      38.803  22.587  26.271  1.00  0.00     0.202 C 
BRANCH   4   5
ATOM      5  C   UNL A   1      37.388  22.762  25.710  1.00  0.00     0.261 C 
BRANCH   5   6
ATOM      6  O   UNL A   1      36.494  21.698  26.071  1.00  0.00    -0.460 OA
BRANCH   6   7
ATOM      7  C   UNL A   1      35.214  22.079  26.308  1.00  0.00     0.338 C 
ATOM      8  O   UNL A   1      34.809  22.762  27.233  1.00  0.00    -0.246 OA
BRANCH   7   9
ATOM      9  C   UNL A   1      34.362  21.714  25.155  1.00  0.00     0.062 A 
ATOM     10  C   UNL A   1      33.269  19.910  23.928  1.00  0.00     0.057 A 
ATOM     11  C   UNL A   1      34.099  20.353  24.965  1.00  0.00     0.043 A 
ATOM     12  C   UNL A   1      32.709  20.870  23.067  1.00  0.00     0.064 A 
ATOM     13  C   UNL A   1      32.978  22.236  23.252  1.00  0.00     0.023 A 
ATOM     14  Cl  UNL A   1      31.651  20.440  21.769  1.00  0.00    -0.082 Cl
ATOM     15  C   UNL A   1      33.800  22.663  24.300  1.00  0.00     0.017 A 
BRANCH  10  16
ATOM     16  N   UNL A   1      33.067  18.518  23.844  1.00  0.00    -0.367 N 
ATOM     17  C   UNL A   1      32.528  17.121  25.754  1.00  0.00     0.031 C 
ATOM     18  C   UNL A   1      33.576  17.506  24.726  1.00  0.00     0.081 C 
ATOM     19  C   UNL A   1      33.728  16.582  23.514  1.00  0.00     0.046 C 
ATOM     20  C   UNL A   1      33.156  17.711  22.665  1.00  0.00     0.119 C 
ENDBRANCH  10  16
ENDBRANCH   7   9
ENDBRANCH   6   7
ENDBRANCH   5   6
ENDBRANCH   4   5
ENDBRANCH   3   4
ENDBRANCH   2   3
ENDBRANCH   1   2
BRANCH   1  21
ATOM     21  O   UNL A   1      42.217  19.663  25.310  1.00  0.00    -0.376 OA
BRANCH  21  22
ATOM     22  C   UNL A   1      43.465  20.273  25.581  1.00  0.00     0.202 C 
BRANCH  22  23
ATOM     23  C   UNL A   1      43.933  21.652  25.087  1.00  0.00     0.261 C 
BRANCH  23  24
ATOM     24  O   UNL A   1      43.044  22.755  25.248  1.00  0.00    -0.460 OA
BRANCH  24  25
ATOM     25  C   UNL A   1      43.612  23.974  25.079  1.00  0.00     0.338 C 
ATOM     26  O   UNL A   1      44.437  24.305  24.249  1.00  0.00    -0.246 OA
BRANCH  25  27
ATOM     27  C   UNL A   1      42.950  24.928  25.985  1.00  0.00     0.060 A 
ATOM     28  C   UNL A   1      43.491  26.213  26.107  1.00  0.00     0.016 A 
ATOM     29  C   UNL A   1      41.842  24.540  26.739  1.00  0.00     0.016 A 
ATOM     30  C   UNL A   1      42.938  27.113  27.016  1.00  0.00     0.010 A 
ATOM     31  C   UNL A   1      41.300  25.437  27.662  1.00  0.00     0.010 A 
ATOM     32  C   UNL A   1      41.865  26.715  27.825  1.00  0.00    -0.014 A 
BRANCH  32  33
ATOM     33  C   UNL A   1      41.449  27.569  28.961  1.00  0.00     0.031 A 
ATOM     34  C   UNL A   1      42.213  27.471  30.252  1.00  0.00     0.074 A 
ATOM     35  C   UNL A   1      40.421  28.426  28.845  1.00  0.00     0.049 A 
ATOM     36  N   UNL A   1      42.011  28.087  31.388  1.00  0.00    -0.248 NA
ATOM     37  C   UNL A   1      43.361  26.550  30.260  1.00  0.00     0.031 C 
ATOM     38  C   UNL A   1      39.628  28.639  27.637  1.00  0.00     0.029 A 
ATOM     39  N   UNL A   1      39.864  29.275  29.770  1.00  0.00    -0.354 N 
ATOM     40  C   UNL A   1      43.004  27.629  32.244  1.00  0.00     0.074 A 
ATOM     41  C   UNL A   1      43.788  26.660  31.508  1.00  0.00     0.031 C 
ATOM     42  C   UNL A   1      38.675  29.549  27.899  1.00  0.00     0.029 A 
ATOM     43  C   UNL A   1      38.774  29.960  29.298  1.00  0.00     0.049 A 
ATOM     44  H   UNL A   1      40.214  29.380  30.684  1.00  0.00     0.167 HD
ATOM     45  C   UNL A   1      43.246  27.992  33.526  1.00  0.00     0.037 A 
ATOM     46  C   UNL A   1      37.940  30.805  29.935  1.00  0.00     0.037 A 
ATOM     47  C   UNL A   1      42.461  28.947  34.259  1.00  0.00     0.049 A 
ATOM     48  C   UNL A   1      38.181  31.131  31.388  1.00  0.00     0.074 A 
ATOM     49  C   UNL A   1      42.634  29.392  35.559  1.00  0.00     0.029 A 
ATOM     50  N   UNL A   1      41.342  29.598  33.758  1.00  0.00    -0.354 N 
ATOM     51  N   UNL A   1      39.140  30.720  32.182  1.00  0.00    -0.248 NA
ATOM     52  C   UNL A   1      37.222  32.042  32.031  1.00  0.00     0.031 C 
ATOM     53  C   UNL A   1      41.591  30.275  35.860  1.00  0.00     0.029 A 
ATOM     54  C   UNL A   1      40.801  30.423  34.732  1.00  0.00     0.049 A 
ATOM     55  H   UNL A   1      40.987  29.491  32.847  1.00  0.00     0.167 HD
ATOM     56  C   UNL A   1      38.921  31.346  33.404  1.00  0.00     0.074 A 
ATOM     57  C   UNL A   1      37.742  32.171  33.244  1.00  0.00     0.031 C 
ATOM     58  C   UNL A   1      39.633  31.248  34.553  1.00  0.00     0.037 A 
BRANCH  45  59
ATOM     59  C   UNL A   1      44.396  27.329  34.223  1.00  0.00     0.064 A 
ATOM     60  C   UNL A   1      45.693  27.866  34.179  1.00  0.00     0.173 A 
ATOM     61  C   UNL A   1      44.198  26.153  34.961  1.00  0.00     0.173 A 
ATOM     62  F   UNL A   1      45.938  28.981  33.473  1.00  0.00    -0.203 F 
ATOM     63  C   UNL A   1      46.751  27.236  34.828  1.00  0.00     0.198 A 
ATOM     64  C   UNL A   1      45.254  25.542  35.632  1.00  0.00     0.198 A 
ATOM     65  F   UNL A   1      42.979  25.599  35.035  1.00  0.00    -0.203 F 
ATOM     66  F   UNL A   1      47.989  27.741  34.733  1.00  0.00    -0.200 F 
ATOM     67  C   UNL A   1      46.530  26.078  35.558  1.00  0.00     0.200 A 
ATOM     68  F   UNL A   1      45.036  24.428  36.346  1.00  0.00    -0.200 F 
ATOM     69  F   UNL A   1      47.548  25.475  36.186  1.00  0.00    -0.200 F 
ENDBRANCH  45  59
BRANCH  46  70
ATOM     70  C   UNL A   1      36.789  31.402  29.209  1.00  0.00     0.064 A 
ATOM     71  C   UNL A   1      36.778  32.761  28.868  1.00  0.00     0.173 A 
ATOM     72  C   UNL A   1      35.669  30.634  28.865  1.00  0.00     0.173 A 
ATOM     73  F   UNL A   1      37.815  33.544  29.201  1.00  0.00    -0.203 F 
ATOM     74  C   UNL A   1      35.681  33.334  28.226  1.00  0.00     0.198 A 
ATOM     75  C   UNL A   1      34.584  31.200  28.199  1.00  0.00     0.198 A 
ATOM     76  F   UNL A   1      35.627  29.329  29.175  1.00  0.00    -0.203 F 
ATOM     77  F   UNL A   1      35.676  34.646  27.956  1.00  0.00    -0.200 F 
ATOM     78  C   UNL A   1      34.588  32.551  27.887  1.00  0.00     0.200 A 
ATOM     79  F   UNL A   1      33.531  30.439  27.868  1.00  0.00    -0.200 F 
ATOM     80  F   UNL A   1      33.533  33.103  27.272  1.00  0.00    -0.200 F 
ENDBRANCH  46  70
BRANCH  58  81
ATOM     81  C   UNL A   1      39.188  32.085  35.719  1.00  0.00     0.064 A 
ATOM     82  C   UNL A   1      38.303  31.592  36.688  1.00  0.00     0.173 A 
ATOM     83  C   UNL A   1      39.695  33.383  35.892  1.00  0.00     0.173 A 
ATOM     84  F   UNL A   1      37.780  30.363  36.561  1.00  0.00    -0.203 F 
ATOM     85  C   UNL A   1      37.924  32.376  37.775  1.00  0.00     0.198 A 
ATOM     86  C   UNL A   1      39.337  34.152  36.995  1.00  0.00     0.198 A 
ATOM     87  F   UNL A   1      40.552  33.899  34.997  1.00  0.00    -0.203 F 
ATOM     88  F   UNL A   1      37.042  31.901  38.666  1.00  0.00    -0.200 F 
ATOM     89  C   UNL A   1      38.447  33.651  37.932  1.00  0.00     0.200 A 
ATOM     90  F   UNL A   1      39.855  35.378  37.152  1.00  0.00    -0.200 F 
ATOM     91  F   UNL A   1      38.087  34.400  38.984  1.00  0.00    -0.200 F 
ENDBRANCH  58  81
ENDBRANCH  32  33
ENDBRANCH  25  27
ENDBRANCH  24  25
ENDBRANCH  23  24
ENDBRANCH  22  23
ENDBRANCH  21  22
ENDBRANCH   1  21
TORSDOF 18
ENDMDL
MODEL 3
REMARK VINA RESULT:      -9.8      5.326     11.521
REMARK SMILES C[C@H]1CCN1c1cc(C(=O)OCCOCCOCCOC(=O)c2ccc(-c3c4nc(c(-c5c(F)c(F)c(F)c(F)c5F)c5ccc([nH]5)c(-c5c(F)c(F)c(F)c(F)c5F)c5nc(c(-c6c(F)c(F)c(F)c(F)c6F)c6ccc3[nH]6)C=C5)C=C4)cc2)ccc1Cl
REMARK SMILES IDX 16 1 15 2 14 3 13 4 12 5 11 6 9 7 10 8 8 9 6 10 7 11 88 12
REMARK SMILES IDX 87 13 89 14 86 15 5 16 1 17 2 18 3 19 4 20 17 21 18 22 19 23
REMARK SMILES IDX 20 24 21 25 22 26 23 27 24 28 85 29 25 30 84 31 26 32 27 33
REMARK SMILES IDX 28 34 78 35 29 36 83 37 77 38 79 39 30 40 82 41 76 42 75 43
REMARK SMILES IDX 31 45 63 46 43 47 62 48 44 49 47 50 61 51 80 52 45 53 46 54
REMARK SMILES IDX 60 56 81 57 48 58 32 59 33 60 41 61 34 62 35 63 39 64 42 65
REMARK SMILES IDX 36 66 37 67 40 68 38 69 64 70 65 71 73 72 66 73 67 74 71 75
REMARK SMILES IDX 74 76 68 77 69 78 72 79 70 80 49 81 50 82 58 83 51 84 52 85
REMARK SMILES IDX 56 86 59 87 53 88 54 89 57 90 55 91
REMARK H PARENT 79 44 47 55
REMARK Flexibility Score: inf
ROOT
ATOM      1  C   UNL A   1      41.816  21.069  26.748  1.00  0.00     0.188 C 
ENDROOT
BRANCH   1   2
ATOM      2  C   UNL A   1      40.570  21.945  26.500  1.00  0.00     0.188 C 
BRANCH   2   3
ATOM      3  O   UNL A   1      39.289  21.360  26.339  1.00  0.00    -0.376 OA
BRANCH   3   4
ATOM      4  C   UNL A   1      38.287  22.046  25.602  1.00  0.00     0.202 C 
BRANCH   4   5
ATOM      5  C   UNL A   1      37.424  21.277  24.596  1.00  0.00     0.261 C 
BRANCH   5   6
ATOM      6  O   UNL A   1      36.087  21.787  24.480  1.00  0.00    -0.460 OA
BRANCH   6   7
ATOM      7  C   UNL A   1      35.916  22.746  23.537  1.00  0.00     0.338 C 
ATOM      8  O   UNL A   1      36.717  23.089  22.684  1.00  0.00    -0.246 OA
BRANCH   7   9
ATOM      9  C   UNL A   1      34.512  23.209  23.543  1.00  0.00     0.062 A 
ATOM     10  C   UNL A   1      33.000  25.108  23.804  1.00  0.00     0.057 A 
ATOM     11  C   UNL A   1      34.290  24.563  23.817  1.00  0.00     0.043 A 
ATOM     12  C   UNL A   1      31.920  24.253  23.517  1.00  0.00     0.064 A 
ATOM     13  C   UNL A   1      32.141  22.893  23.249  1.00  0.00     0.023 A 
ATOM     14  Cl  UNL A   1      30.289  24.820  23.449  1.00  0.00    -0.082 Cl
ATOM     15  C   UNL A   1      33.436  22.368  23.255  1.00  0.00     0.017 A 
BRANCH  10  16
ATOM     16  N   UNL A   1      32.902  26.485  24.083  1.00  0.00    -0.367 N 
ATOM     17  C   UNL A   1      33.663  28.220  22.565  1.00  0.00     0.031 C 
ATOM     18  C   UNL A   1      33.905  27.491  23.875  1.00  0.00     0.081 C 
ATOM     19  C   UNL A   1      33.417  28.185  25.150  1.00  0.00     0.046 C 
ATOM     20  C   UNL A   1      32.373  27.081  25.271  1.00  0.00     0.119 C 
ENDBRANCH  10  16
ENDBRANCH   7   9
ENDBRANCH   6   7
ENDBRANCH   5   6
ENDBRANCH   4   5
ENDBRANCH   3   4
ENDBRANCH   2   3
ENDBRANCH   1   2
BRANCH   1  21
ATOM     21  O   UNL A   1      42.652  20.736  25.667  1.00  0.00    -0.376 OA
BRANCH  21  22
ATOM     22  C   UNL A   1      43.858  21.428  25.405  1.00  0.00     0.202 C 
BRANCH  22  23
ATOM     23  C   UNL A   1      44.040  22.613  24.442  1.00  0.00     0.261 C 
BRANCH  23  24
ATOM     24  O   UNL A   1      43.333  23.818  24.728  1.00  0.00    -0.460 OA
BRANCH  24  25
ATOM     25  C   UNL A   1      44.112  24.859  25.112  1.00  0.00     0.338 C 
ATOM     26  O   UNL A   1      45.202  25.178  24.677  1.00  0.00    -0.246 OA
BRANCH  25  27
ATOM     27  C   UNL A   1      43.355  25.679  26.073  1.00  0.00     0.060 A 
ATOM     28  C   UNL A   1      43.667  27.040  26.174  1.00  0.00     0.016 A 
ATOM     29  C   UNL A   1      42.387  25.100  26.895  1.00  0.00     0.016 A 
ATOM     30  C   UNL A   1      43.026  27.827  27.130  1.00  0.00     0.010 A 
ATOM     31  C   UNL A   1      41.759  25.886  27.863  1.00  0.00     0.010 A 
ATOM     32  C   UNL A   1      42.098  27.244  28.004  1.00  0.00    -0.014 A 
BRANCH  32  33
ATOM     33  C   UNL A   1      41.616  28.010  29.176  1.00  0.00     0.031 A 
ATOM     34  C   UNL A   1      42.355  27.873  30.478  1.00  0.00     0.074 A 
ATOM     35  C   UNL A   1      40.550  28.823  29.083  1.00  0.00     0.049 A 
ATOM     36  N   UNL A   1      42.098  28.412  31.642  1.00  0.00    -0.248 NA
ATOM     37  C   UNL A   1      43.546  27.009  30.462  1.00  0.00     0.031 C 
ATOM     38  C   UNL A   1      39.775  29.068  27.870  1.00  0.00     0.029 A 
ATOM     39  N   UNL A   1      39.932  29.589  30.041  1.00  0.00    -0.354 N 
ATOM     40  C   UNL A   1      43.092  27.953  32.495  1.00  0.00     0.074 A 
ATOM     41  C   UNL A   1      43.939  27.067  31.725  1.00  0.00     0.031 C 
ATOM     42  C   UNL A   1      38.773  29.915  28.159  1.00  0.00     0.029 A 
ATOM     43  C   UNL A   1      38.820  30.248  29.582  1.00  0.00     0.049 A 
ATOM     44  H   UNL A   1      40.256  29.657  30.968  1.00  0.00     0.167 HD
ATOM     45  C   UNL A   1      43.288  28.252  33.801  1.00  0.00     0.037 A 
ATOM     46  C   UNL A   1      37.932  31.014  30.245  1.00  0.00     0.037 A 
ATOM     47  C   UNL A   1      42.441  29.125  34.568  1.00  0.00     0.049 A 
ATOM     48  C   UNL A   1      38.125  31.266  31.720  1.00  0.00     0.074 A 
ATOM     49  C   UNL A   1      42.563  29.500  35.894  1.00  0.00     0.029 A 
ATOM     50  N   UNL A   1      41.304  29.749  34.077  1.00  0.00    -0.354 N 
ATOM     51  N   UNL A   1      39.085  30.856  32.513  1.00  0.00    -0.248 NA
ATOM     52  C   UNL A   1      37.109  32.092  32.389  1.00  0.00     0.031 C 
ATOM     53  C   UNL A   1      41.472  30.314  36.220  1.00  0.00     0.029 A 
ATOM     54  C   UNL A   1      40.701  30.489  35.082  1.00  0.00     0.049 A 
ATOM     55  H   UNL A   1      40.975  29.679  33.153  1.00  0.00     0.167 HD
ATOM     56  C   UNL A   1      38.809  31.398  33.762  1.00  0.00     0.074 A 
ATOM     57  C   UNL A   1      37.594  32.175  33.620  1.00  0.00     0.031 C 
ATOM     58  C   UNL A   1      39.498  31.267  34.922  1.00  0.00     0.037 A 
BRANCH  45  59
ATOM     59  C   UNL A   1      44.454  27.604  34.488  1.00  0.00     0.064 A 
ATOM     60  C   UNL A   1      44.325  26.378  35.159  1.00  0.00     0.173 A 
ATOM     61  C   UNL A   1      45.720  28.206  34.457  1.00  0.00     0.173 A 
ATOM     62  F   UNL A   1      43.131  25.770  35.230  1.00  0.00    -0.203 F 
ATOM     63  C   UNL A   1      45.416  25.792  35.795  1.00  0.00     0.198 A 
ATOM     64  C   UNL A   1      46.815  27.602  35.071  1.00  0.00     0.198 A 
ATOM     65  F   UNL A   1      45.897  29.378  33.829  1.00  0.00    -0.203 F 
ATOM     66  F   UNL A   1      45.259  24.645  36.470  1.00  0.00    -0.200 F 
ATOM     67  C   UNL A   1      46.660  26.401  35.745  1.00  0.00     0.200 A 
ATOM     68  F   UNL A   1      48.020  28.188  35.013  1.00  0.00    -0.200 F 
ATOM     69  F   UNL A   1      47.711  25.834  36.354  1.00  0.00    -0.200 F 
ENDBRANCH  45  59
BRANCH  46  70
ATOM     70  C   UNL A   1      36.770  31.597  29.526  1.00  0.00     0.064 A 
ATOM     71  C   UNL A   1      35.704  30.791  29.104  1.00  0.00     0.173 A 
ATOM     72  C   UNL A   1      36.713  32.964  29.224  1.00  0.00     0.173 A 
ATOM     73  F   UNL A   1      35.727  29.471  29.344  1.00  0.00    -0.203 F 
ATOM     74  C   UNL A   1      34.634  31.327  28.390  1.00  0.00     0.198 A 
ATOM     75  C   UNL A   1      35.630  33.506  28.535  1.00  0.00     0.198 A 
ATOM     76  F   UNL A   1      37.711  33.778  29.600  1.00  0.00    -0.203 F 
ATOM     77  F   UNL A   1      33.653  30.525  27.956  1.00  0.00    -0.200 F 
ATOM     78  C   UNL A   1      34.595  32.685  28.112  1.00  0.00     0.200 A 
ATOM     79  F   UNL A   1      35.593  34.819  28.272  1.00  0.00    -0.200 F 
ATOM     80  F   UNL A   1      33.566  33.200  27.424  1.00  0.00    -0.200 F 
ENDBRANCH  46  70
BRANCH  58  81
ATOM     81  C   UNL A   1      38.988  32.013  36.122  1.00  0.00     0.064 A 
ATOM     82  C   UNL A   1      39.315  33.358  36.351  1.00  0.00     0.173 A 
ATOM     83  C   UNL A   1      38.119  31.385  37.028  1.00  0.00     0.173 A 
ATOM     84  F   UNL A   1      40.151  33.998  35.520  1.00  0.00    -0.203 F 
ATOM     85  C   UNL A   1      38.809  34.038  37.455  1.00  0.00     0.198 A 
ATOM     86  C   UNL A   1      37.593  32.078  38.115  1.00  0.00     0.198 A 
ATOM     87  F   UNL A   1      37.769  30.102  36.851  1.00  0.00    -0.203 F 
ATOM     88  F   UNL A   1      39.170  35.310  37.678  1.00  0.00    -0.200 F 
ATOM     89  C   UNL A   1      37.943  33.401  38.331  1.00  0.00     0.200 A 
ATOM     90  F   UNL A   1      36.745  31.464  38.952  1.00  0.00    -0.200 F 
ATOM     91  F   UNL A   1      37.451  34.062  39.388  1.00  0.00    -0.200 F 
ENDBRANCH  58  81
ENDBRANCH  32  33
ENDBRANCH  25  27
ENDBRANCH  24  25
ENDBRANCH  23  24
ENDBRANCH  22  23
ENDBRANCH  21  22
ENDBRANCH   1  21
TORSDOF 18
ENDMDL
