MODEL 1
REMARK VINA RESULT:     -11.7      0.000      0.000
REMARK SMILES Cc1ccnc(C(=O)c2[nH]c3cc(Cl)c(F)cc3c2CC(=O)OCCOCCOCCOC(=O)c2ccc(-c3c4nc(c(-c5c(F)c(F)c(F)c(F)c5F)c5ccc([nH]5)c(-c5c(F)c(F)c(F)c(F)c5F)c5nc(c(-c6c(F)c(F)c(F)c(F)c6F)c6ccc3[nH]6)C=C5)C=C4)cc2)c1
REMARK SMILES IDX 27 1 26 2 25 3 24 4 23 5 21 6 22 7 20 8 19 9 9 10 10 11
REMARK SMILES IDX 11 12 18 14 12 15 17 16 13 17 15 18 14 19 16 20 7 21 8 22
REMARK SMILES IDX 6 23 1 24 2 25 3 26 98 27 4 28 5 29 28 30 29 31 30 32 31 33
REMARK SMILES IDX 32 34 33 35 34 36 35 37 36 38 97 39 37 40 96 41 38 42 39 43
REMARK SMILES IDX 40 44 90 45 41 46 95 47 89 48 91 49 42 50 94 51 88 52 87 53
REMARK SMILES IDX 43 55 75 56 55 57 74 58 56 59 59 60 73 61 92 62 57 63 58 64
REMARK SMILES IDX 72 66 93 67 60 68 44 69 45 70 53 71 46 72 47 73 51 74 54 75
REMARK SMILES IDX 48 76 49 77 52 78 50 79 76 80 77 81 85 82 78 83 79 84 83 85
REMARK SMILES IDX 86 86 80 87 81 88 84 89 82 90 61 91 62 92 70 93 63 94 64 95
REMARK SMILES IDX 68 96 71 97 65 98 66 99 69 100 67 101
REMARK H PARENT 10 13 91 54 59 65
REMARK Flexibility Score: inf
ROOT
ATOM      1  C   UNL A   1      31.769  28.938  26.177  1.00  0.00     0.188 C 
ENDROOT
BRANCH   1   2
ATOM      2  O   UNL A   1      32.459  28.141  25.183  1.00  0.00    -0.376 OA
BRANCH   2   3
ATOM      3  C   UNL A   1      33.290  27.076  25.779  1.00  0.00     0.202 C 
BRANCH   3   4
ATOM      4  C   UNL A   1      32.468  26.057  26.579  1.00  0.00     0.261 C 
BRANCH   4   5
ATOM      5  O   UNL A   1      31.795  25.215  25.622  1.00  0.00    -0.463 OA
BRANCH   5   6
ATOM      6  C   UNL A   1      30.471  25.426  25.530  1.00  0.00     0.310 C 
ATOM      7  O   UNL A   1      29.760  25.672  26.497  1.00  0.00    -0.252 OA
BRANCH   6   8
ATOM      8  C   UNL A   1      29.942  25.494  24.133  1.00  0.00     0.161 C 
BRANCH   8   9
ATOM      9  C   UNL A   1      30.382  26.520  23.132  1.00  0.00     0.000 A 
ATOM     10  C   UNL A   1      31.618  26.578  22.484  1.00  0.00     0.093 A 
ATOM     11  N   UNL A   1      31.718  27.924  22.081  1.00  0.00    -0.351 N 
ATOM     12  C   UNL A   1      30.569  28.634  22.213  1.00  0.00     0.048 A 
ATOM     13  H   UNL A   1      32.551  28.316  21.731  1.00  0.00     0.167 HD
ATOM     14  C   UNL A   1      29.691  27.787  22.875  1.00  0.00     0.007 A 
ATOM     15  C   UNL A   1      30.285  29.962  21.844  1.00  0.00     0.050 A 
ATOM     16  C   UNL A   1      28.433  28.328  23.217  1.00  0.00     0.051 A 
ATOM     17  C   UNL A   1      29.021  30.453  22.165  1.00  0.00     0.078 A 
ATOM     18  C   UNL A   1      28.115  29.647  22.845  1.00  0.00     0.142 A 
ATOM     19  Cl  UNL A   1      28.609  32.068  21.720  1.00  0.00    -0.081 Cl
ATOM     20  F   UNL A   1      26.906  30.125  23.175  1.00  0.00    -0.205 F 
BRANCH  10  21
ATOM     21  C   UNL A   1      32.834  25.783  22.174  1.00  0.00     0.227 C 
ATOM     22  O   UNL A   1      33.254  26.209  21.105  1.00  0.00    -0.285 OA
BRANCH  21  23
ATOM     23  C   UNL A   1      33.586  24.482  22.666  1.00  0.00     0.113 A 
ATOM     24  C   UNL A   1      36.332  23.503  25.186  1.00  0.00     0.044 C 
ATOM     25  C   UNL A   1      35.111  23.357  24.315  1.00  0.00    -0.047 A 
ATOM     26  C   UNL A   1      34.361  22.215  24.235  1.00  0.00     0.023 A 
ATOM     27  C   UNL A   1      34.655  24.464  23.576  1.00  0.00     0.036 A 
ATOM     28  C   UNL A   1      33.282  22.253  23.363  1.00  0.00     0.112 A 
ATOM     29  N   UNL A   1      32.909  23.317  22.569  1.00  0.00    -0.253 NA
ENDBRANCH  21  23
ENDBRANCH  10  21
ENDBRANCH   8   9
ENDBRANCH   6   8
ENDBRANCH   5   6
ENDBRANCH   4   5
ENDBRANCH   3   4
ENDBRANCH   2   3
ENDBRANCH   1   2
BRANCH   1  30
ATOM     30  C   UNL A   1      32.252  30.416  26.613  1.00  0.00     0.188 C 
BRANCH  30  31
ATOM     31  O   UNL A   1      33.287  30.523  27.647  1.00  0.00    -0.376 OA
BRANCH  31  32
ATOM     32  C   UNL A   1      34.314  31.549  27.616  1.00  0.00     0.202 C 
BRANCH  32  33
ATOM     33  C   UNL A   1      34.060  32.854  28.571  1.00  0.00     0.261 C 
BRANCH  33  34
ATOM     34  O   UNL A   1      35.000  33.197  29.681  1.00  0.00    -0.460 OA
BRANCH  34  35
ATOM     35  C   UNL A   1      35.346  32.275  30.661  1.00  0.00     0.338 C 
ATOM     36  O   UNL A   1      34.672  32.054  31.659  1.00  0.00    -0.246 OA
BRANCH  35  37
ATOM     37  C   UNL A   1      36.493  31.317  30.257  1.00  0.00     0.060 A 
ATOM     38  C   UNL A   1      36.402  29.927  30.278  1.00  0.00     0.016 A 
ATOM     39  C   UNL A   1      37.798  31.858  30.148  1.00  0.00     0.016 A 
ATOM     40  C   UNL A   1      37.577  29.126  30.391  1.00  0.00     0.010 A 
ATOM     41  C   UNL A   1      38.968  31.056  30.268  1.00  0.00     0.010 A 
ATOM     42  C   UNL A   1      38.879  29.676  30.452  1.00  0.00    -0.014 A 
BRANCH  42  43
ATOM     43  C   UNL A   1      40.061  28.746  30.478  1.00  0.00     0.031 A 
ATOM     44  C   UNL A   1      40.645  28.611  31.829  1.00  0.00     0.074 A 
ATOM     45  C   UNL A   1      40.619  27.910  29.555  1.00  0.00     0.049 A 
ATOM     46  N   UNL A   1      41.835  28.939  32.211  1.00  0.00    -0.248 NA
ATOM     47  C   UNL A   1      39.772  28.092  32.889  1.00  0.00     0.031 C 
ATOM     48  C   UNL A   1      40.095  27.643  28.228  1.00  0.00     0.029 A 
ATOM     49  N   UNL A   1      41.744  27.081  29.600  1.00  0.00    -0.354 N 
ATOM     50  C   UNL A   1      41.931  28.478  33.513  1.00  0.00     0.074 A 
ATOM     51  C   UNL A   1      40.604  28.100  33.931  1.00  0.00     0.031 C 
ATOM     52  C   UNL A   1      40.806  26.666  27.624  1.00  0.00     0.029 A 
ATOM     53  C   UNL A   1      41.883  26.229  28.497  1.00  0.00     0.049 A 
ATOM     54  H   UNL A   1      42.386  27.095  30.346  1.00  0.00     0.167 HD
ATOM     55  C   UNL A   1      43.136  28.162  34.047  1.00  0.00     0.037 A 
ATOM     56  C   UNL A   1      42.786  25.240  28.230  1.00  0.00     0.037 A 
ATOM     57  C   UNL A   1      44.240  28.723  33.320  1.00  0.00     0.049 A 
ATOM     58  C   UNL A   1      44.043  25.519  28.959  1.00  0.00     0.074 A 
ATOM     59  C   UNL A   1      44.783  29.977  33.143  1.00  0.00     0.029 A 
ATOM     60  N   UNL A   1      44.793  27.906  32.377  1.00  0.00    -0.354 N 
ATOM     61  N   UNL A   1      44.869  26.474  28.636  1.00  0.00    -0.248 NA
ATOM     62  C   UNL A   1      44.349  24.822  30.206  1.00  0.00     0.031 C 
ATOM     63  C   UNL A   1      45.582  29.914  31.965  1.00  0.00     0.029 A 
ATOM     64  C   UNL A   1      45.496  28.626  31.446  1.00  0.00     0.049 A 
ATOM     65  H   UNL A   1      44.698  26.926  32.366  1.00  0.00     0.167 HD
ATOM     66  C   UNL A   1      45.499  26.782  29.821  1.00  0.00     0.074 A 
ATOM     67  C   UNL A   1      45.295  25.632  30.685  1.00  0.00     0.031 C 
ATOM     68  C   UNL A   1      45.759  28.080  30.133  1.00  0.00     0.037 A 
BRANCH  55  69
ATOM     69  C   UNL A   1      43.323  26.983  34.960  1.00  0.00     0.064 A 
ATOM     70  C   UNL A   1      43.763  27.186  36.278  1.00  0.00     0.173 A 
ATOM     71  C   UNL A   1      43.367  25.653  34.487  1.00  0.00     0.173 A 
ATOM     72  F   UNL A   1      43.825  28.424  36.790  1.00  0.00    -0.203 F 
ATOM     73  C   UNL A   1      44.222  26.128  37.065  1.00  0.00     0.198 A 
ATOM     74  C   UNL A   1      43.768  24.593  35.294  1.00  0.00     0.198 A 
ATOM     75  F   UNL A   1      43.136  25.356  33.200  1.00  0.00    -0.203 F 
ATOM     76  F   UNL A   1      44.727  26.373  38.281  1.00  0.00    -0.200 F 
ATOM     77  C   UNL A   1      44.214  24.831  36.576  1.00  0.00     0.200 A 
ATOM     78  F   UNL A   1      43.790  23.350  34.789  1.00  0.00    -0.200 F 
ATOM     79  F   UNL A   1      44.687  23.823  37.318  1.00  0.00    -0.200 F 
ENDBRANCH  55  69
BRANCH  56  80
ATOM     80  C   UNL A   1      42.684  24.041  27.332  1.00  0.00     0.064 A 
ATOM     81  C   UNL A   1      43.160  24.051  26.002  1.00  0.00     0.173 A 
ATOM     82  C   UNL A   1      42.335  22.772  27.835  1.00  0.00     0.173 A 
ATOM     83  F   UNL A   1      43.557  25.196  25.427  1.00  0.00    -0.203 F 
ATOM     84  C   UNL A   1      43.303  22.876  25.248  1.00  0.00     0.198 A 
ATOM     85  C   UNL A   1      42.463  21.602  27.077  1.00  0.00     0.198 A 
ATOM     86  F   UNL A   1      41.934  22.626  29.105  1.00  0.00    -0.203 F 
ATOM     87  F   UNL A   1      43.821  22.931  24.012  1.00  0.00    -0.200 F 
ATOM     88  C   UNL A   1      42.964  21.651  25.791  1.00  0.00     0.200 A 
ATOM     89  F   UNL A   1      42.152  20.419  27.625  1.00  0.00    -0.200 F 
ATOM     90  F   UNL A   1      43.158  20.521  25.096  1.00  0.00    -0.200 F 
ENDBRANCH  56  80
BRANCH  68  91
ATOM     91  C   UNL A   1      46.115  29.014  29.022  1.00  0.00     0.064 A 
ATOM     92  C   UNL A   1      47.403  29.182  28.488  1.00  0.00     0.173 A 
ATOM     93  C   UNL A   1      45.061  29.715  28.413  1.00  0.00     0.173 A 
ATOM     94  F   UNL A   1      48.447  28.490  28.966  1.00  0.00    -0.203 F 
ATOM     95  C   UNL A   1      47.616  30.040  27.407  1.00  0.00     0.198 A 
ATOM     96  C   UNL A   1      45.276  30.541  27.316  1.00  0.00     0.198 A 
ATOM     97  F   UNL A   1      43.805  29.561  28.860  1.00  0.00    -0.203 F 
ATOM     98  F   UNL A   1      48.842  30.190  26.891  1.00  0.00    -0.200 F 
ATOM     99  C   UNL A   1      46.555  30.711  26.819  1.00  0.00     0.200 A 
ATOM    100  F   UNL A   1      44.238  31.149  26.723  1.00  0.00    -0.200 F 
ATOM    101  F   UNL A   1      46.763  31.498  25.753  1.00  0.00    -0.200 F 
ENDBRANCH  68  91
ENDBRANCH  42  43
ENDBRANCH  35  37
ENDBRANCH  34  35
ENDBRANCH  33  34
ENDBRANCH  32  33
ENDBRANCH  31  32
ENDBRANCH  30  31
ENDBRANCH   1  30
TORSDOF 20
ENDMDL
MODEL 2
REMARK VINA RESULT:     -11.7      3.181      8.585
REMARK SMILES Cc1ccnc(C(=O)c2[nH]c3cc(Cl)c(F)cc3c2CC(=O)OCCOCCOCCOC(=O)c2ccc(-c3c4nc(c(-c5c(F)c(F)c(F)c(F)c5F)c5ccc([nH]5)c(-c5c(F)c(F)c(F)c(F)c5F)c5nc(c(-c6c(F)c(F)c(F)c(F)c6F)c6ccc3[nH]6)C=C5)C=C4)cc2)c1
REMARK SMILES IDX 27 1 26 2 25 3 24 4 23 5 21 6 22 7 20 8 19 9 9 10 10 11
REMARK SMILES IDX 11 12 18 14 12 15 17 16 13 17 15 18 14 19 16 20 7 21 8 22
REMARK SMILES IDX 6 23 1 24 2 25 3 26 98 27 4 28 5 29 28 30 29 31 30 32 31 33
REMARK SMILES IDX 32 34 33 35 34 36 35 37 36 38 97 39 37 40 96 41 38 42 39 43
REMARK SMILES IDX 40 44 90 45 41 46 95 47 89 48 91 49 42 50 94 51 88 52 87 53
REMARK SMILES IDX 43 55 75 56 55 57 74 58 56 59 59 60 73 61 92 62 57 63 58 64
REMARK SMILES IDX 72 66 93 67 60 68 44 69 45 70 53 71 46 72 47 73 51 74 54 75
REMARK SMILES IDX 48 76 49 77 52 78 50 79 76 80 77 81 85 82 78 83 79 84 83 85
REMARK SMILES IDX 86 86 80 87 81 88 84 89 82 90 61 91 62 92 70 93 63 94 64 95
REMARK SMILES IDX 68 96 71 97 65 98 66 99 69 100 67 101
REMARK H PARENT 10 13 91 54 59 65
REMARK Flexibility Score: inf
ROOT
ATOM      1  C   UNL A   1      33.527  23.130  24.728  1.00  0.00     0.188 C 
ENDROOT
BRANCH   1   2
ATOM      2  O   UNL A   1      32.724  22.150  25.432  1.00  0.00    -0.376 OA
BRANCH   2   3
ATOM      3  C   UNL A   1      31.284  22.475  25.420  1.00  0.00     0.202 C 
BRANCH   3   4
ATOM      4  C   UNL A   1      30.820  23.165  26.710  1.00  0.00     0.261 C 
BRANCH   4   5
ATOM      5  O   UNL A   1      31.418  24.476  26.725  1.00  0.00    -0.463 OA
BRANCH   5   6
ATOM      6  C   UNL A   1      30.694  25.424  26.106  1.00  0.00     0.310 C 
ATOM      7  O   UNL A   1      29.616  25.828  26.525  1.00  0.00    -0.252 OA
BRANCH   6   8
ATOM      8  C   UNL A   1      31.372  26.071  24.942  1.00  0.00     0.161 C 
BRANCH   8   9
ATOM      9  C   UNL A   1      31.474  27.557  24.765  1.00  0.00     0.000 A 
ATOM     10  C   UNL A   1      32.354  28.418  25.426  1.00  0.00     0.093 A 
ATOM     11  N   UNL A   1      31.734  29.677  25.311  1.00  0.00    -0.351 N 
ATOM     12  C   UNL A   1      30.686  29.709  24.450  1.00  0.00     0.048 A 
ATOM     13  H   UNL A   1      32.037  30.470  25.812  1.00  0.00     0.167 HD
ATOM     14  C   UNL A   1      30.482  28.387  24.076  1.00  0.00     0.007 A 
ATOM     15  C   UNL A   1      29.895  30.796  24.035  1.00  0.00     0.050 A 
ATOM     16  C   UNL A   1      29.375  28.135  23.237  1.00  0.00     0.051 A 
ATOM     17  C   UNL A   1      28.831  30.516  23.180  1.00  0.00     0.078 A 
ATOM     18  C   UNL A   1      28.577  29.205  22.794  1.00  0.00     0.142 A 
ATOM     19  Cl  UNL A   1      27.837  31.811  22.622  1.00  0.00    -0.081 Cl
ATOM     20  F   UNL A   1      27.539  28.930  21.988  1.00  0.00    -0.205 F 
BRANCH  10  21
ATOM     21  C   UNL A   1      33.595  28.449  26.242  1.00  0.00     0.227 C 
ATOM     22  O   UNL A   1      33.983  27.290  26.315  1.00  0.00    -0.285 OA
BRANCH  21  23
ATOM     23  C   UNL A   1      34.402  29.438  27.176  1.00  0.00     0.113 A 
ATOM     24  C   UNL A   1      38.052  30.104  28.219  1.00  0.00     0.044 C 
ATOM     25  C   UNL A   1      36.600  30.389  27.932  1.00  0.00    -0.047 A 
ATOM     26  C   UNL A   1      36.021  31.621  28.075  1.00  0.00     0.023 A 
ATOM     27  C   UNL A   1      35.782  29.363  27.427  1.00  0.00     0.036 A 
ATOM     28  C   UNL A   1      34.666  31.697  27.787  1.00  0.00     0.112 A 
ATOM     29  N   UNL A   1      33.856  30.654  27.389  1.00  0.00    -0.253 NA
ENDBRANCH  21  23
ENDBRANCH  10  21
ENDBRANCH   8   9
ENDBRANCH   6   8
ENDBRANCH   5   6
ENDBRANCH   4   5
ENDBRANCH   3   4
ENDBRANCH   2   3
ENDBRANCH   1   2
BRANCH   1  30
ATOM     30  C   UNL A   1      34.402  22.774  23.418  1.00  0.00     0.188 C 
BRANCH  30  31
ATOM     31  O   UNL A   1      35.761  22.260  23.618  1.00  0.00    -0.376 OA
BRANCH  31  32
ATOM     32  C   UNL A   1      36.117  21.420  24.748  1.00  0.00     0.202 C 
BRANCH  32  33
ATOM     33  C   UNL A   1      37.701  21.398  25.160  1.00  0.00     0.261 C 
BRANCH  33  34
ATOM     34  O   UNL A   1      38.269  22.405  26.106  1.00  0.00    -0.460 OA
BRANCH  34  35
ATOM     35  C   UNL A   1      39.619  22.426  26.432  1.00  0.00     0.338 C 
ATOM     36  O   UNL A   1      40.402  21.527  26.156  1.00  0.00    -0.246 OA
BRANCH  35  37
ATOM     37  C   UNL A   1      40.140  23.807  26.902  1.00  0.00     0.060 A 
ATOM     38  C   UNL A   1      41.312  24.001  27.629  1.00  0.00     0.016 A 
ATOM     39  C   UNL A   1      39.240  24.900  26.860  1.00  0.00     0.016 A 
ATOM     40  C   UNL A   1      41.477  25.161  28.441  1.00  0.00     0.010 A 
ATOM     41  C   UNL A   1      39.404  26.054  27.678  1.00  0.00     0.010 A 
ATOM     42  C   UNL A   1      40.500  26.181  28.532  1.00  0.00    -0.014 A 
BRANCH  42  43
ATOM     43  C   UNL A   1      40.804  27.410  29.345  1.00  0.00     0.031 A 
ATOM     44  C   UNL A   1      41.976  28.151  28.832  1.00  0.00     0.074 A 
ATOM     45  C   UNL A   1      40.156  28.046  30.363  1.00  0.00     0.049 A 
ATOM     46  N   UNL A   1      43.093  28.377  29.438  1.00  0.00    -0.248 NA
ATOM     47  C   UNL A   1      41.900  28.656  27.455  1.00  0.00     0.031 C 
ATOM     48  C   UNL A   1      38.852  27.690  30.892  1.00  0.00     0.029 A 
ATOM     49  N   UNL A   1      40.486  29.172  31.125  1.00  0.00    -0.354 N 
ATOM     50  C   UNL A   1      43.789  29.230  28.597  1.00  0.00     0.074 A 
ATOM     51  C   UNL A   1      43.085  29.255  27.339  1.00  0.00     0.031 C 
ATOM     52  C   UNL A   1      38.441  28.604  31.797  1.00  0.00     0.029 A 
ATOM     53  C   UNL A   1      39.460  29.628  31.964  1.00  0.00     0.049 A 
ATOM     54  H   UNL A   1      41.367  29.609  31.075  1.00  0.00     0.167 HD
ATOM     55  C   UNL A   1      44.720  30.081  29.093  1.00  0.00     0.037 A 
ATOM     56  C   UNL A   1      39.378  30.722  32.775  1.00  0.00     0.037 A 
ATOM     57  C   UNL A   1      45.171  29.721  30.408  1.00  0.00     0.049 A 
ATOM     58  C   UNL A   1      40.741  31.124  33.189  1.00  0.00     0.074 A 
ATOM     59  C   UNL A   1      45.959  28.733  30.955  1.00  0.00     0.029 A 
ATOM     60  N   UNL A   1      44.516  30.334  31.436  1.00  0.00    -0.354 N 
ATOM     61  N   UNL A   1      41.468  30.450  34.034  1.00  0.00    -0.248 NA
ATOM     62  C   UNL A   1      41.418  32.239  32.532  1.00  0.00     0.031 C 
ATOM     63  C   UNL A   1      45.645  28.683  32.345  1.00  0.00     0.029 A 
ATOM     64  C   UNL A   1      44.664  29.634  32.607  1.00  0.00     0.049 A 
ATOM     65  H   UNL A   1      44.002  31.169  31.349  1.00  0.00     0.167 HD
ATOM     66  C   UNL A   1      42.762  30.760  33.681  1.00  0.00     0.074 A 
ATOM     67  C   UNL A   1      42.674  31.986  32.907  1.00  0.00     0.031 C 
ATOM     68  C   UNL A   1      43.718  29.793  33.689  1.00  0.00     0.037 A 
BRANCH  55  69
ATOM     69  C   UNL A   1      44.887  31.479  28.567  1.00  0.00     0.064 A 
ATOM     70  C   UNL A   1      43.851  32.413  28.731  1.00  0.00     0.173 A 
ATOM     71  C   UNL A   1      45.905  31.833  27.655  1.00  0.00     0.173 A 
ATOM     72  F   UNL A   1      42.803  32.134  29.520  1.00  0.00    -0.203 F 
ATOM     73  C   UNL A   1      43.835  33.616  28.022  1.00  0.00     0.198 A 
ATOM     74  C   UNL A   1      45.917  33.058  26.996  1.00  0.00     0.198 A 
ATOM     75  F   UNL A   1      46.854  30.960  27.285  1.00  0.00    -0.203 F 
ATOM     76  F   UNL A   1      42.782  34.437  28.128  1.00  0.00    -0.200 F 
ATOM     77  C   UNL A   1      44.873  33.942  27.164  1.00  0.00     0.200 A 
ATOM     78  F   UNL A   1      46.911  33.339  26.140  1.00  0.00    -0.200 F 
ATOM     79  F   UNL A   1      44.839  35.079  26.459  1.00  0.00    -0.200 F 
ENDBRANCH  55  69
BRANCH  56  80
ATOM     80  C   UNL A   1      38.182  31.470  33.288  1.00  0.00     0.064 A 
ATOM     81  C   UNL A   1      38.054  31.850  34.644  1.00  0.00     0.173 A 
ATOM     82  C   UNL A   1      37.242  32.046  32.412  1.00  0.00     0.173 A 
ATOM     83  F   UNL A   1      38.914  31.393  35.565  1.00  0.00    -0.203 F 
ATOM     84  C   UNL A   1      37.078  32.759  35.077  1.00  0.00     0.198 A 
ATOM     85  C   UNL A   1      36.259  32.943  32.848  1.00  0.00     0.198 A 
ATOM     86  F   UNL A   1      37.303  31.815  31.094  1.00  0.00    -0.203 F 
ATOM     87  F   UNL A   1      37.038  33.139  36.364  1.00  0.00    -0.200 F 
ATOM     88  C   UNL A   1      36.188  33.314  34.177  1.00  0.00     0.200 A 
ATOM     89  F   UNL A   1      35.417  33.489  31.959  1.00  0.00    -0.200 F 
ATOM     90  F   UNL A   1      35.295  34.230  34.577  1.00  0.00    -0.200 F 
ENDBRANCH  56  80
BRANCH  68  91
ATOM     91  C   UNL A   1      43.637  28.731  34.737  1.00  0.00     0.064 A 
ATOM     92  C   UNL A   1      44.208  28.813  36.016  1.00  0.00     0.173 A 
ATOM     93  C   UNL A   1      42.859  27.599  34.443  1.00  0.00     0.173 A 
ATOM     94  F   UNL A   1      44.901  29.896  36.398  1.00  0.00    -0.203 F 
ATOM     95  C   UNL A   1      44.022  27.786  36.944  1.00  0.00     0.198 A 
ATOM     96  C   UNL A   1      42.650  26.596  35.383  1.00  0.00     0.198 A 
ATOM     97  F   UNL A   1      42.259  27.488  33.247  1.00  0.00    -0.203 F 
ATOM     98  F   UNL A   1      44.557  27.872  38.168  1.00  0.00    -0.200 F 
ATOM     99  C   UNL A   1      43.240  26.686  36.630  1.00  0.00     0.200 A 
ATOM    100  F   UNL A   1      41.853  25.559  35.088  1.00  0.00    -0.200 F 
ATOM    101  F   UNL A   1      43.030  25.726  37.542  1.00  0.00    -0.200 F 
ENDBRANCH  68  91
ENDBRANCH  42  43
ENDBRANCH  35  37
ENDBRANCH  34  35
ENDBRANCH  33  34
ENDBRANCH  32  33
ENDBRANCH  31  32
ENDBRANCH  30  31
ENDBRANCH   1  30
TORSDOF 20
ENDMDL
MODEL 3
REMARK VINA RESULT:     -11.6      3.086      4.855
REMARK SMILES Cc1ccnc(C(=O)c2[nH]c3cc(Cl)c(F)cc3c2CC(=O)OCCOCCOCCOC(=O)c2ccc(-c3c4nc(c(-c5c(F)c(F)c(F)c(F)c5F)c5ccc([nH]5)c(-c5c(F)c(F)c(F)c(F)c5F)c5nc(c(-c6c(F)c(F)c(F)c(F)c6F)c6ccc3[nH]6)C=C5)C=C4)cc2)c1
REMARK SMILES IDX 27 1 26 2 25 3 24 4 23 5 21 6 22 7 20 8 19 9 9 10 10 11
REMARK SMILES IDX 11 12 18 14 12 15 17 16 13 17 15 18 14 19 16 20 7 21 8 22
REMARK SMILES IDX 6 23 1 24 2 25 3 26 98 27 4 28 5 29 28 30 29 31 30 32 31 33
REMARK SMILES IDX 32 34 33 35 34 36 35 37 36 38 97 39 37 40 96 41 38 42 39 43
REMARK SMILES IDX 40 44 90 45 41 46 95 47 89 48 91 49 42 50 94 51 88 52 87 53
REMARK SMILES IDX 43 55 75 56 55 57 74 58 56 59 59 60 73 61 92 62 57 63 58 64
REMARK SMILES IDX 72 66 93 67 60 68 44 69 45 70 53 71 46 72 47 73 51 74 54 75
REMARK SMILES IDX 48 76 49 77 52 78 50 79 76 80 77 81 85 82 78 83 79 84 83 85
REMARK SMILES IDX 86 86 80 87 81 88 84 89 82 90 61 91 62 92 70 93 63 94 64 95
REMARK SMILES IDX 68 96 71 97 65 98 66 99 69 100 67 101
REMARK H PARENT 10 13 91 54 59 65
REMARK Flexibility Score: inf
ROOT
ATOM      1  C   UNL A   1      31.873  27.157  26.223  1.00  0.00     0.188 C 
ENDROOT
BRANCH   1   2
ATOM      2  O   UNL A   1      31.759  25.738  26.495  1.00  0.00    -0.376 OA
BRANCH   2   3
ATOM      3  C   UNL A   1      30.476  25.169  26.036  1.00  0.00     0.202 C 
BRANCH   3   4
ATOM      4  C   UNL A   1      30.645  24.200  24.858  1.00  0.00     0.261 C 
BRANCH   4   5
ATOM      5  O   UNL A   1      32.061  24.042  24.642  1.00  0.00    -0.463 OA
BRANCH   5   6
ATOM      6  C   UNL A   1      32.426  24.021  23.348  1.00  0.00     0.310 C 
ATOM      7  O   UNL A   1      31.948  24.766  22.502  1.00  0.00    -0.252 OA
BRANCH   6   8
ATOM      8  C   UNL A   1      33.579  23.121  23.038  1.00  0.00     0.161 C 
BRANCH   8   9
ATOM      9  C   UNL A   1      34.061  22.045  23.964  1.00  0.00     0.000 A 
ATOM     10  C   UNL A   1      35.169  22.108  24.813  1.00  0.00     0.093 A 
ATOM     11  N   UNL A   1      35.481  20.756  25.053  1.00  0.00    -0.351 N 
ATOM     12  C   UNL A   1      34.537  19.880  24.625  1.00  0.00     0.048 A 
ATOM     13  H   UNL A   1      36.313  20.470  25.496  1.00  0.00     0.167 HD
ATOM     14  C   UNL A   1      33.615  20.649  23.928  1.00  0.00     0.007 A 
ATOM     15  C   UNL A   1      34.479  18.481  24.766  1.00  0.00     0.050 A 
ATOM     16  C   UNL A   1      32.563  19.951  23.298  1.00  0.00     0.051 A 
ATOM     17  C   UNL A   1      33.408  17.827  24.160  1.00  0.00     0.078 A 
ATOM     18  C   UNL A   1      32.470  18.554  23.435  1.00  0.00     0.142 A 
ATOM     19  Cl  UNL A   1      33.273  16.114  24.315  1.00  0.00    -0.081 Cl
ATOM     20  F   UNL A   1      31.450  17.923  22.833  1.00  0.00    -0.205 F 
BRANCH  10  21
ATOM     21  C   UNL A   1      36.133  23.050  25.437  1.00  0.00     0.227 C 
ATOM     22  O   UNL A   1      35.564  24.134  25.488  1.00  0.00    -0.285 OA
BRANCH  21  23
ATOM     23  C   UNL A   1      37.663  23.129  25.832  1.00  0.00     0.113 A 
ATOM     24  C   UNL A   1      39.945  25.158  28.183  1.00  0.00     0.044 C 
ATOM     25  C   UNL A   1      39.461  23.994  27.357  1.00  0.00    -0.047 A 
ATOM     26  C   UNL A   1      40.127  22.802  27.253  1.00  0.00     0.023 A 
ATOM     27  C   UNL A   1      38.225  24.085  26.694  1.00  0.00     0.036 A 
ATOM     28  C   UNL A   1      39.546  21.847  26.431  1.00  0.00     0.112 A 
ATOM     29  N   UNL A   1      38.381  21.992  25.707  1.00  0.00    -0.253 NA
ENDBRANCH  21  23
ENDBRANCH  10  21
ENDBRANCH   8   9
ENDBRANCH   6   8
ENDBRANCH   5   6
ENDBRANCH   4   5
ENDBRANCH   3   4
ENDBRANCH   2   3
ENDBRANCH   1   2
BRANCH   1  30
ATOM     30  C   UNL A   1      32.329  27.744  24.789  1.00  0.00     0.188 C 
BRANCH  30  31
ATOM     31  O   UNL A   1      32.324  29.200  24.609  1.00  0.00    -0.376 OA
BRANCH  31  32
ATOM     32  C   UNL A   1      31.612  30.092  25.508  1.00  0.00     0.202 C 
BRANCH  32  33
ATOM     33  C   UNL A   1      32.438  30.593  26.830  1.00  0.00     0.261 C 
BRANCH  33  34
ATOM     34  O   UNL A   1      33.927  30.484  26.901  1.00  0.00    -0.460 OA
BRANCH  34  35
ATOM     35  C   UNL A   1      34.695  31.387  27.624  1.00  0.00     0.338 C 
ATOM     36  O   UNL A   1      34.308  32.501  27.955  1.00  0.00    -0.246 OA
BRANCH  35  37
ATOM     37  C   UNL A   1      35.971  30.777  28.254  1.00  0.00     0.060 A 
ATOM     38  C   UNL A   1      36.994  31.521  28.837  1.00  0.00     0.016 A 
ATOM     39  C   UNL A   1      36.268  29.423  27.962  1.00  0.00     0.016 A 
ATOM     40  C   UNL A   1      38.313  30.988  28.933  1.00  0.00     0.010 A 
ATOM     41  C   UNL A   1      37.588  28.896  28.052  1.00  0.00     0.010 A 
ATOM     42  C   UNL A   1      38.652  29.688  28.485  1.00  0.00    -0.014 A 
BRANCH  42  43
ATOM     43  C   UNL A   1      40.050  29.181  28.713  1.00  0.00     0.031 A 
ATOM     44  C   UNL A   1      40.422  29.175  30.143  1.00  0.00     0.074 A 
ATOM     45  C   UNL A   1      40.985  28.611  27.900  1.00  0.00     0.049 A 
ATOM     46  N   UNL A   1      41.367  29.845  30.715  1.00  0.00    -0.248 NA
ATOM     47  C   UNL A   1      39.606  28.356  31.047  1.00  0.00     0.031 C 
ATOM     48  C   UNL A   1      40.793  28.254  26.506  1.00  0.00     0.029 A 
ATOM     49  N   UNL A   1      42.295  28.181  28.137  1.00  0.00    -0.354 N 
ATOM     50  C   UNL A   1      41.398  29.378  32.018  1.00  0.00     0.074 A 
ATOM     51  C   UNL A   1      40.214  28.578  32.212  1.00  0.00     0.031 C 
ATOM     52  C   UNL A   1      41.867  27.583  26.036  1.00  0.00     0.029 A 
ATOM     53  C   UNL A   1      42.874  27.470  27.078  1.00  0.00     0.049 A 
ATOM     54  H   UNL A   1      42.771  28.363  28.979  1.00  0.00     0.167 HD
ATOM     55  C   UNL A   1      42.540  29.436  32.746  1.00  0.00     0.037 A 
ATOM     56  C   UNL A   1      44.077  26.833  26.970  1.00  0.00     0.037 A 
ATOM     57  C   UNL A   1      43.506  30.353  32.209  1.00  0.00     0.049 A 
ATOM     58  C   UNL A   1      45.044  27.462  27.896  1.00  0.00     0.074 A 
ATOM     59  C   UNL A   1      43.638  31.720  32.117  1.00  0.00     0.029 A 
ATOM     60  N   UNL A   1      44.434  29.798  31.376  1.00  0.00    -0.354 N 
ATOM     61  N   UNL A   1      45.561  28.644  27.709  1.00  0.00    -0.248 NA
ATOM     62  C   UNL A   1      45.355  26.840  29.180  1.00  0.00     0.031 C 
ATOM     63  C   UNL A   1      44.592  31.970  31.088  1.00  0.00     0.029 A 
ATOM     64  C   UNL A   1      45.008  30.748  30.570  1.00  0.00     0.049 A 
ATOM     65  H   UNL A   1      44.662  28.841  31.356  1.00  0.00     0.167 HD
ATOM     66  C   UNL A   1      45.861  29.080  28.980  1.00  0.00     0.074 A 
ATOM     67  C   UNL A   1      45.902  27.885  29.806  1.00  0.00     0.031 C 
ATOM     68  C   UNL A   1      45.638  30.377  29.322  1.00  0.00     0.037 A 
BRANCH  55  69
ATOM     69  C   UNL A   1      42.947  28.335  33.685  1.00  0.00     0.064 A 
ATOM     70  C   UNL A   1      43.172  28.624  35.041  1.00  0.00     0.173 A 
ATOM     71  C   UNL A   1      43.406  27.079  33.232  1.00  0.00     0.173 A 
ATOM     72  F   UNL A   1      42.836  29.821  35.545  1.00  0.00    -0.203 F 
ATOM     73  C   UNL A   1      43.820  27.718  35.882  1.00  0.00     0.198 A 
ATOM     74  C   UNL A   1      43.997  26.154  34.087  1.00  0.00     0.198 A 
ATOM     75  F   UNL A   1      43.404  26.756  31.930  1.00  0.00    -0.203 F 
ATOM     76  F   UNL A   1      44.106  28.067  37.143  1.00  0.00    -0.200 F 
ATOM     77  C   UNL A   1      44.222  26.479  35.407  1.00  0.00     0.200 A 
ATOM     78  F   UNL A   1      44.415  24.976  33.599  1.00  0.00    -0.200 F 
ATOM     79  F   UNL A   1      44.874  25.625  36.205  1.00  0.00    -0.200 F 
ENDBRANCH  55  69
BRANCH  56  80
ATOM     80  C   UNL A   1      44.509  25.708  26.076  1.00  0.00     0.064 A 
ATOM     81  C   UNL A   1      45.695  25.766  25.308  1.00  0.00     0.173 A 
ATOM     82  C   UNL A   1      43.895  24.441  26.136  1.00  0.00     0.173 A 
ATOM     83  F   UNL A   1      46.387  26.910  25.207  1.00  0.00    -0.203 F 
ATOM     84  C   UNL A   1      46.235  24.635  24.678  1.00  0.00     0.198 A 
ATOM     85  C   UNL A   1      44.427  23.317  25.494  1.00  0.00     0.198 A 
ATOM     86  F   UNL A   1      42.803  24.245  26.887  1.00  0.00    -0.203 F 
ATOM     87  F   UNL A   1      47.398  24.728  24.015  1.00  0.00    -0.200 F 
ATOM     88  C   UNL A   1      45.606  23.409  24.780  1.00  0.00     0.200 A 
ATOM     89  F   UNL A   1      43.818  22.129  25.622  1.00  0.00    -0.200 F 
ATOM     90  F   UNL A   1      46.153  22.315  24.231  1.00  0.00    -0.200 F 
ENDBRANCH  56  80
BRANCH  68  91
ATOM     91  C   UNL A   1      45.847  31.427  28.280  1.00  0.00     0.064 A 
ATOM     92  C   UNL A   1      44.911  31.790  27.299  1.00  0.00     0.173 A 
ATOM     93  C   UNL A   1      47.043  32.161  28.342  1.00  0.00     0.173 A 
ATOM     94  F   UNL A   1      43.715  31.186  27.225  1.00  0.00    -0.203 F 
ATOM     95  C   UNL A   1      45.184  32.829  26.407  1.00  0.00     0.198 A 
ATOM     96  C   UNL A   1      47.293  33.217  27.472  1.00  0.00     0.198 A 
ATOM     97  F   UNL A   1      47.956  31.880  29.285  1.00  0.00    -0.203 F 
ATOM     98  F   UNL A   1      44.284  33.182  25.481  1.00  0.00    -0.200 F 
ATOM     99  C   UNL A   1      46.368  33.543  26.499  1.00  0.00     0.200 A 
ATOM    100  F   UNL A   1      48.420  33.933  27.598  1.00  0.00    -0.200 F 
ATOM    101  F   UNL A   1      46.602  34.569  25.667  1.00  0.00    -0.200 F 
ENDBRANCH  68  91
ENDBRANCH  42  43
ENDBRANCH  35  37
ENDBRANCH  34  35
ENDBRANCH  33  34
ENDBRANCH  32  33
ENDBRANCH  31  32
ENDBRANCH  30  31
ENDBRANCH   1  30
TORSDOF 20
ENDMDL
