MODEL 1
REMARK VINA RESULT:     -10.7      0.000      0.000
REMARK SMILES O=C(Cn1nc(-c2ccco2)ccc1=O)OCCOCCOCCOC(=O)c1ccc(-c2c3nc(c(-c4c(F)c(F)c(F)c(F)c4F)c4ccc([nH]4)c(-c4c(F)c(F)c(F)c(F)c4F)c4nc(c(-c5c(F)c(F)c(F)c(F)c5F)c5ccc2[nH]5)C=C4)C=C3)cc1
REMARK SMILES IDX 20 1 19 2 18 3 17 4 16 5 2 6 1 7 3 8 4 9 5 10 14 11 6 12
REMARK SMILES IDX 13 13 15 14 12 15 7 16 8 17 11 18 9 19 10 20 21 21 22 22
REMARK SMILES IDX 23 23 24 24 25 25 26 26 27 27 28 28 29 29 90 30 30 31 89 32
REMARK SMILES IDX 31 33 32 34 33 35 83 36 34 37 88 38 82 39 84 40 35 41 87 42
REMARK SMILES IDX 81 43 80 44 36 46 68 47 48 48 67 49 49 50 52 51 66 52 85 53
REMARK SMILES IDX 50 54 51 55 65 57 86 58 53 59 37 60 38 61 46 62 39 63 40 64
REMARK SMILES IDX 44 65 47 66 41 67 42 68 45 69 43 70 69 71 70 72 78 73 71 74
REMARK SMILES IDX 72 75 76 76 79 77 73 78 74 79 77 80 75 81 54 82 55 83 63 84
REMARK SMILES IDX 56 85 57 86 61 87 64 88 58 89 59 90 62 91 60 92
REMARK H PARENT 84 45 52 56
REMARK Flexibility Score: inf
ROOT
ATOM      1  C   UNL A   1      36.417  22.151  25.236  1.00  0.00     0.188 C 
ENDROOT
BRANCH   1   2
ATOM      2  O   UNL A   1      35.653  21.858  26.387  1.00  0.00    -0.376 OA
BRANCH   2   3
ATOM      3  C   UNL A   1      34.546  22.695  26.655  1.00  0.00     0.202 C 
BRANCH   3   4
ATOM      4  C   UNL A   1      33.684  22.205  27.814  1.00  0.00     0.261 C 
BRANCH   4   5
ATOM      5  O   UNL A   1      32.373  22.800  27.988  1.00  0.00    -0.462 OA
BRANCH   5   6
ATOM      6  C   UNL A   1      31.520  23.388  27.119  1.00  0.00     0.328 C 
ATOM      7  O   UNL A   1      31.300  24.596  27.252  1.00  0.00    -0.250 OA
BRANCH   6   8
ATOM      8  C   UNL A   1      30.649  22.576  26.167  1.00  0.00     0.270 C 
BRANCH   8   9
ATOM      9  N   UNL A   1      31.282  21.948  25.029  1.00  0.00    -0.218 N 
ATOM     10  N   UNL A   1      31.822  20.726  25.261  1.00  0.00    -0.166 NA
ATOM     11  C   UNL A   1      31.405  22.635  23.830  1.00  0.00     0.267 A 
ATOM     12  C   UNL A   1      32.478  20.140  24.315  1.00  0.00     0.126 A 
ATOM     13  C   UNL A   1      32.215  21.957  22.789  1.00  0.00     0.076 A 
ATOM     14  O   UNL A   1      30.907  23.733  23.601  1.00  0.00    -0.268 OA
ATOM     15  C   UNL A   1      32.759  20.755  23.009  1.00  0.00     0.040 A 
BRANCH  12  16
ATOM     16  C   UNL A   1      32.865  18.789  24.595  1.00  0.00     0.154 A 
ATOM     17  C   UNL A   1      33.709  17.949  23.894  1.00  0.00     0.052 A 
ATOM     18  O   UNL A   1      32.162  18.079  25.523  1.00  0.00    -0.463 OA
ATOM     19  C   UNL A   1      33.479  16.646  24.393  1.00  0.00     0.043 A 
ATOM     20  C   UNL A   1      32.528  16.778  25.379  1.00  0.00     0.196 A 
ENDBRANCH  12  16
ENDBRANCH   8   9
ENDBRANCH   6   8
ENDBRANCH   5   6
ENDBRANCH   4   5
ENDBRANCH   3   4
ENDBRANCH   2   3
ENDBRANCH   1   2
BRANCH   1  21
ATOM     21  C   UNL A   1      37.850  22.625  25.517  1.00  0.00     0.188 C 
BRANCH  21  22
ATOM     22  O   UNL A   1      38.862  21.674  25.810  1.00  0.00    -0.376 OA
BRANCH  22  23
ATOM     23  C   UNL A   1      38.705  20.331  25.376  1.00  0.00     0.202 C 
BRANCH  23  24
ATOM     24  C   UNL A   1      39.632  19.253  25.961  1.00  0.00     0.261 C 
BRANCH  24  25
ATOM     25  O   UNL A   1      40.948  19.166  25.377  1.00  0.00    -0.460 OA
BRANCH  25  26
ATOM     26  C   UNL A   1      42.002  19.293  26.227  1.00  0.00     0.338 C 
ATOM     27  O   UNL A   1      42.757  18.420  26.601  1.00  0.00    -0.246 OA
BRANCH  26  28
ATOM     28  C   UNL A   1      42.210  20.727  26.549  1.00  0.00     0.060 A 
ATOM     29  C   UNL A   1      42.293  21.152  27.874  1.00  0.00     0.016 A 
ATOM     30  C   UNL A   1      42.351  21.653  25.503  1.00  0.00     0.016 A 
ATOM     31  C   UNL A   1      42.531  22.504  28.151  1.00  0.00     0.010 A 
ATOM     32  C   UNL A   1      42.565  23.008  25.782  1.00  0.00     0.010 A 
ATOM     33  C   UNL A   1      42.676  23.443  27.110  1.00  0.00    -0.014 A 
BRANCH  33  34
ATOM     34  C   UNL A   1      43.096  24.835  27.423  1.00  0.00     0.031 A 
ATOM     35  C   UNL A   1      44.468  25.349  27.104  1.00  0.00     0.074 A 
ATOM     36  C   UNL A   1      42.200  25.658  27.999  1.00  0.00     0.049 A 
ATOM     37  N   UNL A   1      44.939  26.569  27.223  1.00  0.00    -0.248 NA
ATOM     38  C   UNL A   1      45.436  24.374  26.591  1.00  0.00     0.031 C 
ATOM     39  C   UNL A   1      40.841  25.273  28.377  1.00  0.00     0.029 A 
ATOM     40  N   UNL A   1      42.285  26.983  28.346  1.00  0.00    -0.354 N 
ATOM     41  C   UNL A   1      46.250  26.516  26.769  1.00  0.00     0.074 A 
ATOM     42  C   UNL A   1      46.515  25.130  26.432  1.00  0.00     0.031 C 
ATOM     43  C   UNL A   1      40.204  26.348  28.864  1.00  0.00     0.029 A 
ATOM     44  C   UNL A   1      41.117  27.488  28.860  1.00  0.00     0.049 A 
ATOM     45  H   UNL A   1      43.104  27.519  28.238  1.00  0.00     0.167 HD
ATOM     46  C   UNL A   1      47.138  27.533  26.626  1.00  0.00     0.037 A 
ATOM     47  C   UNL A   1      40.804  28.733  29.270  1.00  0.00     0.037 A 
ATOM     48  C   UNL A   1      46.883  28.907  26.997  1.00  0.00     0.049 A 
ATOM     49  C   UNL A   1      41.827  29.829  29.168  1.00  0.00     0.074 A 
ATOM     50  C   UNL A   1      47.717  30.005  26.875  1.00  0.00     0.029 A 
ATOM     51  N   UNL A   1      45.710  29.369  27.581  1.00  0.00    -0.354 N 
ATOM     52  N   UNL A   1      43.042  29.785  28.681  1.00  0.00    -0.248 NA
ATOM     53  C   UNL A   1      41.427  31.152  29.668  1.00  0.00     0.031 C 
ATOM     54  C   UNL A   1      47.078  31.115  27.438  1.00  0.00     0.029 A 
ATOM     55  C   UNL A   1      45.815  30.728  27.854  1.00  0.00     0.049 A 
ATOM     56  H   UNL A   1      44.920  28.816  27.776  1.00  0.00     0.167 HD
ATOM     57  C   UNL A   1      43.550  31.071  28.799  1.00  0.00     0.074 A 
ATOM     58  C   UNL A   1      42.497  31.881  29.380  1.00  0.00     0.031 C 
ATOM     59  C   UNL A   1      44.777  31.535  28.455  1.00  0.00     0.037 A 
BRANCH  46  60
ATOM     60  C   UNL A   1      48.483  27.195  26.040  1.00  0.00     0.064 A 
ATOM     61  C   UNL A   1      48.723  27.284  24.659  1.00  0.00     0.173 A 
ATOM     62  C   UNL A   1      49.554  26.816  26.864  1.00  0.00     0.173 A 
ATOM     63  F   UNL A   1      47.737  27.649  23.824  1.00  0.00    -0.203 F 
ATOM     64  C   UNL A   1      49.967  26.963  24.123  1.00  0.00     0.198 A 
ATOM     65  C   UNL A   1      50.809  26.534  26.327  1.00  0.00     0.198 A 
ATOM     66  F   UNL A   1      49.391  26.733  28.193  1.00  0.00    -0.203 F 
ATOM     67  F   UNL A   1      50.154  26.999  22.795  1.00  0.00    -0.200 F 
ATOM     68  C   UNL A   1      51.011  26.595  24.958  1.00  0.00     0.200 A 
ATOM     69  F   UNL A   1      51.824  26.200  27.137  1.00  0.00    -0.200 F 
ATOM     70  F   UNL A   1      52.209  26.293  24.439  1.00  0.00    -0.200 F 
ENDBRANCH  46  60
BRANCH  47  71
ATOM     71  C   UNL A   1      39.428  29.005  29.756  1.00  0.00     0.064 A 
ATOM     72  C   UNL A   1      39.097  28.825  31.105  1.00  0.00     0.173 A 
ATOM     73  C   UNL A   1      38.438  29.513  28.900  1.00  0.00     0.173 A 
ATOM     74  F   UNL A   1      40.004  28.322  31.955  1.00  0.00    -0.203 F 
ATOM     75  C   UNL A   1      37.831  29.152  31.583  1.00  0.00     0.198 A 
ATOM     76  C   UNL A   1      37.182  29.865  29.385  1.00  0.00     0.198 A 
ATOM     77  F   UNL A   1      38.709  29.704  27.600  1.00  0.00    -0.203 F 
ATOM     78  F   UNL A   1      37.534  28.956  32.875  1.00  0.00    -0.200 F 
ATOM     79  C   UNL A   1      36.879  29.684  30.726  1.00  0.00     0.200 A 
ATOM     80  F   UNL A   1      36.271  30.394  28.558  1.00  0.00    -0.200 F 
ATOM     81  F   UNL A   1      35.670  30.024  31.193  1.00  0.00    -0.200 F 
ENDBRANCH  47  71
BRANCH  59  82
ATOM     82  C   UNL A   1      45.058  32.993  28.698  1.00  0.00     0.064 A 
ATOM     83  C   UNL A   1      45.681  33.439  29.876  1.00  0.00     0.173 A 
ATOM     84  C   UNL A   1      44.726  33.959  27.734  1.00  0.00     0.173 A 
ATOM     85  F   UNL A   1      46.008  32.563  30.838  1.00  0.00    -0.203 F 
ATOM     86  C   UNL A   1      45.931  34.793  30.090  1.00  0.00     0.198 A 
ATOM     87  C   UNL A   1      45.010  35.308  27.937  1.00  0.00     0.198 A 
ATOM     88  F   UNL A   1      44.135  33.595  26.586  1.00  0.00    -0.203 F 
ATOM     89  F   UNL A   1      46.475  35.196  31.248  1.00  0.00    -0.200 F 
ATOM     90  C   UNL A   1      45.603  35.725  29.119  1.00  0.00     0.200 A 
ATOM     91  F   UNL A   1      44.707  36.205  26.989  1.00  0.00    -0.200 F 
ATOM     92  F   UNL A   1      45.850  37.026  29.324  1.00  0.00    -0.200 F 
ENDBRANCH  59  82
ENDBRANCH  33  34
ENDBRANCH  26  28
ENDBRANCH  25  26
ENDBRANCH  24  25
ENDBRANCH  23  24
ENDBRANCH  22  23
ENDBRANCH  21  22
ENDBRANCH   1  21
TORSDOF 19
ENDMDL
MODEL 2
REMARK VINA RESULT:     -10.5      4.252      9.581
REMARK SMILES O=C(Cn1nc(-c2ccco2)ccc1=O)OCCOCCOCCOC(=O)c1ccc(-c2c3nc(c(-c4c(F)c(F)c(F)c(F)c4F)c4ccc([nH]4)c(-c4c(F)c(F)c(F)c(F)c4F)c4nc(c(-c5c(F)c(F)c(F)c(F)c5F)c5ccc2[nH]5)C=C4)C=C3)cc1
REMARK SMILES IDX 20 1 19 2 18 3 17 4 16 5 2 6 1 7 3 8 4 9 5 10 14 11 6 12
REMARK SMILES IDX 13 13 15 14 12 15 7 16 8 17 11 18 9 19 10 20 21 21 22 22
REMARK SMILES IDX 23 23 24 24 25 25 26 26 27 27 28 28 29 29 90 30 30 31 89 32
REMARK SMILES IDX 31 33 32 34 33 35 83 36 34 37 88 38 82 39 84 40 35 41 87 42
REMARK SMILES IDX 81 43 80 44 36 46 68 47 48 48 67 49 49 50 52 51 66 52 85 53
REMARK SMILES IDX 50 54 51 55 65 57 86 58 53 59 37 60 38 61 46 62 39 63 40 64
REMARK SMILES IDX 44 65 47 66 41 67 42 68 45 69 43 70 69 71 70 72 78 73 71 74
REMARK SMILES IDX 72 75 76 76 79 77 73 78 74 79 77 80 75 81 54 82 55 83 63 84
REMARK SMILES IDX 56 85 57 86 61 87 64 88 58 89 59 90 62 91 60 92
REMARK H PARENT 84 45 52 56
REMARK Flexibility Score: inf
ROOT
ATOM      1  C   UNL A   1      34.643  31.871  27.685  1.00  0.00     0.188 C 
ENDROOT
BRANCH   1   2
ATOM      2  O   UNL A   1      33.310  31.414  27.604  1.00  0.00    -0.376 OA
BRANCH   2   3
ATOM      3  C   UNL A   1      33.106  30.111  27.097  1.00  0.00     0.202 C 
BRANCH   3   4
ATOM      4  C   UNL A   1      32.497  30.094  25.699  1.00  0.00     0.261 C 
BRANCH   4   5
ATOM      5  O   UNL A   1      33.092  29.219  24.706  1.00  0.00    -0.462 OA
BRANCH   5   6
ATOM      6  C   UNL A   1      32.934  27.903  24.446  1.00  0.00     0.328 C 
ATOM      7  O   UNL A   1      33.598  27.097  25.106  1.00  0.00    -0.250 OA
BRANCH   6   8
ATOM      8  C   UNL A   1      32.174  27.407  23.220  1.00  0.00     0.270 C 
BRANCH   8   9
ATOM      9  N   UNL A   1      30.735  27.547  23.206  1.00  0.00    -0.218 N 
ATOM     10  N   UNL A   1      30.270  28.774  22.863  1.00  0.00    -0.166 NA
ATOM     11  C   UNL A   1      29.927  26.502  23.632  1.00  0.00     0.267 A 
ATOM     12  C   UNL A   1      28.999  28.999  22.911  1.00  0.00     0.126 A 
ATOM     13  C   UNL A   1      28.480  26.817  23.730  1.00  0.00     0.076 A 
ATOM     14  O   UNL A   1      30.332  25.382  23.928  1.00  0.00    -0.268 OA
ATOM     15  C   UNL A   1      28.011  28.026  23.402  1.00  0.00     0.040 A 
BRANCH  12  16
ATOM     16  C   UNL A   1      28.589  30.262  22.374  1.00  0.00     0.154 A 
ATOM     17  C   UNL A   1      28.091  30.570  21.122  1.00  0.00     0.052 A 
ATOM     18  O   UNL A   1      28.931  31.404  23.035  1.00  0.00    -0.463 OA
ATOM     19  C   UNL A   1      28.173  31.975  20.995  1.00  0.00     0.043 A 
ATOM     20  C   UNL A   1      28.693  32.436  22.182  1.00  0.00     0.196 A 
ENDBRANCH  12  16
ENDBRANCH   8   9
ENDBRANCH   6   8
ENDBRANCH   5   6
ENDBRANCH   4   5
ENDBRANCH   3   4
ENDBRANCH   2   3
ENDBRANCH   1   2
BRANCH   1  21
ATOM     21  C   UNL A   1      34.796  33.348  28.079  1.00  0.00     0.188 C 
BRANCH  21  22
ATOM     22  O   UNL A   1      35.294  33.687  29.363  1.00  0.00    -0.376 OA
BRANCH  22  23
ATOM     23  C   UNL A   1      34.386  34.068  30.386  1.00  0.00     0.202 C 
BRANCH  23  24
ATOM     24  C   UNL A   1      34.491  33.385  31.760  1.00  0.00     0.261 C 
BRANCH  24  25
ATOM     25  O   UNL A   1      35.092  32.073  31.768  1.00  0.00    -0.460 OA
BRANCH  25  26
ATOM     26  C   UNL A   1      36.147  31.893  32.607  1.00  0.00     0.338 C 
ATOM     27  O   UNL A   1      36.181  32.093  33.803  1.00  0.00    -0.246 OA
BRANCH  26  28
ATOM     28  C   UNL A   1      37.266  31.258  31.866  1.00  0.00     0.060 A 
ATOM     29  C   UNL A   1      37.323  31.320  30.475  1.00  0.00     0.016 A 
ATOM     30  C   UNL A   1      38.286  30.613  32.584  1.00  0.00     0.016 A 
ATOM     31  C   UNL A   1      38.409  30.748  29.803  1.00  0.00     0.010 A 
ATOM     32  C   UNL A   1      39.360  30.022  31.908  1.00  0.00     0.010 A 
ATOM     33  C   UNL A   1      39.442  30.101  30.510  1.00  0.00    -0.014 A 
BRANCH  33  34
ATOM     34  C   UNL A   1      40.664  29.653  29.791  1.00  0.00     0.031 A 
ATOM     35  C   UNL A   1      40.804  28.269  29.232  1.00  0.00     0.074 A 
ATOM     36  C   UNL A   1      41.668  30.535  29.630  1.00  0.00     0.049 A 
ATOM     37  N   UNL A   1      41.767  27.773  28.491  1.00  0.00    -0.248 NA
ATOM     38  C   UNL A   1      39.731  27.319  29.546  1.00  0.00     0.031 C 
ATOM     39  C   UNL A   1      41.662  31.904  30.144  1.00  0.00     0.029 A 
ATOM     40  N   UNL A   1      42.870  30.424  28.976  1.00  0.00    -0.354 N 
ATOM     41  C   UNL A   1      41.403  26.461  28.222  1.00  0.00     0.074 A 
ATOM     42  C   UNL A   1      40.160  26.223  28.932  1.00  0.00     0.031 C 
ATOM     43  C   UNL A   1      42.786  32.521  29.750  1.00  0.00     0.029 A 
ATOM     44  C   UNL A   1      43.603  31.584  28.982  1.00  0.00     0.049 A 
ATOM     45  H   UNL A   1      43.176  29.594  28.545  1.00  0.00     0.167 HD
ATOM     46  C   UNL A   1      42.035  25.552  27.437  1.00  0.00     0.037 A 
ATOM     47  C   UNL A   1      44.793  31.873  28.421  1.00  0.00     0.037 A 
ATOM     48  C   UNL A   1      43.292  25.780  26.760  1.00  0.00     0.049 A 
ATOM     49  C   UNL A   1      45.510  30.828  27.614  1.00  0.00     0.074 A 
ATOM     50  C   UNL A   1      43.998  24.922  25.933  1.00  0.00     0.029 A 
ATOM     51  N   UNL A   1      44.043  26.945  26.847  1.00  0.00    -0.354 N 
ATOM     52  N   UNL A   1      45.129  29.610  27.313  1.00  0.00    -0.248 NA
ATOM     53  C   UNL A   1      46.819  31.202  27.064  1.00  0.00     0.031 C 
ATOM     54  C   UNL A   1      45.199  25.541  25.571  1.00  0.00     0.029 A 
ATOM     55  C   UNL A   1      45.217  26.814  26.116  1.00  0.00     0.049 A 
ATOM     56  H   UNL A   1      43.782  27.748  27.353  1.00  0.00     0.167 HD
ATOM     57  C   UNL A   1      46.141  29.077  26.526  1.00  0.00     0.074 A 
ATOM     58  C   UNL A   1      47.141  30.115  26.375  1.00  0.00     0.031 C 
ATOM     59  C   UNL A   1      46.228  27.838  25.981  1.00  0.00     0.037 A 
BRANCH  46  60
ATOM     60  C   UNL A   1      41.371  24.211  27.267  1.00  0.00     0.064 A 
ATOM     61  C   UNL A   1      40.195  24.067  26.514  1.00  0.00     0.173 A 
ATOM     62  C   UNL A   1      41.933  23.052  27.826  1.00  0.00     0.173 A 
ATOM     63  F   UNL A   1      39.618  25.139  25.948  1.00  0.00    -0.203 F 
ATOM     64  C   UNL A   1      39.583  22.825  26.366  1.00  0.00     0.198 A 
ATOM     65  C   UNL A   1      41.338  21.805  27.643  1.00  0.00     0.198 A 
ATOM     66  F   UNL A   1      43.067  23.124  28.539  1.00  0.00    -0.203 F 
ATOM     67  F   UNL A   1      38.428  22.723  25.692  1.00  0.00    -0.200 F 
ATOM     68  C   UNL A   1      40.158  21.694  26.926  1.00  0.00     0.200 A 
ATOM     69  F   UNL A   1      41.907  20.709  28.165  1.00  0.00    -0.200 F 
ATOM     70  F   UNL A   1      39.570  20.499  26.776  1.00  0.00    -0.200 F 
ENDBRANCH  46  60
BRANCH  47  71
ATOM     71  C   UNL A   1      45.340  33.246  28.563  1.00  0.00     0.064 A 
ATOM     72  C   UNL A   1      44.958  34.263  27.678  1.00  0.00     0.173 A 
ATOM     73  C   UNL A   1      46.199  33.585  29.620  1.00  0.00     0.173 A 
ATOM     74  F   UNL A   1      44.157  33.981  26.640  1.00  0.00    -0.203 F 
ATOM     75  C   UNL A   1      45.405  35.570  27.851  1.00  0.00     0.198 A 
ATOM     76  C   UNL A   1      46.623  34.898  29.807  1.00  0.00     0.198 A 
ATOM     77  F   UNL A   1      46.591  32.646  30.493  1.00  0.00    -0.203 F 
ATOM     78  F   UNL A   1      45.037  36.521  26.981  1.00  0.00    -0.200 F 
ATOM     79  C   UNL A   1      46.226  35.889  28.922  1.00  0.00     0.200 A 
ATOM     80  F   UNL A   1      47.402  35.206  30.852  1.00  0.00    -0.200 F 
ATOM     81  F   UNL A   1      46.634  37.153  29.102  1.00  0.00    -0.200 F 
ENDBRANCH  47  71
BRANCH  59  82
ATOM     82  C   UNL A   1      47.453  27.528  25.163  1.00  0.00     0.064 A 
ATOM     83  C   UNL A   1      48.602  26.960  25.740  1.00  0.00     0.173 A 
ATOM     84  C   UNL A   1      47.475  27.774  23.781  1.00  0.00     0.173 A 
ATOM     85  F   UNL A   1      48.643  26.716  27.058  1.00  0.00    -0.203 F 
ATOM     86  C   UNL A   1      49.731  26.683  24.972  1.00  0.00     0.198 A 
ATOM     87  C   UNL A   1      48.593  27.462  23.010  1.00  0.00     0.198 A 
ATOM     88  F   UNL A   1      46.406  28.309  23.171  1.00  0.00    -0.203 F 
ATOM     89  F   UNL A   1      50.834  26.195  25.559  1.00  0.00    -0.200 F 
ATOM     90  C   UNL A   1      49.723  26.926  23.608  1.00  0.00     0.200 A 
ATOM     91  F   UNL A   1      48.578  27.683  21.689  1.00  0.00    -0.200 F 
ATOM     92  F   UNL A   1      50.808  26.652  22.870  1.00  0.00    -0.200 F 
ENDBRANCH  59  82
ENDBRANCH  33  34
ENDBRANCH  26  28
ENDBRANCH  25  26
ENDBRANCH  24  25
ENDBRANCH  23  24
ENDBRANCH  22  23
ENDBRANCH  21  22
ENDBRANCH   1  21
TORSDOF 19
ENDMDL
MODEL 3
REMARK VINA RESULT:     -10.4      4.993     10.447
REMARK SMILES O=C(Cn1nc(-c2ccco2)ccc1=O)OCCOCCOCCOC(=O)c1ccc(-c2c3nc(c(-c4c(F)c(F)c(F)c(F)c4F)c4ccc([nH]4)c(-c4c(F)c(F)c(F)c(F)c4F)c4nc(c(-c5c(F)c(F)c(F)c(F)c5F)c5ccc2[nH]5)C=C4)C=C3)cc1
REMARK SMILES IDX 20 1 19 2 18 3 17 4 16 5 2 6 1 7 3 8 4 9 5 10 14 11 6 12
REMARK SMILES IDX 13 13 15 14 12 15 7 16 8 17 11 18 9 19 10 20 21 21 22 22
REMARK SMILES IDX 23 23 24 24 25 25 26 26 27 27 28 28 29 29 90 30 30 31 89 32
REMARK SMILES IDX 31 33 32 34 33 35 83 36 34 37 88 38 82 39 84 40 35 41 87 42
REMARK SMILES IDX 81 43 80 44 36 46 68 47 48 48 67 49 49 50 52 51 66 52 85 53
REMARK SMILES IDX 50 54 51 55 65 57 86 58 53 59 37 60 38 61 46 62 39 63 40 64
REMARK SMILES IDX 44 65 47 66 41 67 42 68 45 69 43 70 69 71 70 72 78 73 71 74
REMARK SMILES IDX 72 75 76 76 79 77 73 78 74 79 77 80 75 81 54 82 55 83 63 84
REMARK SMILES IDX 56 85 57 86 61 87 64 88 58 89 59 90 62 91 60 92
REMARK H PARENT 84 45 52 56
REMARK Flexibility Score: inf
ROOT
ATOM      1  C   UNL A   1      32.918  29.215  24.834  1.00  0.00     0.188 C 
ENDROOT
BRANCH   1   2
ATOM      2  O   UNL A   1      33.976  28.618  24.115  1.00  0.00    -0.376 OA
BRANCH   2   3
ATOM      3  C   UNL A   1      33.804  28.467  22.721  1.00  0.00     0.202 C 
BRANCH   3   4
ATOM      4  C   UNL A   1      33.123  27.160  22.333  1.00  0.00     0.261 C 
BRANCH   4   5
ATOM      5  O   UNL A   1      33.535  25.947  23.015  1.00  0.00    -0.462 OA
BRANCH   5   6
ATOM      6  C   UNL A   1      33.245  24.644  22.805  1.00  0.00     0.328 C 
ATOM      7  O   UNL A   1      33.598  24.137  21.736  1.00  0.00    -0.250 OA
BRANCH   6   8
ATOM      8  C   UNL A   1      32.295  23.871  23.713  1.00  0.00     0.270 C 
BRANCH   8   9
ATOM      9  N   UNL A   1      32.864  23.088  24.788  1.00  0.00    -0.218 N 
ATOM     10  N   UNL A   1      32.823  21.743  24.615  1.00  0.00    -0.166 NA
ATOM     11  C   UNL A   1      33.305  23.708  25.947  1.00  0.00     0.267 A 
ATOM     12  C   UNL A   1      33.235  20.975  25.569  1.00  0.00     0.126 A 
ATOM     13  C   UNL A   1      33.714  22.794  27.041  1.00  0.00     0.076 A 
ATOM     14  O   UNL A   1      33.364  24.923  26.110  1.00  0.00    -0.268 OA
ATOM     15  C   UNL A   1      33.672  21.466  26.886  1.00  0.00     0.040 A 
BRANCH  12  16
ATOM     16  C   UNL A   1      33.312  19.584  25.235  1.00  0.00     0.154 A 
ATOM     17  C   UNL A   1      34.297  18.892  24.557  1.00  0.00     0.052 A 
ATOM     18  O   UNL A   1      32.193  18.814  25.348  1.00  0.00    -0.463 OA
ATOM     19  C   UNL A   1      33.735  17.646  24.199  1.00  0.00     0.043 A 
ATOM     20  C   UNL A   1      32.453  17.648  24.700  1.00  0.00     0.196 A 
ENDBRANCH  12  16
ENDBRANCH   8   9
ENDBRANCH   6   8
ENDBRANCH   5   6
ENDBRANCH   4   5
ENDBRANCH   3   4
ENDBRANCH   2   3
ENDBRANCH   1   2
BRANCH   1  21
ATOM     21  C   UNL A   1      33.221  29.497  26.313  1.00  0.00     0.188 C 
BRANCH  21  22
ATOM     22  O   UNL A   1      32.307  30.259  27.087  1.00  0.00    -0.376 OA
BRANCH  22  23
ATOM     23  C   UNL A   1      31.486  31.224  26.447  1.00  0.00     0.202 C 
BRANCH  23  24
ATOM     24  C   UNL A   1      31.610  32.697  26.869  1.00  0.00     0.261 C 
BRANCH  24  25
ATOM     25  O   UNL A   1      32.942  33.251  26.844  1.00  0.00    -0.460 OA
BRANCH  25  26
ATOM     26  C   UNL A   1      33.361  33.882  27.973  1.00  0.00     0.338 C 
ATOM     27  O   UNL A   1      32.803  34.782  28.565  1.00  0.00    -0.246 OA
BRANCH  26  28
ATOM     28  C   UNL A   1      34.576  33.208  28.497  1.00  0.00     0.060 A 
ATOM     29  C   UNL A   1      35.819  33.835  28.434  1.00  0.00     0.016 A 
ATOM     30  C   UNL A   1      34.457  31.938  29.084  1.00  0.00     0.016 A 
ATOM     31  C   UNL A   1      36.942  33.195  28.971  1.00  0.00     0.010 A 
ATOM     32  C   UNL A   1      35.586  31.290  29.600  1.00  0.00     0.010 A 
ATOM     33  C   UNL A   1      36.837  31.922  29.565  1.00  0.00    -0.014 A 
BRANCH  33  34
ATOM     34  C   UNL A   1      38.005  31.340  30.279  1.00  0.00     0.031 A 
ATOM     35  C   UNL A   1      38.325  31.680  31.704  1.00  0.00     0.074 A 
ATOM     36  C   UNL A   1      38.787  30.466  29.617  1.00  0.00     0.049 A 
ATOM     37  N   UNL A   1      39.247  31.169  32.486  1.00  0.00    -0.248 NA
ATOM     38  C   UNL A   1      37.511  32.727  32.331  1.00  0.00     0.031 C 
ATOM     39  C   UNL A   1      38.594  30.069  28.223  1.00  0.00     0.029 A 
ATOM     40  N   UNL A   1      39.879  29.743  30.027  1.00  0.00    -0.354 N 
ATOM     41  C   UNL A   1      39.105  31.809  33.709  1.00  0.00     0.074 A 
ATOM     42  C   UNL A   1      38.048  32.789  33.543  1.00  0.00     0.031 C 
ATOM     43  C   UNL A   1      39.509  29.142  27.905  1.00  0.00     0.029 A 
ATOM     44  C   UNL A   1      40.369  28.901  29.060  1.00  0.00     0.049 A 
ATOM     45  H   UNL A   1      40.273  29.821  30.925  1.00  0.00     0.167 HD
ATOM     46  C   UNL A   1      39.779  31.582  34.866  1.00  0.00     0.037 A 
ATOM     47  C   UNL A   1      41.387  28.020  29.098  1.00  0.00     0.037 A 
ATOM     48  C   UNL A   1      40.856  30.630  35.018  1.00  0.00     0.049 A 
ATOM     49  C   UNL A   1      42.166  27.836  30.370  1.00  0.00     0.074 A 
ATOM     50  C   UNL A   1      41.586  30.324  36.155  1.00  0.00     0.029 A 
ATOM     51  N   UNL A   1      41.374  29.844  33.997  1.00  0.00    -0.354 N 
ATOM     52  N   UNL A   1      41.986  28.400  31.539  1.00  0.00    -0.248 NA
ATOM     53  C   UNL A   1      43.285  26.885  30.327  1.00  0.00     0.031 C 
ATOM     54  C   UNL A   1      42.580  29.401  35.810  1.00  0.00     0.029 A 
ATOM     55  C   UNL A   1      42.433  29.079  34.472  1.00  0.00     0.049 A 
ATOM     56  H   UNL A   1      41.041  29.830  33.071  1.00  0.00     0.167 HD
ATOM     57  C   UNL A   1      42.955  27.864  32.376  1.00  0.00     0.074 A 
ATOM     58  C   UNL A   1      43.705  26.908  31.585  1.00  0.00     0.031 C 
ATOM     59  C   UNL A   1      43.198  28.142  33.681  1.00  0.00     0.037 A 
BRANCH  46  60
ATOM     60  C   UNL A   1      39.368  32.386  36.071  1.00  0.00     0.064 A 
ATOM     61  C   UNL A   1      38.442  31.888  37.002  1.00  0.00     0.173 A 
ATOM     62  C   UNL A   1      39.929  33.648  36.322  1.00  0.00     0.173 A 
ATOM     63  F   UNL A   1      37.879  30.683  36.817  1.00  0.00    -0.203 F 
ATOM     64  C   UNL A   1      38.061  32.639  38.110  1.00  0.00     0.198 A 
ATOM     65  C   UNL A   1      39.574  34.380  37.453  1.00  0.00     0.198 A 
ATOM     66  F   UNL A   1      40.834  34.168  35.479  1.00  0.00    -0.203 F 
ATOM     67  F   UNL A   1      37.130  32.167  38.952  1.00  0.00    -0.200 F 
ATOM     68  C   UNL A   1      38.631  33.882  38.339  1.00  0.00     0.200 A 
ATOM     69  F   UNL A   1      40.144  35.571  37.686  1.00  0.00    -0.200 F 
ATOM     70  F   UNL A   1      38.268  34.600  39.410  1.00  0.00    -0.200 F 
ENDBRANCH  46  60
BRANCH  47  71
ATOM     71  C   UNL A   1      41.675  27.202  27.893  1.00  0.00     0.064 A 
ATOM     72  C   UNL A   1      42.594  27.644  26.932  1.00  0.00     0.173 A 
ATOM     73  C   UNL A   1      41.093  25.938  27.711  1.00  0.00     0.173 A 
ATOM     74  F   UNL A   1      43.158  28.854  27.052  1.00  0.00    -0.203 F 
ATOM     75  C   UNL A   1      42.927  26.848  25.839  1.00  0.00     0.198 A 
ATOM     76  C   UNL A   1      41.449  25.133  26.633  1.00  0.00     0.198 A 
ATOM     77  F   UNL A   1      40.210  25.472  28.607  1.00  0.00    -0.203 F 
ATOM     78  F   UNL A   1      43.797  27.300  24.925  1.00  0.00    -0.200 F 
ATOM     79  C   UNL A   1      42.365  25.588  25.698  1.00  0.00     0.200 A 
ATOM     80  F   UNL A   1      40.916  23.910  26.510  1.00  0.00    -0.200 F 
ATOM     81  F   UNL A   1      42.708  24.813  24.660  1.00  0.00    -0.200 F 
ENDBRANCH  47  71
BRANCH  59  82
ATOM     82  C   UNL A   1      44.328  27.402  34.347  1.00  0.00     0.064 A 
ATOM     83  C   UNL A   1      45.622  27.942  34.420  1.00  0.00     0.173 A 
ATOM     84  C   UNL A   1      44.112  26.148  34.942  1.00  0.00     0.173 A 
ATOM     85  F   UNL A   1      45.890  29.130  33.857  1.00  0.00    -0.203 F 
ATOM     86  C   UNL A   1      46.660  27.244  35.035  1.00  0.00     0.198 A 
ATOM     87  C   UNL A   1      45.144  25.470  35.587  1.00  0.00     0.198 A 
ATOM     88  F   UNL A   1      42.896  25.583  34.910  1.00  0.00    -0.203 F 
ATOM     89  F   UNL A   1      47.899  27.758  35.040  1.00  0.00    -0.200 F 
ATOM     90  C   UNL A   1      46.419  26.014  35.625  1.00  0.00     0.200 A 
ATOM     91  F   UNL A   1      44.906  24.287  36.171  1.00  0.00    -0.200 F 
ATOM     92  F   UNL A   1      47.417  25.347  36.221  1.00  0.00    -0.200 F 
ENDBRANCH  59  82
ENDBRANCH  33  34
ENDBRANCH  26  28
ENDBRANCH  25  26
ENDBRANCH  24  25
ENDBRANCH  23  24
ENDBRANCH  22  23
ENDBRANCH  21  22
ENDBRANCH   1  21
TORSDOF 19
ENDMDL
