MODEL 1
REMARK VINA RESULT:     -11.4      0.000      0.000
REMARK SMILES C[N@H+]1CCO[C@@H](CNS(=O)(=O)N2CCC(C(=O)OCCOCCOCCOC(=O)c3ccc(-c4c5nc(c(-c6c(F)c(F)c(F)c(F)c6F)c6ccc([nH]6)c(-c6c(F)c(F)c(F)c(F)c6F)c6nc(c(-c7c(F)c(F)c(F)c(F)c7F)c7ccc4[nH]7)C=C6)C=C5)cc3)CC2)C1
REMARK SMILES IDX 22 1 21 2 20 3 19 4 18 5 16 6 17 7 15 8 12 9 13 10 94 11
REMARK SMILES IDX 14 12 93 13 9 14 10 15 11 16 8 17 7 19 6 20 1 21 2 22 3 23
REMARK SMILES IDX 95 24 4 26 5 27 23 28 24 29 25 30 26 31 27 32 28 33 29 34
REMARK SMILES IDX 30 35 31 36 92 37 32 38 91 39 33 40 34 41 35 42 85 43 36 44
REMARK SMILES IDX 90 45 84 46 86 47 37 48 89 49 83 50 82 51 38 53 70 54 50 55
REMARK SMILES IDX 69 56 51 57 54 58 68 59 87 60 52 61 53 62 67 64 88 65 55 66
REMARK SMILES IDX 39 67 40 68 48 69 41 70 42 71 46 72 49 73 43 74 44 75 47 76
REMARK SMILES IDX 45 77 71 78 72 79 80 80 73 81 74 82 78 83 81 84 75 85 76 86
REMARK SMILES IDX 79 87 77 88 56 89 57 90 65 91 58 92 59 93 63 94 66 95 60 96
REMARK SMILES IDX 61 97 64 98 62 99
REMARK H PARENT 8 18 2 25 86 52 54 63
REMARK Flexibility Score: inf
ROOT
ATOM      1  C   UNL A   1      40.482  20.927  26.650  1.00  0.00     0.188 C 
ENDROOT
BRANCH   1   2
ATOM      2  O   UNL A   1      39.685  21.689  25.759  1.00  0.00    -0.376 OA
BRANCH   2   3
ATOM      3  C   UNL A   1      38.274  21.522  25.826  1.00  0.00     0.202 C 
BRANCH   3   4
ATOM      4  C   UNL A   1      37.448  21.829  24.566  1.00  0.00     0.261 C 
BRANCH   4   5
ATOM      5  O   UNL A   1      37.037  23.205  24.398  1.00  0.00    -0.463 OA
BRANCH   5   6
ATOM      6  C   UNL A   1      36.801  23.891  25.547  1.00  0.00     0.309 C 
ATOM      7  O   UNL A   1      37.673  24.246  26.335  1.00  0.00    -0.252 OA
BRANCH   6   8
ATOM      8  C   UNL A   1      35.333  24.210  25.818  1.00  0.00     0.102 C 
ATOM      9  N   UNL A   1      32.600  23.310  25.389  1.00  0.00    -0.189 NA
ATOM     10  C   UNL A   1      33.253  23.081  26.692  1.00  0.00     0.104 C 
ATOM     11  C   UNL A   1      32.979  24.619  24.825  1.00  0.00     0.104 C 
ATOM     12  C   UNL A   1      34.751  22.970  26.502  1.00  0.00     0.032 C 
ATOM     13  C   UNL A   1      34.492  24.735  24.642  1.00  0.00     0.032 C 
BRANCH   9  14
ATOM     14  S   UNL A   1      32.579  22.002  24.332  1.00  0.00     0.279 S 
ATOM     15  O   UNL A   1      33.932  21.676  23.963  1.00  0.00    -0.195 OA
ATOM     16  O   UNL A   1      31.558  22.189  23.331  1.00  0.00    -0.195 OA
BRANCH  14  17
ATOM     17  N   UNL A   1      32.026  20.804  25.368  1.00  0.00    -0.199 NA
ATOM     18  H   UNL A   1      32.011  21.187  26.314  1.00  0.00     0.142 HD
BRANCH  17  19
ATOM     19  C   UNL A   1      32.834  19.561  25.389  1.00  0.00     0.138 C 
BRANCH  19  20
ATOM     20  C   UNL A   1      32.350  18.488  24.398  1.00  0.00     0.188 C 
ATOM     21  C   UNL A   1      35.471  17.639  24.640  1.00  0.00     0.332 C 
ATOM     22  N   UNL A   1      34.390  17.001  23.899  1.00  0.00    -0.333 N 
ATOM     23  C   UNL A   1      33.712  15.962  24.692  1.00  0.00     0.290 C 
ATOM     24  C   UNL A   1      33.383  17.941  23.382  1.00  0.00     0.295 C 
ATOM     25  H   UNL A   1      34.855  16.575  23.097  1.00  0.00     0.348 HD
ATOM     26  C   UNL A   1      32.697  16.508  25.712  1.00  0.00     0.222 C 
ATOM     27  O   UNL A   1      31.734  17.389  25.109  1.00  0.00    -0.365 OA
ENDBRANCH  19  20
ENDBRANCH  17  19
ENDBRANCH  14  17
ENDBRANCH   9  14
ENDBRANCH   6   8
ENDBRANCH   5   6
ENDBRANCH   4   5
ENDBRANCH   3   4
ENDBRANCH   2   3
ENDBRANCH   1   2
BRANCH   1  28
ATOM     28  C   UNL A   1      41.011  19.564  26.193  1.00  0.00     0.188 C 
BRANCH  28  29
ATOM     29  O   UNL A   1      42.144  19.585  25.352  1.00  0.00    -0.376 OA
BRANCH  29  30
ATOM     30  C   UNL A   1      43.276  20.289  25.849  1.00  0.00     0.202 C 
BRANCH  30  31
ATOM     31  C   UNL A   1      43.782  21.398  24.903  1.00  0.00     0.261 C 
BRANCH  31  32
ATOM     32  O   UNL A   1      43.082  22.664  24.951  1.00  0.00    -0.460 OA
BRANCH  32  33
ATOM     33  C   UNL A   1      43.826  23.798  25.004  1.00  0.00     0.338 C 
ATOM     34  O   UNL A   1      44.732  24.102  24.247  1.00  0.00    -0.246 OA
BRANCH  33  35
ATOM     35  C   UNL A   1      43.163  24.761  25.938  1.00  0.00     0.060 A 
ATOM     36  C   UNL A   1      43.571  26.107  25.912  1.00  0.00     0.016 A 
ATOM     37  C   UNL A   1      42.113  24.381  26.775  1.00  0.00     0.016 A 
ATOM     38  C   UNL A   1      42.971  27.054  26.753  1.00  0.00     0.010 A 
ATOM     39  C   UNL A   1      41.526  25.325  27.633  1.00  0.00     0.010 A 
ATOM     40  C   UNL A   1      41.975  26.660  27.655  1.00  0.00    -0.014 A 
BRANCH  40  41
ATOM     41  C   UNL A   1      41.554  27.565  28.764  1.00  0.00     0.031 A 
ATOM     42  C   UNL A   1      42.325  27.507  30.059  1.00  0.00     0.074 A 
ATOM     43  C   UNL A   1      40.523  28.424  28.653  1.00  0.00     0.049 A 
ATOM     44  N   UNL A   1      42.102  28.113  31.198  1.00  0.00    -0.248 NA
ATOM     45  C   UNL A   1      43.510  26.634  30.064  1.00  0.00     0.031 C 
ATOM     46  C   UNL A   1      39.715  28.631  27.455  1.00  0.00     0.029 A 
ATOM     47  N   UNL A   1      39.969  29.274  29.585  1.00  0.00    -0.354 N 
ATOM     48  C   UNL A   1      43.105  27.683  32.057  1.00  0.00     0.074 A 
ATOM     49  C   UNL A   1      43.922  26.744  31.317  1.00  0.00     0.031 C 
ATOM     50  C   UNL A   1      38.753  29.532  27.730  1.00  0.00     0.029 A 
ATOM     51  C   UNL A   1      38.852  29.938  29.133  1.00  0.00     0.049 A 
ATOM     52  H   UNL A   1      40.336  29.395  30.490  1.00  0.00     0.167 HD
ATOM     53  C   UNL A   1      43.334  28.038  33.344  1.00  0.00     0.037 A 
ATOM     54  C   UNL A   1      37.993  30.750  29.783  1.00  0.00     0.037 A 
ATOM     55  C   UNL A   1      42.527  28.969  34.088  1.00  0.00     0.049 A 
ATOM     56  C   UNL A   1      38.216  31.069  31.244  1.00  0.00     0.074 A 
ATOM     57  C   UNL A   1      42.695  29.406  35.391  1.00  0.00     0.029 A 
ATOM     58  N   UNL A   1      41.390  29.596  33.601  1.00  0.00    -0.354 N 
ATOM     59  N   UNL A   1      39.181  30.678  32.042  1.00  0.00    -0.248 NA
ATOM     60  C   UNL A   1      37.226  31.942  31.894  1.00  0.00     0.031 C 
ATOM     61  C   UNL A   1      41.625  30.246  35.713  1.00  0.00     0.029 A 
ATOM     62  C   UNL A   1      40.829  30.391  34.590  1.00  0.00     0.049 A 
ATOM     63  H   UNL A   1      41.034  29.492  32.689  1.00  0.00     0.167 HD
ATOM     64  C   UNL A   1      38.935  31.283  33.270  1.00  0.00     0.074 A 
ATOM     65  C   UNL A   1      37.736  32.077  33.111  1.00  0.00     0.031 C 
ATOM     66  C   UNL A   1      39.641  31.190  34.424  1.00  0.00     0.037 A 
BRANCH  53  67
ATOM     67  C   UNL A   1      44.491  27.386  34.047  1.00  0.00     0.064 A 
ATOM     68  C   UNL A   1      45.767  27.971  34.074  1.00  0.00     0.173 A 
ATOM     69  C   UNL A   1      44.313  26.171  34.726  1.00  0.00     0.173 A 
ATOM     70  F   UNL A   1      45.995  29.125  33.430  1.00  0.00    -0.203 F 
ATOM     71  C   UNL A   1      46.827  27.346  34.727  1.00  0.00     0.198 A 
ATOM     72  C   UNL A   1      45.367  25.567  35.407  1.00  0.00     0.198 A 
ATOM     73  F   UNL A   1      43.113  25.571  34.735  1.00  0.00    -0.203 F 
ATOM     74  F   UNL A   1      48.049  27.895  34.691  1.00  0.00    -0.200 F 
ATOM     75  C   UNL A   1      46.624  26.150  35.398  1.00  0.00     0.200 A 
ATOM     76  F   UNL A   1      45.164  24.419  36.068  1.00  0.00    -0.200 F 
ATOM     77  F   UNL A   1      47.644  25.554  36.031  1.00  0.00    -0.200 F 
ENDBRANCH  53  67
BRANCH  54  78
ATOM     78  C   UNL A   1      36.810  31.312  29.071  1.00  0.00     0.064 A 
ATOM     79  C   UNL A   1      36.751  32.668  28.718  1.00  0.00     0.173 A 
ATOM     80  C   UNL A   1      35.698  30.514  28.766  1.00  0.00     0.173 A 
ATOM     81  F   UNL A   1      37.773  33.484  29.018  1.00  0.00    -0.203 F 
ATOM     82  C   UNL A   1      35.620  33.206  28.105  1.00  0.00     0.198 A 
ATOM     83  C   UNL A   1      34.581  31.045  28.125  1.00  0.00     0.198 A 
ATOM     84  F   UNL A   1      35.696  29.213  29.093  1.00  0.00    -0.203 F 
ATOM     85  F   UNL A   1      35.569  34.517  27.831  1.00  0.00    -0.200 F 
ATOM     86  C   UNL A   1      34.538  32.393  27.802  1.00  0.00     0.200 A 
ATOM     87  F   UNL A   1      33.542  30.253  27.827  1.00  0.00    -0.200 F 
ATOM     88  F   UNL A   1      33.452  32.910  27.213  1.00  0.00    -0.200 F 
ENDBRANCH  54  78
BRANCH  66  89
ATOM     89  C   UNL A   1      39.174  32.002  35.601  1.00  0.00     0.064 A 
ATOM     90  C   UNL A   1      38.352  31.460  36.600  1.00  0.00     0.173 A 
ATOM     91  C   UNL A   1      39.601  33.331  35.758  1.00  0.00     0.173 A 
ATOM     92  F   UNL A   1      37.905  30.199  36.495  1.00  0.00    -0.203 F 
ATOM     93  C   UNL A   1      37.952  32.224  37.695  1.00  0.00     0.198 A 
ATOM     94  C   UNL A   1      39.229  34.081  36.872  1.00  0.00     0.198 A 
ATOM     95  F   UNL A   1      40.398  33.899  34.840  1.00  0.00    -0.203 F 
ATOM     96  F   UNL A   1      37.126  31.700  38.610  1.00  0.00    -0.200 F 
ATOM     97  C   UNL A   1      38.399  33.530  37.834  1.00  0.00     0.200 A 
ATOM     98  F   UNL A   1      39.677  35.337  37.012  1.00  0.00    -0.200 F 
ATOM     99  F   UNL A   1      38.022  34.260  38.894  1.00  0.00    -0.200 F 
ENDBRANCH  66  89
ENDBRANCH  40  41
ENDBRANCH  33  35
ENDBRANCH  32  33
ENDBRANCH  31  32
ENDBRANCH  30  31
ENDBRANCH  29  30
ENDBRANCH  28  29
ENDBRANCH   1  28
TORSDOF 21
ENDMDL
MODEL 2
REMARK VINA RESULT:     -11.2      1.723      3.724
REMARK SMILES C[N@H+]1CCO[C@@H](CNS(=O)(=O)N2CCC(C(=O)OCCOCCOCCOC(=O)c3ccc(-c4c5nc(c(-c6c(F)c(F)c(F)c(F)c6F)c6ccc([nH]6)c(-c6c(F)c(F)c(F)c(F)c6F)c6nc(c(-c7c(F)c(F)c(F)c(F)c7F)c7ccc4[nH]7)C=C6)C=C5)cc3)CC2)C1
REMARK SMILES IDX 22 1 21 2 20 3 19 4 18 5 16 6 17 7 15 8 12 9 13 10 94 11
REMARK SMILES IDX 14 12 93 13 9 14 10 15 11 16 8 17 7 19 6 20 1 21 2 22 3 23
REMARK SMILES IDX 95 24 4 26 5 27 23 28 24 29 25 30 26 31 27 32 28 33 29 34
REMARK SMILES IDX 30 35 31 36 92 37 32 38 91 39 33 40 34 41 35 42 85 43 36 44
REMARK SMILES IDX 90 45 84 46 86 47 37 48 89 49 83 50 82 51 38 53 70 54 50 55
REMARK SMILES IDX 69 56 51 57 54 58 68 59 87 60 52 61 53 62 67 64 88 65 55 66
REMARK SMILES IDX 39 67 40 68 48 69 41 70 42 71 46 72 49 73 43 74 44 75 47 76
REMARK SMILES IDX 45 77 71 78 72 79 80 80 73 81 74 82 78 83 81 84 75 85 76 86
REMARK SMILES IDX 79 87 77 88 56 89 57 90 65 91 58 92 59 93 63 94 66 95 60 96
REMARK SMILES IDX 61 97 64 98 62 99
REMARK H PARENT 8 18 2 25 86 52 54 63
REMARK Flexibility Score: inf
ROOT
ATOM      1  C   UNL A   1      40.532  20.482  26.695  1.00  0.00     0.188 C 
ENDROOT
BRANCH   1   2
ATOM      2  O   UNL A   1      40.158  21.592  25.898  1.00  0.00    -0.376 OA
BRANCH   2   3
ATOM      3  C   UNL A   1      38.815  22.052  25.990  1.00  0.00     0.202 C 
BRANCH   3   4
ATOM      4  C   UNL A   1      37.768  21.425  25.056  1.00  0.00     0.261 C 
BRANCH   4   5
ATOM      5  O   UNL A   1      37.029  22.347  24.224  1.00  0.00    -0.463 OA
BRANCH   5   6
ATOM      6  C   UNL A   1      36.015  23.009  24.839  1.00  0.00     0.309 C 
ATOM      7  O   UNL A   1      36.158  24.024  25.515  1.00  0.00    -0.252 OA
BRANCH   6   8
ATOM      8  C   UNL A   1      34.630  22.400  24.636  1.00  0.00     0.102 C 
ATOM      9  N   UNL A   1      31.772  22.906  24.841  1.00  0.00    -0.189 NA
ATOM     10  C   UNL A   1      32.434  22.954  23.523  1.00  0.00     0.104 C 
ATOM     11  C   UNL A   1      32.332  21.831  25.680  1.00  0.00     0.104 C 
ATOM     12  C   UNL A   1      33.886  23.350  23.693  1.00  0.00     0.032 C 
ATOM     13  C   UNL A   1      33.835  22.009  25.893  1.00  0.00     0.032 C 
BRANCH   9  14
ATOM     14  S   UNL A   1      31.497  24.389  25.585  1.00  0.00     0.279 S 
ATOM     15  O   UNL A   1      32.674  25.207  25.447  1.00  0.00    -0.195 OA
ATOM     16  O   UNL A   1      30.872  24.192  26.869  1.00  0.00    -0.195 OA
BRANCH  14  17
ATOM     17  N   UNL A   1      30.318  25.009  24.564  1.00  0.00    -0.199 NA
ATOM     18  H   UNL A   1      30.587  24.793  23.604  1.00  0.00     0.142 HD
BRANCH  17  19
ATOM     19  C   UNL A   1      30.101  26.472  24.662  1.00  0.00     0.138 C 
BRANCH  19  20
ATOM     20  C   UNL A   1      30.039  27.184  23.298  1.00  0.00     0.188 C 
ATOM     21  C   UNL A   1      31.638  29.426  25.012  1.00  0.00     0.332 C 
ATOM     22  N   UNL A   1      31.281  29.417  23.598  1.00  0.00    -0.333 N 
ATOM     23  C   UNL A   1      32.344  28.833  22.762  1.00  0.00     0.290 C 
ATOM     24  C   UNL A   1      30.013  28.733  23.306  1.00  0.00     0.295 C 
ATOM     25  H   UNL A   1      31.161  30.403  23.365  1.00  0.00     0.348 HD
ATOM     26  C   UNL A   1      32.379  27.294  22.769  1.00  0.00     0.222 C 
ATOM     27  O   UNL A   1      31.105  26.716  22.439  1.00  0.00    -0.365 OA
ENDBRANCH  19  20
ENDBRANCH  17  19
ENDBRANCH  14  17
ENDBRANCH   9  14
ENDBRANCH   6   8
ENDBRANCH   5   6
ENDBRANCH   4   5
ENDBRANCH   3   4
ENDBRANCH   2   3
ENDBRANCH   1   2
BRANCH   1  28
ATOM     28  C   UNL A   1      41.151  19.254  26.018  1.00  0.00     0.188 C 
BRANCH  28  29
ATOM     29  O   UNL A   1      42.271  19.496  25.194  1.00  0.00    -0.376 OA
BRANCH  29  30
ATOM     30  C   UNL A   1      43.367  20.162  25.811  1.00  0.00     0.202 C 
BRANCH  30  31
ATOM     31  C   UNL A   1      43.938  21.324  24.973  1.00  0.00     0.261 C 
BRANCH  31  32
ATOM     32  O   UNL A   1      43.206  22.573  25.008  1.00  0.00    -0.460 OA
BRANCH  32  33
ATOM     33  C   UNL A   1      43.920  23.727  25.002  1.00  0.00     0.338 C 
ATOM     34  O   UNL A   1      44.795  24.029  24.208  1.00  0.00    -0.246 OA
BRANCH  33  35
ATOM     35  C   UNL A   1      43.259  24.702  25.924  1.00  0.00     0.060 A 
ATOM     36  C   UNL A   1      43.684  26.043  25.896  1.00  0.00     0.016 A 
ATOM     37  C   UNL A   1      42.194  24.340  26.750  1.00  0.00     0.016 A 
ATOM     38  C   UNL A   1      43.086  27.001  26.727  1.00  0.00     0.010 A 
ATOM     39  C   UNL A   1      41.609  25.295  27.597  1.00  0.00     0.010 A 
ATOM     40  C   UNL A   1      42.075  26.624  27.619  1.00  0.00    -0.014 A 
BRANCH  40  41
ATOM     41  C   UNL A   1      41.653  27.540  28.718  1.00  0.00     0.031 A 
ATOM     42  C   UNL A   1      42.450  27.525  29.999  1.00  0.00     0.074 A 
ATOM     43  C   UNL A   1      40.599  28.371  28.612  1.00  0.00     0.049 A 
ATOM     44  N   UNL A   1      42.234  28.147  31.131  1.00  0.00    -0.248 NA
ATOM     45  C   UNL A   1      43.656  26.682  29.997  1.00  0.00     0.031 C 
ATOM     46  C   UNL A   1      39.763  28.535  27.427  1.00  0.00     0.029 A 
ATOM     47  N   UNL A   1      40.042  29.224  29.539  1.00  0.00    -0.354 N 
ATOM     48  C   UNL A   1      43.263  27.758  31.978  1.00  0.00     0.074 A 
ATOM     49  C   UNL A   1      44.089  26.826  31.240  1.00  0.00     0.031 C 
ATOM     50  C   UNL A   1      38.785  29.418  27.703  1.00  0.00     0.029 A 
ATOM     51  C   UNL A   1      38.900  29.852  29.096  1.00  0.00     0.049 A 
ATOM     52  H   UNL A   1      40.423  29.371  30.434  1.00  0.00     0.167 HD
ATOM     53  C   UNL A   1      43.508  28.142  33.254  1.00  0.00     0.037 A 
ATOM     54  C   UNL A   1      38.034  30.655  29.748  1.00  0.00     0.037 A 
ATOM     55  C   UNL A   1      42.692  29.067  33.996  1.00  0.00     0.049 A 
ATOM     56  C   UNL A   1      38.277  31.007  31.198  1.00  0.00     0.074 A 
ATOM     57  C   UNL A   1      42.874  29.533  35.288  1.00  0.00     0.029 A 
ATOM     58  N   UNL A   1      41.531  29.657  33.520  1.00  0.00    -0.354 N 
ATOM     59  N   UNL A   1      39.266  30.655  31.984  1.00  0.00    -0.248 NA
ATOM     60  C   UNL A   1      37.279  31.868  31.852  1.00  0.00     0.031 C 
ATOM     61  C   UNL A   1      41.790  30.353  35.615  1.00  0.00     0.029 A 
ATOM     62  C   UNL A   1      40.970  30.456  34.504  1.00  0.00     0.049 A 
ATOM     63  H   UNL A   1      41.161  29.527  32.617  1.00  0.00     0.167 HD
ATOM     64  C   UNL A   1      39.029  31.277  33.205  1.00  0.00     0.074 A 
ATOM     65  C   UNL A   1      37.808  32.038  33.056  1.00  0.00     0.031 C 
ATOM     66  C   UNL A   1      39.759  31.223  34.347  1.00  0.00     0.037 A 
BRANCH  53  67
ATOM     67  C   UNL A   1      44.694  27.533  33.946  1.00  0.00     0.064 A 
ATOM     68  C   UNL A   1      44.603  26.318  34.642  1.00  0.00     0.173 A 
ATOM     69  C   UNL A   1      45.946  28.163  33.888  1.00  0.00     0.173 A 
ATOM     70  F   UNL A   1      43.426  25.682  34.740  1.00  0.00    -0.203 F 
ATOM     71  C   UNL A   1      45.714  25.774  35.282  1.00  0.00     0.198 A 
ATOM     72  C   UNL A   1      47.063  27.598  34.500  1.00  0.00     0.198 A 
ATOM     73  F   UNL A   1      46.091  29.324  33.233  1.00  0.00    -0.203 F 
ATOM     74  F   UNL A   1      45.589  24.641  35.988  1.00  0.00    -0.200 F 
ATOM     75  C   UNL A   1      46.943  26.410  35.203  1.00  0.00     0.200 A 
ATOM     76  F   UNL A   1      48.254  28.207  34.410  1.00  0.00    -0.200 F 
ATOM     77  F   UNL A   1      48.013  25.881  35.814  1.00  0.00    -0.200 F 
ENDBRANCH  53  67
BRANCH  54  78
ATOM     78  C   UNL A   1      36.825  31.175  29.049  1.00  0.00     0.064 A 
ATOM     79  C   UNL A   1      36.721  32.524  28.682  1.00  0.00     0.173 A 
ATOM     80  C   UNL A   1      35.731  30.341  28.771  1.00  0.00     0.173 A 
ATOM     81  F   UNL A   1      37.723  33.372  28.956  1.00  0.00    -0.203 F 
ATOM     82  C   UNL A   1      35.565  33.022  28.082  1.00  0.00     0.198 A 
ATOM     83  C   UNL A   1      34.589  30.832  28.143  1.00  0.00     0.198 A 
ATOM     84  F   UNL A   1      35.771  29.045  29.114  1.00  0.00    -0.203 F 
ATOM     85  F   UNL A   1      35.471  34.327  27.793  1.00  0.00    -0.200 F 
ATOM     86  C   UNL A   1      34.502  32.175  27.805  1.00  0.00     0.200 A 
ATOM     87  F   UNL A   1      33.569  30.007  27.871  1.00  0.00    -0.200 F 
ATOM     88  F   UNL A   1      33.392  32.653  27.228  1.00  0.00    -0.200 F 
ENDBRANCH  54  78
BRANCH  66  89
ATOM     89  C   UNL A   1      39.295  32.046  35.518  1.00  0.00     0.064 A 
ATOM     90  C   UNL A   1      39.651  33.393  35.669  1.00  0.00     0.173 A 
ATOM     91  C   UNL A   1      38.435  31.487  36.479  1.00  0.00     0.173 A 
ATOM     92  F   UNL A   1      40.479  33.975  34.787  1.00  0.00    -0.203 F 
ATOM     93  C   UNL A   1      39.189  34.143  36.749  1.00  0.00     0.198 A 
ATOM     94  C   UNL A   1      37.946  32.249  37.538  1.00  0.00     0.198 A 
ATOM     95  F   UNL A   1      38.051  30.205  36.381  1.00  0.00    -0.203 F 
ATOM     96  F   UNL A   1      39.584  35.415  36.899  1.00  0.00    -0.200 F 
ATOM     97  C   UNL A   1      38.330  33.572  37.677  1.00  0.00     0.200 A 
ATOM     98  F   UNL A   1      37.102  31.700  38.423  1.00  0.00    -0.200 F 
ATOM     99  F   UNL A   1      37.877  34.299  38.709  1.00  0.00    -0.200 F 
ENDBRANCH  66  89
ENDBRANCH  40  41
ENDBRANCH  33  35
ENDBRANCH  32  33
ENDBRANCH  31  32
ENDBRANCH  30  31
ENDBRANCH  29  30
ENDBRANCH  28  29
ENDBRANCH   1  28
TORSDOF 21
ENDMDL
MODEL 3
REMARK VINA RESULT:     -11.2      2.054      3.835
REMARK SMILES C[N@H+]1CCO[C@@H](CNS(=O)(=O)N2CCC(C(=O)OCCOCCOCCOC(=O)c3ccc(-c4c5nc(c(-c6c(F)c(F)c(F)c(F)c6F)c6ccc([nH]6)c(-c6c(F)c(F)c(F)c(F)c6F)c6nc(c(-c7c(F)c(F)c(F)c(F)c7F)c7ccc4[nH]7)C=C6)C=C5)cc3)CC2)C1
REMARK SMILES IDX 22 1 21 2 20 3 19 4 18 5 16 6 17 7 15 8 12 9 13 10 94 11
REMARK SMILES IDX 14 12 93 13 9 14 10 15 11 16 8 17 7 19 6 20 1 21 2 22 3 23
REMARK SMILES IDX 95 24 4 26 5 27 23 28 24 29 25 30 26 31 27 32 28 33 29 34
REMARK SMILES IDX 30 35 31 36 92 37 32 38 91 39 33 40 34 41 35 42 85 43 36 44
REMARK SMILES IDX 90 45 84 46 86 47 37 48 89 49 83 50 82 51 38 53 70 54 50 55
REMARK SMILES IDX 69 56 51 57 54 58 68 59 87 60 52 61 53 62 67 64 88 65 55 66
REMARK SMILES IDX 39 67 40 68 48 69 41 70 42 71 46 72 49 73 43 74 44 75 47 76
REMARK SMILES IDX 45 77 71 78 72 79 80 80 73 81 74 82 78 83 81 84 75 85 76 86
REMARK SMILES IDX 79 87 77 88 56 89 57 90 65 91 58 92 59 93 63 94 66 95 60 96
REMARK SMILES IDX 61 97 64 98 62 99
REMARK H PARENT 8 18 2 25 86 52 54 63
REMARK Flexibility Score: inf
ROOT
ATOM      1  C   UNL A   1      39.980  19.999  25.948  1.00  0.00     0.188 C 
ENDROOT
BRANCH   1   2
ATOM      2  O   UNL A   1      39.992  21.416  25.912  1.00  0.00    -0.376 OA
BRANCH   2   3
ATOM      3  C   UNL A   1      38.739  22.088  25.855  1.00  0.00     0.202 C 
BRANCH   3   4
ATOM      4  C   UNL A   1      37.639  21.496  24.960  1.00  0.00     0.261 C 
BRANCH   4   5
ATOM      5  O   UNL A   1      36.321  22.070  25.112  1.00  0.00    -0.463 OA
BRANCH   5   6
ATOM      6  C   UNL A   1      35.885  22.824  24.069  1.00  0.00     0.309 C 
ATOM      7  O   UNL A   1      36.605  23.242  23.167  1.00  0.00    -0.252 OA
BRANCH   6   8
ATOM      8  C   UNL A   1      34.391  23.135  24.078  1.00  0.00     0.102 C 
ATOM      9  N   UNL A   1      32.262  24.546  22.684  1.00  0.00    -0.189 NA
ATOM     10  C   UNL A   1      32.412  23.087  22.514  1.00  0.00     0.104 C 
ATOM     11  C   UNL A   1      32.550  24.953  24.071  1.00  0.00     0.104 C 
ATOM     12  C   UNL A   1      33.861  22.694  22.711  1.00  0.00     0.032 C 
ATOM     13  C   UNL A   1      33.964  24.554  24.492  1.00  0.00     0.032 C 
BRANCH   9  14
ATOM     14  S   UNL A   1      32.904  25.502  21.459  1.00  0.00     0.279 S 
ATOM     15  O   UNL A   1      32.975  24.727  20.247  1.00  0.00    -0.195 OA
ATOM     16  O   UNL A   1      34.050  26.229  21.946  1.00  0.00    -0.195 OA
BRANCH  14  17
ATOM     17  N   UNL A   1      31.664  26.618  21.284  1.00  0.00    -0.199 NA
ATOM     18  H   UNL A   1      32.020  27.403  20.738  1.00  0.00     0.142 HD
BRANCH  17  19
ATOM     19  C   UNL A   1      31.110  27.154  22.551  1.00  0.00     0.138 C 
BRANCH  19  20
ATOM     20  C   UNL A   1      31.194  28.686  22.667  1.00  0.00     0.188 C 
ATOM     21  C   UNL A   1      31.284  27.895  25.812  1.00  0.00     0.332 C 
ATOM     22  N   UNL A   1      31.387  29.205  25.180  1.00  0.00    -0.333 N 
ATOM     23  C   UNL A   1      32.784  29.579  24.903  1.00  0.00     0.290 C 
ATOM     24  C   UNL A   1      30.603  29.336  23.942  1.00  0.00     0.295 C 
ATOM     25  H   UNL A   1      30.989  29.845  25.867  1.00  0.00     0.348 HD
ATOM     26  C   UNL A   1      33.376  28.919  23.644  1.00  0.00     0.222 C 
ATOM     27  O   UNL A   1      32.559  29.129  22.479  1.00  0.00    -0.365 OA
ENDBRANCH  19  20
ENDBRANCH  17  19
ENDBRANCH  14  17
ENDBRANCH   9  14
ENDBRANCH   6   8
ENDBRANCH   5   6
ENDBRANCH   4   5
ENDBRANCH   3   4
ENDBRANCH   2   3
ENDBRANCH   1   2
BRANCH   1  28
ATOM     28  C   UNL A   1      41.294  19.251  26.195  1.00  0.00     0.188 C 
BRANCH  28  29
ATOM     29  O   UNL A   1      42.414  20.048  26.513  1.00  0.00    -0.376 OA
BRANCH  29  30
ATOM     30  C   UNL A   1      43.459  20.068  25.547  1.00  0.00     0.202 C 
BRANCH  30  31
ATOM     31  C   UNL A   1      44.106  21.456  25.362  1.00  0.00     0.261 C 
BRANCH  31  32
ATOM     32  O   UNL A   1      43.224  22.602  25.452  1.00  0.00    -0.460 OA
BRANCH  32  33
ATOM     33  C   UNL A   1      43.756  23.830  25.229  1.00  0.00     0.338 C 
ATOM     34  O   UNL A   1      44.453  24.153  24.282  1.00  0.00    -0.246 OA
BRANCH  33  35
ATOM     35  C   UNL A   1      43.105  24.808  26.155  1.00  0.00     0.060 A 
ATOM     36  C   UNL A   1      43.555  26.140  26.146  1.00  0.00     0.016 A 
ATOM     37  C   UNL A   1      42.025  24.456  26.968  1.00  0.00     0.016 A 
ATOM     38  C   UNL A   1      42.967  27.101  26.980  1.00  0.00     0.010 A 
ATOM     39  C   UNL A   1      41.450  25.414  27.818  1.00  0.00     0.010 A 
ATOM     40  C   UNL A   1      41.940  26.734  27.859  1.00  0.00    -0.014 A 
BRANCH  40  41
ATOM     41  C   UNL A   1      41.525  27.646  28.964  1.00  0.00     0.031 A 
ATOM     42  C   UNL A   1      42.281  27.571  30.267  1.00  0.00     0.074 A 
ATOM     43  C   UNL A   1      40.511  28.523  28.844  1.00  0.00     0.049 A 
ATOM     44  N   UNL A   1      42.057  28.180  31.404  1.00  0.00    -0.248 NA
ATOM     45  C   UNL A   1      43.449  26.677  30.284  1.00  0.00     0.031 C 
ATOM     46  C   UNL A   1      39.720  28.747  27.638  1.00  0.00     0.029 A 
ATOM     47  N   UNL A   1      39.963  29.383  29.770  1.00  0.00    -0.354 N 
ATOM     48  C   UNL A   1      43.043  27.731  32.274  1.00  0.00     0.074 A 
ATOM     49  C   UNL A   1      43.850  26.778  31.541  1.00  0.00     0.031 C 
ATOM     50  C   UNL A   1      38.772  29.666  27.903  1.00  0.00     0.029 A 
ATOM     51  C   UNL A   1      38.863  30.068  29.307  1.00  0.00     0.049 A 
ATOM     52  H   UNL A   1      40.323  29.496  30.679  1.00  0.00     0.167 HD
ATOM     53  C   UNL A   1      43.265  28.080  33.563  1.00  0.00     0.037 A 
ATOM     54  C   UNL A   1      38.013  30.895  29.949  1.00  0.00     0.037 A 
ATOM     55  C   UNL A   1      42.467  29.025  34.300  1.00  0.00     0.049 A 
ATOM     56  C   UNL A   1      38.227  31.208  31.413  1.00  0.00     0.074 A 
ATOM     57  C   UNL A   1      42.630  29.458  35.606  1.00  0.00     0.029 A 
ATOM     58  N   UNL A   1      41.348  29.674  33.802  1.00  0.00    -0.354 N 
ATOM     59  N   UNL A   1      39.176  30.799  32.220  1.00  0.00    -0.248 NA
ATOM     60  C   UNL A   1      37.247  32.100  32.054  1.00  0.00     0.031 C 
ATOM     61  C   UNL A   1      41.572  30.318  35.917  1.00  0.00     0.029 A 
ATOM     62  C   UNL A   1      40.792  30.478  34.785  1.00  0.00     0.049 A 
ATOM     63  H   UNL A   1      41.000  29.578  32.886  1.00  0.00     0.167 HD
ATOM     64  C   UNL A   1      38.929  31.407  33.447  1.00  0.00     0.074 A 
ATOM     65  C   UNL A   1      37.746  32.223  33.277  1.00  0.00     0.031 C 
ATOM     66  C   UNL A   1      39.620  31.299  34.608  1.00  0.00     0.037 A 
BRANCH  53  67
ATOM     67  C   UNL A   1      44.402  27.407  34.278  1.00  0.00     0.064 A 
ATOM     68  C   UNL A   1      44.209  26.262  35.066  1.00  0.00     0.173 A 
ATOM     69  C   UNL A   1      45.709  27.900  34.149  1.00  0.00     0.173 A 
ATOM     70  F   UNL A   1      42.977  25.758  35.234  1.00  0.00    -0.203 F 
ATOM     71  C   UNL A   1      45.277  25.657  35.725  1.00  0.00     0.198 A 
ATOM     72  C   UNL A   1      46.780  27.273  34.781  1.00  0.00     0.198 A 
ATOM     73  F   UNL A   1      45.952  28.989  33.404  1.00  0.00    -0.203 F 
ATOM     74  F   UNL A   1      45.059  24.599  36.518  1.00  0.00    -0.200 F 
ATOM     75  C   UNL A   1      46.561  26.158  35.575  1.00  0.00     0.200 A 
ATOM     76  F   UNL A   1      48.022  27.749  34.622  1.00  0.00    -0.200 F 
ATOM     77  F   UNL A   1      47.588  25.570  36.204  1.00  0.00    -0.200 F 
ENDBRANCH  53  67
BRANCH  54  78
ATOM     78  C   UNL A   1      36.849  31.480  29.226  1.00  0.00     0.064 A 
ATOM     79  C   UNL A   1      36.826  32.834  28.860  1.00  0.00     0.173 A 
ATOM     80  C   UNL A   1      35.718  30.707  28.922  1.00  0.00     0.173 A 
ATOM     81  F   UNL A   1      37.866  33.626  29.158  1.00  0.00    -0.203 F 
ATOM     82  C   UNL A   1      35.711  33.394  28.236  1.00  0.00     0.198 A 
ATOM     83  C   UNL A   1      34.618  31.259  28.270  1.00  0.00     0.198 A 
ATOM     84  F   UNL A   1      35.681  29.409  29.262  1.00  0.00    -0.203 F 
ATOM     85  F   UNL A   1      35.695  34.703  27.950  1.00  0.00    -0.200 F 
ATOM     86  C   UNL A   1      34.611  32.605  27.935  1.00  0.00     0.200 A 
ATOM     87  F   UNL A   1      33.561  30.491  27.974  1.00  0.00    -0.200 F 
ATOM     88  F   UNL A   1      33.541  33.144  27.335  1.00  0.00    -0.200 F 
ENDBRANCH  54  78
BRANCH  66  89
ATOM     89  C   UNL A   1      39.156  32.119  35.782  1.00  0.00     0.064 A 
ATOM     90  C   UNL A   1      38.323  31.588  36.777  1.00  0.00     0.173 A 
ATOM     91  C   UNL A   1      39.597  33.443  35.938  1.00  0.00     0.173 A 
ATOM     92  F   UNL A   1      37.863  30.332  36.673  1.00  0.00    -0.203 F 
ATOM     93  C   UNL A   1      37.926  32.359  37.868  1.00  0.00     0.198 A 
ATOM     94  C   UNL A   1      39.227  34.200  37.048  1.00  0.00     0.198 A 
ATOM     95  F   UNL A   1      40.404  34.001  35.023  1.00  0.00    -0.203 F 
ATOM     96  F   UNL A   1      37.089  31.846  38.780  1.00  0.00    -0.200 F 
ATOM     97  C   UNL A   1      38.386  33.660  38.007  1.00  0.00     0.200 A 
ATOM     98  F   UNL A   1      39.688  35.451  37.189  1.00  0.00    -0.200 F 
ATOM     99  F   UNL A   1      38.012  34.396  39.064  1.00  0.00    -0.200 F 
ENDBRANCH  66  89
ENDBRANCH  40  41
ENDBRANCH  33  35
ENDBRANCH  32  33
ENDBRANCH  31  32
ENDBRANCH  30  31
ENDBRANCH  29  30
ENDBRANCH  28  29
ENDBRANCH   1  28
TORSDOF 21
ENDMDL
