MODEL 1
REMARK VINA RESULT:     -11.1      0.000      0.000
REMARK SMILES CC(C)Cc1cc2c(cc1Cl)C=C(C(=O)OCCOCCOCCOC(=O)c1ccc(-c3c4nc(c(-c5c(F)c(F)c(F)c(F)c5F)c5ccc([nH]5)c(-c5c(F)c(F)c(F)c(F)c5F)c5nc(c(-c6c(F)c(F)c(F)c(F)c6F)c6ccc3[nH]6)C=C5)C=C4)cc1)[C@@H](C(F)(F)F)O2
REMARK SMILES IDX 20 1 19 2 18 3 17 4 16 5 14 6 15 7 13 8 5 9 6 10 10 11 7 12
REMARK SMILES IDX 9 13 11 14 8 15 96 16 12 17 91 18 4 19 2 20 1 21 3 22 92 23
REMARK SMILES IDX 93 24 94 25 95 26 21 27 22 28 23 29 24 30 25 31 26 32 27 33
REMARK SMILES IDX 28 34 29 35 90 36 30 37 89 38 31 39 32 40 33 41 83 42 34 43
REMARK SMILES IDX 88 44 82 45 84 46 35 47 87 48 81 49 80 50 36 52 68 53 48 54
REMARK SMILES IDX 67 55 49 56 52 57 66 58 85 59 50 60 51 61 65 63 86 64 53 65
REMARK SMILES IDX 37 66 38 67 46 68 39 69 40 70 44 71 47 72 41 73 42 74 45 75
REMARK SMILES IDX 43 76 69 77 70 78 78 79 71 80 72 81 76 82 79 83 73 84 74 85
REMARK SMILES IDX 77 86 75 87 54 88 55 89 63 90 56 91 57 92 61 93 64 94 58 95
REMARK SMILES IDX 59 96 62 97 60 98
REMARK H PARENT 84 51 52 62
REMARK Flexibility Score: inf
ROOT
ATOM      1  C   UNL A   1      41.000  20.172  26.606  1.00  0.00     0.188 C 
ENDROOT
BRANCH   1   2
ATOM      2  O   UNL A   1      39.723  20.195  26.012  1.00  0.00    -0.376 OA
BRANCH   2   3
ATOM      3  C   UNL A   1      38.996  21.402  25.864  1.00  0.00     0.202 C 
BRANCH   3   4
ATOM      4  C   UNL A   1      37.772  21.556  24.951  1.00  0.00     0.261 C 
BRANCH   4   5
ATOM      5  O   UNL A   1      36.593  22.070  25.578  1.00  0.00    -0.460 OA
BRANCH   5   6
ATOM      6  C   UNL A   1      35.433  21.523  25.142  1.00  0.00     0.338 C 
ATOM      7  O   UNL A   1      35.191  20.337  24.993  1.00  0.00    -0.246 OA
BRANCH   6   8
ATOM      8  C   UNL A   1      34.406  22.575  25.028  1.00  0.00     0.087 C 
ATOM      9  C   UNL A   1      32.154  26.984  24.294  1.00  0.00    -0.025 A 
ATOM     10  C   UNL A   1      31.826  25.820  25.015  1.00  0.00     0.052 A 
ATOM     11  C   UNL A   1      33.230  26.933  23.394  1.00  0.00     0.045 A 
ATOM     12  C   UNL A   1      32.621  24.677  24.928  1.00  0.00     0.128 A 
ATOM     13  C   UNL A   1      34.024  25.786  23.306  1.00  0.00     0.032 A 
ATOM     14  Cl  UNL A   1      33.679  28.277  22.407  1.00  0.00    -0.084 Cl
ATOM     15  C   UNL A   1      33.749  24.678  24.113  1.00  0.00     0.019 A 
ATOM     16  O   UNL A   1      32.245  23.620  25.706  1.00  0.00    -0.475 OA
ATOM     17  C   UNL A   1      34.687  23.575  24.182  1.00  0.00     0.027 C 
ATOM     18  C   UNL A   1      33.139  22.480  25.833  1.00  0.00     0.316 C 
BRANCH   9  19
ATOM     19  C   UNL A   1      31.418  28.265  24.626  1.00  0.00     0.040 C 
BRANCH  19  20
ATOM     20  C   UNL A   1      30.466  28.707  23.487  1.00  0.00    -0.013 C 
ATOM     21  C   UNL A   1      29.301  27.738  23.264  1.00  0.00     0.008 C 
ATOM     22  C   UNL A   1      29.914  30.104  23.776  1.00  0.00     0.008 C 
ENDBRANCH  19  20
ENDBRANCH   9  19
BRANCH  18  23
ATOM     23  C   UNL A   1      33.408  22.251  27.327  1.00  0.00     0.430 C 
ATOM     24  F   UNL A   1      34.466  22.981  27.754  1.00  0.00    -0.167 F 
ATOM     25  F   UNL A   1      32.352  22.616  28.092  1.00  0.00    -0.167 F 
ATOM     26  F   UNL A   1      33.674  20.953  27.598  1.00  0.00    -0.167 F 
ENDBRANCH  18  23
ENDBRANCH   6   8
ENDBRANCH   5   6
ENDBRANCH   4   5
ENDBRANCH   3   4
ENDBRANCH   2   3
ENDBRANCH   1   2
BRANCH   1  27
ATOM     27  C   UNL A   1      42.110  21.136  26.133  1.00  0.00     0.188 C 
BRANCH  27  28
ATOM     28  O   UNL A   1      43.200  20.667  25.373  1.00  0.00    -0.376 OA
BRANCH  28  29
ATOM     29  C   UNL A   1      44.332  21.498  25.170  1.00  0.00     0.202 C 
BRANCH  29  30
ATOM     30  C   UNL A   1      44.358  22.645  24.148  1.00  0.00     0.261 C 
BRANCH  30  31
ATOM     31  O   UNL A   1      43.735  23.866  24.563  1.00  0.00    -0.460 OA
BRANCH  31  32
ATOM     32  C   UNL A   1      44.584  24.812  25.052  1.00  0.00     0.338 C 
ATOM     33  O   UNL A   1      45.649  25.159  24.596  1.00  0.00    -0.246 OA
BRANCH  32  34
ATOM     34  C   UNL A   1      43.898  25.528  26.150  1.00  0.00     0.060 A 
ATOM     35  C   UNL A   1      42.935  24.886  26.927  1.00  0.00     0.016 A 
ATOM     36  C   UNL A   1      44.233  26.868  26.391  1.00  0.00     0.016 A 
ATOM     37  C   UNL A   1      42.318  25.586  27.965  1.00  0.00     0.010 A 
ATOM     38  C   UNL A   1      43.602  27.572  27.418  1.00  0.00     0.010 A 
ATOM     39  C   UNL A   1      42.654  26.929  28.225  1.00  0.00    -0.014 A 
BRANCH  39  40
ATOM     40  C   UNL A   1      42.134  27.592  29.445  1.00  0.00     0.031 A 
ATOM     41  C   UNL A   1      42.828  27.482  30.768  1.00  0.00     0.074 A 
ATOM     42  C   UNL A   1      41.003  28.313  29.334  1.00  0.00     0.049 A 
ATOM     43  N   UNL A   1      42.546  28.089  31.894  1.00  0.00    -0.248 NA
ATOM     44  C   UNL A   1      43.979  26.573  30.845  1.00  0.00     0.031 C 
ATOM     45  C   UNL A   1      40.225  28.459  28.105  1.00  0.00     0.029 A 
ATOM     46  N   UNL A   1      40.322  29.067  30.256  1.00  0.00    -0.354 N 
ATOM     47  C   UNL A   1      43.499  27.662  32.807  1.00  0.00     0.074 A 
ATOM     48  C   UNL A   1      44.336  26.701  32.118  1.00  0.00     0.031 C 
ATOM     49  C   UNL A   1      39.190  29.279  28.338  1.00  0.00     0.029 A 
ATOM     50  C   UNL A   1      39.219  29.697  29.737  1.00  0.00     0.049 A 
ATOM     51  H   UNL A   1      40.597  29.146  31.198  1.00  0.00     0.167 HD
ATOM     52  C   UNL A   1      43.668  28.059  34.092  1.00  0.00     0.037 A 
ATOM     53  C   UNL A   1      38.334  30.529  30.318  1.00  0.00     0.037 A 
ATOM     54  C   UNL A   1      42.817  29.004  34.775  1.00  0.00     0.049 A 
ATOM     55  C   UNL A   1      38.519  30.912  31.760  1.00  0.00     0.074 A 
ATOM     56  C   UNL A   1      42.938  29.496  36.065  1.00  0.00     0.029 A 
ATOM     57  N   UNL A   1      41.683  29.591  34.234  1.00  0.00    -0.354 N 
ATOM     58  N   UNL A   1      39.476  30.572  32.588  1.00  0.00    -0.248 NA
ATOM     59  C   UNL A   1      37.507  31.803  32.344  1.00  0.00     0.031 C 
ATOM     60  C   UNL A   1      41.848  30.332  36.322  1.00  0.00     0.029 A 
ATOM     61  C   UNL A   1      41.077  30.411  35.174  1.00  0.00     0.049 A 
ATOM     62  H   UNL A   1      41.355  29.445  33.316  1.00  0.00     0.167 HD
ATOM     63  C   UNL A   1      39.193  31.219  33.783  1.00  0.00     0.074 A 
ATOM     64  C   UNL A   1      37.987  31.992  33.565  1.00  0.00     0.031 C 
ATOM     65  C   UNL A   1      39.873  31.174  34.954  1.00  0.00     0.037 A 
BRANCH  52  66
ATOM     66  C   UNL A   1      44.829  27.491  34.858  1.00  0.00     0.064 A 
ATOM     67  C   UNL A   1      44.710  26.290  35.572  1.00  0.00     0.173 A 
ATOM     68  C   UNL A   1      46.096  28.093  34.794  1.00  0.00     0.173 A 
ATOM     69  F   UNL A   1      43.522  25.674  35.665  1.00  0.00    -0.203 F 
ATOM     70  C   UNL A   1      45.812  25.717  36.203  1.00  0.00     0.198 A 
ATOM     71  C   UNL A   1      47.201  27.503  35.403  1.00  0.00     0.198 A 
ATOM     72  F   UNL A   1      46.268  29.236  34.112  1.00  0.00    -0.203 F 
ATOM     73  F   UNL A   1      45.669  24.580  36.897  1.00  0.00    -0.200 F 
ATOM     74  C   UNL A   1      47.058  26.319  36.108  1.00  0.00     0.200 A 
ATOM     75  F   UNL A   1      48.409  28.074  35.293  1.00  0.00    -0.200 F 
ATOM     76  F   UNL A   1      48.123  25.753  36.696  1.00  0.00    -0.200 F 
ENDBRANCH  52  66
BRANCH  53  77
ATOM     77  C   UNL A   1      37.220  31.088  29.511  1.00  0.00     0.064 A 
ATOM     78  C   UNL A   1      37.258  32.413  29.056  1.00  0.00     0.173 A 
ATOM     79  C   UNL A   1      36.114  30.304  29.154  1.00  0.00     0.173 A 
ATOM     80  F   UNL A   1      38.288  33.206  29.387  1.00  0.00    -0.203 F 
ATOM     81  C   UNL A   1      36.225  32.935  28.281  1.00  0.00     0.198 A 
ATOM     82  C   UNL A   1      35.097  30.819  28.354  1.00  0.00     0.198 A 
ATOM     83  F   UNL A   1      36.035  29.028  29.560  1.00  0.00    -0.203 F 
ATOM     84  F   UNL A   1      36.269  34.215  27.885  1.00  0.00    -0.200 F 
ATOM     85  C   UNL A   1      35.150  32.135  27.923  1.00  0.00     0.200 A 
ATOM     86  F   UNL A   1      34.068  30.038  27.997  1.00  0.00    -0.200 F 
ATOM     87  F   UNL A   1      34.165  32.635  27.165  1.00  0.00    -0.200 F 
ENDBRANCH  53  77
BRANCH  65  88
ATOM     88  C   UNL A   1      39.339  31.987  36.101  1.00  0.00     0.064 A 
ATOM     89  C   UNL A   1      39.786  33.294  36.343  1.00  0.00     0.173 A 
ATOM     90  C   UNL A   1      38.325  31.477  36.927  1.00  0.00     0.173 A 
ATOM     91  F   UNL A   1      40.765  33.822  35.593  1.00  0.00    -0.203 F 
ATOM     92  C   UNL A   1      39.251  34.054  37.380  1.00  0.00     0.198 A 
ATOM     93  C   UNL A   1      37.769  32.251  37.942  1.00  0.00     0.198 A 
ATOM     94  F   UNL A   1      37.856  30.234  36.735  1.00  0.00    -0.203 F 
ATOM     95  F   UNL A   1      39.722  35.286  37.618  1.00  0.00    -0.200 F 
ATOM     96  C   UNL A   1      38.235  33.536  38.171  1.00  0.00     0.200 A 
ATOM     97  F   UNL A   1      36.778  31.755  38.694  1.00  0.00    -0.200 F 
ATOM     98  F   UNL A   1      37.709  34.277  39.157  1.00  0.00    -0.200 F 
ENDBRANCH  65  88
ENDBRANCH  39  40
ENDBRANCH  32  34
ENDBRANCH  31  32
ENDBRANCH  30  31
ENDBRANCH  29  30
ENDBRANCH  28  29
ENDBRANCH  27  28
ENDBRANCH   1  27
TORSDOF 20
ENDMDL
MODEL 2
REMARK VINA RESULT:     -11.1      0.813      7.170
REMARK SMILES CC(C)Cc1cc2c(cc1Cl)C=C(C(=O)OCCOCCOCCOC(=O)c1ccc(-c3c4nc(c(-c5c(F)c(F)c(F)c(F)c5F)c5ccc([nH]5)c(-c5c(F)c(F)c(F)c(F)c5F)c5nc(c(-c6c(F)c(F)c(F)c(F)c6F)c6ccc3[nH]6)C=C5)C=C4)cc1)[C@@H](C(F)(F)F)O2
REMARK SMILES IDX 20 1 19 2 18 3 17 4 16 5 14 6 15 7 13 8 5 9 6 10 10 11 7 12
REMARK SMILES IDX 9 13 11 14 8 15 96 16 12 17 91 18 4 19 2 20 1 21 3 22 92 23
REMARK SMILES IDX 93 24 94 25 95 26 21 27 22 28 23 29 24 30 25 31 26 32 27 33
REMARK SMILES IDX 28 34 29 35 90 36 30 37 89 38 31 39 32 40 33 41 83 42 34 43
REMARK SMILES IDX 88 44 82 45 84 46 35 47 87 48 81 49 80 50 36 52 68 53 48 54
REMARK SMILES IDX 67 55 49 56 52 57 66 58 85 59 50 60 51 61 65 63 86 64 53 65
REMARK SMILES IDX 37 66 38 67 46 68 39 69 40 70 44 71 47 72 41 73 42 74 45 75
REMARK SMILES IDX 43 76 69 77 70 78 78 79 71 80 72 81 76 82 79 83 73 84 74 85
REMARK SMILES IDX 77 86 75 87 54 88 55 89 63 90 56 91 57 92 61 93 64 94 58 95
REMARK SMILES IDX 59 96 62 97 60 98
REMARK H PARENT 84 51 52 62
REMARK Flexibility Score: inf
ROOT
ATOM      1  C   UNL A   1      41.174  20.529  27.133  1.00  0.00     0.188 C 
ENDROOT
BRANCH   1   2
ATOM      2  O   UNL A   1      39.917  20.491  26.496  1.00  0.00    -0.376 OA
BRANCH   2   3
ATOM      3  C   UNL A   1      39.250  21.677  26.103  1.00  0.00     0.202 C 
BRANCH   3   4
ATOM      4  C   UNL A   1      38.024  21.702  25.179  1.00  0.00     0.261 C 
BRANCH   4   5
ATOM      5  O   UNL A   1      36.777  22.004  25.812  1.00  0.00    -0.460 OA
BRANCH   5   6
ATOM      6  C   UNL A   1      35.691  21.446  25.224  1.00  0.00     0.338 C 
ATOM      7  O   UNL A   1      35.540  20.272  24.927  1.00  0.00    -0.246 OA
BRANCH   6   8
ATOM      8  C   UNL A   1      34.610  22.444  25.142  1.00  0.00     0.087 C 
ATOM      9  C   UNL A   1      32.108  26.719  24.421  1.00  0.00    -0.025 A 
ATOM     10  C   UNL A   1      31.879  25.562  25.191  1.00  0.00     0.052 A 
ATOM     11  C   UNL A   1      33.131  26.690  23.460  1.00  0.00     0.045 A 
ATOM     12  C   UNL A   1      32.722  24.456  25.089  1.00  0.00     0.128 A 
ATOM     13  C   UNL A   1      33.974  25.580  23.358  1.00  0.00     0.032 A 
ATOM     14  Cl  UNL A   1      33.458  28.024  22.413  1.00  0.00    -0.084 Cl
ATOM     15  C   UNL A   1      33.800  24.486  24.209  1.00  0.00     0.019 A 
ATOM     16  O   UNL A   1      32.443  23.407  25.916  1.00  0.00    -0.475 OA
ATOM     17  C   UNL A   1      34.793  23.430  24.254  1.00  0.00     0.027 C 
ATOM     18  C   UNL A   1      33.397  22.314  26.022  1.00  0.00     0.316 C 
BRANCH   9  19
ATOM     19  C   UNL A   1      31.330  27.973  24.760  1.00  0.00     0.040 C 
BRANCH  19  20
ATOM     20  C   UNL A   1      31.941  28.735  25.962  1.00  0.00    -0.013 C 
ATOM     21  C   UNL A   1      31.647  30.238  25.936  1.00  0.00     0.008 C 
ATOM     22  C   UNL A   1      31.425  28.142  27.276  1.00  0.00     0.008 C 
ENDBRANCH  19  20
ENDBRANCH   9  19
BRANCH  18  23
ATOM     23  C   UNL A   1      33.763  22.144  27.504  1.00  0.00     0.430 C 
ATOM     24  F   UNL A   1      34.332  20.937  27.734  1.00  0.00    -0.167 F 
ATOM     25  F   UNL A   1      34.653  23.077  27.913  1.00  0.00    -0.167 F 
ATOM     26  F   UNL A   1      32.677  22.241  28.305  1.00  0.00    -0.167 F 
ENDBRANCH  18  23
ENDBRANCH   6   8
ENDBRANCH   5   6
ENDBRANCH   4   5
ENDBRANCH   3   4
ENDBRANCH   2   3
ENDBRANCH   1   2
BRANCH   1  27
ATOM     27  C   UNL A   1      42.441  20.020  26.412  1.00  0.00     0.188 C 
BRANCH  27  28
ATOM     28  O   UNL A   1      43.018  20.755  25.357  1.00  0.00    -0.376 OA
BRANCH  28  29
ATOM     29  C   UNL A   1      43.060  22.172  25.420  1.00  0.00     0.202 C 
BRANCH  29  30
ATOM     30  C   UNL A   1      43.862  23.033  24.433  1.00  0.00     0.261 C 
BRANCH  30  31
ATOM     31  O   UNL A   1      44.088  24.391  24.828  1.00  0.00    -0.460 OA
BRANCH  31  32
ATOM     32  C   UNL A   1      44.873  24.551  25.929  1.00  0.00     0.338 C 
ATOM     33  O   UNL A   1      46.018  24.193  26.081  1.00  0.00    -0.246 OA
BRANCH  32  34
ATOM     34  C   UNL A   1      44.166  25.439  26.878  1.00  0.00     0.060 A 
ATOM     35  C   UNL A   1      43.202  24.930  27.747  1.00  0.00     0.016 A 
ATOM     36  C   UNL A   1      44.482  26.805  26.882  1.00  0.00     0.016 A 
ATOM     37  C   UNL A   1      42.564  25.794  28.639  1.00  0.00     0.010 A 
ATOM     38  C   UNL A   1      43.831  27.670  27.762  1.00  0.00     0.010 A 
ATOM     39  C   UNL A   1      42.881  27.165  28.662  1.00  0.00    -0.014 A 
BRANCH  39  40
ATOM     40  C   UNL A   1      42.339  28.025  29.741  1.00  0.00     0.031 A 
ATOM     41  C   UNL A   1      41.084  28.823  29.569  1.00  0.00     0.074 A 
ATOM     42  C   UNL A   1      43.013  28.070  30.906  1.00  0.00     0.049 A 
ATOM     43  N   UNL A   1      40.439  29.538  30.457  1.00  0.00    -0.248 NA
ATOM     44  C   UNL A   1      40.475  28.831  28.232  1.00  0.00     0.031 C 
ATOM     45  C   UNL A   1      44.265  27.363  31.172  1.00  0.00     0.029 A 
ATOM     46  N   UNL A   1      42.738  28.722  32.081  1.00  0.00    -0.354 N 
ATOM     47  C   UNL A   1      39.333  30.056  29.800  1.00  0.00     0.074 A 
ATOM     48  C   UNL A   1      39.423  29.619  28.422  1.00  0.00     0.031 C 
ATOM     49  C   UNL A   1      44.634  27.592  32.441  1.00  0.00     0.029 A 
ATOM     50  C   UNL A   1      43.659  28.479  33.069  1.00  0.00     0.049 A 
ATOM     51  H   UNL A   1      41.956  29.307  32.203  1.00  0.00     0.167 HD
ATOM     52  C   UNL A   1      38.327  30.806  30.313  1.00  0.00     0.037 A 
ATOM     53  C   UNL A   1      43.708  28.912  34.343  1.00  0.00     0.037 A 
ATOM     54  C   UNL A   1      38.254  31.252  31.684  1.00  0.00     0.049 A 
ATOM     55  C   UNL A   1      42.603  29.784  34.869  1.00  0.00     0.074 A 
ATOM     56  C   UNL A   1      37.251  31.982  32.301  1.00  0.00     0.029 A 
ATOM     57  N   UNL A   1      39.227  31.025  32.647  1.00  0.00    -0.354 N 
ATOM     58  N   UNL A   1      41.516  30.194  34.263  1.00  0.00    -0.248 NA
ATOM     59  C   UNL A   1      42.727  30.244  36.259  1.00  0.00     0.031 C 
ATOM     60  C   UNL A   1      37.642  32.244  33.617  1.00  0.00     0.029 A 
ATOM     61  C   UNL A   1      38.862  31.628  33.842  1.00  0.00     0.049 A 
ATOM     62  H   UNL A   1      40.055  30.511  32.504  1.00  0.00     0.167 HD
ATOM     63  C   UNL A   1      40.818  30.944  35.200  1.00  0.00     0.074 A 
ATOM     64  C   UNL A   1      41.594  30.913  36.423  1.00  0.00     0.031 C 
ATOM     65  C   UNL A   1      39.641  31.599  35.055  1.00  0.00     0.037 A 
BRANCH  52  66
ATOM     66  C   UNL A   1      37.197  31.189  29.400  1.00  0.00     0.064 A 
ATOM     67  C   UNL A   1      36.169  30.284  29.095  1.00  0.00     0.173 A 
ATOM     68  C   UNL A   1      37.081  32.500  28.910  1.00  0.00     0.173 A 
ATOM     69  F   UNL A   1      36.231  29.019  29.538  1.00  0.00    -0.203 F 
ATOM     70  C   UNL A   1      35.075  30.671  28.326  1.00  0.00     0.198 A 
ATOM     71  C   UNL A   1      35.972  32.892  28.164  1.00  0.00     0.198 A 
ATOM     72  F   UNL A   1      38.029  33.410  29.184  1.00  0.00    -0.203 F 
ATOM     73  F   UNL A   1      34.117  29.783  28.031  1.00  0.00    -0.200 F 
ATOM     74  C   UNL A   1      34.972  31.978  27.871  1.00  0.00     0.200 A 
ATOM     75  F   UNL A   1      35.864  34.160  27.742  1.00  0.00    -0.200 F 
ATOM     76  F   UNL A   1      33.906  32.356  27.151  1.00  0.00    -0.200 F 
ENDBRANCH  52  66
BRANCH  53  77
ATOM     77  C   UNL A   1      44.830  28.481  35.215  1.00  0.00     0.064 A 
ATOM     78  C   UNL A   1      44.731  27.317  35.989  1.00  0.00     0.173 A 
ATOM     79  C   UNL A   1      46.030  29.205  35.271  1.00  0.00     0.173 A 
ATOM     80  F   UNL A   1      43.597  26.602  35.981  1.00  0.00    -0.203 F 
ATOM     81  C   UNL A   1      45.788  26.897  36.793  1.00  0.00     0.198 A 
ATOM     82  C   UNL A   1      47.096  28.769  36.053  1.00  0.00     0.198 A 
ATOM     83  F   UNL A   1      46.175  30.323  34.544  1.00  0.00    -0.203 F 
ATOM     84  F   UNL A   1      45.657  25.799  37.548  1.00  0.00    -0.200 F 
ATOM     85  C   UNL A   1      46.973  27.618  36.817  1.00  0.00     0.200 A 
ATOM     86  F   UNL A   1      48.245  29.458  36.061  1.00  0.00    -0.200 F 
ATOM     87  F   UNL A   1      47.994  27.206  37.580  1.00  0.00    -0.200 F 
ENDBRANCH  53  77
BRANCH  65  88
ATOM     88  C   UNL A   1      39.105  32.338  36.250  1.00  0.00     0.064 A 
ATOM     89  C   UNL A   1      38.226  31.726  37.156  1.00  0.00     0.173 A 
ATOM     90  C   UNL A   1      39.523  33.649  36.526  1.00  0.00     0.173 A 
ATOM     91  F   UNL A   1      37.784  30.480  36.931  1.00  0.00    -0.203 F 
ATOM     92  C   UNL A   1      37.773  32.405  38.284  1.00  0.00     0.198 A 
ATOM     93  C   UNL A   1      39.093  34.314  37.672  1.00  0.00     0.198 A 
ATOM     94  F   UNL A   1      40.367  34.280  35.695  1.00  0.00    -0.203 F 
ATOM     95  F   UNL A   1      36.903  31.814  39.115  1.00  0.00    -0.200 F 
ATOM     96  C   UNL A   1      38.215  33.693  38.547  1.00  0.00     0.200 A 
ATOM     97  F   UNL A   1      39.533  35.552  37.931  1.00  0.00    -0.200 F 
ATOM     98  F   UNL A   1      37.791  34.338  39.643  1.00  0.00    -0.200 F 
ENDBRANCH  65  88
ENDBRANCH  39  40
ENDBRANCH  32  34
ENDBRANCH  31  32
ENDBRANCH  30  31
ENDBRANCH  29  30
ENDBRANCH  28  29
ENDBRANCH  27  28
ENDBRANCH   1  27
TORSDOF 20
ENDMDL
MODEL 3
REMARK VINA RESULT:     -11.0      1.018      1.949
REMARK SMILES CC(C)Cc1cc2c(cc1Cl)C=C(C(=O)OCCOCCOCCOC(=O)c1ccc(-c3c4nc(c(-c5c(F)c(F)c(F)c(F)c5F)c5ccc([nH]5)c(-c5c(F)c(F)c(F)c(F)c5F)c5nc(c(-c6c(F)c(F)c(F)c(F)c6F)c6ccc3[nH]6)C=C5)C=C4)cc1)[C@@H](C(F)(F)F)O2
REMARK SMILES IDX 20 1 19 2 18 3 17 4 16 5 14 6 15 7 13 8 5 9 6 10 10 11 7 12
REMARK SMILES IDX 9 13 11 14 8 15 96 16 12 17 91 18 4 19 2 20 1 21 3 22 92 23
REMARK SMILES IDX 93 24 94 25 95 26 21 27 22 28 23 29 24 30 25 31 26 32 27 33
REMARK SMILES IDX 28 34 29 35 90 36 30 37 89 38 31 39 32 40 33 41 83 42 34 43
REMARK SMILES IDX 88 44 82 45 84 46 35 47 87 48 81 49 80 50 36 52 68 53 48 54
REMARK SMILES IDX 67 55 49 56 52 57 66 58 85 59 50 60 51 61 65 63 86 64 53 65
REMARK SMILES IDX 37 66 38 67 46 68 39 69 40 70 44 71 47 72 41 73 42 74 45 75
REMARK SMILES IDX 43 76 69 77 70 78 78 79 71 80 72 81 76 82 79 83 73 84 74 85
REMARK SMILES IDX 77 86 75 87 54 88 55 89 63 90 56 91 57 92 61 93 64 94 58 95
REMARK SMILES IDX 59 96 62 97 60 98
REMARK H PARENT 84 51 52 62
REMARK Flexibility Score: inf
ROOT
ATOM      1  C   UNL A   1      40.791  20.350  26.623  1.00  0.00     0.188 C 
ENDROOT
BRANCH   1   2
ATOM      2  O   UNL A   1      39.478  20.463  26.124  1.00  0.00    -0.376 OA
BRANCH   2   3
ATOM      3  C   UNL A   1      38.918  21.721  25.790  1.00  0.00     0.202 C 
BRANCH   3   4
ATOM      4  C   UNL A   1      37.541  21.896  25.136  1.00  0.00     0.261 C 
BRANCH   4   5
ATOM      5  O   UNL A   1      36.727  22.942  25.676  1.00  0.00    -0.460 OA
BRANCH   5   6
ATOM      6  C   UNL A   1      35.443  22.591  25.926  1.00  0.00     0.338 C 
ATOM      7  O   UNL A   1      35.048  21.809  26.776  1.00  0.00    -0.246 OA
BRANCH   6   8
ATOM      8  C   UNL A   1      34.538  23.435  25.125  1.00  0.00     0.087 C 
ATOM      9  C   UNL A   1      31.169  26.885  23.785  1.00  0.00    -0.025 A 
ATOM     10  C   UNL A   1      31.624  25.681  23.215  1.00  0.00     0.052 A 
ATOM     11  C   UNL A   1      31.887  27.428  24.862  1.00  0.00     0.045 A 
ATOM     12  C   UNL A   1      32.689  24.980  23.779  1.00  0.00     0.128 A 
ATOM     13  C   UNL A   1      32.956  26.725  25.425  1.00  0.00     0.032 A 
ATOM     14  Cl  UNL A   1      31.464  28.934  25.595  1.00  0.00    -0.084 Cl
ATOM     15  C   UNL A   1      33.322  25.477  24.915  1.00  0.00     0.019 A 
ATOM     16  O   UNL A   1      33.017  23.798  23.181  1.00  0.00    -0.475 OA
ATOM     17  C   UNL A   1      34.283  24.652  25.621  1.00  0.00     0.027 C 
ATOM     18  C   UNL A   1      33.967  22.911  23.835  1.00  0.00     0.316 C 
BRANCH   9  19
ATOM     19  C   UNL A   1      29.857  27.461  23.296  1.00  0.00     0.040 C 
BRANCH  19  20
ATOM     20  C   UNL A   1      29.886  29.008  23.221  1.00  0.00    -0.013 C 
ATOM     21  C   UNL A   1      30.645  29.538  22.000  1.00  0.00     0.008 C 
ATOM     22  C   UNL A   1      28.459  29.559  23.208  1.00  0.00     0.008 C 
ENDBRANCH  19  20
ENDBRANCH   9  19
BRANCH  18  23
ATOM     23  C   UNL A   1      33.300  21.539  24.002  1.00  0.00     0.430 C 
ATOM     24  F   UNL A   1      34.212  20.579  24.287  1.00  0.00    -0.167 F 
ATOM     25  F   UNL A   1      32.404  21.535  25.018  1.00  0.00    -0.167 F 
ATOM     26  F   UNL A   1      32.643  21.158  22.883  1.00  0.00    -0.167 F 
ENDBRANCH  18  23
ENDBRANCH   6   8
ENDBRANCH   5   6
ENDBRANCH   4   5
ENDBRANCH   3   4
ENDBRANCH   2   3
ENDBRANCH   1   2
BRANCH   1  27
ATOM     27  C   UNL A   1      41.913  21.279  26.112  1.00  0.00     0.188 C 
BRANCH  27  28
ATOM     28  O   UNL A   1      42.992  20.767  25.363  1.00  0.00    -0.376 OA
BRANCH  28  29
ATOM     29  C   UNL A   1      44.163  21.548  25.182  1.00  0.00     0.202 C 
BRANCH  29  30
ATOM     30  C   UNL A   1      44.263  22.685  24.154  1.00  0.00     0.261 C 
BRANCH  30  31
ATOM     31  O   UNL A   1      43.647  23.923  24.529  1.00  0.00    -0.460 OA
BRANCH  31  32
ATOM     32  C   UNL A   1      44.491  24.855  25.052  1.00  0.00     0.338 C 
ATOM     33  O   UNL A   1      45.567  25.202  24.624  1.00  0.00    -0.246 OA
BRANCH  32  34
ATOM     34  C   UNL A   1      43.786  25.556  26.147  1.00  0.00     0.060 A 
ATOM     35  C   UNL A   1      42.880  24.877  26.961  1.00  0.00     0.016 A 
ATOM     36  C   UNL A   1      44.043  26.920  26.347  1.00  0.00     0.016 A 
ATOM     37  C   UNL A   1      42.244  25.566  27.995  1.00  0.00     0.010 A 
ATOM     38  C   UNL A   1      43.393  27.611  27.370  1.00  0.00     0.010 A 
ATOM     39  C   UNL A   1      42.503  26.932  28.214  1.00  0.00    -0.014 A 
BRANCH  39  40
ATOM     40  C   UNL A   1      41.970  27.594  29.429  1.00  0.00     0.031 A 
ATOM     41  C   UNL A   1      42.651  27.487  30.759  1.00  0.00     0.074 A 
ATOM     42  C   UNL A   1      40.839  28.314  29.307  1.00  0.00     0.049 A 
ATOM     43  N   UNL A   1      42.357  28.093  31.882  1.00  0.00    -0.248 NA
ATOM     44  C   UNL A   1      43.803  26.580  30.847  1.00  0.00     0.031 C 
ATOM     45  C   UNL A   1      40.072  28.457  28.070  1.00  0.00     0.029 A 
ATOM     46  N   UNL A   1      40.146  29.066  30.222  1.00  0.00    -0.354 N 
ATOM     47  C   UNL A   1      43.301  27.668  32.804  1.00  0.00     0.074 A 
ATOM     48  C   UNL A   1      44.147  26.708  32.123  1.00  0.00     0.031 C 
ATOM     49  C   UNL A   1      39.033  29.275  28.293  1.00  0.00     0.029 A 
ATOM     50  C   UNL A   1      39.047  29.694  29.693  1.00  0.00     0.049 A 
ATOM     51  H   UNL A   1      40.412  29.146  31.166  1.00  0.00     0.167 HD
ATOM     52  C   UNL A   1      43.457  28.065  34.091  1.00  0.00     0.037 A 
ATOM     53  C   UNL A   1      38.155  30.524  30.265  1.00  0.00     0.037 A 
ATOM     54  C   UNL A   1      42.597  29.009  34.766  1.00  0.00     0.049 A 
ATOM     55  C   UNL A   1      38.325  30.907  31.708  1.00  0.00     0.074 A 
ATOM     56  C   UNL A   1      42.704  29.501  36.057  1.00  0.00     0.029 A 
ATOM     57  N   UNL A   1      41.467  29.593  34.213  1.00  0.00    -0.354 N 
ATOM     58  N   UNL A   1      39.274  30.570  32.546  1.00  0.00    -0.248 NA
ATOM     59  C   UNL A   1      37.305  31.796  32.282  1.00  0.00     0.031 C 
ATOM     60  C   UNL A   1      41.610  30.334  36.303  1.00  0.00     0.029 A 
ATOM     61  C   UNL A   1      40.850  30.412  35.147  1.00  0.00     0.049 A 
ATOM     62  H   UNL A   1      41.148  29.447  33.292  1.00  0.00     0.167 HD
ATOM     63  C   UNL A   1      38.978  31.216  33.738  1.00  0.00     0.074 A 
ATOM     64  C   UNL A   1      37.773  31.986  33.508  1.00  0.00     0.031 C 
ATOM     65  C   UNL A   1      39.647  31.172  34.915  1.00  0.00     0.037 A 
BRANCH  52  66
ATOM     66  C   UNL A   1      44.611  27.500  34.869  1.00  0.00     0.064 A 
ATOM     67  C   UNL A   1      44.484  26.306  35.593  1.00  0.00     0.173 A 
ATOM     68  C   UNL A   1      45.881  28.096  34.806  1.00  0.00     0.173 A 
ATOM     69  F   UNL A   1      43.293  25.696  35.685  1.00  0.00    -0.203 F 
ATOM     70  C   UNL A   1      45.580  25.735  36.235  1.00  0.00     0.198 A 
ATOM     71  C   UNL A   1      46.981  27.508  35.426  1.00  0.00     0.198 A 
ATOM     72  F   UNL A   1      46.061  29.232  34.114  1.00  0.00    -0.203 F 
ATOM     73  F   UNL A   1      45.428  24.605  36.939  1.00  0.00    -0.200 F 
ATOM     74  C   UNL A   1      46.829  26.331  36.142  1.00  0.00     0.200 A 
ATOM     75  F   UNL A   1      48.191  28.073  35.318  1.00  0.00    -0.200 F 
ATOM     76  F   UNL A   1      47.888  25.766  36.740  1.00  0.00    -0.200 F 
ENDBRANCH  52  66
BRANCH  53  77
ATOM     77  C   UNL A   1      37.048  31.080  29.447  1.00  0.00     0.064 A 
ATOM     78  C   UNL A   1      35.947  30.288  29.096  1.00  0.00     0.173 A 
ATOM     79  C   UNL A   1      37.053  32.418  29.025  1.00  0.00     0.173 A 
ATOM     80  F   UNL A   1      35.905  28.999  29.462  1.00  0.00    -0.203 F 
ATOM     81  C   UNL A   1      34.895  30.811  28.347  1.00  0.00     0.198 A 
ATOM     82  C   UNL A   1      35.988  32.947  28.301  1.00  0.00     0.198 A 
ATOM     83  F   UNL A   1      38.083  33.218  29.341  1.00  0.00    -0.203 F 
ATOM     84  F   UNL A   1      33.869  30.024  27.996  1.00  0.00    -0.200 F 
ATOM     85  C   UNL A   1      34.913  32.142  27.957  1.00  0.00     0.200 A 
ATOM     86  F   UNL A   1      36.001  34.238  27.942  1.00  0.00    -0.200 F 
ATOM     87  F   UNL A   1      33.895  32.648  27.249  1.00  0.00    -0.200 F 
ENDBRANCH  53  77
BRANCH  65  88
ATOM     88  C   UNL A   1      39.100  31.984  36.057  1.00  0.00     0.064 A 
ATOM     89  C   UNL A   1      38.194  31.437  36.977  1.00  0.00     0.173 A 
ATOM     90  C   UNL A   1      39.534  33.302  36.268  1.00  0.00     0.173 A 
ATOM     91  F   UNL A   1      37.736  30.187  36.812  1.00  0.00    -0.203 F 
ATOM     92  C   UNL A   1      37.730  32.184  38.057  1.00  0.00     0.198 A 
ATOM     93  C   UNL A   1      39.093  34.035  37.367  1.00  0.00     0.198 A 
ATOM     94  F   UNL A   1      40.405  33.872  35.422  1.00  0.00    -0.203 F 
ATOM     95  F   UNL A   1      36.834  31.653  38.901  1.00  0.00    -0.200 F 
ATOM     96  C   UNL A   1      38.188  33.478  38.257  1.00  0.00     0.200 A 
ATOM     97  F   UNL A   1      39.548  35.279  37.567  1.00  0.00    -0.200 F 
ATOM     98  F   UNL A   1      37.753  34.189  39.307  1.00  0.00    -0.200 F 
ENDBRANCH  65  88
ENDBRANCH  39  40
ENDBRANCH  32  34
ENDBRANCH  31  32
ENDBRANCH  30  31
ENDBRANCH  29  30
ENDBRANCH  28  29
ENDBRANCH  27  28
ENDBRANCH   1  27
TORSDOF 20
ENDMDL
