MODEL 1
REMARK VINA RESULT:     -10.8      0.000      0.000
REMARK SMILES CC1=C(C(=O)OCCOCCOCCOC(=O)c2ccc(-c3c4nc(c(-c5c(F)c(F)c(F)c(F)c5F)c5ccc([nH]5)c(-c5c(F)c(F)c(F)c(F)c5F)c5nc(c(-c6c(F)c(F)c(F)c(F)c6F)c6ccc3[nH]6)C=C5)C=C4)cc2)C(C)(C)CCC1
REMARK SMILES IDX 11 1 10 2 9 3 8 4 7 5 6 6 4 7 5 8 3 9 1 10 2 11 86 12 81 13
REMARK SMILES IDX 85 14 82 15 83 16 84 17 12 18 13 19 14 20 15 21 16 22 17 23
REMARK SMILES IDX 18 24 19 25 80 26 20 27 79 28 21 29 22 30 23 31 73 32 24 33
REMARK SMILES IDX 78 34 72 35 74 36 25 37 77 38 71 39 70 40 26 42 58 43 38 44
REMARK SMILES IDX 57 45 39 46 42 47 56 48 75 49 40 50 41 51 55 53 76 54 43 55
REMARK SMILES IDX 27 56 28 57 36 58 29 59 30 60 34 61 37 62 31 63 32 64 35 65
REMARK SMILES IDX 33 66 59 67 60 68 68 69 61 70 62 71 66 72 69 73 63 74 64 75
REMARK SMILES IDX 67 76 65 77 44 78 45 79 53 80 46 81 47 82 51 83 54 84 48 85
REMARK SMILES IDX 49 86 52 87 50 88
REMARK H PARENT 74 41 42 52
REMARK Flexibility Score: inf
ROOT
ATOM      1  C   UNL A   1      40.077  21.283  26.147  1.00  0.00     0.188 C 
ENDROOT
BRANCH   1   2
ATOM      2  C   UNL A   1      39.219  22.531  26.462  1.00  0.00     0.188 C 
BRANCH   2   3
ATOM      3  O   UNL A   1      37.866  22.567  26.062  1.00  0.00    -0.376 OA
BRANCH   3   4
ATOM      4  C   UNL A   1      37.471  21.895  24.874  1.00  0.00     0.202 C 
BRANCH   4   5
ATOM      5  C   UNL A   1      36.524  22.519  23.837  1.00  0.00     0.261 C 
BRANCH   5   6
ATOM      6  O   UNL A   1      35.845  23.699  24.280  1.00  0.00    -0.460 OA
BRANCH   6   7
ATOM      7  C   UNL A   1      34.594  23.899  23.791  1.00  0.00     0.334 C 
ATOM      8  O   UNL A   1      34.321  24.089  22.617  1.00  0.00    -0.247 OA
BRANCH   7   9
ATOM      9  C   UNL A   1      33.561  23.768  24.871  1.00  0.00     0.042 C 
ATOM     10  C   UNL A   1      33.653  26.286  25.355  1.00  0.00     0.040 C 
ATOM     11  C   UNL A   1      33.123  24.878  25.522  1.00  0.00    -0.062 C 
ATOM     12  C   UNL A   1      31.964  24.841  26.500  1.00  0.00     0.031 C 
ATOM     13  C   UNL A   1      32.944  22.371  25.121  1.00  0.00    -0.003 C 
ATOM     14  C   UNL A   1      31.398  23.464  26.819  1.00  0.00     0.005 C 
ATOM     15  C   UNL A   1      32.902  21.453  23.881  1.00  0.00     0.016 C 
ATOM     16  C   UNL A   1      33.732  21.603  26.211  1.00  0.00     0.016 C 
ATOM     17  C   UNL A   1      31.482  22.538  25.614  1.00  0.00     0.012 C 
ENDBRANCH   7   9
ENDBRANCH   6   7
ENDBRANCH   5   6
ENDBRANCH   4   5
ENDBRANCH   3   4
ENDBRANCH   2   3
ENDBRANCH   1   2
BRANCH   1  18
ATOM     18  O   UNL A   1      41.313  21.069  26.792  1.00  0.00    -0.376 OA
BRANCH  18  19
ATOM     19  C   UNL A   1      42.427  20.614  26.048  1.00  0.00     0.202 C 
BRANCH  19  20
ATOM     20  C   UNL A   1      43.488  21.559  25.459  1.00  0.00     0.261 C 
BRANCH  20  21
ATOM     21  O   UNL A   1      43.010  22.757  24.831  1.00  0.00    -0.460 OA
BRANCH  21  22
ATOM     22  C   UNL A   1      43.784  23.854  25.006  1.00  0.00     0.338 C 
ATOM     23  O   UNL A   1      44.812  24.144  24.404  1.00  0.00    -0.246 OA
BRANCH  22  24
ATOM     24  C   UNL A   1      43.116  24.793  25.924  1.00  0.00     0.060 A 
ATOM     25  C   UNL A   1      43.558  26.123  25.962  1.00  0.00     0.016 A 
ATOM     26  C   UNL A   1      42.098  24.364  26.775  1.00  0.00     0.016 A 
ATOM     27  C   UNL A   1      42.993  27.027  26.861  1.00  0.00     0.010 A 
ATOM     28  C   UNL A   1      41.553  25.263  27.698  1.00  0.00     0.010 A 
ATOM     29  C   UNL A   1      42.012  26.592  27.762  1.00  0.00    -0.014 A 
BRANCH  29  30
ATOM     30  C   UNL A   1      41.601  27.472  28.884  1.00  0.00     0.031 A 
ATOM     31  C   UNL A   1      42.377  27.405  30.171  1.00  0.00     0.074 A 
ATOM     32  C   UNL A   1      40.574  28.328  28.765  1.00  0.00     0.049 A 
ATOM     33  N   UNL A   1      42.165  28.021  31.305  1.00  0.00    -0.248 NA
ATOM     34  C   UNL A   1      43.553  26.522  30.173  1.00  0.00     0.031 C 
ATOM     35  C   UNL A   1      39.778  28.534  27.558  1.00  0.00     0.029 A 
ATOM     36  N   UNL A   1      40.015  29.179  29.689  1.00  0.00    -0.354 N 
ATOM     37  C   UNL A   1      43.178  27.601  32.156  1.00  0.00     0.074 A 
ATOM     38  C   UNL A   1      43.985  26.653  31.416  1.00  0.00     0.031 C 
ATOM     39  C   UNL A   1      38.815  29.435  27.821  1.00  0.00     0.029 A 
ATOM     40  C   UNL A   1      38.906  29.841  29.224  1.00  0.00     0.049 A 
ATOM     41  H   UNL A   1      40.376  29.303  30.597  1.00  0.00     0.167 HD
ATOM     42  C   UNL A   1      43.419  27.974  33.436  1.00  0.00     0.037 A 
ATOM     43  C   UNL A   1      38.043  30.653  29.868  1.00  0.00     0.037 A 
ATOM     44  C   UNL A   1      42.603  28.898  34.179  1.00  0.00     0.049 A 
ATOM     45  C   UNL A   1      38.269  30.974  31.326  1.00  0.00     0.074 A 
ATOM     46  C   UNL A   1      42.762  29.335  35.482  1.00  0.00     0.029 A 
ATOM     47  N   UNL A   1      41.463  29.517  33.687  1.00  0.00    -0.354 N 
ATOM     48  N   UNL A   1      39.236  30.586  32.122  1.00  0.00    -0.248 NA
ATOM     49  C   UNL A   1      37.282  31.851  31.973  1.00  0.00     0.031 C 
ATOM     50  C   UNL A   1      41.685  30.169  35.799  1.00  0.00     0.029 A 
ATOM     51  C   UNL A   1      40.892  30.309  34.672  1.00  0.00     0.049 A 
ATOM     52  H   UNL A   1      41.111  29.411  32.773  1.00  0.00     0.167 HD
ATOM     53  C   UNL A   1      38.992  31.194  33.349  1.00  0.00     0.074 A 
ATOM     54  C   UNL A   1      37.792  31.988  33.189  1.00  0.00     0.031 C 
ATOM     55  C   UNL A   1      39.701  31.104  34.502  1.00  0.00     0.037 A 
BRANCH  42  56
ATOM     56  C   UNL A   1      44.594  27.344  34.126  1.00  0.00     0.064 A 
ATOM     57  C   UNL A   1      45.867  27.934  34.105  1.00  0.00     0.173 A 
ATOM     58  C   UNL A   1      44.443  26.137  34.826  1.00  0.00     0.173 A 
ATOM     59  F   UNL A   1      46.070  29.081  33.438  1.00  0.00    -0.203 F 
ATOM     60  C   UNL A   1      46.951  27.322  34.729  1.00  0.00     0.198 A 
ATOM     61  C   UNL A   1      45.522  25.546  35.477  1.00  0.00     0.198 A 
ATOM     62  F   UNL A   1      43.247  25.532  34.881  1.00  0.00    -0.203 F 
ATOM     63  F   UNL A   1      48.169  27.874  34.646  1.00  0.00    -0.200 F 
ATOM     64  C   UNL A   1      46.776  26.132  35.420  1.00  0.00     0.200 A 
ATOM     65  F   UNL A   1      45.348  24.404  36.156  1.00  0.00    -0.200 F 
ATOM     66  F   UNL A   1      47.820  25.546  36.022  1.00  0.00    -0.200 F 
ENDBRANCH  42  56
BRANCH  43  67
ATOM     67  C   UNL A   1      36.863  31.203  29.149  1.00  0.00     0.064 A 
ATOM     68  C   UNL A   1      36.790  32.558  28.799  1.00  0.00     0.173 A 
ATOM     69  C   UNL A   1      35.768  30.388  28.823  1.00  0.00     0.173 A 
ATOM     70  F   UNL A   1      37.797  33.387  29.117  1.00  0.00    -0.203 F 
ATOM     71  C   UNL A   1      35.662  33.081  28.170  1.00  0.00     0.198 A 
ATOM     72  C   UNL A   1      34.654  30.904  28.165  1.00  0.00     0.198 A 
ATOM     73  F   UNL A   1      35.782  29.086  29.142  1.00  0.00    -0.203 F 
ATOM     74  F   UNL A   1      35.597  34.391  27.896  1.00  0.00    -0.200 F 
ATOM     75  C   UNL A   1      34.598  32.252  27.846  1.00  0.00     0.200 A 
ATOM     76  F   UNL A   1      33.633  30.097  27.847  1.00  0.00    -0.200 F 
ATOM     77  F   UNL A   1      33.515  32.754  27.239  1.00  0.00    -0.200 F 
ENDBRANCH  43  67
BRANCH  55  78
ATOM     78  C   UNL A   1      39.231  31.918  35.677  1.00  0.00     0.064 A 
ATOM     79  C   UNL A   1      39.636  33.247  35.869  1.00  0.00     0.173 A 
ATOM     80  C   UNL A   1      38.324  31.373  36.599  1.00  0.00     0.173 A 
ATOM     81  F   UNL A   1      40.511  33.816  35.025  1.00  0.00    -0.203 F 
ATOM     82  C   UNL A   1      39.170  33.990  36.952  1.00  0.00     0.198 A 
ATOM     83  C   UNL A   1      37.833  32.129  37.661  1.00  0.00     0.198 A 
ATOM     84  F   UNL A   1      37.895  30.109  36.461  1.00  0.00    -0.203 F 
ATOM     85  F   UNL A   1      39.610  35.243  37.142  1.00  0.00    -0.200 F 
ATOM     86  C   UNL A   1      38.264  33.434  37.842  1.00  0.00     0.200 A 
ATOM     87  F   UNL A   1      36.944  31.594  38.508  1.00  0.00    -0.200 F 
ATOM     88  F   UNL A   1      37.810  34.154  38.877  1.00  0.00    -0.200 F 
ENDBRANCH  55  78
ENDBRANCH  29  30
ENDBRANCH  22  24
ENDBRANCH  21  22
ENDBRANCH  20  21
ENDBRANCH  19  20
ENDBRANCH  18  19
ENDBRANCH   1  18
TORSDOF 17
ENDMDL
MODEL 2
REMARK VINA RESULT:     -10.7      3.797      6.421
REMARK SMILES CC1=C(C(=O)OCCOCCOCCOC(=O)c2ccc(-c3c4nc(c(-c5c(F)c(F)c(F)c(F)c5F)c5ccc([nH]5)c(-c5c(F)c(F)c(F)c(F)c5F)c5nc(c(-c6c(F)c(F)c(F)c(F)c6F)c6ccc3[nH]6)C=C5)C=C4)cc2)C(C)(C)CCC1
REMARK SMILES IDX 11 1 10 2 9 3 8 4 7 5 6 6 4 7 5 8 3 9 1 10 2 11 86 12 81 13
REMARK SMILES IDX 85 14 82 15 83 16 84 17 12 18 13 19 14 20 15 21 16 22 17 23
REMARK SMILES IDX 18 24 19 25 80 26 20 27 79 28 21 29 22 30 23 31 73 32 24 33
REMARK SMILES IDX 78 34 72 35 74 36 25 37 77 38 71 39 70 40 26 42 58 43 38 44
REMARK SMILES IDX 57 45 39 46 42 47 56 48 75 49 40 50 41 51 55 53 76 54 43 55
REMARK SMILES IDX 27 56 28 57 36 58 29 59 30 60 34 61 37 62 31 63 32 64 35 65
REMARK SMILES IDX 33 66 59 67 60 68 68 69 61 70 62 71 66 72 69 73 63 74 64 75
REMARK SMILES IDX 67 76 65 77 44 78 45 79 53 80 46 81 47 82 51 83 54 84 48 85
REMARK SMILES IDX 49 86 52 87 50 88
REMARK H PARENT 74 41 42 52
REMARK Flexibility Score: inf
ROOT
ATOM      1  C   UNL A   1      42.849  19.149  25.718  1.00  0.00     0.188 C 
ENDROOT
BRANCH   1   2
ATOM      2  C   UNL A   1      44.289  18.699  25.380  1.00  0.00     0.188 C 
BRANCH   2   3
ATOM      3  O   UNL A   1      45.205  19.630  24.844  1.00  0.00    -0.376 OA
BRANCH   3   4
ATOM      4  C   UNL A   1      44.808  20.986  24.685  1.00  0.00     0.202 C 
BRANCH   4   5
ATOM      5  C   UNL A   1      45.814  22.140  24.550  1.00  0.00     0.261 C 
BRANCH   5   6
ATOM      6  O   UNL A   1      46.403  22.568  25.783  1.00  0.00    -0.460 OA
BRANCH   6   7
ATOM      7  C   UNL A   1      45.623  23.324  26.598  1.00  0.00     0.334 C 
ATOM      8  O   UNL A   1      45.101  22.935  27.630  1.00  0.00    -0.247 OA
BRANCH   7   9
ATOM      9  C   UNL A   1      45.550  24.743  26.117  1.00  0.00     0.042 C 
ATOM     10  C   UNL A   1      43.112  24.434  25.376  1.00  0.00     0.040 C 
ATOM     11  C   UNL A   1      44.381  25.225  25.616  1.00  0.00    -0.062 C 
ATOM     12  C   UNL A   1      44.188  26.690  25.272  1.00  0.00     0.031 C 
ATOM     13  C   UNL A   1      46.790  25.645  26.321  1.00  0.00    -0.003 C 
ATOM     14  C   UNL A   1      45.421  27.576  25.390  1.00  0.00     0.005 C 
ATOM     15  C   UNL A   1      47.663  25.275  27.538  1.00  0.00     0.016 C 
ATOM     16  C   UNL A   1      47.720  25.600  25.083  1.00  0.00     0.016 C 
ATOM     17  C   UNL A   1      46.328  27.113  26.521  1.00  0.00     0.012 C 
ENDBRANCH   7   9
ENDBRANCH   6   7
ENDBRANCH   5   6
ENDBRANCH   4   5
ENDBRANCH   3   4
ENDBRANCH   2   3
ENDBRANCH   1   2
BRANCH   1  18
ATOM     18  O   UNL A   1      42.354  19.072  27.036  1.00  0.00    -0.376 OA
BRANCH  18  19
ATOM     19  C   UNL A   1      41.355  19.977  27.469  1.00  0.00     0.202 C 
BRANCH  19  20
ATOM     20  C   UNL A   1      40.436  20.741  26.501  1.00  0.00     0.261 C 
BRANCH  20  21
ATOM     21  O   UNL A   1      40.554  22.171  26.490  1.00  0.00    -0.460 OA
BRANCH  21  22
ATOM     22  C   UNL A   1      39.396  22.849  26.308  1.00  0.00     0.338 C 
ATOM     23  O   UNL A   1      38.338  22.411  25.871  1.00  0.00    -0.246 OA
BRANCH  22  24
ATOM     24  C   UNL A   1      39.512  24.196  26.893  1.00  0.00     0.060 A 
ATOM     25  C   UNL A   1      40.114  25.209  26.133  1.00  0.00     0.016 A 
ATOM     26  C   UNL A   1      39.080  24.454  28.195  1.00  0.00     0.016 A 
ATOM     27  C   UNL A   1      40.298  26.480  26.675  1.00  0.00     0.010 A 
ATOM     28  C   UNL A   1      39.292  25.721  28.748  1.00  0.00     0.010 A 
ATOM     29  C   UNL A   1      39.922  26.734  28.000  1.00  0.00    -0.014 A 
BRANCH  29  30
ATOM     30  C   UNL A   1      40.351  27.992  28.659  1.00  0.00     0.031 A 
ATOM     31  C   UNL A   1      41.782  28.120  29.103  1.00  0.00     0.074 A 
ATOM     32  C   UNL A   1      39.499  29.013  28.847  1.00  0.00     0.049 A 
ATOM     33  N   UNL A   1      42.370  29.087  29.758  1.00  0.00    -0.248 NA
ATOM     34  C   UNL A   1      42.670  26.999  28.756  1.00  0.00     0.031 C 
ATOM     35  C   UNL A   1      38.105  29.043  28.414  1.00  0.00     0.029 A 
ATOM     36  N   UNL A   1      39.686  30.223  29.471  1.00  0.00    -0.354 N 
ATOM     37  C   UNL A   1      43.693  28.694  29.903  1.00  0.00     0.074 A 
ATOM     38  C   UNL A   1      43.814  27.385  29.296  1.00  0.00     0.031 C 
ATOM     39  C   UNL A   1      37.552  30.204  28.807  1.00  0.00     0.029 A 
ATOM     40  C   UNL A   1      38.544  30.982  29.550  1.00  0.00     0.049 A 
ATOM     41  H   UNL A   1      40.555  30.519  29.826  1.00  0.00     0.167 HD
ATOM     42  C   UNL A   1      44.717  29.364  30.485  1.00  0.00     0.037 A 
ATOM     43  C   UNL A   1      38.319  32.152  30.180  1.00  0.00     0.037 A 
ATOM     44  C   UNL A   1      44.592  30.655  31.109  1.00  0.00     0.049 A 
ATOM     45  C   UNL A   1      39.449  32.833  30.914  1.00  0.00     0.074 A 
ATOM     46  C   UNL A   1      45.570  31.412  31.730  1.00  0.00     0.029 A 
ATOM     47  N   UNL A   1      43.410  31.374  31.206  1.00  0.00    -0.354 N 
ATOM     48  N   UNL A   1      40.702  32.465  31.037  1.00  0.00    -0.248 NA
ATOM     49  C   UNL A   1      39.133  34.098  31.595  1.00  0.00     0.031 C 
ATOM     50  C   UNL A   1      44.967  32.559  32.256  1.00  0.00     0.029 A 
ATOM     51  C   UNL A   1      43.628  32.553  31.902  1.00  0.00     0.049 A 
ATOM     52  H   UNL A   1      42.543  31.090  30.834  1.00  0.00     0.167 HD
ATOM     53  C   UNL A   1      41.326  33.462  31.777  1.00  0.00     0.074 A 
ATOM     54  C   UNL A   1      40.317  34.459  32.067  1.00  0.00     0.031 C 
ATOM     55  C   UNL A   1      42.619  33.545  32.179  1.00  0.00     0.037 A 
BRANCH  42  56
ATOM     56  C   UNL A   1      46.057  28.686  30.507  1.00  0.00     0.064 A 
ATOM     57  C   UNL A   1      47.028  28.935  29.525  1.00  0.00     0.173 A 
ATOM     58  C   UNL A   1      46.378  27.782  31.531  1.00  0.00     0.173 A 
ATOM     59  F   UNL A   1      46.768  29.780  28.516  1.00  0.00    -0.203 F 
ATOM     60  C   UNL A   1      48.256  28.278  29.548  1.00  0.00     0.198 A 
ATOM     61  C   UNL A   1      47.619  27.152  31.570  1.00  0.00     0.198 A 
ATOM     62  F   UNL A   1      45.488  27.510  32.497  1.00  0.00    -0.203 F 
ATOM     63  F   UNL A   1      49.144  28.487  28.567  1.00  0.00    -0.200 F 
ATOM     64  C   UNL A   1      48.552  27.392  30.574  1.00  0.00     0.200 A 
ATOM     65  F   UNL A   1      47.908  26.308  32.569  1.00  0.00    -0.200 F 
ATOM     66  F   UNL A   1      49.735  26.762  30.596  1.00  0.00    -0.200 F 
ENDBRANCH  42  56
BRANCH  43  67
ATOM     67  C   UNL A   1      36.957  32.749  30.174  1.00  0.00     0.064 A 
ATOM     68  C   UNL A   1      36.526  33.568  29.120  1.00  0.00     0.173 A 
ATOM     69  C   UNL A   1      36.067  32.536  31.237  1.00  0.00     0.173 A 
ATOM     70  F   UNL A   1      37.351  33.829  28.095  1.00  0.00    -0.203 F 
ATOM     71  C   UNL A   1      35.267  34.165  29.141  1.00  0.00     0.198 A 
ATOM     72  C   UNL A   1      34.796  33.108  31.241  1.00  0.00     0.198 A 
ATOM     73  F   UNL A   1      36.431  31.768  32.274  1.00  0.00    -0.203 F 
ATOM     74  F   UNL A   1      34.902  34.987  28.146  1.00  0.00    -0.200 F 
ATOM     75  C   UNL A   1      34.400  33.929  30.197  1.00  0.00     0.200 A 
ATOM     76  F   UNL A   1      33.959  32.869  32.260  1.00  0.00    -0.200 F 
ATOM     77  F   UNL A   1      33.190  34.502  30.214  1.00  0.00    -0.200 F 
ENDBRANCH  43  67
BRANCH  55  78
ATOM     78  C   UNL A   1      43.039  34.775  32.936  1.00  0.00     0.064 A 
ATOM     79  C   UNL A   1      43.423  35.955  32.283  1.00  0.00     0.173 A 
ATOM     80  C   UNL A   1      43.010  34.788  34.340  1.00  0.00     0.173 A 
ATOM     81  F   UNL A   1      43.482  35.997  30.943  1.00  0.00    -0.203 F 
ATOM     82  C   UNL A   1      43.787  37.090  33.004  1.00  0.00     0.198 A 
ATOM     83  C   UNL A   1      43.340  35.935  35.058  1.00  0.00     0.198 A 
ATOM     84  F   UNL A   1      42.642  33.691  35.019  1.00  0.00    -0.203 F 
ATOM     85  F   UNL A   1      44.198  38.190  32.357  1.00  0.00    -0.200 F 
ATOM     86  C   UNL A   1      43.736  37.083  34.390  1.00  0.00     0.200 A 
ATOM     87  F   UNL A   1      43.273  35.928  36.396  1.00  0.00    -0.200 F 
ATOM     88  F   UNL A   1      44.077  38.179  35.082  1.00  0.00    -0.200 F 
ENDBRANCH  55  78
ENDBRANCH  29  30
ENDBRANCH  22  24
ENDBRANCH  21  22
ENDBRANCH  20  21
ENDBRANCH  19  20
ENDBRANCH  18  19
ENDBRANCH   1  18
TORSDOF 17
ENDMDL
MODEL 3
REMARK VINA RESULT:     -10.6      3.657      6.279
REMARK SMILES CC1=C(C(=O)OCCOCCOCCOC(=O)c2ccc(-c3c4nc(c(-c5c(F)c(F)c(F)c(F)c5F)c5ccc([nH]5)c(-c5c(F)c(F)c(F)c(F)c5F)c5nc(c(-c6c(F)c(F)c(F)c(F)c6F)c6ccc3[nH]6)C=C5)C=C4)cc2)C(C)(C)CCC1
REMARK SMILES IDX 11 1 10 2 9 3 8 4 7 5 6 6 4 7 5 8 3 9 1 10 2 11 86 12 81 13
REMARK SMILES IDX 85 14 82 15 83 16 84 17 12 18 13 19 14 20 15 21 16 22 17 23
REMARK SMILES IDX 18 24 19 25 80 26 20 27 79 28 21 29 22 30 23 31 73 32 24 33
REMARK SMILES IDX 78 34 72 35 74 36 25 37 77 38 71 39 70 40 26 42 58 43 38 44
REMARK SMILES IDX 57 45 39 46 42 47 56 48 75 49 40 50 41 51 55 53 76 54 43 55
REMARK SMILES IDX 27 56 28 57 36 58 29 59 30 60 34 61 37 62 31 63 32 64 35 65
REMARK SMILES IDX 33 66 59 67 60 68 68 69 61 70 62 71 66 72 69 73 63 74 64 75
REMARK SMILES IDX 67 76 65 77 44 78 45 79 53 80 46 81 47 82 51 83 54 84 48 85
REMARK SMILES IDX 49 86 52 87 50 88
REMARK H PARENT 74 41 42 52
REMARK Flexibility Score: inf
ROOT
ATOM      1  C   UNL A   1      43.313  18.397  25.789  1.00  0.00     0.188 C 
ENDROOT
BRANCH   1   2
ATOM      2  C   UNL A   1      44.306  18.830  24.686  1.00  0.00     0.188 C 
BRANCH   2   3
ATOM      3  O   UNL A   1      45.649  19.105  25.023  1.00  0.00    -0.376 OA
BRANCH   3   4
ATOM      4  C   UNL A   1      46.127  20.442  24.947  1.00  0.00     0.202 C 
BRANCH   4   5
ATOM      5  C   UNL A   1      45.596  21.571  25.843  1.00  0.00     0.261 C 
BRANCH   5   6
ATOM      6  O   UNL A   1      46.406  22.751  25.862  1.00  0.00    -0.460 OA
BRANCH   6   7
ATOM      7  C   UNL A   1      46.232  23.624  24.837  1.00  0.00     0.334 C 
ATOM      8  O   UNL A   1      46.410  23.367  23.657  1.00  0.00    -0.247 OA
BRANCH   7   9
ATOM      9  C   UNL A   1      45.701  24.939  25.326  1.00  0.00     0.042 C 
ATOM     10  C   UNL A   1      48.015  26.028  25.111  1.00  0.00     0.040 C 
ATOM     11  C   UNL A   1      46.527  26.017  25.389  1.00  0.00    -0.062 C 
ATOM     12  C   UNL A   1      46.019  27.411  25.710  1.00  0.00     0.031 C 
ATOM     13  C   UNL A   1      44.188  25.043  25.633  1.00  0.00    -0.003 C 
ATOM     14  C   UNL A   1      44.549  27.519  26.093  1.00  0.00     0.005 C 
ATOM     15  C   UNL A   1      43.295  24.098  24.801  1.00  0.00     0.016 C 
ATOM     16  C   UNL A   1      43.900  24.725  27.121  1.00  0.00     0.016 C 
ATOM     17  C   UNL A   1      43.707  26.491  25.350  1.00  0.00     0.012 C 
ENDBRANCH   7   9
ENDBRANCH   6   7
ENDBRANCH   5   6
ENDBRANCH   4   5
ENDBRANCH   3   4
ENDBRANCH   2   3
ENDBRANCH   1   2
BRANCH   1  18
ATOM     18  O   UNL A   1      42.041  18.997  25.899  1.00  0.00    -0.376 OA
BRANCH  18  19
ATOM     19  C   UNL A   1      41.933  20.398  26.063  1.00  0.00     0.202 C 
BRANCH  19  20
ATOM     20  C   UNL A   1      40.607  21.110  26.375  1.00  0.00     0.261 C 
BRANCH  20  21
ATOM     21  O   UNL A   1      40.672  22.521  26.626  1.00  0.00    -0.460 OA
BRANCH  21  22
ATOM     22  C   UNL A   1      39.516  23.199  26.437  1.00  0.00     0.338 C 
ATOM     23  O   UNL A   1      38.472  22.773  25.958  1.00  0.00    -0.246 OA
BRANCH  22  24
ATOM     24  C   UNL A   1      39.609  24.526  27.073  1.00  0.00     0.060 A 
ATOM     25  C   UNL A   1      40.264  25.556  26.383  1.00  0.00     0.016 A 
ATOM     26  C   UNL A   1      39.103  24.746  28.354  1.00  0.00     0.016 A 
ATOM     27  C   UNL A   1      40.426  26.807  26.976  1.00  0.00     0.010 A 
ATOM     28  C   UNL A   1      39.294  25.992  28.961  1.00  0.00     0.010 A 
ATOM     29  C   UNL A   1      39.976  27.022  28.285  1.00  0.00    -0.014 A 
BRANCH  29  30
ATOM     30  C   UNL A   1      40.376  28.254  29.008  1.00  0.00     0.031 A 
ATOM     31  C   UNL A   1      41.777  28.347  29.548  1.00  0.00     0.074 A 
ATOM     32  C   UNL A   1      39.526  29.280  29.172  1.00  0.00     0.049 A 
ATOM     33  N   UNL A   1      42.332  29.286  30.270  1.00  0.00    -0.248 NA
ATOM     34  C   UNL A   1      42.671  27.224  29.225  1.00  0.00     0.031 C 
ATOM     35  C   UNL A   1      38.164  29.343  28.650  1.00  0.00     0.029 A 
ATOM     36  N   UNL A   1      39.687  30.468  29.844  1.00  0.00    -0.354 N 
ATOM     37  C   UNL A   1      43.638  28.869  30.488  1.00  0.00     0.074 A 
ATOM     38  C   UNL A   1      43.783  27.578  29.850  1.00  0.00     0.031 C 
ATOM     39  C   UNL A   1      37.601  30.500  29.043  1.00  0.00     0.029 A 
ATOM     40  C   UNL A   1      38.552  31.241  29.872  1.00  0.00     0.049 A 
ATOM     41  H   UNL A   1      40.535  30.741  30.264  1.00  0.00     0.167 HD
ATOM     42  C   UNL A   1      44.630  29.506  31.155  1.00  0.00     0.037 A 
ATOM     43  C   UNL A   1      38.301  32.395  30.522  1.00  0.00     0.037 A 
ATOM     44  C   UNL A   1      44.480  30.780  31.810  1.00  0.00     0.049 A 
ATOM     45  C   UNL A   1      39.389  33.037  31.348  1.00  0.00     0.074 A 
ATOM     46  C   UNL A   1      45.425  31.504  32.516  1.00  0.00     0.029 A 
ATOM     47  N   UNL A   1      43.304  31.513  31.852  1.00  0.00    -0.354 N 
ATOM     48  N   UNL A   1      40.626  32.647  31.541  1.00  0.00    -0.248 NA
ATOM     49  C   UNL A   1      39.044  34.285  32.046  1.00  0.00     0.031 C 
ATOM     50  C   UNL A   1      44.804  32.644  33.037  1.00  0.00     0.029 A 
ATOM     51  C   UNL A   1      43.490  32.667  32.597  1.00  0.00     0.049 A 
ATOM     52  H   UNL A   1      42.460  31.253  31.415  1.00  0.00     0.167 HD
ATOM     53  C   UNL A   1      41.213  33.613  32.351  1.00  0.00     0.074 A 
ATOM     54  C   UNL A   1      40.200  34.615  32.605  1.00  0.00     0.031 C 
ATOM     55  C   UNL A   1      42.478  33.665  32.838  1.00  0.00     0.037 A 
BRANCH  42  56
ATOM     56  C   UNL A   1      45.957  28.809  31.244  1.00  0.00     0.064 A 
ATOM     57  C   UNL A   1      46.244  27.893  32.268  1.00  0.00     0.173 A 
ATOM     58  C   UNL A   1      46.953  29.054  30.286  1.00  0.00     0.173 A 
ATOM     59  F   UNL A   1      45.332  27.633  33.217  1.00  0.00    -0.203 F 
ATOM     60  C   UNL A   1      47.489  27.275  32.349  1.00  0.00     0.198 A 
ATOM     61  C   UNL A   1      48.185  28.409  30.351  1.00  0.00     0.198 A 
ATOM     62  F   UNL A   1      46.730  29.918  29.284  1.00  0.00    -0.203 F 
ATOM     63  F   UNL A   1      47.761  26.450  33.368  1.00  0.00    -0.200 F 
ATOM     64  C   UNL A   1      48.457  27.529  31.387  1.00  0.00     0.200 A 
ATOM     65  F   UNL A   1      49.112  28.644  29.413  1.00  0.00    -0.200 F 
ATOM     66  F   UNL A   1      49.653  26.932  31.465  1.00  0.00    -0.200 F 
ENDBRANCH  42  56
BRANCH  43  67
ATOM     67  C   UNL A   1      36.949  33.011  30.445  1.00  0.00     0.064 A 
ATOM     68  C   UNL A   1      36.028  32.876  31.493  1.00  0.00     0.173 A 
ATOM     69  C   UNL A   1      36.541  33.724  29.308  1.00  0.00     0.173 A 
ATOM     70  F   UNL A   1      36.358  32.177  32.589  1.00  0.00    -0.203 F 
ATOM     71  C   UNL A   1      34.745  33.412  31.398  1.00  0.00     0.198 A 
ATOM     72  C   UNL A   1      35.269  34.288  29.228  1.00  0.00     0.198 A 
ATOM     73  F   UNL A   1      37.380  33.877  28.274  1.00  0.00    -0.203 F 
ATOM     74  F   UNL A   1      33.867  33.221  32.392  1.00  0.00    -0.200 F 
ATOM     75  C   UNL A   1      34.370  34.125  30.269  1.00  0.00     0.200 A 
ATOM     76  F   UNL A   1      34.914  34.983  28.138  1.00  0.00    -0.200 F 
ATOM     77  F   UNL A   1      33.137  34.642  30.180  1.00  0.00    -0.200 F 
ENDBRANCH  43  67
BRANCH  55  78
ATOM     78  C   UNL A   1      42.862  34.866  33.659  1.00  0.00     0.064 A 
ATOM     79  C   UNL A   1      43.291  36.064  33.067  1.00  0.00     0.173 A 
ATOM     80  C   UNL A   1      42.755  34.832  35.058  1.00  0.00     0.173 A 
ATOM     81  F   UNL A   1      43.424  36.149  31.735  1.00  0.00    -0.203 F 
ATOM     82  C   UNL A   1      43.620  37.171  33.846  1.00  0.00     0.198 A 
ATOM     83  C   UNL A   1      43.052  35.951  35.832  1.00  0.00     0.198 A 
ATOM     84  F   UNL A   1      42.342  33.716  35.678  1.00  0.00    -0.203 F 
ATOM     85  F   UNL A   1      44.075  38.288  33.260  1.00  0.00    -0.200 F 
ATOM     86  C   UNL A   1      43.493  37.118  35.226  1.00  0.00     0.200 A 
ATOM     87  F   UNL A   1      42.910  35.901  37.163  1.00  0.00    -0.200 F 
ATOM     88  F   UNL A   1      43.801  38.187  35.972  1.00  0.00    -0.200 F 
ENDBRANCH  55  78
ENDBRANCH  29  30
ENDBRANCH  22  24
ENDBRANCH  21  22
ENDBRANCH  20  21
ENDBRANCH  19  20
ENDBRANCH  18  19
ENDBRANCH   1  18
TORSDOF 17
ENDMDL
