MODEL 1
REMARK VINA RESULT:     -12.0      0.000      0.000
REMARK SMILES CC1=Nc2c(c(C)nn2-c2ccc(F)cc2)[C@H](c2ccc(C(=O)OCCOCCOCCOC(=O)c3ccc(-c4c5nc(c(-c6c(F)c(F)c(F)c(F)c6F)c6ccc([nH]6)c(-c6c(F)c(F)c(F)c(F)c6F)c6nc(c(-c7c(F)c(F)c(F)c(F)c7F)c7ccc4[nH]7)C=C6)C=C5)cc3)cc2)S1
REMARK SMILES IDX 28 1 27 2 26 3 25 4 24 5 22 6 23 7 21 8 18 9 19 10 100 11
REMARK SMILES IDX 20 12 99 13 17 14 1 15 2 16 3 17 101 18 4 19 5 20 9 21 6 22
REMARK SMILES IDX 8 23 7 24 10 25 11 26 16 27 12 28 15 29 13 30 14 31 29 32
REMARK SMILES IDX 30 33 31 34 32 35 33 36 34 37 35 38 36 39 37 40 98 41 38 42
REMARK SMILES IDX 97 43 39 44 40 45 41 46 91 47 42 48 96 49 90 50 92 51 43 52
REMARK SMILES IDX 95 53 89 54 88 55 44 57 76 58 56 59 75 60 57 61 60 62 74 63
REMARK SMILES IDX 93 64 58 65 59 66 73 68 94 69 61 70 45 71 46 72 54 73 47 74
REMARK SMILES IDX 48 75 52 76 55 77 49 78 50 79 53 80 51 81 77 82 78 83 86 84
REMARK SMILES IDX 79 85 80 86 84 87 87 88 81 89 82 90 85 91 83 92 62 93 63 94
REMARK SMILES IDX 71 95 64 96 65 97 69 98 72 99 66 100 67 101 70 102 68 103
REMARK H PARENT 92 56 60 67
REMARK Flexibility Score: inf
ROOT
ATOM      1  C   UNL A   1      39.902  21.191  26.354  1.00  0.00     0.188 C 
ENDROOT
BRANCH   1   2
ATOM      2  O   UNL A   1      38.713  21.948  26.194  1.00  0.00    -0.376 OA
BRANCH   2   3
ATOM      3  C   UNL A   1      37.943  21.618  25.038  1.00  0.00     0.202 C 
BRANCH   3   4
ATOM      4  C   UNL A   1      36.813  20.588  25.232  1.00  0.00     0.261 C 
BRANCH   4   5
ATOM      5  O   UNL A   1      35.529  21.144  25.570  1.00  0.00    -0.460 OA
BRANCH   5   6
ATOM      6  C   UNL A   1      34.470  20.732  24.838  1.00  0.00     0.338 C 
ATOM      7  O   UNL A   1      34.152  19.574  24.636  1.00  0.00    -0.246 OA
BRANCH   6   8
ATOM      8  C   UNL A   1      33.630  21.901  24.444  1.00  0.00     0.060 A 
ATOM      9  C   UNL A   1      32.158  24.218  23.695  1.00  0.00    -0.030 A 
ATOM     10  C   UNL A   1      33.563  24.176  23.602  1.00  0.00     0.006 A 
ATOM     11  C   UNL A   1      31.503  23.042  24.111  1.00  0.00     0.006 A 
ATOM     12  C   UNL A   1      34.288  23.037  23.967  1.00  0.00     0.016 A 
ATOM     13  C   UNL A   1      32.230  21.900  24.498  1.00  0.00     0.016 A 
BRANCH   9  14
ATOM     14  C   UNL A   1      31.447  25.547  23.445  1.00  0.00     0.119 C 
ATOM     15  C   UNL A   1      34.092  28.236  21.711  1.00  0.00     0.075 C 
ATOM     16  C   UNL A   1      33.058  27.673  22.650  1.00  0.00     0.074 C 
ATOM     17  N   UNL A   1      33.024  28.140  23.857  1.00  0.00    -0.227 NA
ATOM     18  S   UNL A   1      32.034  26.425  21.960  1.00  0.00    -0.098 SA
ATOM     19  C   UNL A   1      32.168  27.580  24.743  1.00  0.00     0.161 A 
ATOM     20  C   UNL A   1      31.488  26.383  24.667  1.00  0.00     0.038 A 
ATOM     21  N   UNL A   1      31.860  28.137  25.978  1.00  0.00    -0.215 N 
ATOM     22  C   UNL A   1      30.812  26.279  25.911  1.00  0.00     0.067 A 
ATOM     23  N   UNL A   1      31.139  27.276  26.744  1.00  0.00    -0.171 NA
ATOM     24  C   UNL A   1      29.834  25.257  26.359  1.00  0.00     0.069 C 
BRANCH  21  25
ATOM     25  C   UNL A   1      32.153  29.447  26.442  1.00  0.00     0.067 A 
ATOM     26  C   UNL A   1      31.314  30.521  26.104  1.00  0.00     0.031 A 
ATOM     27  C   UNL A   1      33.277  29.659  27.252  1.00  0.00     0.031 A 
ATOM     28  C   UNL A   1      31.612  31.807  26.562  1.00  0.00     0.041 A 
ATOM     29  C   UNL A   1      33.594  30.956  27.664  1.00  0.00     0.041 A 
ATOM     30  C   UNL A   1      32.759  32.014  27.320  1.00  0.00     0.123 A 
ATOM     31  F   UNL A   1      33.062  33.255  27.726  1.00  0.00    -0.207 F 
ENDBRANCH  21  25
ENDBRANCH   9  14
ENDBRANCH   6   8
ENDBRANCH   5   6
ENDBRANCH   4   5
ENDBRANCH   3   4
ENDBRANCH   2   3
ENDBRANCH   1   2
BRANCH   1  32
ATOM     32  C   UNL A   1      39.876  19.792  25.706  1.00  0.00     0.188 C 
BRANCH  32  33
ATOM     33  O   UNL A   1      40.861  18.807  25.997  1.00  0.00    -0.376 OA
BRANCH  33  34
ATOM     34  C   UNL A   1      42.127  19.158  26.539  1.00  0.00     0.202 C 
BRANCH  34  35
ATOM     35  C   UNL A   1      43.360  19.217  25.642  1.00  0.00     0.261 C 
BRANCH  35  36
ATOM     36  O   UNL A   1      43.506  20.450  24.954  1.00  0.00    -0.460 OA
BRANCH  36  37
ATOM     37  C   UNL A   1      44.782  20.736  24.621  1.00  0.00     0.338 C 
ATOM     38  O   UNL A   1      45.657  19.950  24.309  1.00  0.00    -0.246 OA
BRANCH  37  39
ATOM     39  C   UNL A   1      45.007  22.183  24.750  1.00  0.00     0.060 A 
ATOM     40  C   UNL A   1      46.023  22.564  25.628  1.00  0.00     0.016 A 
ATOM     41  C   UNL A   1      44.080  23.105  24.243  1.00  0.00     0.016 A 
ATOM     42  C   UNL A   1      45.949  23.807  26.210  1.00  0.00     0.010 A 
ATOM     43  C   UNL A   1      44.006  24.352  24.827  1.00  0.00     0.010 A 
ATOM     44  C   UNL A   1      44.870  24.635  25.884  1.00  0.00    -0.014 A 
BRANCH  44  45
ATOM     45  C   UNL A   1      44.607  25.735  26.789  1.00  0.00     0.031 A 
ATOM     46  C   UNL A   1      45.597  26.829  26.796  1.00  0.00     0.074 A 
ATOM     47  C   UNL A   1      43.498  25.756  27.554  1.00  0.00     0.049 A 
ATOM     48  N   UNL A   1      46.267  27.296  27.798  1.00  0.00    -0.248 NA
ATOM     49  C   UNL A   1      45.913  27.448  25.502  1.00  0.00     0.031 C 
ATOM     50  C   UNL A   1      42.318  24.892  27.454  1.00  0.00     0.029 A 
ATOM     51  N   UNL A   1      43.158  26.643  28.528  1.00  0.00    -0.354 N 
ATOM     52  C   UNL A   1      46.988  28.370  27.293  1.00  0.00     0.074 A 
ATOM     53  C   UNL A   1      46.809  28.364  25.862  1.00  0.00     0.031 C 
ATOM     54  C   UNL A   1      41.314  25.436  28.177  1.00  0.00     0.029 A 
ATOM     55  C   UNL A   1      41.819  26.606  28.876  1.00  0.00     0.049 A 
ATOM     56  H   UNL A   1      43.806  27.256  28.946  1.00  0.00     0.167 HD
ATOM     57  C   UNL A   1      47.535  29.317  28.098  1.00  0.00     0.037 A 
ATOM     58  C   UNL A   1      41.160  27.537  29.604  1.00  0.00     0.037 A 
ATOM     59  C   UNL A   1      47.727  28.858  29.442  1.00  0.00     0.049 A 
ATOM     60  C   UNL A   1      42.168  28.318  30.365  1.00  0.00     0.074 A 
ATOM     61  C   UNL A   1      48.471  27.848  30.020  1.00  0.00     0.029 A 
ATOM     62  N   UNL A   1      46.856  29.278  30.415  1.00  0.00    -0.354 N 
ATOM     63  N   UNL A   1      42.866  27.858  31.365  1.00  0.00    -0.248 NA
ATOM     64  C   UNL A   1      42.668  29.550  29.771  1.00  0.00     0.031 C 
ATOM     65  C   UNL A   1      47.711  27.411  31.142  1.00  0.00     0.029 A 
ATOM     66  C   UNL A   1      46.549  28.183  31.182  1.00  0.00     0.049 A 
ATOM     67  H   UNL A   1      46.514  30.194  30.540  1.00  0.00     0.167 HD
ATOM     68  C   UNL A   1      44.090  28.504  31.270  1.00  0.00     0.074 A 
ATOM     69  C   UNL A   1      43.865  29.615  30.357  1.00  0.00     0.031 C 
ATOM     70  C   UNL A   1      45.236  27.915  31.719  1.00  0.00     0.037 A 
BRANCH  57  71
ATOM     71  C   UNL A   1      47.631  30.756  27.693  1.00  0.00     0.064 A 
ATOM     72  C   UNL A   1      48.848  31.350  27.291  1.00  0.00     0.173 A 
ATOM     73  C   UNL A   1      46.468  31.506  27.452  1.00  0.00     0.173 A 
ATOM     74  F   UNL A   1      50.006  30.678  27.338  1.00  0.00    -0.203 F 
ATOM     75  C   UNL A   1      48.904  32.622  26.731  1.00  0.00     0.198 A 
ATOM     76  C   UNL A   1      46.522  32.760  26.838  1.00  0.00     0.198 A 
ATOM     77  F   UNL A   1      45.260  31.004  27.746  1.00  0.00    -0.203 F 
ATOM     78  F   UNL A   1      50.089  33.135  26.372  1.00  0.00    -0.200 F 
ATOM     79  C   UNL A   1      47.739  33.319  26.485  1.00  0.00     0.200 A 
ATOM     80  F   UNL A   1      45.386  33.404  26.541  1.00  0.00    -0.200 F 
ATOM     81  F   UNL A   1      47.788  34.505  25.864  1.00  0.00    -0.200 F 
ENDBRANCH  57  71
BRANCH  58  82
ATOM     82  C   UNL A   1      39.757  27.988  29.444  1.00  0.00     0.064 A 
ATOM     83  C   UNL A   1      39.307  28.608  28.262  1.00  0.00     0.173 A 
ATOM     84  C   UNL A   1      38.896  28.055  30.550  1.00  0.00     0.173 A 
ATOM     85  F   UNL A   1      40.089  28.683  27.175  1.00  0.00    -0.203 F 
ATOM     86  C   UNL A   1      38.076  29.260  28.192  1.00  0.00     0.198 A 
ATOM     87  C   UNL A   1      37.671  28.725  30.485  1.00  0.00     0.198 A 
ATOM     88  F   UNL A   1      39.268  27.533  31.728  1.00  0.00    -0.203 F 
ATOM     89  F   UNL A   1      37.712  29.871  27.056  1.00  0.00    -0.200 F 
ATOM     90  C   UNL A   1      37.265  29.332  29.307  1.00  0.00     0.200 A 
ATOM     91  F   UNL A   1      36.907  28.830  31.581  1.00  0.00    -0.200 F 
ATOM     92  F   UNL A   1      36.116  30.020  29.259  1.00  0.00    -0.200 F 
ENDBRANCH  58  82
BRANCH  70  93
ATOM     93  C   UNL A   1      45.100  26.709  32.604  1.00  0.00     0.064 A 
ATOM     94  C   UNL A   1      45.299  26.862  33.983  1.00  0.00     0.173 A 
ATOM     95  C   UNL A   1      44.925  25.403  32.112  1.00  0.00     0.173 A 
ATOM     96  F   UNL A   1      45.530  28.079  34.498  1.00  0.00    -0.203 F 
ATOM     97  C   UNL A   1      45.312  25.761  34.836  1.00  0.00     0.198 A 
ATOM     98  C   UNL A   1      44.904  24.307  32.974  1.00  0.00     0.198 A 
ATOM     99  F   UNL A   1      44.834  25.169  30.797  1.00  0.00    -0.203 F 
ATOM    100  F   UNL A   1      45.557  25.932  36.142  1.00  0.00    -0.200 F 
ATOM    101  C   UNL A   1      45.105  24.486  34.332  1.00  0.00     0.200 A 
ATOM    102  F   UNL A   1      44.724  23.071  32.484  1.00  0.00    -0.200 F 
ATOM    103  F   UNL A   1      45.126  23.428  35.155  1.00  0.00    -0.200 F 
ENDBRANCH  70  93
ENDBRANCH  44  45
ENDBRANCH  37  39
ENDBRANCH  36  37
ENDBRANCH  35  36
ENDBRANCH  34  35
ENDBRANCH  33  34
ENDBRANCH  32  33
ENDBRANCH   1  32
TORSDOF 19
ENDMDL
MODEL 2
REMARK VINA RESULT:     -11.4      3.578      7.867
REMARK SMILES CC1=Nc2c(c(C)nn2-c2ccc(F)cc2)[C@H](c2ccc(C(=O)OCCOCCOCCOC(=O)c3ccc(-c4c5nc(c(-c6c(F)c(F)c(F)c(F)c6F)c6ccc([nH]6)c(-c6c(F)c(F)c(F)c(F)c6F)c6nc(c(-c7c(F)c(F)c(F)c(F)c7F)c7ccc4[nH]7)C=C6)C=C5)cc3)cc2)S1
REMARK SMILES IDX 28 1 27 2 26 3 25 4 24 5 22 6 23 7 21 8 18 9 19 10 100 11
REMARK SMILES IDX 20 12 99 13 17 14 1 15 2 16 3 17 101 18 4 19 5 20 9 21 6 22
REMARK SMILES IDX 8 23 7 24 10 25 11 26 16 27 12 28 15 29 13 30 14 31 29 32
REMARK SMILES IDX 30 33 31 34 32 35 33 36 34 37 35 38 36 39 37 40 98 41 38 42
REMARK SMILES IDX 97 43 39 44 40 45 41 46 91 47 42 48 96 49 90 50 92 51 43 52
REMARK SMILES IDX 95 53 89 54 88 55 44 57 76 58 56 59 75 60 57 61 60 62 74 63
REMARK SMILES IDX 93 64 58 65 59 66 73 68 94 69 61 70 45 71 46 72 54 73 47 74
REMARK SMILES IDX 48 75 52 76 55 77 49 78 50 79 53 80 51 81 77 82 78 83 86 84
REMARK SMILES IDX 79 85 80 86 84 87 87 88 81 89 82 90 85 91 83 92 62 93 63 94
REMARK SMILES IDX 71 95 64 96 65 97 69 98 72 99 66 100 67 101 70 102 68 103
REMARK H PARENT 92 56 60 67
REMARK Flexibility Score: inf
ROOT
ATOM      1  C   UNL A   1      41.719  23.344  28.510  1.00  0.00     0.188 C 
ENDROOT
BRANCH   1   2
ATOM      2  O   UNL A   1      41.109  22.929  27.299  1.00  0.00    -0.376 OA
BRANCH   2   3
ATOM      3  C   UNL A   1      41.095  21.517  27.087  1.00  0.00     0.202 C 
BRANCH   3   4
ATOM      4  C   UNL A   1      40.344  21.015  25.838  1.00  0.00     0.261 C 
BRANCH   4   5
ATOM      5  O   UNL A   1      38.945  21.352  25.788  1.00  0.00    -0.460 OA
BRANCH   5   6
ATOM      6  C   UNL A   1      38.119  20.460  25.198  1.00  0.00     0.338 C 
ATOM      7  O   UNL A   1      38.364  19.282  25.008  1.00  0.00    -0.246 OA
BRANCH   6   8
ATOM      8  C   UNL A   1      36.781  21.077  24.959  1.00  0.00     0.060 A 
ATOM      9  C   UNL A   1      34.172  22.108  24.483  1.00  0.00    -0.030 A 
ATOM     10  C   UNL A   1      34.385  20.743  24.763  1.00  0.00     0.006 A 
ATOM     11  C   UNL A   1      35.296  22.957  24.515  1.00  0.00     0.006 A 
ATOM     12  C   UNL A   1      35.667  20.236  25.000  1.00  0.00     0.016 A 
ATOM     13  C   UNL A   1      36.590  22.446  24.734  1.00  0.00     0.016 A 
BRANCH   9  14
ATOM     14  C   UNL A   1      32.774  22.559  24.065  1.00  0.00     0.119 C 
ATOM     15  C   UNL A   1      32.993  24.609  20.462  1.00  0.00     0.075 C 
ATOM     16  C   UNL A   1      32.640  24.292  21.892  1.00  0.00     0.074 C 
ATOM     17  N   UNL A   1      32.472  25.286  22.704  1.00  0.00    -0.227 NA
ATOM     18  S   UNL A   1      32.519  22.580  22.261  1.00  0.00    -0.098 SA
ATOM     19  C   UNL A   1      32.250  25.021  24.012  1.00  0.00     0.161 A 
ATOM     20  C   UNL A   1      32.440  23.849  24.713  1.00  0.00     0.038 A 
ATOM     21  N   UNL A   1      31.816  25.969  24.931  1.00  0.00    -0.215 N 
ATOM     22  C   UNL A   1      32.124  24.182  26.056  1.00  0.00     0.067 A 
ATOM     23  N   UNL A   1      31.870  25.490  26.201  1.00  0.00    -0.171 NA
ATOM     24  C   UNL A   1      32.038  23.294  27.242  1.00  0.00     0.069 C 
BRANCH  21  25
ATOM     25  C   UNL A   1      31.301  27.265  24.668  1.00  0.00     0.067 A 
ATOM     26  C   UNL A   1      30.201  27.430  23.810  1.00  0.00     0.031 A 
ATOM     27  C   UNL A   1      31.886  28.382  25.283  1.00  0.00     0.031 A 
ATOM     28  C   UNL A   1      29.703  28.709  23.555  1.00  0.00     0.041 A 
ATOM     29  C   UNL A   1      31.412  29.661  24.983  1.00  0.00     0.041 A 
ATOM     30  C   UNL A   1      30.325  29.812  24.127  1.00  0.00     0.123 A 
ATOM     31  F   UNL A   1      29.868  31.042  23.850  1.00  0.00    -0.207 F 
ENDBRANCH  21  25
ENDBRANCH   9  14
ENDBRANCH   6   8
ENDBRANCH   5   6
ENDBRANCH   4   5
ENDBRANCH   3   4
ENDBRANCH   2   3
ENDBRANCH   1   2
BRANCH   1  32
ATOM     32  C   UNL A   1      43.163  23.868  28.366  1.00  0.00     0.188 C 
BRANCH  32  33
ATOM     33  O   UNL A   1      44.047  23.380  27.363  1.00  0.00    -0.376 OA
BRANCH  33  34
ATOM     34  C   UNL A   1      44.343  24.141  26.199  1.00  0.00     0.202 C 
BRANCH  34  35
ATOM     35  C   UNL A   1      43.364  24.170  25.029  1.00  0.00     0.261 C 
BRANCH  35  36
ATOM     36  O   UNL A   1      42.226  24.988  25.257  1.00  0.00    -0.460 OA
BRANCH  36  37
ATOM     37  C   UNL A   1      42.475  26.308  25.136  1.00  0.00     0.338 C 
ATOM     38  O   UNL A   1      43.398  26.834  24.540  1.00  0.00    -0.246 OA
BRANCH  37  39
ATOM     39  C   UNL A   1      41.478  27.066  25.906  1.00  0.00     0.060 A 
ATOM     40  C   UNL A   1      41.566  28.456  25.812  1.00  0.00     0.016 A 
ATOM     41  C   UNL A   1      40.687  26.437  26.878  1.00  0.00     0.016 A 
ATOM     42  C   UNL A   1      41.081  29.211  26.854  1.00  0.00     0.010 A 
ATOM     43  C   UNL A   1      40.201  27.194  27.922  1.00  0.00     0.010 A 
ATOM     44  C   UNL A   1      40.511  28.554  27.947  1.00  0.00    -0.014 A 
BRANCH  44  45
ATOM     45  C   UNL A   1      40.385  29.325  29.167  1.00  0.00     0.031 A 
ATOM     46  C   UNL A   1      39.251  30.267  29.232  1.00  0.00     0.074 A 
ATOM     47  C   UNL A   1      41.247  29.157  30.189  1.00  0.00     0.049 A 
ATOM     48  N   UNL A   1      39.280  31.541  29.449  1.00  0.00    -0.248 NA
ATOM     49  C   UNL A   1      37.914  29.718  28.971  1.00  0.00     0.031 C 
ATOM     50  C   UNL A   1      42.233  28.087  30.369  1.00  0.00     0.029 A 
ATOM     51  N   UNL A   1      41.340  29.870  31.344  1.00  0.00    -0.354 N 
ATOM     52  C   UNL A   1      37.951  31.939  29.498  1.00  0.00     0.074 A 
ATOM     53  C   UNL A   1      37.154  30.803  29.106  1.00  0.00     0.031 C 
ATOM     54  C   UNL A   1      42.663  28.099  31.650  1.00  0.00     0.029 A 
ATOM     55  C   UNL A   1      42.076  29.240  32.332  1.00  0.00     0.049 A 
ATOM     56  H   UNL A   1      40.922  30.753  31.465  1.00  0.00     0.167 HD
ATOM     57  C   UNL A   1      37.570  33.123  30.044  1.00  0.00     0.037 A 
ATOM     58  C   UNL A   1      42.108  29.583  33.640  1.00  0.00     0.037 A 
ATOM     59  C   UNL A   1      38.635  34.080  30.091  1.00  0.00     0.049 A 
ATOM     60  C   UNL A   1      41.646  30.989  33.755  1.00  0.00     0.074 A 
ATOM     61  C   UNL A   1      39.418  34.700  29.136  1.00  0.00     0.029 A 
ATOM     62  N   UNL A   1      39.254  34.322  31.291  1.00  0.00    -0.354 N 
ATOM     63  N   UNL A   1      42.315  32.029  33.343  1.00  0.00    -0.248 NA
ATOM     64  C   UNL A   1      40.234  31.224  34.023  1.00  0.00     0.031 C 
ATOM     65  C   UNL A   1      40.689  34.889  29.752  1.00  0.00     0.029 A 
ATOM     66  C   UNL A   1      40.603  34.374  31.046  1.00  0.00     0.049 A 
ATOM     67  H   UNL A   1      38.814  34.438  32.164  1.00  0.00     0.167 HD
ATOM     68  C   UNL A   1      41.348  32.929  32.922  1.00  0.00     0.074 A 
ATOM     69  C   UNL A   1      40.097  32.434  33.478  1.00  0.00     0.031 C 
ATOM     70  C   UNL A   1      41.606  33.832  31.932  1.00  0.00     0.037 A 
BRANCH  57  71
ATOM     71  C   UNL A   1      36.277  33.286  30.784  1.00  0.00     0.064 A 
ATOM     72  C   UNL A   1      36.153  33.003  32.162  1.00  0.00     0.173 A 
ATOM     73  C   UNL A   1      35.202  33.971  30.195  1.00  0.00     0.173 A 
ATOM     74  F   UNL A   1      37.168  32.482  32.866  1.00  0.00    -0.203 F 
ATOM     75  C   UNL A   1      35.017  33.339  32.889  1.00  0.00     0.198 A 
ATOM     76  C   UNL A   1      34.086  34.357  30.940  1.00  0.00     0.198 A 
ATOM     77  F   UNL A   1      35.251  34.336  28.905  1.00  0.00    -0.203 F 
ATOM     78  F   UNL A   1      34.955  33.041  34.195  1.00  0.00    -0.200 F 
ATOM     79  C   UNL A   1      33.990  34.034  32.284  1.00  0.00     0.200 A 
ATOM     80  F   UNL A   1      33.123  35.089  30.365  1.00  0.00    -0.200 F 
ATOM     81  F   UNL A   1      32.937  34.435  33.006  1.00  0.00    -0.200 F 
ENDBRANCH  57  71
BRANCH  58  82
ATOM     82  C   UNL A   1      42.218  28.682  34.813  1.00  0.00     0.064 A 
ATOM     83  C   UNL A   1      43.263  28.807  35.750  1.00  0.00     0.173 A 
ATOM     84  C   UNL A   1      41.447  27.512  34.892  1.00  0.00     0.173 A 
ATOM     85  F   UNL A   1      44.117  29.840  35.704  1.00  0.00    -0.203 F 
ATOM     86  C   UNL A   1      43.523  27.823  36.702  1.00  0.00     0.198 A 
ATOM     87  C   UNL A   1      41.721  26.517  35.835  1.00  0.00     0.198 A 
ATOM     88  F   UNL A   1      40.463  27.291  34.008  1.00  0.00    -0.203 F 
ATOM     89  F   UNL A   1      44.556  27.971  37.545  1.00  0.00    -0.200 F 
ATOM     90  C   UNL A   1      42.763  26.671  36.736  1.00  0.00     0.200 A 
ATOM     91  F   UNL A   1      41.008  25.382  35.835  1.00  0.00    -0.200 F 
ATOM     92  F   UNL A   1      43.060  25.694  37.603  1.00  0.00    -0.200 F 
ENDBRANCH  58  82
BRANCH  70  93
ATOM     93  C   UNL A   1      43.041  34.048  31.542  1.00  0.00     0.064 A 
ATOM     94  C   UNL A   1      43.715  35.164  32.055  1.00  0.00     0.173 A 
ATOM     95  C   UNL A   1      43.706  33.272  30.577  1.00  0.00     0.173 A 
ATOM     96  F   UNL A   1      43.105  35.974  32.934  1.00  0.00    -0.203 F 
ATOM     97  C   UNL A   1      45.002  35.487  31.630  1.00  0.00     0.198 A 
ATOM     98  C   UNL A   1      45.008  33.578  30.181  1.00  0.00     0.198 A 
ATOM     99  F   UNL A   1      43.088  32.253  29.967  1.00  0.00    -0.203 F 
ATOM    100  F   UNL A   1      45.602  36.589  32.098  1.00  0.00    -0.200 F 
ATOM    101  C   UNL A   1      45.651  34.688  30.702  1.00  0.00     0.200 A 
ATOM    102  F   UNL A   1      45.628  32.816  29.267  1.00  0.00    -0.200 F 
ATOM    103  F   UNL A   1      46.886  35.005  30.290  1.00  0.00    -0.200 F 
ENDBRANCH  70  93
ENDBRANCH  44  45
ENDBRANCH  37  39
ENDBRANCH  36  37
ENDBRANCH  35  36
ENDBRANCH  34  35
ENDBRANCH  33  34
ENDBRANCH  32  33
ENDBRANCH   1  32
TORSDOF 19
ENDMDL
MODEL 3
REMARK VINA RESULT:     -11.3      4.081      8.599
REMARK SMILES CC1=Nc2c(c(C)nn2-c2ccc(F)cc2)[C@H](c2ccc(C(=O)OCCOCCOCCOC(=O)c3ccc(-c4c5nc(c(-c6c(F)c(F)c(F)c(F)c6F)c6ccc([nH]6)c(-c6c(F)c(F)c(F)c(F)c6F)c6nc(c(-c7c(F)c(F)c(F)c(F)c7F)c7ccc4[nH]7)C=C6)C=C5)cc3)cc2)S1
REMARK SMILES IDX 28 1 27 2 26 3 25 4 24 5 22 6 23 7 21 8 18 9 19 10 100 11
REMARK SMILES IDX 20 12 99 13 17 14 1 15 2 16 3 17 101 18 4 19 5 20 9 21 6 22
REMARK SMILES IDX 8 23 7 24 10 25 11 26 16 27 12 28 15 29 13 30 14 31 29 32
REMARK SMILES IDX 30 33 31 34 32 35 33 36 34 37 35 38 36 39 37 40 98 41 38 42
REMARK SMILES IDX 97 43 39 44 40 45 41 46 91 47 42 48 96 49 90 50 92 51 43 52
REMARK SMILES IDX 95 53 89 54 88 55 44 57 76 58 56 59 75 60 57 61 60 62 74 63
REMARK SMILES IDX 93 64 58 65 59 66 73 68 94 69 61 70 45 71 46 72 54 73 47 74
REMARK SMILES IDX 48 75 52 76 55 77 49 78 50 79 53 80 51 81 77 82 78 83 86 84
REMARK SMILES IDX 79 85 80 86 84 87 87 88 81 89 82 90 85 91 83 92 62 93 63 94
REMARK SMILES IDX 71 95 64 96 65 97 69 98 72 99 66 100 67 101 70 102 68 103
REMARK H PARENT 92 56 60 67
REMARK Flexibility Score: inf
ROOT
ATOM      1  C   UNL A   1      34.885  34.010  30.165  1.00  0.00     0.188 C 
ENDROOT
BRANCH   1   2
ATOM      2  O   UNL A   1      34.226  33.001  29.418  1.00  0.00    -0.376 OA
BRANCH   2   3
ATOM      3  C   UNL A   1      34.769  32.763  28.119  1.00  0.00     0.202 C 
BRANCH   3   4
ATOM      4  C   UNL A   1      34.472  31.390  27.488  1.00  0.00     0.261 C 
BRANCH   4   5
ATOM      5  O   UNL A   1      33.173  30.846  27.789  1.00  0.00    -0.460 OA
BRANCH   5   6
ATOM      6  C   UNL A   1      32.189  31.074  26.891  1.00  0.00     0.338 C 
ATOM      7  O   UNL A   1      31.729  32.164  26.601  1.00  0.00    -0.246 OA
BRANCH   6   8
ATOM      8  C   UNL A   1      31.853  29.814  26.164  1.00  0.00     0.060 A 
ATOM      9  C   UNL A   1      31.306  27.335  24.879  1.00  0.00    -0.030 A 
ATOM     10  C   UNL A   1      31.895  27.388  26.158  1.00  0.00     0.006 A 
ATOM     11  C   UNL A   1      30.936  28.559  24.288  1.00  0.00     0.006 A 
ATOM     12  C   UNL A   1      32.162  28.606  26.792  1.00  0.00     0.016 A 
ATOM     13  C   UNL A   1      31.221  29.788  24.915  1.00  0.00     0.016 A 
BRANCH   9  14
ATOM     14  C   UNL A   1      31.202  25.983  24.176  1.00  0.00     0.119 C 
ATOM     15  C   UNL A   1      30.348  23.027  26.963  1.00  0.00     0.075 C 
ATOM     16  C   UNL A   1      31.023  23.749  25.827  1.00  0.00     0.074 C 
ATOM     17  N   UNL A   1      32.278  23.506  25.621  1.00  0.00    -0.227 NA
ATOM     18  S   UNL A   1      29.990  24.853  24.935  1.00  0.00    -0.098 SA
ATOM     19  C   UNL A   1      32.926  24.215  24.669  1.00  0.00     0.161 A 
ATOM     20  C   UNL A   1      32.547  25.379  24.034  1.00  0.00     0.038 A 
ATOM     21  N   UNL A   1      34.187  23.889  24.185  1.00  0.00    -0.215 N 
ATOM     22  C   UNL A   1      33.649  25.704  23.201  1.00  0.00     0.067 A 
ATOM     23  N   UNL A   1      34.683  24.873  23.390  1.00  0.00    -0.171 NA
ATOM     24  C   UNL A   1      33.772  26.791  22.197  1.00  0.00     0.069 C 
BRANCH  21  25
ATOM     25  C   UNL A   1      34.911  22.684  24.382  1.00  0.00     0.067 A 
ATOM     26  C   UNL A   1      34.239  21.503  24.738  1.00  0.00     0.031 A 
ATOM     27  C   UNL A   1      36.302  22.674  24.203  1.00  0.00     0.031 A 
ATOM     28  C   UNL A   1      34.960  20.323  24.933  1.00  0.00     0.041 A 
ATOM     29  C   UNL A   1      37.020  21.502  24.449  1.00  0.00     0.041 A 
ATOM     30  C   UNL A   1      36.345  20.339  24.807  1.00  0.00     0.123 A 
ATOM     31  F   UNL A   1      37.037  19.214  25.031  1.00  0.00    -0.207 F 
ENDBRANCH  21  25
ENDBRANCH   9  14
ENDBRANCH   6   8
ENDBRANCH   5   6
ENDBRANCH   4   5
ENDBRANCH   3   4
ENDBRANCH   2   3
ENDBRANCH   1   2
BRANCH   1  32
ATOM     32  C   UNL A   1      34.760  33.874  31.696  1.00  0.00     0.188 C 
BRANCH  32  33
ATOM     33  O   UNL A   1      35.885  33.603  32.525  1.00  0.00    -0.376 OA
BRANCH  33  34
ATOM     34  C   UNL A   1      36.468  32.307  32.586  1.00  0.00     0.202 C 
BRANCH  34  35
ATOM     35  C   UNL A   1      37.601  31.927  31.638  1.00  0.00     0.261 C 
BRANCH  35  36
ATOM     36  O   UNL A   1      37.157  31.527  30.350  1.00  0.00    -0.460 OA
BRANCH  36  37
ATOM     37  C   UNL A   1      36.678  30.266  30.310  1.00  0.00     0.338 C 
ATOM     38  O   UNL A   1      35.640  29.855  30.796  1.00  0.00    -0.246 OA
BRANCH  37  39
ATOM     39  C   UNL A   1      37.646  29.398  29.626  1.00  0.00     0.060 A 
ATOM     40  C   UNL A   1      38.128  28.320  30.371  1.00  0.00     0.016 A 
ATOM     41  C   UNL A   1      38.244  29.793  28.421  1.00  0.00     0.016 A 
ATOM     42  C   UNL A   1      39.366  27.811  30.054  1.00  0.00     0.010 A 
ATOM     43  C   UNL A   1      39.485  29.282  28.103  1.00  0.00     0.010 A 
ATOM     44  C   UNL A   1      40.073  28.385  28.994  1.00  0.00    -0.014 A 
BRANCH  44  45
ATOM     45  C   UNL A   1      41.495  28.110  28.944  1.00  0.00     0.031 A 
ATOM     46  C   UNL A   1      41.895  26.839  28.308  1.00  0.00     0.074 A 
ATOM     47  C   UNL A   1      42.391  28.990  29.431  1.00  0.00     0.049 A 
ATOM     48  N   UNL A   1      42.601  25.880  28.811  1.00  0.00    -0.248 NA
ATOM     49  C   UNL A   1      41.396  26.590  26.950  1.00  0.00     0.031 C 
ATOM     50  C   UNL A   1      42.161  30.381  29.833  1.00  0.00     0.029 A 
ATOM     51  N   UNL A   1      43.737  28.841  29.567  1.00  0.00    -0.354 N 
ATOM     52  C   UNL A   1      42.764  24.962  27.781  1.00  0.00     0.074 A 
ATOM     53  C   UNL A   1      41.928  25.398  26.690  1.00  0.00     0.031 C 
ATOM     54  C   UNL A   1      43.353  31.005  29.956  1.00  0.00     0.029 A 
ATOM     55  C   UNL A   1      44.415  30.032  29.759  1.00  0.00     0.049 A 
ATOM     56  H   UNL A   1      44.186  27.966  29.531  1.00  0.00     0.167 HD
ATOM     57  C   UNL A   1      43.723  24.002  27.814  1.00  0.00     0.037 A 
ATOM     58  C   UNL A   1      45.752  30.211  29.658  1.00  0.00     0.037 A 
ATOM     59  C   UNL A   1      44.180  23.719  29.143  1.00  0.00     0.049 A 
ATOM     60  C   UNL A   1      46.402  28.883  29.798  1.00  0.00     0.074 A 
ATOM     61  C   UNL A   1      43.574  23.242  30.289  1.00  0.00     0.029 A 
ATOM     62  N   UNL A   1      45.395  24.212  29.544  1.00  0.00    -0.354 N 
ATOM     63  N   UNL A   1      46.458  28.194  30.903  1.00  0.00    -0.248 NA
ATOM     64  C   UNL A   1      46.698  28.137  28.583  1.00  0.00     0.031 C 
ATOM     65  C   UNL A   1      44.252  23.877  31.369  1.00  0.00     0.029 A 
ATOM     66  C   UNL A   1      45.231  24.703  30.815  1.00  0.00     0.049 A 
ATOM     67  H   UNL A   1      46.228  24.214  29.020  1.00  0.00     0.167 HD
ATOM     68  C   UNL A   1      46.400  26.869  30.498  1.00  0.00     0.074 A 
ATOM     69  C   UNL A   1      46.675  26.894  29.069  1.00  0.00     0.031 C 
ATOM     70  C   UNL A   1      45.859  25.908  31.302  1.00  0.00     0.037 A 
BRANCH  57  71
ATOM     71  C   UNL A   1      44.428  23.529  26.579  1.00  0.00     0.064 A 
ATOM     72  C   UNL A   1      45.443  24.285  25.951  1.00  0.00     0.173 A 
ATOM     73  C   UNL A   1      44.286  22.202  26.143  1.00  0.00     0.173 A 
ATOM     74  F   UNL A   1      45.770  25.513  26.376  1.00  0.00    -0.203 F 
ATOM     75  C   UNL A   1      46.230  23.765  24.929  1.00  0.00     0.198 A 
ATOM     76  C   UNL A   1      45.114  21.665  25.155  1.00  0.00     0.198 A 
ATOM     77  F   UNL A   1      43.388  21.388  26.718  1.00  0.00    -0.203 F 
ATOM     78  F   UNL A   1      47.177  24.531  24.368  1.00  0.00    -0.200 F 
ATOM     79  C   UNL A   1      46.080  22.448  24.544  1.00  0.00     0.200 A 
ATOM     80  F   UNL A   1      45.010  20.370  24.831  1.00  0.00    -0.200 F 
ATOM     81  F   UNL A   1      46.897  21.924  23.622  1.00  0.00    -0.200 F 
ENDBRANCH  57  71
BRANCH  58  82
ATOM     82  C   UNL A   1      46.472  31.401  29.145  1.00  0.00     0.064 A 
ATOM     83  C   UNL A   1      47.078  32.333  30.012  1.00  0.00     0.173 A 
ATOM     84  C   UNL A   1      46.354  31.786  27.801  1.00  0.00     0.173 A 
ATOM     85  F   UNL A   1      47.157  32.104  31.331  1.00  0.00    -0.203 F 
ATOM     86  C   UNL A   1      47.530  33.573  29.564  1.00  0.00     0.198 A 
ATOM     87  C   UNL A   1      46.791  33.037  27.356  1.00  0.00     0.198 A 
ATOM     88  F   UNL A   1      45.746  30.979  26.918  1.00  0.00    -0.203 F 
ATOM     89  F   UNL A   1      48.062  34.440  30.436  1.00  0.00    -0.200 F 
ATOM     90  C   UNL A   1      47.373  33.932  28.239  1.00  0.00     0.200 A 
ATOM     91  F   UNL A   1      46.596  33.398  26.080  1.00  0.00    -0.200 F 
ATOM     92  F   UNL A   1      47.742  35.151  27.825  1.00  0.00    -0.200 F 
ENDBRANCH  58  82
BRANCH  70  93
ATOM     93  C   UNL A   1      45.631  26.254  32.746  1.00  0.00     0.064 A 
ATOM     94  C   UNL A   1      46.555  25.803  33.698  1.00  0.00     0.173 A 
ATOM     95  C   UNL A   1      44.466  26.884  33.217  1.00  0.00     0.173 A 
ATOM     96  F   UNL A   1      47.655  25.142  33.308  1.00  0.00    -0.203 F 
ATOM     97  C   UNL A   1      46.330  25.981  35.061  1.00  0.00     0.198 A 
ATOM     98  C   UNL A   1      44.261  27.092  34.580  1.00  0.00     0.198 A 
ATOM     99  F   UNL A   1      43.491  27.247  32.374  1.00  0.00    -0.203 F 
ATOM    100  F   UNL A   1      47.205  25.493  35.951  1.00  0.00    -0.200 F 
ATOM    101  C   UNL A   1      45.189  26.634  35.500  1.00  0.00     0.200 A 
ATOM    102  F   UNL A   1      43.147  27.706  35.006  1.00  0.00    -0.200 F 
ATOM    103  F   UNL A   1      44.973  26.798  36.813  1.00  0.00    -0.200 F 
ENDBRANCH  70  93
ENDBRANCH  44  45
ENDBRANCH  37  39
ENDBRANCH  36  37
ENDBRANCH  35  36
ENDBRANCH  34  35
ENDBRANCH  33  34
ENDBRANCH  32  33
ENDBRANCH   1  32
TORSDOF 19
ENDMDL
