MODEL 1
REMARK VINA RESULT:     -14.7      0.000      0.000
REMARK SMILES CC(=O)Nc1cnc(N2CC=C(c3ccccc3C)CC2)c(C(=O)OCCOCCOCCOC(=O)c2ccc(-c3c4nc(c(-c5c(F)c(F)c(F)c(F)c5F)c5ccc([nH]5)c(-c5c(F)c(F)c(F)c(F)c5F)c5nc(c(-c6c(F)c(F)c(F)c(F)c6F)c6ccc3[nH]6)C=C5)C=C4)cc2)c1
REMARK SMILES IDX 29 1 28 2 27 3 26 4 25 5 23 6 24 7 22 8 5 9 6 10 100 11 7 12
REMARK SMILES IDX 8 13 4 14 1 15 2 16 3 17 9 19 10 20 21 21 11 22 20 23 12 24
REMARK SMILES IDX 13 25 14 26 18 27 15 28 17 29 19 30 16 31 30 32 31 33 32 34
REMARK SMILES IDX 33 35 34 36 35 37 36 38 37 39 38 40 99 41 39 42 98 43 40 44
REMARK SMILES IDX 41 45 42 46 92 47 43 48 97 49 91 50 93 51 44 52 96 53 90 54
REMARK SMILES IDX 89 55 45 57 77 58 57 59 76 60 58 61 61 62 75 63 94 64 59 65
REMARK SMILES IDX 60 66 74 68 95 69 62 70 46 71 47 72 55 73 48 74 49 75 53 76
REMARK SMILES IDX 56 77 50 78 51 79 54 80 52 81 78 82 79 83 87 84 80 85 81 86
REMARK SMILES IDX 85 87 88 88 82 89 83 90 86 91 84 92 63 93 64 94 72 95 65 96
REMARK SMILES IDX 66 97 70 98 73 99 67 100 68 101 71 102 69 103
REMARK H PARENT 4 18 93 56 61 67
REMARK Flexibility Score: inf
ROOT
ATOM      1  C   UNL A   1      33.844  30.996  27.348  1.00  0.00     0.188 C 
ENDROOT
BRANCH   1   2
ATOM      2  O   UNL A   1      33.238  29.793  26.903  1.00  0.00    -0.376 OA
BRANCH   2   3
ATOM      3  C   UNL A   1      31.879  29.430  27.000  1.00  0.00     0.202 C 
BRANCH   3   4
ATOM      4  C   UNL A   1      31.460  27.774  27.284  1.00  0.00     0.261 C 
BRANCH   4   5
ATOM      5  O   UNL A   1      30.716  26.531  26.350  1.00  0.00    -0.460 OA
BRANCH   5   6
ATOM      6  C   UNL A   1      30.309  26.175  24.996  1.00  0.00     0.342 C 
ATOM      7  O   UNL A   1      30.029  25.057  24.575  1.00  0.00    -0.246 OA
BRANCH   6   8
ATOM      8  C   UNL A   1      30.462  27.082  23.841  1.00  0.00     0.104 A 
ATOM      9  C   UNL A   1      29.413  29.026  22.932  1.00  0.00     0.060 A 
ATOM     10  C   UNL A   1      30.597  29.272  22.251  1.00  0.00     0.139 A 
ATOM     11  C   UNL A   1      29.335  27.871  23.674  1.00  0.00     0.047 A 
ATOM     12  N   UNL A   1      31.712  28.502  22.346  1.00  0.00    -0.236 NA
ATOM     13  C   UNL A   1      31.697  27.421  23.170  1.00  0.00     0.143 A 
BRANCH   9  14
ATOM     14  N   UNL A   1      28.319  29.896  22.861  1.00  0.00    -0.325 N 
ATOM     15  C   UNL A   1      29.284  31.784  24.189  1.00  0.00     0.114 C 
ATOM     16  C   UNL A   1      28.105  31.047  23.580  1.00  0.00     0.221 C 
ATOM     17  O   UNL A   1      26.964  31.500  23.668  1.00  0.00    -0.275 OA
ATOM     18  H   UNL A   1      27.617  29.655  22.214  1.00  0.00     0.169 HD
ENDBRANCH   9  14
BRANCH  13  19
ATOM     19  N   UNL A   1      32.895  26.706  23.189  1.00  0.00    -0.352 N 
ATOM     20  C   UNL A   1      33.126  25.601  22.239  1.00  0.00     0.146 C 
ATOM     21  C   UNL A   1      33.664  26.687  24.428  1.00  0.00     0.123 C 
ATOM     22  C   UNL A   1      34.072  24.501  22.753  1.00  0.00    -0.002 C 
ATOM     23  C   UNL A   1      33.855  25.282  25.030  1.00  0.00     0.057 C 
ATOM     24  C   UNL A   1      34.448  24.309  24.039  1.00  0.00    -0.041 C 
BRANCH  24  25
ATOM     25  C   UNL A   1      35.451  23.272  24.508  1.00  0.00    -0.020 A 
ATOM     26  C   UNL A   1      36.773  23.681  24.807  1.00  0.00     0.008 A 
ATOM     27  C   UNL A   1      35.153  21.906  24.767  1.00  0.00    -0.044 A 
ATOM     28  C   UNL A   1      37.732  22.817  25.367  1.00  0.00     0.001 A 
ATOM     29  C   UNL A   1      36.122  21.053  25.356  1.00  0.00     0.004 A 
ATOM     30  C   UNL A   1      33.827  21.263  24.458  1.00  0.00     0.045 C 
ATOM     31  C   UNL A   1      37.401  21.503  25.657  1.00  0.00     0.000 A 
ENDBRANCH  24  25
ENDBRANCH  13  19
ENDBRANCH   6   8
ENDBRANCH   5   6
ENDBRANCH   4   5
ENDBRANCH   3   4
ENDBRANCH   2   3
ENDBRANCH   1   2
BRANCH   1  32
ATOM     32  C   UNL A   1      32.885  32.171  27.322  1.00  0.00     0.188 C 
BRANCH  32  33
ATOM     33  O   UNL A   1      33.415  33.260  28.053  1.00  0.00    -0.376 OA
BRANCH  33  34
ATOM     34  C   UNL A   1      34.830  33.220  28.211  1.00  0.00     0.202 C 
BRANCH  34  35
ATOM     35  C   UNL A   1      35.364  33.186  29.659  1.00  0.00     0.261 C 
BRANCH  35  36
ATOM     36  O   UNL A   1      36.386  32.183  29.806  1.00  0.00    -0.460 OA
BRANCH  36  37
ATOM     37  C   UNL A   1      36.130  31.226  30.751  1.00  0.00     0.338 C 
ATOM     38  O   UNL A   1      35.817  31.423  31.913  1.00  0.00    -0.246 OA
BRANCH  37  39
ATOM     39  C   UNL A   1      36.671  29.948  30.221  1.00  0.00     0.060 A 
ATOM     40  C   UNL A   1      37.436  29.081  30.999  1.00  0.00     0.016 A 
ATOM     41  C   UNL A   1      36.712  29.755  28.880  1.00  0.00     0.016 A 
ATOM     42  C   UNL A   1      38.452  28.240  30.415  1.00  0.00     0.010 A 
ATOM     43  C   UNL A   1      37.693  28.886  28.372  1.00  0.00     0.010 A 
ATOM     44  C   UNL A   1      38.753  28.182  29.051  1.00  0.00    -0.014 A 
BRANCH  44  45
ATOM     45  C   UNL A   1      40.295  27.576  28.492  1.00  0.00     0.031 A 
ATOM     46  C   UNL A   1      40.827  26.115  27.961  1.00  0.00     0.074 A 
ATOM     47  C   UNL A   1      41.384  28.382  28.493  1.00  0.00     0.049 A 
ATOM     48  N   UNL A   1      41.553  25.259  28.657  1.00  0.00    -0.248 NA
ATOM     49  C   UNL A   1      40.686  25.552  26.588  1.00  0.00     0.031 C 
ATOM     50  C   UNL A   1      42.761  28.016  28.143  1.00  0.00     0.029 A 
ATOM     51  N   UNL A   1      41.514  29.677  28.996  1.00  0.00    -0.354 N 
ATOM     52  C   UNL A   1      41.774  24.119  27.892  1.00  0.00     0.074 A 
ATOM     53  C   UNL A   1      41.007  24.261  26.699  1.00  0.00     0.031 C 
ATOM     54  C   UNL A   1      43.592  28.852  28.786  1.00  0.00     0.029 A 
ATOM     55  C   UNL A   1      42.782  29.744  29.589  1.00  0.00     0.049 A 
ATOM     56  H   UNL A   1      40.847  30.400  28.944  1.00  0.00     0.167 HD
ATOM     57  C   UNL A   1      42.832  23.267  28.014  1.00  0.00     0.037 A 
ATOM     58  C   UNL A   1      42.894  30.006  30.920  1.00  0.00     0.037 A 
ATOM     59  C   UNL A   1      43.888  23.913  28.746  1.00  0.00     0.049 A 
ATOM     60  C   UNL A   1      43.531  28.868  31.686  1.00  0.00     0.074 A 
ATOM     61  C   UNL A   1      44.919  24.720  28.293  1.00  0.00     0.029 A 
ATOM     62  N   UNL A   1      43.730  24.179  30.094  1.00  0.00    -0.354 N 
ATOM     63  N   UNL A   1      43.840  27.714  31.160  1.00  0.00    -0.248 NA
ATOM     64  C   UNL A   1      43.852  28.923  33.109  1.00  0.00     0.031 C 
ATOM     65  C   UNL A   1      45.339  25.533  29.367  1.00  0.00     0.029 A 
ATOM     66  C   UNL A   1      44.607  25.173  30.482  1.00  0.00     0.049 A 
ATOM     67  H   UNL A   1      43.088  23.727  30.687  1.00  0.00     0.167 HD
ATOM     68  C   UNL A   1      44.331  26.878  32.129  1.00  0.00     0.074 A 
ATOM     69  C   UNL A   1      44.361  27.697  33.324  1.00  0.00     0.031 C 
ATOM     70  C   UNL A   1      44.660  25.580  31.869  1.00  0.00     0.037 A 
BRANCH  57  71
ATOM     71  C   UNL A   1      42.998  22.124  27.034  1.00  0.00     0.064 A 
ATOM     72  C   UNL A   1      42.287  20.915  27.131  1.00  0.00     0.173 A 
ATOM     73  C   UNL A   1      43.975  22.180  26.014  1.00  0.00     0.173 A 
ATOM     74  F   UNL A   1      41.310  20.752  28.030  1.00  0.00    -0.203 F 
ATOM     75  C   UNL A   1      42.598  19.806  26.336  1.00  0.00     0.198 A 
ATOM     76  C   UNL A   1      44.293  21.064  25.228  1.00  0.00     0.198 A 
ATOM     77  F   UNL A   1      44.681  23.305  25.815  1.00  0.00    -0.203 F 
ATOM     78  F   UNL A   1      41.932  18.654  26.511  1.00  0.00    -0.200 F 
ATOM     79  C   UNL A   1      43.617  19.872  25.404  1.00  0.00     0.200 A 
ATOM     80  F   UNL A   1      45.292  21.135  24.335  1.00  0.00    -0.200 F 
ATOM     81  F   UNL A   1      43.958  18.784  24.697  1.00  0.00    -0.200 F 
ENDBRANCH  57  71
BRANCH  58  82
ATOM     82  C   UNL A   1      41.878  30.993  31.402  1.00  0.00     0.064 A 
ATOM     83  C   UNL A   1      41.815  32.236  30.727  1.00  0.00     0.173 A 
ATOM     84  C   UNL A   1      40.775  30.651  32.192  1.00  0.00     0.173 A 
ATOM     85  F   UNL A   1      42.838  32.627  29.949  1.00  0.00    -0.203 F 
ATOM     86  C   UNL A   1      40.659  33.014  30.716  1.00  0.00     0.198 A 
ATOM     87  C   UNL A   1      39.627  31.459  32.212  1.00  0.00     0.198 A 
ATOM     88  F   UNL A   1      40.745  29.468  32.817  1.00  0.00    -0.203 F 
ATOM     89  F   UNL A   1      40.581  34.086  29.914  1.00  0.00    -0.200 F 
ATOM     90  C   UNL A   1      39.558  32.614  31.445  1.00  0.00     0.200 A 
ATOM     91  F   UNL A   1      38.517  31.041  32.835  1.00  0.00    -0.200 F 
ATOM     92  F   UNL A   1      38.401  33.283  31.328  1.00  0.00    -0.200 F 
ENDBRANCH  58  82
BRANCH  70  93
ATOM     93  C   UNL A   1      45.124  24.546  32.860  1.00  0.00     0.064 A 
ATOM     94  C   UNL A   1      44.380  23.419  33.222  1.00  0.00     0.173 A 
ATOM     95  C   UNL A   1      46.452  24.600  33.360  1.00  0.00     0.173 A 
ATOM     96  F   UNL A   1      43.152  23.210  32.728  1.00  0.00    -0.203 F 
ATOM     97  C   UNL A   1      44.907  22.436  34.064  1.00  0.00     0.198 A 
ATOM     98  C   UNL A   1      46.995  23.587  34.144  1.00  0.00     0.198 A 
ATOM     99  F   UNL A   1      47.268  25.628  33.079  1.00  0.00    -0.203 F 
ATOM    100  F   UNL A   1      44.145  21.394  34.421  1.00  0.00    -0.200 F 
ATOM    101  C   UNL A   1      46.216  22.512  34.511  1.00  0.00     0.200 A 
ATOM    102  F   UNL A   1      48.279  23.653  34.524  1.00  0.00    -0.200 F 
ATOM    103  F   UNL A   1      46.728  21.542  35.280  1.00  0.00    -0.200 F 
ENDBRANCH  70  93
ENDBRANCH  44  45
ENDBRANCH  37  39
ENDBRANCH  36  37
ENDBRANCH  35  36
ENDBRANCH  34  35
ENDBRANCH  33  34
ENDBRANCH  32  33
ENDBRANCH   1  32
TORSDOF 20
ENDMDL
MODEL 2
REMARK VINA RESULT:     -14.4      1.487      2.381
REMARK SMILES CC(=O)Nc1cnc(N2CC=C(c3ccccc3C)CC2)c(C(=O)OCCOCCOCCOC(=O)c2ccc(-c3c4nc(c(-c5c(F)c(F)c(F)c(F)c5F)c5ccc([nH]5)c(-c5c(F)c(F)c(F)c(F)c5F)c5nc(c(-c6c(F)c(F)c(F)c(F)c6F)c6ccc3[nH]6)C=C5)C=C4)cc2)c1
REMARK SMILES IDX 29 1 28 2 27 3 26 4 25 5 23 6 24 7 22 8 5 9 6 10 100 11 7 12
REMARK SMILES IDX 8 13 4 14 1 15 2 16 3 17 9 19 10 20 21 21 11 22 20 23 12 24
REMARK SMILES IDX 13 25 14 26 18 27 15 28 17 29 19 30 16 31 30 32 31 33 32 34
REMARK SMILES IDX 33 35 34 36 35 37 36 38 37 39 38 40 99 41 39 42 98 43 40 44
REMARK SMILES IDX 41 45 42 46 92 47 43 48 97 49 91 50 93 51 44 52 96 53 90 54
REMARK SMILES IDX 89 55 45 57 77 58 57 59 76 60 58 61 61 62 75 63 94 64 59 65
REMARK SMILES IDX 60 66 74 68 95 69 62 70 46 71 47 72 55 73 48 74 49 75 53 76
REMARK SMILES IDX 56 77 50 78 51 79 54 80 52 81 78 82 79 83 87 84 80 85 81 86
REMARK SMILES IDX 85 87 88 88 82 89 83 90 86 91 84 92 63 93 64 94 72 95 65 96
REMARK SMILES IDX 66 97 70 98 73 99 67 100 68 101 71 102 69 103
REMARK H PARENT 4 18 93 56 61 67
REMARK Flexibility Score: inf
ROOT
ATOM      1  C   UNL A   1      34.684  34.383  28.377  1.00  0.00     0.188 C 
ENDROOT
BRANCH   1   2
ATOM      2  O   UNL A   1      34.280  33.039  28.167  1.00  0.00    -0.376 OA
BRANCH   2   3
ATOM      3  C   UNL A   1      35.084  31.957  27.756  1.00  0.00     0.202 C 
BRANCH   3   4
ATOM      4  C   UNL A   1      34.391  30.373  27.657  1.00  0.00     0.261 C 
BRANCH   4   5
ATOM      5  O   UNL A   1      33.229  29.616  26.635  1.00  0.00    -0.460 OA
BRANCH   5   6
ATOM      6  C   UNL A   1      33.082  28.846  25.405  1.00  0.00     0.342 C 
ATOM      7  O   UNL A   1      33.970  28.523  24.623  1.00  0.00    -0.246 OA
BRANCH   6   8
ATOM      8  C   UNL A   1      31.778  28.594  24.761  1.00  0.00     0.104 A 
ATOM      9  C   UNL A   1      30.102  29.804  23.564  1.00  0.00     0.060 A 
ATOM     10  C   UNL A   1      29.679  28.587  23.048  1.00  0.00     0.139 A 
ATOM     11  C   UNL A   1      31.118  29.782  24.490  1.00  0.00     0.047 A 
ATOM     12  N   UNL A   1      30.264  27.392  23.321  1.00  0.00    -0.236 NA
ATOM     13  C   UNL A   1      31.348  27.362  24.140  1.00  0.00     0.143 A 
BRANCH   9  14
ATOM     14  N   UNL A   1      29.513  31.017  23.187  1.00  0.00    -0.325 N 
ATOM     15  C   UNL A   1      27.131  30.411  23.652  1.00  0.00     0.114 C 
ATOM     16  C   UNL A   1      28.181  31.285  22.989  1.00  0.00     0.221 C 
ATOM     17  O   UNL A   1      27.856  32.271  22.327  1.00  0.00    -0.275 OA
ATOM     18  H   UNL A   1      30.131  31.771  23.046  1.00  0.00     0.169 HD
ENDBRANCH   9  14
BRANCH  13  19
ATOM     19  N   UNL A   1      31.865  26.082  24.349  1.00  0.00    -0.352 N 
ATOM     20  C   UNL A   1      32.171  25.608  25.712  1.00  0.00     0.146 C 
ATOM     21  C   UNL A   1      32.575  25.442  23.248  1.00  0.00     0.123 C 
ATOM     22  C   UNL A   1      33.306  24.572  25.789  1.00  0.00    -0.002 C 
ATOM     23  C   UNL A   1      34.049  25.114  23.555  1.00  0.00     0.057 C 
ATOM     24  C   UNL A   1      34.205  24.298  24.815  1.00  0.00    -0.041 C 
BRANCH  24  25
ATOM     25  C   UNL A   1      35.260  23.209  24.883  1.00  0.00    -0.020 A 
ATOM     26  C   UNL A   1      36.590  23.563  25.220  1.00  0.00     0.008 A 
ATOM     27  C   UNL A   1      35.011  21.819  24.722  1.00  0.00    -0.044 A 
ATOM     28  C   UNL A   1      37.603  22.609  25.430  1.00  0.00     0.001 A 
ATOM     29  C   UNL A   1      36.037  20.868  24.963  1.00  0.00     0.004 A 
ATOM     30  C   UNL A   1      33.683  21.247  24.304  1.00  0.00     0.045 C 
ATOM     31  C   UNL A   1      37.322  21.258  25.317  1.00  0.00     0.000 A 
ENDBRANCH  24  25
ENDBRANCH  13  19
ENDBRANCH   6   8
ENDBRANCH   5   6
ENDBRANCH   4   5
ENDBRANCH   3   4
ENDBRANCH   2   3
ENDBRANCH   1   2
BRANCH   1  32
ATOM     32  C   UNL A   1      33.917  35.048  29.505  1.00  0.00     0.188 C 
BRANCH  32  33
ATOM     33  O   UNL A   1      33.626  34.112  30.526  1.00  0.00    -0.376 OA
BRANCH  33  34
ATOM     34  C   UNL A   1      34.293  34.370  31.758  1.00  0.00     0.202 C 
BRANCH  34  35
ATOM     35  C   UNL A   1      34.981  33.167  32.437  1.00  0.00     0.261 C 
BRANCH  35  36
ATOM     36  O   UNL A   1      35.182  32.094  31.500  1.00  0.00    -0.460 OA
BRANCH  36  37
ATOM     37  C   UNL A   1      36.142  31.183  31.853  1.00  0.00     0.338 C 
ATOM     38  O   UNL A   1      36.592  31.006  32.973  1.00  0.00    -0.246 OA
BRANCH  37  39
ATOM     39  C   UNL A   1      36.793  30.739  30.595  1.00  0.00     0.060 A 
ATOM     40  C   UNL A   1      36.805  29.406  30.191  1.00  0.00     0.016 A 
ATOM     41  C   UNL A   1      37.673  31.566  29.979  1.00  0.00     0.016 A 
ATOM     42  C   UNL A   1      37.888  28.864  29.405  1.00  0.00     0.010 A 
ATOM     43  C   UNL A   1      38.677  30.984  29.186  1.00  0.00     0.010 A 
ATOM     44  C   UNL A   1      38.991  29.595  28.954  1.00  0.00    -0.014 A 
BRANCH  44  45
ATOM     45  C   UNL A   1      40.475  28.797  28.492  1.00  0.00     0.031 A 
ATOM     46  C   UNL A   1      40.859  27.262  28.044  1.00  0.00     0.074 A 
ATOM     47  C   UNL A   1      41.648  29.475  28.511  1.00  0.00     0.049 A 
ATOM     48  N   UNL A   1      41.453  26.363  28.807  1.00  0.00    -0.248 NA
ATOM     49  C   UNL A   1      40.712  26.658  26.690  1.00  0.00     0.031 C 
ATOM     50  C   UNL A   1      42.988  28.941  28.240  1.00  0.00     0.029 A 
ATOM     51  N   UNL A   1      41.903  30.768  28.967  1.00  0.00    -0.354 N 
ATOM     52  C   UNL A   1      41.575  25.172  28.099  1.00  0.00     0.074 A 
ATOM     53  C   UNL A   1      40.878  25.346  26.867  1.00  0.00     0.031 C 
ATOM     54  C   UNL A   1      43.881  29.707  28.887  1.00  0.00     0.029 A 
ATOM     55  C   UNL A   1      43.145  30.719  29.616  1.00  0.00     0.049 A 
ATOM     56  H   UNL A   1      41.326  31.558  28.856  1.00  0.00     0.167 HD
ATOM     57  C   UNL A   1      42.523  24.213  28.304  1.00  0.00     0.037 A 
ATOM     58  C   UNL A   1      43.231  31.026  30.939  1.00  0.00     0.037 A 
ATOM     59  C   UNL A   1      43.614  24.769  29.058  1.00  0.00     0.049 A 
ATOM     60  C   UNL A   1      43.702  29.859  31.778  1.00  0.00     0.074 A 
ATOM     61  C   UNL A   1      44.748  25.435  28.620  1.00  0.00     0.029 A 
ATOM     62  N   UNL A   1      43.431  25.111  30.385  1.00  0.00    -0.354 N 
ATOM     63  N   UNL A   1      43.900  28.656  31.313  1.00  0.00    -0.248 NA
ATOM     64  C   UNL A   1      43.968  29.942  33.211  1.00  0.00     0.031 C 
ATOM     65  C   UNL A   1      45.213  26.243  29.680  1.00  0.00     0.029 A 
ATOM     66  C   UNL A   1      44.400  26.017  30.773  1.00  0.00     0.049 A 
ATOM     67  H   UNL A   1      42.719  24.760  30.965  1.00  0.00     0.167 HD
ATOM     68  C   UNL A   1      44.251  27.814  32.336  1.00  0.00     0.074 A 
ATOM     69  C   UNL A   1      44.325  28.677  33.497  1.00  0.00     0.031 C 
ATOM     70  C   UNL A   1      44.440  26.477  32.144  1.00  0.00     0.037 A 
BRANCH  57  71
ATOM     71  C   UNL A   1      42.598  23.017  27.379  1.00  0.00     0.064 A 
ATOM     72  C   UNL A   1      41.839  21.847  27.566  1.00  0.00     0.173 A 
ATOM     73  C   UNL A   1      43.533  22.977  26.320  1.00  0.00     0.173 A 
ATOM     74  F   UNL A   1      40.894  21.775  28.510  1.00  0.00    -0.203 F 
ATOM     75  C   UNL A   1      42.068  20.687  26.818  1.00  0.00     0.198 A 
ATOM     76  C   UNL A   1      43.770  21.809  25.581  1.00  0.00     0.198 A 
ATOM     77  F   UNL A   1      44.280  24.056  26.035  1.00  0.00    -0.203 F 
ATOM     78  F   UNL A   1      41.360  19.577  27.078  1.00  0.00    -0.200 F 
ATOM     79  C   UNL A   1      43.050  20.659  25.845  1.00  0.00     0.200 A 
ATOM     80  F   UNL A   1      44.733  21.789  24.648  1.00  0.00    -0.200 F 
ATOM     81  F   UNL A   1      43.314  19.523  25.183  1.00  0.00    -0.200 F 
ENDBRANCH  57  71
BRANCH  58  82
ATOM     82  C   UNL A   1      42.315  32.142  31.333  1.00  0.00     0.064 A 
ATOM     83  C   UNL A   1      41.093  31.784  31.954  1.00  0.00     0.173 A 
ATOM     84  C   UNL A   1      42.724  33.472  31.471  1.00  0.00     0.173 A 
ATOM     85  F   UNL A   1      40.641  30.522  31.863  1.00  0.00    -0.203 F 
ATOM     86  C   UNL A   1      40.406  32.660  32.792  1.00  0.00     0.198 A 
ATOM     87  C   UNL A   1      42.006  34.364  32.284  1.00  0.00     0.198 A 
ATOM     88  F   UNL A   1      43.894  33.867  30.954  1.00  0.00    -0.203 F 
ATOM     89  F   UNL A   1      39.359  32.221  33.505  1.00  0.00    -0.200 F 
ATOM     90  C   UNL A   1      40.874  33.946  32.971  1.00  0.00     0.200 A 
ATOM     91  F   UNL A   1      42.494  35.584  32.545  1.00  0.00    -0.200 F 
ATOM     92  F   UNL A   1      40.298  34.746  33.880  1.00  0.00    -0.200 F 
ENDBRANCH  58  82
BRANCH  70  93
ATOM     93  C   UNL A   1      44.743  25.443  33.196  1.00  0.00     0.064 A 
ATOM     94  C   UNL A   1      45.995  24.844  33.365  1.00  0.00     0.173 A 
ATOM     95  C   UNL A   1      43.773  25.148  34.190  1.00  0.00     0.173 A 
ATOM     96  F   UNL A   1      47.018  25.128  32.547  1.00  0.00    -0.203 F 
ATOM     97  C   UNL A   1      46.247  23.971  34.427  1.00  0.00     0.198 A 
ATOM     98  C   UNL A   1      44.050  24.331  35.281  1.00  0.00     0.198 A 
ATOM     99  F   UNL A   1      42.536  25.667  34.141  1.00  0.00    -0.203 F 
ATOM    100  F   UNL A   1      47.447  23.383  34.528  1.00  0.00    -0.200 F 
ATOM    101  C   UNL A   1      45.283  23.727  35.391  1.00  0.00     0.200 A 
ATOM    102  F   UNL A   1      43.120  24.149  36.230  1.00  0.00    -0.200 F 
ATOM    103  F   UNL A   1      45.549  22.926  36.431  1.00  0.00    -0.200 F 
ENDBRANCH  70  93
ENDBRANCH  44  45
ENDBRANCH  37  39
ENDBRANCH  36  37
ENDBRANCH  35  36
ENDBRANCH  34  35
ENDBRANCH  33  34
ENDBRANCH  32  33
ENDBRANCH   1  32
TORSDOF 20
ENDMDL
MODEL 3
REMARK VINA RESULT:     -14.1      5.621     10.140
REMARK SMILES CC(=O)Nc1cnc(N2CC=C(c3ccccc3C)CC2)c(C(=O)OCCOCCOCCOC(=O)c2ccc(-c3c4nc(c(-c5c(F)c(F)c(F)c(F)c5F)c5ccc([nH]5)c(-c5c(F)c(F)c(F)c(F)c5F)c5nc(c(-c6c(F)c(F)c(F)c(F)c6F)c6ccc3[nH]6)C=C5)C=C4)cc2)c1
REMARK SMILES IDX 29 1 28 2 27 3 26 4 25 5 23 6 24 7 22 8 5 9 6 10 100 11 7 12
REMARK SMILES IDX 8 13 4 14 1 15 2 16 3 17 9 19 10 20 21 21 11 22 20 23 12 24
REMARK SMILES IDX 13 25 14 26 18 27 15 28 17 29 19 30 16 31 30 32 31 33 32 34
REMARK SMILES IDX 33 35 34 36 35 37 36 38 37 39 38 40 99 41 39 42 98 43 40 44
REMARK SMILES IDX 41 45 42 46 92 47 43 48 97 49 91 50 93 51 44 52 96 53 90 54
REMARK SMILES IDX 89 55 45 57 77 58 57 59 76 60 58 61 61 62 75 63 94 64 59 65
REMARK SMILES IDX 60 66 74 68 95 69 62 70 46 71 47 72 55 73 48 74 49 75 53 76
REMARK SMILES IDX 56 77 50 78 51 79 54 80 52 81 78 82 79 83 87 84 80 85 81 86
REMARK SMILES IDX 85 87 88 88 82 89 83 90 86 91 84 92 63 93 64 94 72 95 65 96
REMARK SMILES IDX 66 97 70 98 73 99 67 100 68 101 71 102 69 103
REMARK H PARENT 4 18 93 56 61 67
REMARK Flexibility Score: inf
ROOT
ATOM      1  C   UNL A   1      32.952  31.433  27.261  1.00  0.00     0.188 C 
ENDROOT
BRANCH   1   2
ATOM      2  O   UNL A   1      32.642  30.067  27.486  1.00  0.00    -0.376 OA
BRANCH   2   3
ATOM      3  C   UNL A   1      32.269  29.104  26.526  1.00  0.00     0.202 C 
BRANCH   3   4
ATOM      4  C   UNL A   1      31.409  27.689  27.033  1.00  0.00     0.261 C 
BRANCH   4   5
ATOM      5  O   UNL A   1      30.489  26.473  26.230  1.00  0.00    -0.460 OA
BRANCH   5   6
ATOM      6  C   UNL A   1      30.037  26.028  24.917  1.00  0.00     0.342 C 
ATOM      7  O   UNL A   1      29.797  24.877  24.565  1.00  0.00    -0.246 OA
BRANCH   6   8
ATOM      8  C   UNL A   1      30.088  26.882  23.714  1.00  0.00     0.104 A 
ATOM      9  C   UNL A   1      29.042  28.854  22.864  1.00  0.00     0.060 A 
ATOM     10  C   UNL A   1      30.137  29.000  22.025  1.00  0.00     0.139 A 
ATOM     11  C   UNL A   1      28.997  27.733  23.660  1.00  0.00     0.047 A 
ATOM     12  N   UNL A   1      31.209  28.166  22.008  1.00  0.00    -0.236 NA
ATOM     13  C   UNL A   1      31.240  27.118  22.873  1.00  0.00     0.143 A 
BRANCH   9  14
ATOM     14  N   UNL A   1      28.000  29.788  22.898  1.00  0.00    -0.325 N 
ATOM     15  C   UNL A   1      29.257  31.679  23.949  1.00  0.00     0.114 C 
ATOM     16  C   UNL A   1      27.961  30.987  23.566  1.00  0.00     0.221 C 
ATOM     17  O   UNL A   1      26.873  31.518  23.790  1.00  0.00    -0.275 OA
ATOM     18  H   UNL A   1      27.197  29.558  22.377  1.00  0.00     0.169 HD
ENDBRANCH   9  14
BRANCH  13  19
ATOM     19  N   UNL A   1      32.388  26.330  22.767  1.00  0.00    -0.352 N 
ATOM     20  C   UNL A   1      32.391  25.115  21.930  1.00  0.00     0.146 C 
ATOM     21  C   UNL A   1      33.367  26.395  23.846  1.00  0.00     0.123 C 
ATOM     22  C   UNL A   1      33.361  24.017  22.399  1.00  0.00    -0.002 C 
ATOM     23  C   UNL A   1      33.598  25.054  24.568  1.00  0.00     0.057 C 
ATOM     24  C   UNL A   1      33.955  23.941  23.612  1.00  0.00    -0.041 C 
BRANCH  24  25
ATOM     25  C   UNL A   1      34.977  22.896  24.020  1.00  0.00    -0.020 A 
ATOM     26  C   UNL A   1      36.352  23.235  23.999  1.00  0.00     0.008 A 
ATOM     27  C   UNL A   1      34.667  21.601  24.517  1.00  0.00    -0.044 A 
ATOM     28  C   UNL A   1      37.357  22.376  24.479  1.00  0.00     0.001 A 
ATOM     29  C   UNL A   1      35.690  20.755  25.021  1.00  0.00     0.004 A 
ATOM     30  C   UNL A   1      33.275  21.029  24.560  1.00  0.00     0.045 C 
ATOM     31  C   UNL A   1      37.024  21.139  25.006  1.00  0.00     0.000 A 
ENDBRANCH  24  25
ENDBRANCH  13  19
ENDBRANCH   6   8
ENDBRANCH   5   6
ENDBRANCH   4   5
ENDBRANCH   3   4
ENDBRANCH   2   3
ENDBRANCH   1   2
BRANCH   1  32
ATOM     32  C   UNL A   1      31.737  32.242  26.846  1.00  0.00     0.188 C 
BRANCH  32  33
ATOM     33  O   UNL A   1      31.874  33.588  27.259  1.00  0.00    -0.376 OA
BRANCH  33  34
ATOM     34  C   UNL A   1      33.054  33.848  28.014  1.00  0.00     0.202 C 
BRANCH  34  35
ATOM     35  C   UNL A   1      32.997  35.034  29.000  1.00  0.00     0.261 C 
BRANCH  35  36
ATOM     36  O   UNL A   1      33.505  34.653  30.291  1.00  0.00    -0.460 OA
BRANCH  36  37
ATOM     37  C   UNL A   1      33.418  35.618  31.259  1.00  0.00     0.338 C 
ATOM     38  O   UNL A   1      33.362  36.822  31.076  1.00  0.00    -0.246 OA
BRANCH  37  39
ATOM     39  C   UNL A   1      33.789  34.970  32.543  1.00  0.00     0.060 A 
ATOM     40  C   UNL A   1      34.377  35.673  33.592  1.00  0.00     0.016 A 
ATOM     41  C   UNL A   1      33.869  33.617  32.600  1.00  0.00     0.016 A 
ATOM     42  C   UNL A   1      35.285  35.034  34.514  1.00  0.00     0.010 A 
ATOM     43  C   UNL A   1      34.734  33.050  33.551  1.00  0.00     0.010 A 
ATOM     44  C   UNL A   1      35.643  33.683  34.476  1.00  0.00    -0.014 A 
BRANCH  44  45
ATOM     45  C   UNL A   1      37.103  33.114  35.249  1.00  0.00     0.031 A 
ATOM     46  C   UNL A   1      37.965  33.594  36.564  1.00  0.00     0.074 A 
ATOM     47  C   UNL A   1      37.800  32.082  34.714  1.00  0.00     0.049 A 
ATOM     48  N   UNL A   1      39.097  34.272  36.538  1.00  0.00    -0.248 NA
ATOM     49  C   UNL A   1      37.690  33.258  37.990  1.00  0.00     0.031 C 
ATOM     50  C   UNL A   1      39.081  31.538  35.179  1.00  0.00     0.029 A 
ATOM     51  N   UNL A   1      37.586  31.415  33.508  1.00  0.00    -0.354 N 
ATOM     52  C   UNL A   1      39.505  34.529  37.842  1.00  0.00     0.074 A 
ATOM     53  C   UNL A   1      38.462  34.079  38.703  1.00  0.00     0.031 C 
ATOM     54  C   UNL A   1      39.696  30.966  34.132  1.00  0.00     0.029 A 
ATOM     55  C   UNL A   1      38.854  31.158  32.969  1.00  0.00     0.049 A 
ATOM     56  H   UNL A   1      36.716  31.172  33.113  1.00  0.00     0.167 HD
ATOM     57  C   UNL A   1      40.791  34.732  38.253  1.00  0.00     0.037 A 
ATOM     58  C   UNL A   1      39.200  31.691  31.766  1.00  0.00     0.037 A 
ATOM     59  C   UNL A   1      41.698  34.245  37.249  1.00  0.00     0.049 A 
ATOM     60  C   UNL A   1      40.369  32.645  31.864  1.00  0.00     0.074 A 
ATOM     61  C   UNL A   1      42.226  32.977  37.069  1.00  0.00     0.029 A 
ATOM     62  N   UNL A   1      41.803  34.902  36.037  1.00  0.00    -0.354 N 
ATOM     63  N   UNL A   1      40.923  33.010  32.988  1.00  0.00    -0.248 NA
ATOM     64  C   UNL A   1      41.000  33.284  30.713  1.00  0.00     0.031 C 
ATOM     65  C   UNL A   1      42.590  32.846  35.711  1.00  0.00     0.029 A 
ATOM     66  C   UNL A   1      42.340  34.054  35.088  1.00  0.00     0.049 A 
ATOM     67  H   UNL A   1      41.536  35.835  35.875  1.00  0.00     0.167 HD
ATOM     68  C   UNL A   1      41.905  33.934  32.745  1.00  0.00     0.074 A 
ATOM     69  C   UNL A   1      41.945  34.038  31.300  1.00  0.00     0.031 C 
ATOM     70  C   UNL A   1      42.595  34.544  33.751  1.00  0.00     0.037 A 
BRANCH  57  71
ATOM     71  C   UNL A   1      41.096  34.892  39.727  1.00  0.00     0.064 A 
ATOM     72  C   UNL A   1      41.240  33.805  40.608  1.00  0.00     0.173 A 
ATOM     73  C   UNL A   1      41.145  36.172  40.322  1.00  0.00     0.173 A 
ATOM     74  F   UNL A   1      41.250  32.544  40.160  1.00  0.00    -0.203 F 
ATOM     75  C   UNL A   1      41.325  33.979  41.994  1.00  0.00     0.198 A 
ATOM     76  C   UNL A   1      41.217  36.344  41.712  1.00  0.00     0.198 A 
ATOM     77  F   UNL A   1      41.055  37.276  39.562  1.00  0.00    -0.203 F 
ATOM     78  F   UNL A   1      41.398  32.906  42.796  1.00  0.00    -0.200 F 
ATOM     79  C   UNL A   1      41.287  35.245  42.547  1.00  0.00     0.200 A 
ATOM     80  F   UNL A   1      41.167  37.576  42.240  1.00  0.00    -0.200 F 
ATOM     81  F   UNL A   1      41.295  35.401  43.879  1.00  0.00    -0.200 F 
ENDBRANCH  57  71
BRANCH  58  82
ATOM     82  C   UNL A   1      38.057  31.723  30.799  1.00  0.00     0.064 A 
ATOM     83  C   UNL A   1      37.375  32.954  30.646  1.00  0.00     0.173 A 
ATOM     84  C   UNL A   1      37.860  30.767  29.797  1.00  0.00     0.173 A 
ATOM     85  F   UNL A   1      37.520  33.918  31.571  1.00  0.00    -0.203 F 
ATOM     86  C   UNL A   1      36.668  33.270  29.488  1.00  0.00     0.198 A 
ATOM     87  C   UNL A   1      37.111  31.074  28.649  1.00  0.00     0.198 A 
ATOM     88  F   UNL A   1      38.514  29.601  29.850  1.00  0.00    -0.203 F 
ATOM     89  F   UNL A   1      36.197  34.512  29.308  1.00  0.00    -0.200 F 
ATOM     90  C   UNL A   1      36.552  32.333  28.481  1.00  0.00     0.200 A 
ATOM     91  F   UNL A   1      37.067  30.215  27.621  1.00  0.00    -0.200 F 
ATOM     92  F   UNL A   1      35.994  32.677  27.311  1.00  0.00    -0.200 F 
ENDBRANCH  58  82
BRANCH  70  93
ATOM     93  C   UNL A   1      43.630  35.629  33.614  1.00  0.00     0.064 A 
ATOM     94  C   UNL A   1      43.384  36.981  33.872  1.00  0.00     0.173 A 
ATOM     95  C   UNL A   1      44.983  35.280  33.363  1.00  0.00     0.173 A 
ATOM     96  F   UNL A   1      42.164  37.411  34.222  1.00  0.00    -0.203 F 
ATOM     97  C   UNL A   1      44.410  37.929  33.834  1.00  0.00     0.198 A 
ATOM     98  C   UNL A   1      46.011  36.217  33.392  1.00  0.00     0.198 A 
ATOM     99  F   UNL A   1      45.347  34.014  33.107  1.00  0.00    -0.203 F 
ATOM    100  F   UNL A   1      44.125  39.221  34.044  1.00  0.00    -0.200 F 
ATOM    101  C   UNL A   1      45.722  37.546  33.610  1.00  0.00     0.200 A 
ATOM    102  F   UNL A   1      47.281  35.819  33.224  1.00  0.00    -0.200 F 
ATOM    103  F   UNL A   1      46.707  38.455  33.622  1.00  0.00    -0.200 F 
ENDBRANCH  70  93
ENDBRANCH  44  45
ENDBRANCH  37  39
ENDBRANCH  36  37
ENDBRANCH  35  36
ENDBRANCH  34  35
ENDBRANCH  33  34
ENDBRANCH  32  33
ENDBRANCH   1  32
TORSDOF 20
ENDMDL
