MODEL 1
REMARK VINA RESULT:     -11.5      0.000      0.000
REMARK SMILES C[C@@H](C(=O)OCCOCCOCCOC(=O)c1ccc(-c2c3nc(c(-c4c(F)c(F)c(F)c(F)c4F)c4ccc([nH]4)c(-c4c(F)c(F)c(F)c(F)c4F)c4nc(c(-c5c(F)c(F)c(F)c(F)c5F)c5ccc2[nH]5)C=C4)C=C3)cc1)c1ccc(-c2ccccc2)c(F)c1
REMARK SMILES IDX 9 1 8 2 7 3 6 4 5 5 3 6 4 7 2 8 1 9 80 10 81 11 92 12 82 13
REMARK SMILES IDX 90 14 83 15 91 16 84 17 85 18 89 19 86 20 88 21 87 22 10 23
REMARK SMILES IDX 11 24 12 25 13 26 14 27 15 28 16 29 17 30 18 31 79 32 19 33
REMARK SMILES IDX 78 34 20 35 21 36 22 37 72 38 23 39 77 40 71 41 73 42 24 43
REMARK SMILES IDX 76 44 70 45 69 46 25 48 57 49 37 50 56 51 38 52 41 53 55 54
REMARK SMILES IDX 74 55 39 56 40 57 54 59 75 60 42 61 26 62 27 63 35 64 28 65
REMARK SMILES IDX 29 66 33 67 36 68 30 69 31 70 34 71 32 72 58 73 59 74 67 75
REMARK SMILES IDX 60 76 61 77 65 78 68 79 62 80 63 81 66 82 64 83 43 84 44 85
REMARK SMILES IDX 52 86 45 87 46 88 50 89 53 90 47 91 48 92 51 93 49 94
REMARK H PARENT 73 47 41 58
REMARK Flexibility Score: inf
ROOT
ATOM      1  C   UNL A   1      34.344  29.571  27.275  1.00  0.00     0.188 C 
ENDROOT
BRANCH   1   2
ATOM      2  O   UNL A   1      34.051  28.795  26.119  1.00  0.00    -0.376 OA
BRANCH   2   3
ATOM      3  C   UNL A   1      32.890  27.971  26.118  1.00  0.00     0.202 C 
BRANCH   3   4
ATOM      4  C   UNL A   1      33.096  26.454  26.202  1.00  0.00     0.261 C 
BRANCH   4   5
ATOM      5  O   UNL A   1      31.884  25.680  26.071  1.00  0.00    -0.463 OA
BRANCH   5   6
ATOM      6  C   UNL A   1      31.909  24.705  25.123  1.00  0.00     0.313 C 
ATOM      7  O   UNL A   1      32.820  23.889  25.007  1.00  0.00    -0.252 OA
BRANCH   6   8
ATOM      8  C   UNL A   1      30.675  24.678  24.203  1.00  0.00     0.126 C 
ATOM      9  C   UNL A   1      30.647  23.583  23.133  1.00  0.00     0.025 C 
BRANCH   8  10
ATOM     10  C   UNL A   1      30.300  26.083  23.729  1.00  0.00    -0.031 A 
ATOM     11  C   UNL A   1      28.977  26.506  23.911  1.00  0.00     0.005 A 
ATOM     12  C   UNL A   1      31.180  26.989  23.130  1.00  0.00     0.044 A 
ATOM     13  C   UNL A   1      28.553  27.783  23.525  1.00  0.00     0.012 A 
ATOM     14  C   UNL A   1      30.745  28.270  22.745  1.00  0.00     0.131 A 
ATOM     15  C   UNL A   1      29.428  28.717  22.945  1.00  0.00     0.017 A 
ATOM     16  F   UNL A   1      31.660  29.069  22.174  1.00  0.00    -0.206 F 
BRANCH  15  17
ATOM     17  C   UNL A   1      28.945  30.077  22.580  1.00  0.00    -0.015 A 
ATOM     18  C   UNL A   1      28.499  30.359  21.271  1.00  0.00     0.009 A 
ATOM     19  C   UNL A   1      28.933  31.152  23.487  1.00  0.00     0.009 A 
ATOM     20  C   UNL A   1      28.109  31.642  20.883  1.00  0.00     0.001 A 
ATOM     21  C   UNL A   1      28.500  32.432  23.110  1.00  0.00     0.001 A 
ATOM     22  C   UNL A   1      28.096  32.678  21.804  1.00  0.00     0.000 A 
ENDBRANCH  15  17
ENDBRANCH   8  10
ENDBRANCH   6   8
ENDBRANCH   5   6
ENDBRANCH   4   5
ENDBRANCH   3   4
ENDBRANCH   2   3
ENDBRANCH   1   2
BRANCH   1  23
ATOM     23  C   UNL A   1      33.715  30.966  27.422  1.00  0.00     0.188 C 
BRANCH  23  24
ATOM     24  O   UNL A   1      32.361  31.048  27.020  1.00  0.00    -0.376 OA
BRANCH  24  25
ATOM     25  C   UNL A   1      31.817  32.354  26.912  1.00  0.00     0.202 C 
BRANCH  25  26
ATOM     26  C   UNL A   1      32.774  33.470  27.352  1.00  0.00     0.261 C 
BRANCH  26  27
ATOM     27  O   UNL A   1      32.266  34.333  28.385  1.00  0.00    -0.460 OA
BRANCH  27  28
ATOM     28  C   UNL A   1      33.079  35.334  28.795  1.00  0.00     0.338 C 
ATOM     29  O   UNL A   1      32.859  36.528  28.746  1.00  0.00    -0.246 OA
BRANCH  28  30
ATOM     30  C   UNL A   1      34.216  34.721  29.513  1.00  0.00     0.060 A 
ATOM     31  C   UNL A   1      35.461  34.657  28.875  1.00  0.00     0.016 A 
ATOM     32  C   UNL A   1      34.056  34.210  30.803  1.00  0.00     0.016 A 
ATOM     33  C   UNL A   1      36.547  34.072  29.527  1.00  0.00     0.010 A 
ATOM     34  C   UNL A   1      35.143  33.602  31.444  1.00  0.00     0.010 A 
ATOM     35  C   UNL A   1      36.390  33.514  30.800  1.00  0.00    -0.014 A 
BRANCH  35  36
ATOM     36  C   UNL A   1      37.478  32.678  31.365  1.00  0.00     0.031 A 
ATOM     37  C   UNL A   1      37.956  32.978  32.757  1.00  0.00     0.074 A 
ATOM     38  C   UNL A   1      37.996  31.640  30.685  1.00  0.00     0.049 A 
ATOM     39  N   UNL A   1      38.930  32.436  33.442  1.00  0.00    -0.248 NA
ATOM     40  C   UNL A   1      37.228  34.035  33.479  1.00  0.00     0.031 C 
ATOM     41  C   UNL A   1      37.555  31.189  29.369  1.00  0.00     0.029 A 
ATOM     42  N   UNL A   1      39.010  30.774  31.017  1.00  0.00    -0.354 N 
ATOM     43  C   UNL A   1      38.941  33.094  34.664  1.00  0.00     0.074 A 
ATOM     44  C   UNL A   1      37.886  34.083  34.627  1.00  0.00     0.031 C 
ATOM     45  C   UNL A   1      38.298  30.131  29.000  1.00  0.00     0.029 A 
ATOM     46  C   UNL A   1      39.294  29.855  30.035  1.00  0.00     0.049 A 
ATOM     47  H   UNL A   1      39.489  30.808  31.877  1.00  0.00     0.167 HD
ATOM     48  C   UNL A   1      39.761  32.893  35.722  1.00  0.00     0.037 A 
ATOM     49  C   UNL A   1      40.263  28.916  29.976  1.00  0.00     0.037 A 
ATOM     50  C   UNL A   1      40.810  31.910  35.759  1.00  0.00     0.049 A 
ATOM     51  C   UNL A   1      41.212  28.767  31.141  1.00  0.00     0.074 A 
ATOM     52  C   UNL A   1      41.715  31.650  36.773  1.00  0.00     0.029 A 
ATOM     53  N   UNL A   1      41.094  31.025  34.730  1.00  0.00    -0.354 N 
ATOM     54  N   UNL A   1      41.223  29.395  32.291  1.00  0.00    -0.248 NA
ATOM     55  C   UNL A   1      42.290  27.776  30.996  1.00  0.00     0.031 C 
ATOM     56  C   UNL A   1      42.576  30.637  36.339  1.00  0.00     0.029 A 
ATOM     57  C   UNL A   1      42.176  30.231  35.077  1.00  0.00     0.049 A 
ATOM     58  H   UNL A   1      40.601  30.969  33.880  1.00  0.00     0.167 HD
ATOM     59  C   UNL A   1      42.287  28.864  33.011  1.00  0.00     0.074 A 
ATOM     60  C   UNL A   1      42.881  27.839  32.180  1.00  0.00     0.031 C 
ATOM     61  C   UNL A   1      42.741  29.201  34.243  1.00  0.00     0.037 A 
BRANCH  48  62
ATOM     62  C   UNL A   1      39.586  33.797  36.906  1.00  0.00     0.064 A 
ATOM     63  C   UNL A   1      38.834  33.413  38.026  1.00  0.00     0.173 A 
ATOM     64  C   UNL A   1      40.188  35.064  36.920  1.00  0.00     0.173 A 
ATOM     65  F   UNL A   1      38.222  32.220  38.052  1.00  0.00    -0.203 F 
ATOM     66  C   UNL A   1      38.671  34.276  39.107  1.00  0.00     0.198 A 
ATOM     67  C   UNL A   1      40.046  35.912  38.014  1.00  0.00     0.198 A 
ATOM     68  F   UNL A   1      40.917  35.478  35.873  1.00  0.00    -0.203 F 
ATOM     69  F   UNL A   1      37.908  33.910  40.146  1.00  0.00    -0.200 F 
ATOM     70  C   UNL A   1      39.282  35.521  39.103  1.00  0.00     0.200 A 
ATOM     71  F   UNL A   1      40.646  37.112  38.012  1.00  0.00    -0.200 F 
ATOM     72  F   UNL A   1      39.127  36.349  40.144  1.00  0.00    -0.200 F 
ENDBRANCH  48  62
BRANCH  49  73
ATOM     73  C   UNL A   1      40.406  28.053  28.768  1.00  0.00     0.064 A 
ATOM     74  C   UNL A   1      41.151  28.474  27.657  1.00  0.00     0.173 A 
ATOM     75  C   UNL A   1      39.776  26.803  28.683  1.00  0.00     0.173 A 
ATOM     76  F   UNL A   1      41.734  29.682  27.658  1.00  0.00    -0.203 F 
ATOM     77  C   UNL A   1      41.271  27.678  26.518  1.00  0.00     0.198 A 
ATOM     78  C   UNL A   1      39.913  25.998  27.552  1.00  0.00     0.198 A 
ATOM     79  F   UNL A   1      39.022  26.358  29.699  1.00  0.00    -0.203 F 
ATOM     80  F   UNL A   1      41.969  28.125  25.465  1.00  0.00    -0.200 F 
ATOM     81  C   UNL A   1      40.659  26.438  26.469  1.00  0.00     0.200 A 
ATOM     82  F   UNL A   1      39.318  24.798  27.510  1.00  0.00    -0.200 F 
ATOM     83  F   UNL A   1      40.778  25.672  25.376  1.00  0.00    -0.200 F 
ENDBRANCH  49  73
BRANCH  61  84
ATOM     84  C   UNL A   1      43.914  28.434  34.784  1.00  0.00     0.064 A 
ATOM     85  C   UNL A   1      45.231  28.885  34.609  1.00  0.00     0.173 A 
ATOM     86  C   UNL A   1      43.716  27.259  35.524  1.00  0.00     0.173 A 
ATOM     87  F   UNL A   1      45.475  29.996  33.897  1.00  0.00    -0.203 F 
ATOM     88  C   UNL A   1      46.307  28.175  35.136  1.00  0.00     0.198 A 
ATOM     89  C   UNL A   1      44.791  26.569  36.076  1.00  0.00     0.198 A 
ATOM     90  F   UNL A   1      42.476  26.789  35.728  1.00  0.00    -0.203 F 
ATOM     91  F   UNL A   1      47.559  28.600  34.917  1.00  0.00    -0.200 F 
ATOM     92  C   UNL A   1      46.086  27.023  35.875  1.00  0.00     0.200 A 
ATOM     93  F   UNL A   1      44.574  25.463  36.802  1.00  0.00    -0.200 F 
ATOM     94  F   UNL A   1      47.122  26.346  36.388  1.00  0.00    -0.200 F 
ENDBRANCH  61  84
ENDBRANCH  35  36
ENDBRANCH  28  30
ENDBRANCH  27  28
ENDBRANCH  26  27
ENDBRANCH  25  26
ENDBRANCH  24  25
ENDBRANCH  23  24
ENDBRANCH   1  23
TORSDOF 19
ENDMDL
MODEL 2
REMARK VINA RESULT:     -11.4      0.773      7.204
REMARK SMILES C[C@@H](C(=O)OCCOCCOCCOC(=O)c1ccc(-c2c3nc(c(-c4c(F)c(F)c(F)c(F)c4F)c4ccc([nH]4)c(-c4c(F)c(F)c(F)c(F)c4F)c4nc(c(-c5c(F)c(F)c(F)c(F)c5F)c5ccc2[nH]5)C=C4)C=C3)cc1)c1ccc(-c2ccccc2)c(F)c1
REMARK SMILES IDX 9 1 8 2 7 3 6 4 5 5 3 6 4 7 2 8 1 9 80 10 81 11 92 12 82 13
REMARK SMILES IDX 90 14 83 15 91 16 84 17 85 18 89 19 86 20 88 21 87 22 10 23
REMARK SMILES IDX 11 24 12 25 13 26 14 27 15 28 16 29 17 30 18 31 79 32 19 33
REMARK SMILES IDX 78 34 20 35 21 36 22 37 72 38 23 39 77 40 71 41 73 42 24 43
REMARK SMILES IDX 76 44 70 45 69 46 25 48 57 49 37 50 56 51 38 52 41 53 55 54
REMARK SMILES IDX 74 55 39 56 40 57 54 59 75 60 42 61 26 62 27 63 35 64 28 65
REMARK SMILES IDX 29 66 33 67 36 68 30 69 31 70 34 71 32 72 58 73 59 74 67 75
REMARK SMILES IDX 60 76 61 77 65 78 68 79 62 80 63 81 66 82 64 83 43 84 44 85
REMARK SMILES IDX 52 86 45 87 46 88 50 89 53 90 47 91 48 92 51 93 49 94
REMARK H PARENT 73 47 41 58
REMARK Flexibility Score: inf
ROOT
ATOM      1  C   UNL A   1      34.314  29.212  27.442  1.00  0.00     0.188 C 
ENDROOT
BRANCH   1   2
ATOM      2  O   UNL A   1      34.334  28.262  26.384  1.00  0.00    -0.376 OA
BRANCH   2   3
ATOM      3  C   UNL A   1      33.325  27.258  26.339  1.00  0.00     0.202 C 
BRANCH   3   4
ATOM      4  C   UNL A   1      33.635  25.975  25.558  1.00  0.00     0.261 C 
BRANCH   4   5
ATOM      5  O   UNL A   1      32.774  24.860  25.878  1.00  0.00    -0.463 OA
BRANCH   5   6
ATOM      6  C   UNL A   1      31.441  25.127  25.874  1.00  0.00     0.313 C 
ATOM      7  O   UNL A   1      30.810  25.463  26.873  1.00  0.00    -0.252 OA
BRANCH   6   8
ATOM      8  C   UNL A   1      30.769  25.005  24.495  1.00  0.00     0.126 C 
ATOM      9  C   UNL A   1      31.524  24.192  23.439  1.00  0.00     0.025 C 
BRANCH   8  10
ATOM     10  C   UNL A   1      30.206  26.347  24.026  1.00  0.00    -0.031 A 
ATOM     11  C   UNL A   1      31.112  27.333  23.615  1.00  0.00     0.005 A 
ATOM     12  C   UNL A   1      28.847  26.670  23.968  1.00  0.00     0.044 A 
ATOM     13  C   UNL A   1      30.682  28.582  23.152  1.00  0.00     0.012 A 
ATOM     14  C   UNL A   1      28.424  27.928  23.502  1.00  0.00     0.131 A 
ATOM     15  C   UNL A   1      29.320  28.916  23.062  1.00  0.00     0.017 A 
ATOM     16  F   UNL A   1      27.100  28.149  23.486  1.00  0.00    -0.206 F 
BRANCH  15  17
ATOM     17  C   UNL A   1      28.903  30.244  22.532  1.00  0.00    -0.015 A 
ATOM     18  C   UNL A   1      28.842  31.372  23.377  1.00  0.00     0.009 A 
ATOM     19  C   UNL A   1      28.522  30.446  21.193  1.00  0.00     0.009 A 
ATOM     20  C   UNL A   1      28.386  32.611  22.924  1.00  0.00     0.001 A 
ATOM     21  C   UNL A   1      28.105  31.701  20.726  1.00  0.00     0.001 A 
ATOM     22  C   UNL A   1      28.030  32.782  21.595  1.00  0.00     0.000 A 
ENDBRANCH  15  17
ENDBRANCH   8  10
ENDBRANCH   6   8
ENDBRANCH   5   6
ENDBRANCH   4   5
ENDBRANCH   3   4
ENDBRANCH   2   3
ENDBRANCH   1   2
BRANCH   1  23
ATOM     23  C   UNL A   1      33.995  30.682  27.124  1.00  0.00     0.188 C 
BRANCH  23  24
ATOM     24  O   UNL A   1      32.794  31.163  27.699  1.00  0.00    -0.376 OA
BRANCH  24  25
ATOM     25  C   UNL A   1      31.997  31.999  26.876  1.00  0.00     0.202 C 
BRANCH  25  26
ATOM     26  C   UNL A   1      32.365  33.487  26.951  1.00  0.00     0.261 C 
BRANCH  26  27
ATOM     27  O   UNL A   1      32.154  34.101  28.235  1.00  0.00    -0.460 OA
BRANCH  27  28
ATOM     28  C   UNL A   1      33.080  35.002  28.637  1.00  0.00     0.338 C 
ATOM     29  O   UNL A   1      32.946  36.206  28.725  1.00  0.00    -0.246 OA
BRANCH  28  30
ATOM     30  C   UNL A   1      34.240  34.249  29.159  1.00  0.00     0.060 A 
ATOM     31  C   UNL A   1      34.019  33.248  30.113  1.00  0.00     0.016 A 
ATOM     32  C   UNL A   1      35.534  34.527  28.713  1.00  0.00     0.016 A 
ATOM     33  C   UNL A   1      35.098  32.530  30.630  1.00  0.00     0.010 A 
ATOM     34  C   UNL A   1      36.616  33.821  29.252  1.00  0.00     0.010 A 
ATOM     35  C   UNL A   1      36.404  32.831  30.228  1.00  0.00    -0.014 A 
BRANCH  35  36
ATOM     36  C   UNL A   1      37.546  32.240  30.969  1.00  0.00     0.031 A 
ATOM     37  C   UNL A   1      38.348  31.161  30.299  1.00  0.00     0.074 A 
ATOM     38  C   UNL A   1      37.901  32.683  32.189  1.00  0.00     0.049 A 
ATOM     39  N   UNL A   1      39.344  30.450  30.761  1.00  0.00    -0.248 NA
ATOM     40  C   UNL A   1      37.978  30.847  28.909  1.00  0.00     0.031 C 
ATOM     41  C   UNL A   1      37.263  33.784  32.904  1.00  0.00     0.029 A 
ATOM     42  N   UNL A   1      38.895  32.258  33.037  1.00  0.00    -0.354 N 
ATOM     43  C   UNL A   1      39.707  29.597  29.729  1.00  0.00     0.074 A 
ATOM     44  C   UNL A   1      38.821  29.869  28.618  1.00  0.00     0.031 C 
ATOM     45  C   UNL A   1      37.878  33.945  34.090  1.00  0.00     0.029 A 
ATOM     46  C   UNL A   1      38.925  32.934  34.234  1.00  0.00     0.049 A 
ATOM     47  H   UNL A   1      39.525  31.537  32.811  1.00  0.00     0.167 HD
ATOM     48  C   UNL A   1      40.690  28.667  29.710  1.00  0.00     0.037 A 
ATOM     49  C   UNL A   1      39.697  32.739  35.324  1.00  0.00     0.037 A 
ATOM     50  C   UNL A   1      41.571  28.397  30.814  1.00  0.00     0.049 A 
ATOM     51  C   UNL A   1      40.735  31.642  35.301  1.00  0.00     0.074 A 
ATOM     52  C   UNL A   1      42.579  27.453  30.904  1.00  0.00     0.029 A 
ATOM     53  N   UNL A   1      41.546  29.074  32.024  1.00  0.00    -0.354 N 
ATOM     54  N   UNL A   1      41.070  30.834  34.326  1.00  0.00    -0.248 NA
ATOM     55  C   UNL A   1      41.502  31.428  36.539  1.00  0.00     0.031 C 
ATOM     56  C   UNL A   1      43.134  27.529  32.186  1.00  0.00     0.029 A 
ATOM     57  C   UNL A   1      42.507  28.553  32.876  1.00  0.00     0.049 A 
ATOM     58  H   UNL A   1      40.935  29.814  32.245  1.00  0.00     0.167 HD
ATOM     59  C   UNL A   1      42.095  30.035  34.821  1.00  0.00     0.074 A 
ATOM     60  C   UNL A   1      42.349  30.477  36.175  1.00  0.00     0.031 C 
ATOM     61  C   UNL A   1      42.758  29.020  34.215  1.00  0.00     0.037 A 
BRANCH  48  62
ATOM     62  C   UNL A   1      40.825  27.836  28.468  1.00  0.00     0.064 A 
ATOM     63  C   UNL A   1      40.162  26.610  28.321  1.00  0.00     0.173 A 
ATOM     64  C   UNL A   1      41.626  28.283  27.407  1.00  0.00     0.173 A 
ATOM     65  F   UNL A   1      39.400  26.130  29.317  1.00  0.00    -0.203 F 
ATOM     66  C   UNL A   1      40.315  25.848  27.165  1.00  0.00     0.198 A 
ATOM     67  C   UNL A   1      41.755  27.532  26.242  1.00  0.00     0.198 A 
ATOM     68  F   UNL A   1      42.282  29.450  27.498  1.00  0.00    -0.203 F 
ATOM     69  F   UNL A   1      39.713  24.656  27.065  1.00  0.00    -0.200 F 
ATOM     70  C   UNL A   1      41.107  26.313  26.125  1.00  0.00     0.200 A 
ATOM     71  F   UNL A   1      42.513  27.988  25.234  1.00  0.00    -0.200 F 
ATOM     72  F   UNL A   1      41.252  25.580  25.013  1.00  0.00    -0.200 F 
ENDBRANCH  48  62
BRANCH  49  73
ATOM     73  C   UNL A   1      39.513  33.581  36.541  1.00  0.00     0.064 A 
ATOM     74  C   UNL A   1      40.091  34.855  36.639  1.00  0.00     0.173 A 
ATOM     75  C   UNL A   1      38.784  33.119  37.647  1.00  0.00     0.173 A 
ATOM     76  F   UNL A   1      40.843  35.330  35.634  1.00  0.00    -0.203 F 
ATOM     77  C   UNL A   1      39.938  35.637  37.783  1.00  0.00     0.198 A 
ATOM     78  C   UNL A   1      38.614  33.910  38.784  1.00  0.00     0.198 A 
ATOM     79  F   UNL A   1      38.234  31.896  37.629  1.00  0.00    -0.203 F 
ATOM     80  F   UNL A   1      40.526  36.839  37.851  1.00  0.00    -0.200 F 
ATOM     81  C   UNL A   1      39.192  35.168  38.851  1.00  0.00     0.200 A 
ATOM     82  F   UNL A   1      37.892  33.451  39.815  1.00  0.00    -0.200 F 
ATOM     83  F   UNL A   1      39.043  35.921  39.949  1.00  0.00    -0.200 F 
ENDBRANCH  49  73
BRANCH  61  84
ATOM     84  C   UNL A   1      43.846  28.339  34.996  1.00  0.00     0.064 A 
ATOM     85  C   UNL A   1      45.173  28.792  34.959  1.00  0.00     0.173 A 
ATOM     86  C   UNL A   1      43.548  27.248  35.827  1.00  0.00     0.173 A 
ATOM     87  F   UNL A   1      45.512  29.823  34.169  1.00  0.00    -0.203 F 
ATOM     88  C   UNL A   1      46.165  28.164  35.707  1.00  0.00     0.198 A 
ATOM     89  C   UNL A   1      44.536  26.642  36.598  1.00  0.00     0.198 A 
ATOM     90  F   UNL A   1      42.293  26.781  35.907  1.00  0.00    -0.203 F 
ATOM     91  F   UNL A   1      47.435  28.585  35.619  1.00  0.00    -0.200 F 
ATOM     92  C   UNL A   1      45.845  27.096  36.530  1.00  0.00     0.200 A 
ATOM     93  F   UNL A   1      44.223  25.619  37.404  1.00  0.00    -0.200 F 
ATOM     94  F   UNL A   1      46.801  26.498  37.255  1.00  0.00    -0.200 F 
ENDBRANCH  61  84
ENDBRANCH  35  36
ENDBRANCH  28  30
ENDBRANCH  27  28
ENDBRANCH  26  27
ENDBRANCH  25  26
ENDBRANCH  24  25
ENDBRANCH  23  24
ENDBRANCH   1  23
TORSDOF 19
ENDMDL
MODEL 3
REMARK VINA RESULT:     -11.3      2.993      8.215
REMARK SMILES C[C@@H](C(=O)OCCOCCOCCOC(=O)c1ccc(-c2c3nc(c(-c4c(F)c(F)c(F)c(F)c4F)c4ccc([nH]4)c(-c4c(F)c(F)c(F)c(F)c4F)c4nc(c(-c5c(F)c(F)c(F)c(F)c5F)c5ccc2[nH]5)C=C4)C=C3)cc1)c1ccc(-c2ccccc2)c(F)c1
REMARK SMILES IDX 9 1 8 2 7 3 6 4 5 5 3 6 4 7 2 8 1 9 80 10 81 11 92 12 82 13
REMARK SMILES IDX 90 14 83 15 91 16 84 17 85 18 89 19 86 20 88 21 87 22 10 23
REMARK SMILES IDX 11 24 12 25 13 26 14 27 15 28 16 29 17 30 18 31 79 32 19 33
REMARK SMILES IDX 78 34 20 35 21 36 22 37 72 38 23 39 77 40 71 41 73 42 24 43
REMARK SMILES IDX 76 44 70 45 69 46 25 48 57 49 37 50 56 51 38 52 41 53 55 54
REMARK SMILES IDX 74 55 39 56 40 57 54 59 75 60 42 61 26 62 27 63 35 64 28 65
REMARK SMILES IDX 29 66 33 67 36 68 30 69 31 70 34 71 32 72 58 73 59 74 67 75
REMARK SMILES IDX 60 76 61 77 65 78 68 79 62 80 63 81 66 82 64 83 43 84 44 85
REMARK SMILES IDX 52 86 45 87 46 88 50 89 53 90 47 91 48 92 51 93 49 94
REMARK H PARENT 73 47 41 58
REMARK Flexibility Score: inf
ROOT
ATOM      1  C   UNL A   1      38.143  21.176  25.273  1.00  0.00     0.188 C 
ENDROOT
BRANCH   1   2
ATOM      2  O   UNL A   1      36.752  21.301  25.541  1.00  0.00    -0.376 OA
BRANCH   2   3
ATOM      3  C   UNL A   1      36.187  22.602  25.662  1.00  0.00     0.202 C 
BRANCH   3   4
ATOM      4  C   UNL A   1      34.701  22.699  26.029  1.00  0.00     0.261 C 
BRANCH   4   5
ATOM      5  O   UNL A   1      34.257  24.032  26.365  1.00  0.00    -0.463 OA
BRANCH   5   6
ATOM      6  C   UNL A   1      33.384  24.598  25.489  1.00  0.00     0.313 C 
ATOM      7  O   UNL A   1      33.583  24.671  24.279  1.00  0.00    -0.252 OA
BRANCH   6   8
ATOM      8  C   UNL A   1      32.087  25.125  26.130  1.00  0.00     0.126 C 
ATOM      9  C   UNL A   1      31.033  24.077  26.495  1.00  0.00     0.025 C 
BRANCH   8  10
ATOM     10  C   UNL A   1      31.570  26.367  25.404  1.00  0.00    -0.031 A 
ATOM     11  C   UNL A   1      30.441  26.228  24.585  1.00  0.00     0.005 A 
ATOM     12  C   UNL A   1      32.134  27.644  25.497  1.00  0.00     0.044 A 
ATOM     13  C   UNL A   1      29.889  27.317  23.901  1.00  0.00     0.012 A 
ATOM     14  C   UNL A   1      31.572  28.732  24.805  1.00  0.00     0.131 A 
ATOM     15  C   UNL A   1      30.426  28.612  24.002  1.00  0.00     0.017 A 
ATOM     16  F   UNL A   1      32.184  29.918  24.951  1.00  0.00    -0.206 F 
BRANCH  15  17
ATOM     17  C   UNL A   1      29.787  29.750  23.283  1.00  0.00    -0.015 A 
ATOM     18  C   UNL A   1      29.369  30.902  23.982  1.00  0.00     0.009 A 
ATOM     19  C   UNL A   1      29.537  29.734  21.899  1.00  0.00     0.009 A 
ATOM     20  C   UNL A   1      28.704  31.952  23.346  1.00  0.00     0.001 A 
ATOM     21  C   UNL A   1      28.907  30.807  21.251  1.00  0.00     0.001 A 
ATOM     22  C   UNL A   1      28.484  31.913  21.977  1.00  0.00     0.000 A 
ENDBRANCH  15  17
ENDBRANCH   8  10
ENDBRANCH   6   8
ENDBRANCH   5   6
ENDBRANCH   4   5
ENDBRANCH   3   4
ENDBRANCH   2   3
ENDBRANCH   1   2
BRANCH   1  23
ATOM     23  C   UNL A   1      39.147  21.956  26.138  1.00  0.00     0.188 C 
BRANCH  23  24
ATOM     24  O   UNL A   1      40.059  21.147  26.858  1.00  0.00    -0.376 OA
BRANCH  24  25
ATOM     25  C   UNL A   1      41.154  20.630  26.120  1.00  0.00     0.202 C 
BRANCH  25  26
ATOM     26  C   UNL A   1      42.373  21.562  26.070  1.00  0.00     0.261 C 
BRANCH  26  27
ATOM     27  O   UNL A   1      42.261  22.658  25.144  1.00  0.00    -0.460 OA
BRANCH  27  28
ATOM     28  C   UNL A   1      43.169  23.654  25.270  1.00  0.00     0.338 C 
ATOM     29  O   UNL A   1      44.184  23.810  24.621  1.00  0.00    -0.246 OA
BRANCH  28  30
ATOM     30  C   UNL A   1      42.610  24.653  26.205  1.00  0.00     0.060 A 
ATOM     31  C   UNL A   1      43.210  25.916  26.279  1.00  0.00     0.016 A 
ATOM     32  C   UNL A   1      41.506  24.347  27.003  1.00  0.00     0.016 A 
ATOM     33  C   UNL A   1      42.708  26.873  27.162  1.00  0.00     0.010 A 
ATOM     34  C   UNL A   1      41.021  25.302  27.906  1.00  0.00     0.010 A 
ATOM     35  C   UNL A   1      41.632  26.564  28.002  1.00  0.00    -0.014 A 
BRANCH  35  36
ATOM     36  C   UNL A   1      41.282  27.495  29.103  1.00  0.00     0.031 A 
ATOM     37  C   UNL A   1      42.121  27.473  30.348  1.00  0.00     0.074 A 
ATOM     38  C   UNL A   1      40.276  28.381  28.986  1.00  0.00     0.049 A 
ATOM     39  N   UNL A   1      41.979  28.139  31.465  1.00  0.00    -0.248 NA
ATOM     40  C   UNL A   1      43.290  26.577  30.326  1.00  0.00     0.031 C 
ATOM     41  C   UNL A   1      39.449  28.565  27.797  1.00  0.00     0.029 A 
ATOM     42  N   UNL A   1      39.784  29.296  29.885  1.00  0.00    -0.354 N 
ATOM     43  C   UNL A   1      43.026  27.733  32.280  1.00  0.00     0.074 A 
ATOM     44  C   UNL A   1      43.791  26.755  31.538  1.00  0.00     0.031 C 
ATOM     45  C   UNL A   1      38.546  29.532  28.042  1.00  0.00     0.029 A 
ATOM     46  C   UNL A   1      38.704  30.005  29.417  1.00  0.00     0.049 A 
ATOM     47  H   UNL A   1      40.168  29.430  30.782  1.00  0.00     0.167 HD
ATOM     48  C   UNL A   1      43.320  28.137  33.539  1.00  0.00     0.037 A 
ATOM     49  C   UNL A   1      37.923  30.914  30.038  1.00  0.00     0.037 A 
ATOM     50  C   UNL A   1      42.559  29.108  34.276  1.00  0.00     0.049 A 
ATOM     51  C   UNL A   1      38.231  31.288  31.469  1.00  0.00     0.074 A 
ATOM     52  C   UNL A   1      42.759  29.562  35.568  1.00  0.00     0.029 A 
ATOM     53  N   UNL A   1      41.448  29.776  33.783  1.00  0.00    -0.354 N 
ATOM     54  N   UNL A   1      39.217  30.897  32.238  1.00  0.00    -0.248 NA
ATOM     55  C   UNL A   1      37.309  32.233  32.121  1.00  0.00     0.031 C 
ATOM     56  C   UNL A   1      41.740  30.471  35.873  1.00  0.00     0.029 A 
ATOM     57  C   UNL A   1      40.937  30.622  34.755  1.00  0.00     0.049 A 
ATOM     58  H   UNL A   1      41.077  29.665  32.878  1.00  0.00     0.167 HD
ATOM     59  C   UNL A   1      39.049  31.559  33.449  1.00  0.00     0.074 A 
ATOM     60  C   UNL A   1      37.883  32.403  33.303  1.00  0.00     0.031 C 
ATOM     61  C   UNL A   1      39.785  31.470  34.583  1.00  0.00     0.037 A 
BRANCH  48  62
ATOM     62  C   UNL A   1      44.489  27.482  34.213  1.00  0.00     0.064 A 
ATOM     63  C   UNL A   1      45.777  28.034  34.164  1.00  0.00     0.173 A 
ATOM     64  C   UNL A   1      44.312  26.286  34.924  1.00  0.00     0.173 A 
ATOM     65  F   UNL A   1      46.001  29.166  33.479  1.00  0.00    -0.203 F 
ATOM     66  C   UNL A   1      46.851  27.399  34.784  1.00  0.00     0.198 A 
ATOM     67  C   UNL A   1      45.382  25.669  35.566  1.00  0.00     0.198 A 
ATOM     68  F   UNL A   1      43.099  25.717  35.000  1.00  0.00    -0.203 F 
ATOM     69  F   UNL A   1      48.082  27.918  34.684  1.00  0.00    -0.200 F 
ATOM     70  C   UNL A   1      46.651  26.221  35.489  1.00  0.00     0.200 A 
ATOM     71  F   UNL A   1      45.184  24.536  36.254  1.00  0.00    -0.200 F 
ATOM     72  F   UNL A   1      47.684  25.613  36.086  1.00  0.00    -0.200 F 
ENDBRANCH  48  62
BRANCH  49  73
ATOM     73  C   UNL A   1      36.762  31.524  29.330  1.00  0.00     0.064 A 
ATOM     74  C   UNL A   1      36.729  32.894  29.033  1.00  0.00     0.173 A 
ATOM     75  C   UNL A   1      35.644  30.760  28.963  1.00  0.00     0.173 A 
ATOM     76  F   UNL A   1      37.745  33.687  29.405  1.00  0.00    -0.203 F 
ATOM     77  C   UNL A   1      35.636  33.473  28.388  1.00  0.00     0.198 A 
ATOM     78  C   UNL A   1      34.560  31.334  28.299  1.00  0.00     0.198 A 
ATOM     79  F   UNL A   1      35.601  29.450  29.249  1.00  0.00    -0.203 F 
ATOM     80  F   UNL A   1      35.628  34.790  28.143  1.00  0.00    -0.200 F 
ATOM     81  C   UNL A   1      34.556  32.691  28.014  1.00  0.00     0.200 A 
ATOM     82  F   UNL A   1      33.517  30.573  27.941  1.00  0.00    -0.200 F 
ATOM     83  F   UNL A   1      33.508  33.246  27.392  1.00  0.00    -0.200 F 
ENDBRANCH  49  73
BRANCH  61  84
ATOM     84  C   UNL A   1      39.374  32.328  35.746  1.00  0.00     0.064 A 
ATOM     85  C   UNL A   1      39.863  33.633  35.906  1.00  0.00     0.173 A 
ATOM     86  C   UNL A   1      38.445  31.855  36.685  1.00  0.00     0.173 A 
ATOM     87  F   UNL A   1      40.764  34.127  35.043  1.00  0.00    -0.203 F 
ATOM     88  C   UNL A   1      39.456  34.424  36.977  1.00  0.00     0.198 A 
ATOM     89  C   UNL A   1      38.016  32.660  37.737  1.00  0.00     0.198 A 
ATOM     90  F   UNL A   1      37.940  30.618  36.574  1.00  0.00    -0.203 F 
ATOM     91  F   UNL A   1      39.971  35.651  37.135  1.00  0.00    -0.200 F 
ATOM     92  C   UNL A   1      38.527  33.941  37.886  1.00  0.00     0.200 A 
ATOM     93  F   UNL A   1      37.108  32.196  38.607  1.00  0.00    -0.200 F 
ATOM     94  F   UNL A   1      38.130  34.707  38.911  1.00  0.00    -0.200 F 
ENDBRANCH  61  84
ENDBRANCH  35  36
ENDBRANCH  28  30
ENDBRANCH  27  28
ENDBRANCH  26  27
ENDBRANCH  25  26
ENDBRANCH  24  25
ENDBRANCH  23  24
ENDBRANCH   1  23
TORSDOF 19
ENDMDL
