MODEL 1
REMARK VINA RESULT:     -12.8      0.000      0.000
REMARK SMILES Cc1ccc(/C=C2/C[N@@H+](C)Cc3c2nc2ccccc2c3C(=O)OCCOCCOCCOC(=O)c2ccc(-c3c4nc(c(-c5c(F)c(F)c(F)c(F)c5F)c5ccc([nH]5)c(-c5c(F)c(F)c(F)c(F)c5F)c5nc(c(-c6c(F)c(F)c(F)c(F)c6F)c6ccc3[nH]6)C=C5)C=C4)cc2)cc1
REMARK SMILES IDX 29 1 28 2 27 3 26 4 25 5 24 6 22 7 23 8 21 9 6 10 7 11 8 12
REMARK SMILES IDX 13 13 9 14 12 15 14 16 10 17 11 18 15 20 20 21 16 22 19 23
REMARK SMILES IDX 17 24 18 25 5 26 1 27 2 28 3 29 100 30 4 31 99 32 30 33
REMARK SMILES IDX 31 34 32 35 33 36 34 37 35 38 36 39 37 40 98 41 38 42 97 43
REMARK SMILES IDX 39 44 40 45 41 46 91 47 42 48 96 49 90 50 92 51 43 52 95 53
REMARK SMILES IDX 89 54 88 55 44 57 76 58 56 59 75 60 57 61 60 62 74 63 93 64
REMARK SMILES IDX 58 65 59 66 73 68 94 69 61 70 45 71 46 72 54 73 47 74 48 75
REMARK SMILES IDX 52 76 55 77 49 78 50 79 53 80 51 81 77 82 78 83 86 84 79 85
REMARK SMILES IDX 80 86 84 87 87 88 81 89 82 90 85 91 83 92 62 93 63 94 71 95
REMARK SMILES IDX 64 96 65 97 69 98 72 99 66 100 67 101 70 102 68 103
REMARK H PARENT 9 19 92 56 60 67
REMARK Flexibility Score: inf
ROOT
ATOM      1  C   UNL A   1      43.190  33.614  35.925  1.00  0.00     0.188 C 
ENDROOT
BRANCH   1   2
ATOM      2  C   UNL A   1      42.687  34.853  36.651  1.00  0.00     0.188 C 
BRANCH   2   3
ATOM      3  O   UNL A   1      41.738  35.803  36.117  1.00  0.00    -0.376 OA
BRANCH   3   4
ATOM      4  C   UNL A   1      40.976  35.796  34.883  1.00  0.00     0.202 C 
BRANCH   4   5
ATOM      5  C   UNL A   1      39.613  34.838  34.258  1.00  0.00     0.261 C 
BRANCH   5   6
ATOM      6  O   UNL A   1      37.939  34.835  34.546  1.00  0.00    -0.460 OA
BRANCH   6   7
ATOM      7  C   UNL A   1      36.782  34.021  34.708  1.00  0.00     0.339 C 
ATOM      8  O   UNL A   1      36.038  33.919  35.673  1.00  0.00    -0.246 OA
BRANCH   7   9
ATOM      9  C   UNL A   1      36.156  33.194  33.676  1.00  0.00     0.080 A 
ATOM     10  C   UNL A   1      35.173  33.959  29.435  1.00  0.00     0.020 C 
ATOM     11  C   UNL A   1      34.546  34.032  30.632  1.00  0.00     0.033 C 
ATOM     12  C   UNL A   1      33.689  35.217  31.047  1.00  0.00     0.301 C 
ATOM     13  C   UNL A   1      34.869  33.151  31.771  1.00  0.00     0.082 A 
ATOM     14  N   UNL A   1      34.450  36.013  32.008  1.00  0.00    -0.330 N 
ATOM     15  C   UNL A   1      35.232  33.837  32.901  1.00  0.00     0.048 A 
ATOM     16  N   UNL A   1      35.115  31.833  31.548  1.00  0.00    -0.247 NA
ATOM     17  C   UNL A   1      33.809  37.242  32.461  1.00  0.00     0.333 C 
ATOM     18  C   UNL A   1      34.766  35.225  33.184  1.00  0.00     0.302 C 
ATOM     19  H   UNL A   1      35.283  36.288  31.488  1.00  0.00     0.348 HD
ATOM     20  C   UNL A   1      36.034  31.197  32.292  1.00  0.00     0.072 A 
ATOM     21  C   UNL A   1      36.713  31.859  33.315  1.00  0.00     0.015 A 
ATOM     22  C   UNL A   1      36.397  29.884  31.943  1.00  0.00     0.029 A 
ATOM     23  C   UNL A   1      37.892  31.150  33.807  1.00  0.00     0.011 A 
ATOM     24  C   UNL A   1      37.494  29.211  32.491  1.00  0.00     0.002 A 
ATOM     25  C   UNL A   1      38.279  29.870  33.406  1.00  0.00     0.001 A 
BRANCH  10  26
ATOM     26  C   UNL A   1      36.172  32.963  28.995  1.00  0.00    -0.025 A 
ATOM     27  C   UNL A   1      38.736  29.589  28.173  1.00  0.00     0.044 C 
ATOM     28  C   UNL A   1      37.899  30.822  28.345  1.00  0.00    -0.051 A 
ATOM     29  C   UNL A   1      38.371  31.912  29.080  1.00  0.00     0.004 A 
ATOM     30  C   UNL A   1      36.584  30.851  27.867  1.00  0.00     0.004 A 
ATOM     31  C   UNL A   1      37.523  32.990  29.373  1.00  0.00     0.008 A 
ATOM     32  C   UNL A   1      35.732  31.912  28.188  1.00  0.00     0.008 A 
ENDBRANCH  10  26
ENDBRANCH   7   9
ENDBRANCH   6   7
ENDBRANCH   5   6
ENDBRANCH   4   5
ENDBRANCH   3   4
ENDBRANCH   2   3
ENDBRANCH   1   2
BRANCH   1  33
ATOM     33  O   UNL A   1      42.638  32.457  36.501  1.00  0.00    -0.376 OA
BRANCH  33  34
ATOM     34  C   UNL A   1      41.253  32.270  36.302  1.00  0.00     0.202 C 
BRANCH  34  35
ATOM     35  C   UNL A   1      40.849  30.859  35.828  1.00  0.00     0.261 C 
BRANCH  35  36
ATOM     36  O   UNL A   1      41.987  30.114  35.322  1.00  0.00    -0.460 OA
BRANCH  36  37
ATOM     37  C   UNL A   1      42.180  28.836  35.798  1.00  0.00     0.338 C 
ATOM     38  O   UNL A   1      42.370  28.559  36.974  1.00  0.00    -0.246 OA
BRANCH  37  39
ATOM     39  C   UNL A   1      42.384  27.886  34.652  1.00  0.00     0.060 A 
ATOM     40  C   UNL A   1      43.609  27.436  34.131  1.00  0.00     0.016 A 
ATOM     41  C   UNL A   1      41.336  27.797  33.815  1.00  0.00     0.016 A 
ATOM     42  C   UNL A   1      43.787  27.155  32.702  1.00  0.00     0.010 A 
ATOM     43  C   UNL A   1      41.664  27.856  32.464  1.00  0.00     0.010 A 
ATOM     44  C   UNL A   1      42.832  27.467  31.737  1.00  0.00    -0.014 A 
BRANCH  44  45
ATOM     45  C   UNL A   1      42.964  27.313  30.003  1.00  0.00     0.031 A 
ATOM     46  C   UNL A   1      43.514  26.026  29.020  1.00  0.00     0.074 A 
ATOM     47  C   UNL A   1      42.453  28.279  29.220  1.00  0.00     0.049 A 
ATOM     48  N   UNL A   1      42.756  25.281  28.234  1.00  0.00    -0.248 NA
ATOM     49  C   UNL A   1      44.911  25.455  28.968  1.00  0.00     0.031 C 
ATOM     50  C   UNL A   1      42.221  28.256  27.776  1.00  0.00     0.029 A 
ATOM     51  N   UNL A   1      42.165  29.594  29.574  1.00  0.00    -0.354 N 
ATOM     52  C   UNL A   1      43.452  24.092  27.897  1.00  0.00     0.074 A 
ATOM     53  C   UNL A   1      44.721  24.183  28.607  1.00  0.00     0.031 C 
ATOM     54  C   UNL A   1      42.267  29.524  27.331  1.00  0.00     0.029 A 
ATOM     55  C   UNL A   1      42.624  30.347  28.477  1.00  0.00     0.049 A 
ATOM     56  H   UNL A   1      41.739  29.921  30.399  1.00  0.00     0.167 HD
ATOM     57  C   UNL A   1      43.598  23.657  26.608  1.00  0.00     0.037 A 
ATOM     58  C   UNL A   1      43.808  30.999  28.651  1.00  0.00     0.037 A 
ATOM     59  C   UNL A   1      43.876  24.786  25.758  1.00  0.00     0.049 A 
ATOM     60  C   UNL A   1      44.865  30.330  27.787  1.00  0.00     0.074 A 
ATOM     61  C   UNL A   1      43.066  25.644  25.051  1.00  0.00     0.029 A 
ATOM     62  N   UNL A   1      45.089  25.440  25.936  1.00  0.00    -0.354 N 
ATOM     63  N   UNL A   1      44.960  29.044  27.525  1.00  0.00    -0.248 NA
ATOM     64  C   UNL A   1      45.759  31.145  26.979  1.00  0.00     0.031 C 
ATOM     65  C   UNL A   1      43.738  26.903  25.015  1.00  0.00     0.029 A 
ATOM     66  C   UNL A   1      44.981  26.781  25.628  1.00  0.00     0.049 A 
ATOM     67  H   UNL A   1      45.917  25.004  26.242  1.00  0.00     0.167 HD
ATOM     68  C   UNL A   1      45.846  28.870  26.486  1.00  0.00     0.074 A 
ATOM     69  C   UNL A   1      46.316  30.214  26.191  1.00  0.00     0.031 C 
ATOM     70  C   UNL A   1      46.103  27.699  25.817  1.00  0.00     0.037 A 
BRANCH  57  71
ATOM     71  C   UNL A   1      43.654  22.182  26.260  1.00  0.00     0.064 A 
ATOM     72  C   UNL A   1      44.827  21.605  25.732  1.00  0.00     0.173 A 
ATOM     73  C   UNL A   1      42.537  21.313  26.324  1.00  0.00     0.173 A 
ATOM     74  F   UNL A   1      45.953  22.324  25.629  1.00  0.00    -0.203 F 
ATOM     75  C   UNL A   1      44.871  20.281  25.267  1.00  0.00     0.198 A 
ATOM     76  C   UNL A   1      42.586  19.985  25.867  1.00  0.00     0.198 A 
ATOM     77  F   UNL A   1      41.364  21.734  26.823  1.00  0.00    -0.203 F 
ATOM     78  F   UNL A   1      46.004  19.795  24.738  1.00  0.00    -0.200 F 
ATOM     79  C   UNL A   1      43.749  19.474  25.324  1.00  0.00     0.200 A 
ATOM     80  F   UNL A   1      41.492  19.209  25.938  1.00  0.00    -0.200 F 
ATOM     81  F   UNL A   1      43.787  18.219  24.853  1.00  0.00    -0.200 F 
ENDBRANCH  57  71
BRANCH  58  82
ATOM     82  C   UNL A   1      43.923  31.592  30.035  1.00  0.00     0.064 A 
ATOM     83  C   UNL A   1      44.833  30.965  30.933  1.00  0.00     0.173 A 
ATOM     84  C   UNL A   1      43.488  32.868  30.399  1.00  0.00     0.173 A 
ATOM     85  F   UNL A   1      45.249  29.709  30.696  1.00  0.00    -0.203 F 
ATOM     86  C   UNL A   1      45.444  31.654  31.980  1.00  0.00     0.198 A 
ATOM     87  C   UNL A   1      44.044  33.528  31.515  1.00  0.00     0.198 A 
ATOM     88  F   UNL A   1      42.645  33.550  29.613  1.00  0.00    -0.203 F 
ATOM     89  F   UNL A   1      46.453  31.087  32.660  1.00  0.00    -0.200 F 
ATOM     90  C   UNL A   1      45.070  32.951  32.253  1.00  0.00     0.200 A 
ATOM     91  F   UNL A   1      43.714  34.805  31.764  1.00  0.00    -0.200 F 
ATOM     92  F   UNL A   1      45.740  33.667  33.168  1.00  0.00    -0.200 F 
ENDBRANCH  58  82
BRANCH  70  93
ATOM     93  C   UNL A   1      47.423  27.442  25.097  1.00  0.00     0.064 A 
ATOM     94  C   UNL A   1      47.627  27.736  23.735  1.00  0.00     0.173 A 
ATOM     95  C   UNL A   1      48.582  26.992  25.776  1.00  0.00     0.173 A 
ATOM     96  F   UNL A   1      46.707  28.384  23.008  1.00  0.00    -0.203 F 
ATOM     97  C   UNL A   1      48.812  27.423  23.070  1.00  0.00     0.198 A 
ATOM     98  C   UNL A   1      49.796  26.767  25.128  1.00  0.00     0.198 A 
ATOM     99  F   UNL A   1      48.607  26.791  27.099  1.00  0.00    -0.203 F 
ATOM    100  F   UNL A   1      48.897  27.618  21.747  1.00  0.00    -0.200 F 
ATOM    101  C   UNL A   1      49.898  26.935  23.765  1.00  0.00     0.200 A 
ATOM    102  F   UNL A   1      50.871  26.400  25.841  1.00  0.00    -0.200 F 
ATOM    103  F   UNL A   1      51.044  26.659  23.132  1.00  0.00    -0.200 F 
ENDBRANCH  70  93
ENDBRANCH  44  45
ENDBRANCH  37  39
ENDBRANCH  36  37
ENDBRANCH  35  36
ENDBRANCH  34  35
ENDBRANCH  33  34
ENDBRANCH   1  33
TORSDOF 18
ENDMDL
MODEL 2
REMARK VINA RESULT:     -12.4      5.803     10.438
REMARK SMILES Cc1ccc(/C=C2/C[N@@H+](C)Cc3c2nc2ccccc2c3C(=O)OCCOCCOCCOC(=O)c2ccc(-c3c4nc(c(-c5c(F)c(F)c(F)c(F)c5F)c5ccc([nH]5)c(-c5c(F)c(F)c(F)c(F)c5F)c5nc(c(-c6c(F)c(F)c(F)c(F)c6F)c6ccc3[nH]6)C=C5)C=C4)cc2)cc1
REMARK SMILES IDX 29 1 28 2 27 3 26 4 25 5 24 6 22 7 23 8 21 9 6 10 7 11 8 12
REMARK SMILES IDX 13 13 9 14 12 15 14 16 10 17 11 18 15 20 20 21 16 22 19 23
REMARK SMILES IDX 17 24 18 25 5 26 1 27 2 28 3 29 100 30 4 31 99 32 30 33
REMARK SMILES IDX 31 34 32 35 33 36 34 37 35 38 36 39 37 40 98 41 38 42 97 43
REMARK SMILES IDX 39 44 40 45 41 46 91 47 42 48 96 49 90 50 92 51 43 52 95 53
REMARK SMILES IDX 89 54 88 55 44 57 76 58 56 59 75 60 57 61 60 62 74 63 93 64
REMARK SMILES IDX 58 65 59 66 73 68 94 69 61 70 45 71 46 72 54 73 47 74 48 75
REMARK SMILES IDX 52 76 55 77 49 78 50 79 53 80 51 81 77 82 78 83 86 84 79 85
REMARK SMILES IDX 80 86 84 87 87 88 81 89 82 90 85 91 83 92 62 93 63 94 71 95
REMARK SMILES IDX 64 96 65 97 69 98 72 99 66 100 67 101 70 102 68 103
REMARK H PARENT 9 19 92 56 60 67
REMARK Flexibility Score: inf
ROOT
ATOM      1  C   UNL A   1      33.257  30.181  26.287  1.00  0.00     0.188 C 
ENDROOT
BRANCH   1   2
ATOM      2  C   UNL A   1      31.895  29.508  26.205  1.00  0.00     0.188 C 
BRANCH   2   3
ATOM      3  O   UNL A   1      31.114  29.354  24.999  1.00  0.00    -0.376 OA
BRANCH   3   4
ATOM      4  C   UNL A   1      31.521  29.206  23.615  1.00  0.00     0.202 C 
BRANCH   4   5
ATOM      5  C   UNL A   1      32.959  28.554  22.795  1.00  0.00     0.261 C 
BRANCH   5   6
ATOM      6  O   UNL A   1      33.827  27.097  22.908  1.00  0.00    -0.460 OA
BRANCH   6   7
ATOM      7  C   UNL A   1      33.746  25.678  22.817  1.00  0.00     0.339 C 
ATOM      8  O   UNL A   1      33.636  24.972  21.825  1.00  0.00    -0.246 OA
BRANCH   7   9
ATOM      9  C   UNL A   1      33.897  24.732  23.922  1.00  0.00     0.080 A 
ATOM     10  C   UNL A   1      31.176  21.711  25.654  1.00  0.00     0.020 C 
ATOM     11  C   UNL A   1      31.516  22.999  25.893  1.00  0.00     0.033 C 
ATOM     12  C   UNL A   1      30.492  24.087  26.176  1.00  0.00     0.301 C 
ATOM     13  C   UNL A   1      32.851  23.552  25.595  1.00  0.00     0.082 A 
ATOM     14  N   UNL A   1      30.363  24.911  24.976  1.00  0.00    -0.330 N 
ATOM     15  C   UNL A   1      32.815  24.631  24.750  1.00  0.00     0.048 A 
ATOM     16  N   UNL A   1      33.958  22.808  25.862  1.00  0.00    -0.247 NA
ATOM     17  C   UNL A   1      29.359  25.967  25.039  1.00  0.00     0.333 C 
ATOM     18  C   UNL A   1      31.632  25.531  24.645  1.00  0.00     0.302 C 
ATOM     19  H   UNL A   1      30.053  24.251  24.262  1.00  0.00     0.348 HD
ATOM     20  C   UNL A   1      35.019  22.888  25.044  1.00  0.00     0.072 A 
ATOM     21  C   UNL A   1      35.019  23.749  23.947  1.00  0.00     0.015 A 
ATOM     22  C   UNL A   1      36.088  21.995  25.235  1.00  0.00     0.029 A 
ATOM     23  C   UNL A   1      36.084  23.490  22.982  1.00  0.00     0.011 A 
ATOM     24  C   UNL A   1      37.131  21.826  24.317  1.00  0.00     0.002 A 
ATOM     25  C   UNL A   1      37.106  22.554  23.153  1.00  0.00     0.001 A 
BRANCH  10  26
ATOM     26  C   UNL A   1      32.050  20.614  25.186  1.00  0.00    -0.025 A 
ATOM     27  C   UNL A   1      33.970  17.104  23.568  1.00  0.00     0.044 C 
ATOM     28  C   UNL A   1      33.429  18.381  24.138  1.00  0.00    -0.051 A 
ATOM     29  C   UNL A   1      33.320  18.560  25.520  1.00  0.00     0.004 A 
ATOM     30  C   UNL A   1      32.918  19.369  23.289  1.00  0.00     0.004 A 
ATOM     31  C   UNL A   1      32.664  19.686  26.039  1.00  0.00     0.008 A 
ATOM     32  C   UNL A   1      32.238  20.475  23.810  1.00  0.00     0.008 A 
ENDBRANCH  10  26
ENDBRANCH   7   9
ENDBRANCH   6   7
ENDBRANCH   5   6
ENDBRANCH   4   5
ENDBRANCH   3   4
ENDBRANCH   2   3
ENDBRANCH   1   2
BRANCH   1  33
ATOM     33  O   UNL A   1      33.559  30.501  27.622  1.00  0.00    -0.376 OA
BRANCH  33  34
ATOM     34  C   UNL A   1      34.924  30.723  27.909  1.00  0.00     0.202 C 
BRANCH  34  35
ATOM     35  C   UNL A   1      35.796  29.451  27.946  1.00  0.00     0.261 C 
BRANCH  35  36
ATOM     36  O   UNL A   1      37.152  29.715  27.502  1.00  0.00    -0.460 OA
BRANCH  36  37
ATOM     37  C   UNL A   1      38.133  29.815  28.463  1.00  0.00     0.338 C 
ATOM     38  O   UNL A   1      38.239  30.749  29.247  1.00  0.00    -0.246 OA
BRANCH  37  39
ATOM     39  C   UNL A   1      39.185  28.767  28.235  1.00  0.00     0.060 A 
ATOM     40  C   UNL A   1      39.662  27.828  29.165  1.00  0.00     0.016 A 
ATOM     41  C   UNL A   1      40.011  29.027  27.206  1.00  0.00     0.016 A 
ATOM     42  C   UNL A   1      41.059  27.378  29.166  1.00  0.00     0.010 A 
ATOM     43  C   UNL A   1      41.361  28.837  27.482  1.00  0.00     0.010 A 
ATOM     44  C   UNL A   1      42.049  27.958  28.375  1.00  0.00    -0.014 A 
BRANCH  44  45
ATOM     45  C   UNL A   1      43.761  27.616  28.373  1.00  0.00     0.031 A 
ATOM     46  C   UNL A   1      45.118  28.638  28.177  1.00  0.00     0.074 A 
ATOM     47  C   UNL A   1      44.181  26.381  28.694  1.00  0.00     0.049 A 
ATOM     48  N   UNL A   1      45.987  28.951  29.123  1.00  0.00    -0.248 NA
ATOM     49  C   UNL A   1      45.488  29.434  26.948  1.00  0.00     0.031 C 
ATOM     50  C   UNL A   1      45.538  25.929  29.001  1.00  0.00     0.029 A 
ATOM     51  N   UNL A   1      43.446  25.199  28.662  1.00  0.00    -0.354 N 
ATOM     52  C   UNL A   1      46.719  30.101  28.729  1.00  0.00     0.074 A 
ATOM     53  C   UNL A   1      46.163  30.478  27.436  1.00  0.00     0.031 C 
ATOM     54  C   UNL A   1      45.616  24.622  28.695  1.00  0.00     0.029 A 
ATOM     55  C   UNL A   1      44.336  24.263  28.104  1.00  0.00     0.049 A 
ATOM     56  H   UNL A   1      42.519  25.052  28.959  1.00  0.00     0.167 HD
ATOM     57  C   UNL A   1      48.085  30.155  28.752  1.00  0.00     0.037 A 
ATOM     58  C   UNL A   1      44.127  23.941  26.796  1.00  0.00     0.037 A 
ATOM     59  C   UNL A   1      48.616  28.904  28.273  1.00  0.00     0.049 A 
ATOM     60  C   UNL A   1      45.258  24.521  25.963  1.00  0.00     0.074 A 
ATOM     61  C   UNL A   1      48.959  27.732  28.906  1.00  0.00     0.029 A 
ATOM     62  N   UNL A   1      48.404  28.587  26.936  1.00  0.00    -0.354 N 
ATOM     63  N   UNL A   1      45.875  25.664  26.172  1.00  0.00    -0.248 NA
ATOM     64  C   UNL A   1      45.906  23.698  24.953  1.00  0.00     0.031 C 
ATOM     65  C   UNL A   1      48.721  26.679  27.972  1.00  0.00     0.029 A 
ATOM     66  C   UNL A   1      48.314  27.222  26.758  1.00  0.00     0.049 A 
ATOM     67  H   UNL A   1      48.328  29.250  26.213  1.00  0.00     0.167 HD
ATOM     68  C   UNL A   1      47.016  25.696  25.403  1.00  0.00     0.074 A 
ATOM     69  C   UNL A   1      46.979  24.446  24.661  1.00  0.00     0.031 C 
ATOM     70  C   UNL A   1      48.009  26.643  25.450  1.00  0.00     0.037 A 
BRANCH  57  71
ATOM     71  C   UNL A   1      48.833  31.442  29.046  1.00  0.00     0.064 A 
ATOM     72  C   UNL A   1      49.512  32.136  28.025  1.00  0.00     0.173 A 
ATOM     73  C   UNL A   1      49.003  31.975  30.347  1.00  0.00     0.173 A 
ATOM     74  F   UNL A   1      49.421  31.733  26.750  1.00  0.00    -0.203 F 
ATOM     75  C   UNL A   1      50.330  33.248  28.285  1.00  0.00     0.198 A 
ATOM     76  C   UNL A   1      49.814  33.094  30.604  1.00  0.00     0.198 A 
ATOM     77  F   UNL A   1      48.396  31.418  31.406  1.00  0.00    -0.203 F 
ATOM     78  F   UNL A   1      50.984  33.847  27.279  1.00  0.00    -0.200 F 
ATOM     79  C   UNL A   1      50.489  33.721  29.574  1.00  0.00     0.200 A 
ATOM     80  F   UNL A   1      49.953  33.550  31.860  1.00  0.00    -0.200 F 
ATOM     81  F   UNL A   1      51.293  34.765  29.823  1.00  0.00    -0.200 F 
ENDBRANCH  57  71
BRANCH  58  82
ATOM     82  C   UNL A   1      42.655  23.818  26.479  1.00  0.00     0.064 A 
ATOM     83  C   UNL A   1      42.017  22.596  26.837  1.00  0.00     0.173 A 
ATOM     84  C   UNL A   1      41.806  24.886  26.186  1.00  0.00     0.173 A 
ATOM     85  F   UNL A   1      42.757  21.497  27.067  1.00  0.00    -0.203 F 
ATOM     86  C   UNL A   1      40.653  22.518  27.116  1.00  0.00     0.198 A 
ATOM     87  C   UNL A   1      40.414  24.777  26.384  1.00  0.00     0.198 A 
ATOM     88  F   UNL A   1      42.308  26.085  25.857  1.00  0.00    -0.203 F 
ATOM     89  F   UNL A   1      40.140  21.403  27.658  1.00  0.00    -0.200 F 
ATOM     90  C   UNL A   1      39.854  23.622  26.918  1.00  0.00     0.200 A 
ATOM     91  F   UNL A   1      39.633  25.858  26.231  1.00  0.00    -0.200 F 
ATOM     92  F   UNL A   1      38.570  23.602  27.306  1.00  0.00    -0.200 F 
ENDBRANCH  58  82
BRANCH  70  93
ATOM     93  C   UNL A   1      48.919  26.933  24.261  1.00  0.00     0.064 A 
ATOM     94  C   UNL A   1      48.455  27.495  23.056  1.00  0.00     0.173 A 
ATOM     95  C   UNL A   1      50.324  26.763  24.322  1.00  0.00     0.173 A 
ATOM     96  F   UNL A   1      47.196  27.934  22.922  1.00  0.00    -0.203 F 
ATOM     97  C   UNL A   1      49.283  27.682  21.949  1.00  0.00     0.198 A 
ATOM     98  C   UNL A   1      51.165  27.038  23.244  1.00  0.00     0.198 A 
ATOM     99  F   UNL A   1      50.952  26.366  25.436  1.00  0.00    -0.203 F 
ATOM    100  F   UNL A   1      48.753  28.108  20.795  1.00  0.00    -0.200 F 
ATOM    101  C   UNL A   1      50.638  27.450  22.040  1.00  0.00     0.200 A 
ATOM    102  F   UNL A   1      52.492  26.913  23.389  1.00  0.00    -0.200 F 
ATOM    103  F   UNL A   1      51.436  27.655  20.986  1.00  0.00    -0.200 F 
ENDBRANCH  70  93
ENDBRANCH  44  45
ENDBRANCH  37  39
ENDBRANCH  36  37
ENDBRANCH  35  36
ENDBRANCH  34  35
ENDBRANCH  33  34
ENDBRANCH   1  33
TORSDOF 18
ENDMDL
MODEL 3
REMARK VINA RESULT:     -11.5      1.822      3.408
REMARK SMILES Cc1ccc(/C=C2/C[N@@H+](C)Cc3c2nc2ccccc2c3C(=O)OCCOCCOCCOC(=O)c2ccc(-c3c4nc(c(-c5c(F)c(F)c(F)c(F)c5F)c5ccc([nH]5)c(-c5c(F)c(F)c(F)c(F)c5F)c5nc(c(-c6c(F)c(F)c(F)c(F)c6F)c6ccc3[nH]6)C=C5)C=C4)cc2)cc1
REMARK SMILES IDX 29 1 28 2 27 3 26 4 25 5 24 6 22 7 23 8 21 9 6 10 7 11 8 12
REMARK SMILES IDX 13 13 9 14 12 15 14 16 10 17 11 18 15 20 20 21 16 22 19 23
REMARK SMILES IDX 17 24 18 25 5 26 1 27 2 28 3 29 100 30 4 31 99 32 30 33
REMARK SMILES IDX 31 34 32 35 33 36 34 37 35 38 36 39 37 40 98 41 38 42 97 43
REMARK SMILES IDX 39 44 40 45 41 46 91 47 42 48 96 49 90 50 92 51 43 52 95 53
REMARK SMILES IDX 89 54 88 55 44 57 76 58 56 59 75 60 57 61 60 62 74 63 93 64
REMARK SMILES IDX 58 65 59 66 73 68 94 69 61 70 45 71 46 72 54 73 47 74 48 75
REMARK SMILES IDX 52 76 55 77 49 78 50 79 53 80 51 81 77 82 78 83 86 84 79 85
REMARK SMILES IDX 80 86 84 87 87 88 81 89 82 90 85 91 83 92 62 93 63 94 71 95
REMARK SMILES IDX 64 96 65 97 69 98 72 99 66 100 67 101 70 102 68 103
REMARK H PARENT 9 19 92 56 60 67
REMARK Flexibility Score: inf
ROOT
ATOM      1  C   UNL A   1      46.780  29.905  37.095  1.00  0.00     0.188 C 
ENDROOT
BRANCH   1   2
ATOM      2  C   UNL A   1      47.383  30.879  36.094  1.00  0.00     0.188 C 
BRANCH   2   3
ATOM      3  O   UNL A   1      46.990  32.260  35.936  1.00  0.00    -0.376 OA
BRANCH   3   4
ATOM      4  C   UNL A   1      45.705  32.910  36.107  1.00  0.00     0.202 C 
BRANCH   4   5
ATOM      5  C   UNL A   1      44.010  32.399  35.925  1.00  0.00     0.261 C 
BRANCH   5   6
ATOM      6  O   UNL A   1      42.853  32.556  34.691  1.00  0.00    -0.460 OA
BRANCH   6   7
ATOM      7  C   UNL A   1      41.637  33.185  34.302  1.00  0.00     0.339 C 
ATOM      8  O   UNL A   1      41.455  34.312  33.864  1.00  0.00    -0.246 OA
BRANCH   7   9
ATOM      9  C   UNL A   1      40.320  32.551  34.235  1.00  0.00     0.080 A 
ATOM     10  C   UNL A   1      36.282  33.942  35.375  1.00  0.00     0.020 C 
ATOM     11  C   UNL A   1      37.284  33.226  35.935  1.00  0.00     0.033 C 
ATOM     12  C   UNL A   1      37.766  33.450  37.359  1.00  0.00     0.301 C 
ATOM     13  C   UNL A   1      38.218  32.392  35.154  1.00  0.00     0.082 A 
ATOM     14  N   UNL A   1      39.040  34.165  37.300  1.00  0.00    -0.330 N 
ATOM     15  C   UNL A   1      39.533  32.734  35.337  1.00  0.00     0.048 A 
ATOM     16  N   UNL A   1      37.745  31.644  34.122  1.00  0.00    -0.247 NA
ATOM     17  C   UNL A   1      39.618  34.536  38.587  1.00  0.00     0.333 C 
ATOM     18  C   UNL A   1      40.029  33.382  36.585  1.00  0.00     0.302 C 
ATOM     19  H   UNL A   1      38.807  35.033  36.819  1.00  0.00     0.348 HD
ATOM     20  C   UNL A   1      38.503  31.475  33.027  1.00  0.00     0.072 A 
ATOM     21  C   UNL A   1      39.783  32.022  32.948  1.00  0.00     0.015 A 
ATOM     22  C   UNL A   1      37.939  30.842  31.906  1.00  0.00     0.029 A 
ATOM     23  C   UNL A   1      40.346  32.036  31.600  1.00  0.00     0.011 A 
ATOM     24  C   UNL A   1      38.544  30.816  30.644  1.00  0.00     0.002 A 
ATOM     25  C   UNL A   1      39.746  31.459  30.479  1.00  0.00     0.001 A 
BRANCH  10  26
ATOM     26  C   UNL A   1      35.855  33.949  33.960  1.00  0.00    -0.025 A 
ATOM     27  C   UNL A   1      34.809  33.254  29.830  1.00  0.00     0.044 C 
ATOM     28  C   UNL A   1      35.099  33.613  31.257  1.00  0.00    -0.051 A 
ATOM     29  C   UNL A   1      36.212  34.391  31.588  1.00  0.00     0.004 A 
ATOM     30  C   UNL A   1      34.321  33.078  32.289  1.00  0.00     0.004 A 
ATOM     31  C   UNL A   1      36.567  34.585  32.931  1.00  0.00     0.008 A 
ATOM     32  C   UNL A   1      34.696  33.247  33.626  1.00  0.00     0.008 A 
ENDBRANCH  10  26
ENDBRANCH   7   9
ENDBRANCH   6   7
ENDBRANCH   5   6
ENDBRANCH   4   5
ENDBRANCH   3   4
ENDBRANCH   2   3
ENDBRANCH   1   2
BRANCH   1  33
ATOM     33  O   UNL A   1      45.640  29.290  36.547  1.00  0.00    -0.376 OA
BRANCH  33  34
ATOM     34  C   UNL A   1      44.995  28.344  37.372  1.00  0.00     0.202 C 
BRANCH  34  35
ATOM     35  C   UNL A   1      43.637  27.837  36.841  1.00  0.00     0.261 C 
BRANCH  35  36
ATOM     36  O   UNL A   1      42.874  28.900  36.213  1.00  0.00    -0.460 OA
BRANCH  36  37
ATOM     37  C   UNL A   1      41.582  28.622  35.830  1.00  0.00     0.338 C 
ATOM     38  O   UNL A   1      40.778  28.001  36.513  1.00  0.00    -0.246 OA
BRANCH  37  39
ATOM     39  C   UNL A   1      41.392  28.953  34.378  1.00  0.00     0.060 A 
ATOM     40  C   UNL A   1      40.424  28.427  33.507  1.00  0.00     0.016 A 
ATOM     41  C   UNL A   1      42.483  29.467  33.781  1.00  0.00     0.016 A 
ATOM     42  C   UNL A   1      40.701  28.202  32.084  1.00  0.00     0.010 A 
ATOM     43  C   UNL A   1      42.785  28.910  32.543  1.00  0.00     0.010 A 
ATOM     44  C   UNL A   1      41.971  28.325  31.524  1.00  0.00    -0.014 A 
BRANCH  44  45
ATOM     45  C   UNL A   1      42.467  27.961  29.889  1.00  0.00     0.031 A 
ATOM     46  C   UNL A   1      42.978  26.501  29.161  1.00  0.00     0.074 A 
ATOM     47  C   UNL A   1      42.339  28.906  28.942  1.00  0.00     0.049 A 
ATOM     48  N   UNL A   1      42.295  25.809  28.265  1.00  0.00    -0.248 NA
ATOM     49  C   UNL A   1      44.218  25.705  29.491  1.00  0.00     0.031 C 
ATOM     50  C   UNL A   1      42.444  28.763  27.490  1.00  0.00     0.029 A 
ATOM     51  N   UNL A   1      42.227  30.282  29.125  1.00  0.00    -0.354 N 
ATOM     52  C   UNL A   1      42.817  24.492  28.189  1.00  0.00     0.074 A 
ATOM     53  C   UNL A   1      43.883  24.450  29.182  1.00  0.00     0.031 C 
ATOM     54  C   UNL A   1      42.827  29.949  26.987  1.00  0.00     0.029 A 
ATOM     55  C   UNL A   1      43.058  30.823  28.127  1.00  0.00     0.049 A 
ATOM     56  H   UNL A   1      41.692  30.763  29.797  1.00  0.00     0.167 HD
ATOM     57  C   UNL A   1      43.171  23.900  27.008  1.00  0.00     0.037 A 
ATOM     58  C   UNL A   1      44.271  31.286  28.542  1.00  0.00     0.037 A 
ATOM     59  C   UNL A   1      43.843  24.867  26.178  1.00  0.00     0.049 A 
ATOM     60  C   UNL A   1      45.354  30.361  28.010  1.00  0.00     0.074 A 
ATOM     61  C   UNL A   1      43.391  25.764  25.238  1.00  0.00     0.029 A 
ATOM     62  N   UNL A   1      45.082  25.328  26.605  1.00  0.00    -0.354 N 
ATOM     63  N   UNL A   1      45.265  29.056  27.867  1.00  0.00    -0.248 NA
ATOM     64  C   UNL A   1      46.546  30.924  27.394  1.00  0.00     0.031 C 
ATOM     65  C   UNL A   1      44.276  26.883  25.284  1.00  0.00     0.029 A 
ATOM     66  C   UNL A   1      45.299  26.626  26.190  1.00  0.00     0.049 A 
ATOM     67  H   UNL A   1      45.721  24.798  27.134  1.00  0.00     0.167 HD
ATOM     68  C   UNL A   1      46.318  28.625  27.092  1.00  0.00     0.074 A 
ATOM     69  C   UNL A   1      47.085  29.833  26.832  1.00  0.00     0.031 C 
ATOM     70  C   UNL A   1      46.499  27.361  26.586  1.00  0.00     0.037 A 
BRANCH  57  71
ATOM     71  C   UNL A   1      43.029  22.406  26.784  1.00  0.00     0.064 A 
ATOM     72  C   UNL A   1      43.893  21.719  25.907  1.00  0.00     0.173 A 
ATOM     73  C   UNL A   1      41.983  21.622  27.329  1.00  0.00     0.173 A 
ATOM     74  F   UNL A   1      44.927  22.352  25.334  1.00  0.00    -0.203 F 
ATOM     75  C   UNL A   1      43.703  20.370  25.567  1.00  0.00     0.198 A 
ATOM     76  C   UNL A   1      41.801  20.269  26.995  1.00  0.00     0.198 A 
ATOM     77  F   UNL A   1      41.102  22.152  28.192  1.00  0.00    -0.203 F 
ATOM     78  F   UNL A   1      44.533  19.777  24.696  1.00  0.00    -0.200 F 
ATOM     79  C   UNL A   1      42.653  19.648  26.102  1.00  0.00     0.200 A 
ATOM     80  F   UNL A   1      40.783  19.576  27.530  1.00  0.00    -0.200 F 
ATOM     81  F   UNL A   1      42.458  18.367  25.754  1.00  0.00    -0.200 F 
ENDBRANCH  57  71
BRANCH  58  82
ATOM     82  C   UNL A   1      44.173  32.001  29.868  1.00  0.00     0.064 A 
ATOM     83  C   UNL A   1      44.886  31.432  30.962  1.00  0.00     0.173 A 
ATOM     84  C   UNL A   1      43.742  33.317  30.041  1.00  0.00     0.173 A 
ATOM     85  F   UNL A   1      45.277  30.147  30.911  1.00  0.00    -0.203 F 
ATOM     86  C   UNL A   1      45.339  32.195  32.038  1.00  0.00     0.198 A 
ATOM     87  C   UNL A   1      44.127  34.061  31.175  1.00  0.00     0.198 A 
ATOM     88  F   UNL A   1      43.079  33.950  29.062  1.00  0.00    -0.203 F 
ATOM     89  F   UNL A   1      46.188  31.663  32.930  1.00  0.00    -0.200 F 
ATOM     90  C   UNL A   1      44.984  33.523  32.129  1.00  0.00     0.200 A 
ATOM     91  F   UNL A   1      43.819  35.365  31.253  1.00  0.00    -0.200 F 
ATOM     92  F   UNL A   1      45.518  34.299  33.082  1.00  0.00    -0.200 F 
ENDBRANCH  58  82
BRANCH  70  93
ATOM     93  C   UNL A   1      47.877  26.813  26.232  1.00  0.00     0.064 A 
ATOM     94  C   UNL A   1      48.611  25.965  27.083  1.00  0.00     0.173 A 
ATOM     95  C   UNL A   1      48.475  27.025  24.965  1.00  0.00     0.173 A 
ATOM     96  F   UNL A   1      48.086  25.478  28.216  1.00  0.00    -0.203 F 
ATOM     97  C   UNL A   1      49.903  25.535  26.781  1.00  0.00     0.198 A 
ATOM     98  C   UNL A   1      49.729  26.517  24.628  1.00  0.00     0.198 A 
ATOM     99  F   UNL A   1      47.859  27.696  23.983  1.00  0.00    -0.203 F 
ATOM    100  F   UNL A   1      50.591  24.829  27.689  1.00  0.00    -0.200 F 
ATOM    101  C   UNL A   1      50.465  25.813  25.555  1.00  0.00     0.200 A 
ATOM    102  F   UNL A   1      50.210  26.705  23.390  1.00  0.00    -0.200 F 
ATOM    103  F   UNL A   1      51.695  25.378  25.255  1.00  0.00    -0.200 F 
ENDBRANCH  70  93
ENDBRANCH  44  45
ENDBRANCH  37  39
ENDBRANCH  36  37
ENDBRANCH  35  36
ENDBRANCH  34  35
ENDBRANCH  33  34
ENDBRANCH   1  33
TORSDOF 18
ENDMDL
