MODEL 1
REMARK VINA RESULT:     -10.3      0.000      0.000
REMARK SMILES C[C@H](CCC[C@@H](C)[NH3+])C(=O)N[C@H]1C=C[C@@H](C(=O)OCCOCCOCCOC(=O)c2ccc(-c3c4nc(c(-c5c(F)c(F)c(F)c(F)c5F)c5ccc([nH]5)c(-c5c(F)c(F)c(F)c(F)c5F)c5nc(c(-c6c(F)c(F)c(F)c(F)c6F)c6ccc3[nH]6)C=C5)C=C4)cc2)C1
REMARK SMILES IDX 20 1 19 2 18 3 16 4 17 5 15 6 12 7 13 8 93 9 14 10 11 11
REMARK SMILES IDX 9 12 10 13 2 15 1 16 3 17 4 18 5 19 6 20 7 21 8 22 21 26
REMARK SMILES IDX 22 27 23 28 24 29 25 30 26 31 27 32 28 33 29 34 30 35 31 36
REMARK SMILES IDX 92 37 32 38 91 39 33 40 34 41 35 42 85 43 36 44 90 45 84 46
REMARK SMILES IDX 86 47 37 48 89 49 83 50 82 51 38 53 70 54 50 55 69 56 51 57
REMARK SMILES IDX 54 58 68 59 87 60 52 61 53 62 67 64 88 65 55 66 39 67 40 68
REMARK SMILES IDX 48 69 41 70 42 71 46 72 49 73 43 74 44 75 47 76 45 77 71 78
REMARK SMILES IDX 72 79 80 80 73 81 74 82 78 83 81 84 75 85 76 86 79 87 77 88
REMARK SMILES IDX 56 89 57 90 65 91 58 92 59 93 63 94 66 95 60 96 61 97 64 98
REMARK SMILES IDX 62 99
REMARK H PARENT 11 14 8 23 8 24 8 25 86 52 54 63
REMARK Flexibility Score: inf
ROOT
ATOM      1  C   UNL A   1      40.016  21.002  26.211  1.00  0.00     0.202 C 
ENDROOT
BRANCH   1   2
ATOM      2  C   UNL A   1      39.127  22.253  26.112  1.00  0.00     0.261 C 
BRANCH   2   3
ATOM      3  O   UNL A   1      37.722  22.012  26.314  1.00  0.00    -0.463 OA
BRANCH   3   4
ATOM      4  C   UNL A   1      36.976  21.799  25.202  1.00  0.00     0.312 C 
ATOM      5  O   UNL A   1      37.343  21.129  24.240  1.00  0.00    -0.252 OA
BRANCH   4   6
ATOM      6  C   UNL A   1      35.578  22.416  25.261  1.00  0.00     0.124 C 
ATOM      7  C   UNL A   1      33.909  23.611  23.935  1.00  0.00     0.106 C 
ATOM      8  C   UNL A   1      33.724  22.141  23.831  1.00  0.00    -0.006 C 
ATOM      9  C   UNL A   1      35.302  23.740  24.534  1.00  0.00     0.048 C 
ATOM     10  C   UNL A   1      34.606  21.485  24.593  1.00  0.00    -0.014 C 
BRANCH   7  11
ATOM     11  N   UNL A   1      33.799  24.230  22.638  1.00  0.00    -0.350 N 
ATOM     12  C   UNL A   1      32.798  25.007  22.131  1.00  0.00     0.223 C 
ATOM     13  O   UNL A   1      32.917  25.434  20.982  1.00  0.00    -0.275 OA
ATOM     14  H   UNL A   1      34.555  24.068  22.030  1.00  0.00     0.164 HD
BRANCH  12  15
ATOM     15  C   UNL A   1      31.578  25.374  22.981  1.00  0.00     0.075 C 
ATOM     16  C   UNL A   1      30.713  24.123  23.157  1.00  0.00     0.018 C 
BRANCH  15  17
ATOM     17  C   UNL A   1      30.927  26.688  22.484  1.00  0.00     0.013 C 
BRANCH  17  18
ATOM     18  C   UNL A   1      30.585  27.768  23.515  1.00  0.00     0.007 C 
BRANCH  18  19
ATOM     19  C   UNL A   1      31.513  28.986  23.524  1.00  0.00     0.064 C 
BRANCH  19  20
ATOM     20  C   UNL A   1      32.975  28.686  23.886  1.00  0.00     0.177 C 
ATOM     21  C   UNL A   1      33.878  28.670  22.655  1.00  0.00     0.075 C 
BRANCH  20  22
ATOM     22  N   UNL A   1      33.430  29.715  24.823  1.00  0.00    -0.355 N 
ATOM     23  H   UNL A   1      32.630  30.094  25.328  1.00  0.00     0.344 HD
ATOM     24  H   UNL A   1      33.894  30.463  24.308  1.00  0.00     0.344 HD
ATOM     25  H   UNL A   1      34.087  29.303  25.487  1.00  0.00     0.344 HD
ENDBRANCH  20  22
ENDBRANCH  19  20
ENDBRANCH  18  19
ENDBRANCH  17  18
ENDBRANCH  15  17
ENDBRANCH  12  15
ENDBRANCH   7  11
ENDBRANCH   4   6
ENDBRANCH   3   4
ENDBRANCH   2   3
ENDBRANCH   1   2
BRANCH   1  26
ATOM     26  O   UNL A   1      40.695  20.729  27.434  1.00  0.00    -0.376 OA
BRANCH  26  27
ATOM     27  C   UNL A   1      41.929  20.025  27.398  1.00  0.00     0.188 C 
BRANCH  27  28
ATOM     28  C   UNL A   1      42.284  19.184  26.161  1.00  0.00     0.188 C 
BRANCH  28  29
ATOM     29  O   UNL A   1      42.930  19.888  25.129  1.00  0.00    -0.376 OA
BRANCH  29  30
ATOM     30  C   UNL A   1      44.345  19.956  25.159  1.00  0.00     0.202 C 
BRANCH  30  31
ATOM     31  C   UNL A   1      45.034  21.314  25.392  1.00  0.00     0.261 C 
BRANCH  31  32
ATOM     32  O   UNL A   1      44.263  22.340  26.044  1.00  0.00    -0.460 OA
BRANCH  32  33
ATOM     33  C   UNL A   1      43.663  23.263  25.260  1.00  0.00     0.338 C 
ATOM     34  O   UNL A   1      43.453  23.184  24.058  1.00  0.00    -0.246 OA
BRANCH  33  35
ATOM     35  C   UNL A   1      43.079  24.301  26.141  1.00  0.00     0.060 A 
ATOM     36  C   UNL A   1      43.559  25.618  26.060  1.00  0.00     0.016 A 
ATOM     37  C   UNL A   1      42.057  23.982  27.036  1.00  0.00     0.016 A 
ATOM     38  C   UNL A   1      43.033  26.612  26.889  1.00  0.00     0.010 A 
ATOM     39  C   UNL A   1      41.550  24.973  27.884  1.00  0.00     0.010 A 
ATOM     40  C   UNL A   1      42.053  26.287  27.835  1.00  0.00    -0.014 A 
BRANCH  40  41
ATOM     41  C   UNL A   1      41.688  27.256  28.900  1.00  0.00     0.031 A 
ATOM     42  C   UNL A   1      42.493  27.259  30.170  1.00  0.00     0.074 A 
ATOM     43  C   UNL A   1      40.666  28.119  28.753  1.00  0.00     0.049 A 
ATOM     44  N   UNL A   1      42.309  27.932  31.276  1.00  0.00    -0.248 NA
ATOM     45  C   UNL A   1      43.669  26.372  30.193  1.00  0.00     0.031 C 
ATOM     46  C   UNL A   1      39.837  28.254  27.559  1.00  0.00     0.029 A 
ATOM     47  N   UNL A   1      40.141  29.034  29.634  1.00  0.00    -0.354 N 
ATOM     48  C   UNL A   1      43.336  27.546  32.128  1.00  0.00     0.074 A 
ATOM     49  C   UNL A   1      44.121  26.555  31.424  1.00  0.00     0.031 C 
ATOM     50  C   UNL A   1      38.891  29.182  27.788  1.00  0.00     0.029 A 
ATOM     51  C   UNL A   1      39.024  29.677  29.159  1.00  0.00     0.049 A 
ATOM     52  H   UNL A   1      40.529  29.212  30.521  1.00  0.00     0.167 HD
ATOM     53  C   UNL A   1      43.608  27.984  33.381  1.00  0.00     0.037 A 
ATOM     54  C   UNL A   1      38.188  30.539  29.773  1.00  0.00     0.037 A 
ATOM     55  C   UNL A   1      42.820  28.961  34.085  1.00  0.00     0.049 A 
ATOM     56  C   UNL A   1      38.455  30.940  31.204  1.00  0.00     0.074 A 
ATOM     57  C   UNL A   1      43.014  29.471  35.357  1.00  0.00     0.029 A 
ATOM     58  N   UNL A   1      41.682  29.570  33.579  1.00  0.00    -0.354 N 
ATOM     59  N   UNL A   1      39.438  30.586  31.998  1.00  0.00    -0.248 NA
ATOM     60  C   UNL A   1      37.496  31.866  31.824  1.00  0.00     0.031 C 
ATOM     61  C   UNL A   1      41.961  30.345  35.643  1.00  0.00     0.029 A 
ATOM     62  C   UNL A   1      41.148  30.433  34.525  1.00  0.00     0.049 A 
ATOM     63  H   UNL A   1      41.307  29.413  32.683  1.00  0.00     0.167 HD
ATOM     64  C   UNL A   1      39.235  31.271  33.191  1.00  0.00     0.074 A 
ATOM     65  C   UNL A   1      38.044  32.073  33.013  1.00  0.00     0.031 C 
ATOM     66  C   UNL A   1      39.970  31.240  34.331  1.00  0.00     0.037 A 
BRANCH  53  67
ATOM     67  C   UNL A   1      44.795  27.387  34.081  1.00  0.00     0.064 A 
ATOM     68  C   UNL A   1      46.094  27.877  33.879  1.00  0.00     0.173 A 
ATOM     69  C   UNL A   1      44.627  26.330  34.989  1.00  0.00     0.173 A 
ATOM     70  F   UNL A   1      46.312  28.875  33.011  1.00  0.00    -0.203 F 
ATOM     71  C   UNL A   1      47.183  27.313  34.538  1.00  0.00     0.198 A 
ATOM     72  C   UNL A   1      45.714  25.792  35.673  1.00  0.00     0.198 A 
ATOM     73  F   UNL A   1      43.406  25.825  35.222  1.00  0.00    -0.203 F 
ATOM     74  F   UNL A   1      48.421  27.763  34.289  1.00  0.00    -0.200 F 
ATOM     75  C   UNL A   1      46.991  26.277  35.440  1.00  0.00     0.200 A 
ATOM     76  F   UNL A   1      45.524  24.801  36.554  1.00  0.00    -0.200 F 
ATOM     77  F   UNL A   1      48.040  25.741  36.080  1.00  0.00    -0.200 F 
ENDBRANCH  53  67
BRANCH  54  78
ATOM     78  C   UNL A   1      36.995  31.067  29.056  1.00  0.00     0.064 A 
ATOM     79  C   UNL A   1      36.950  32.393  28.603  1.00  0.00     0.173 A 
ATOM     80  C   UNL A   1      35.856  30.272  28.851  1.00  0.00     0.173 A 
ATOM     81  F   UNL A   1      38.000  33.204  28.801  1.00  0.00    -0.203 F 
ATOM     82  C   UNL A   1      35.805  32.911  27.999  1.00  0.00     0.198 A 
ATOM     83  C   UNL A   1      34.726  30.780  28.216  1.00  0.00     0.198 A 
ATOM     84  F   UNL A   1      35.842  28.998  29.270  1.00  0.00    -0.203 F 
ATOM     85  F   UNL A   1      35.768  34.200  27.634  1.00  0.00    -0.200 F 
ATOM     86  C   UNL A   1      34.695  32.102  27.801  1.00  0.00     0.200 A 
ATOM     87  F   UNL A   1      33.660  29.992  28.017  1.00  0.00    -0.200 F 
ATOM     88  F   UNL A   1      33.595  32.601  27.222  1.00  0.00    -0.200 F 
ENDBRANCH  54  78
BRANCH  66  89
ATOM     89  C   UNL A   1      39.544  32.138  35.460  1.00  0.00     0.064 A 
ATOM     90  C   UNL A   1      38.638  31.716  36.445  1.00  0.00     0.173 A 
ATOM     91  C   UNL A   1      40.087  33.427  35.580  1.00  0.00     0.173 A 
ATOM     92  F   UNL A   1      38.080  30.498  36.372  1.00  0.00    -0.203 F 
ATOM     93  C   UNL A   1      38.269  32.561  37.488  1.00  0.00     0.198 A 
ATOM     94  C   UNL A   1      39.743  34.256  36.645  1.00  0.00     0.198 A 
ATOM     95  F   UNL A   1      40.966  33.879  34.673  1.00  0.00    -0.203 F 
ATOM     96  F   UNL A   1      37.360  32.156  38.387  1.00  0.00    -0.200 F 
ATOM     97  C   UNL A   1      38.828  33.827  37.592  1.00  0.00     0.200 A 
ATOM     98  F   UNL A   1      40.299  35.471  36.753  1.00  0.00    -0.200 F 
ATOM     99  F   UNL A   1      38.478  34.635  38.603  1.00  0.00    -0.200 F 
ENDBRANCH  66  89
ENDBRANCH  40  41
ENDBRANCH  33  35
ENDBRANCH  32  33
ENDBRANCH  31  32
ENDBRANCH  30  31
ENDBRANCH  29  30
ENDBRANCH  28  29
ENDBRANCH  27  28
ENDBRANCH  26  27
ENDBRANCH   1  26
TORSDOF 24
ENDMDL
MODEL 2
REMARK VINA RESULT:     -10.1      1.204      2.212
REMARK SMILES C[C@H](CCC[C@@H](C)[NH3+])C(=O)N[C@H]1C=C[C@@H](C(=O)OCCOCCOCCOC(=O)c2ccc(-c3c4nc(c(-c5c(F)c(F)c(F)c(F)c5F)c5ccc([nH]5)c(-c5c(F)c(F)c(F)c(F)c5F)c5nc(c(-c6c(F)c(F)c(F)c(F)c6F)c6ccc3[nH]6)C=C5)C=C4)cc2)C1
REMARK SMILES IDX 20 1 19 2 18 3 16 4 17 5 15 6 12 7 13 8 93 9 14 10 11 11
REMARK SMILES IDX 9 12 10 13 2 15 1 16 3 17 4 18 5 19 6 20 7 21 8 22 21 26
REMARK SMILES IDX 22 27 23 28 24 29 25 30 26 31 27 32 28 33 29 34 30 35 31 36
REMARK SMILES IDX 92 37 32 38 91 39 33 40 34 41 35 42 85 43 36 44 90 45 84 46
REMARK SMILES IDX 86 47 37 48 89 49 83 50 82 51 38 53 70 54 50 55 69 56 51 57
REMARK SMILES IDX 54 58 68 59 87 60 52 61 53 62 67 64 88 65 55 66 39 67 40 68
REMARK SMILES IDX 48 69 41 70 42 71 46 72 49 73 43 74 44 75 47 76 45 77 71 78
REMARK SMILES IDX 72 79 80 80 73 81 74 82 78 83 81 84 75 85 76 86 79 87 77 88
REMARK SMILES IDX 56 89 57 90 65 91 58 92 59 93 63 94 66 95 60 96 61 97 64 98
REMARK SMILES IDX 62 99
REMARK H PARENT 11 14 8 23 8 24 8 25 86 52 54 63
REMARK Flexibility Score: inf
ROOT
ATOM      1  C   UNL A   1      39.852  20.971  26.224  1.00  0.00     0.202 C 
ENDROOT
BRANCH   1   2
ATOM      2  C   UNL A   1      39.105  22.299  26.012  1.00  0.00     0.261 C 
BRANCH   2   3
ATOM      3  O   UNL A   1      37.676  22.218  26.170  1.00  0.00    -0.463 OA
BRANCH   3   4
ATOM      4  C   UNL A   1      36.964  21.838  25.080  1.00  0.00     0.312 C 
ATOM      5  O   UNL A   1      37.372  21.055  24.226  1.00  0.00    -0.252 OA
BRANCH   4   6
ATOM      6  C   UNL A   1      35.552  22.422  25.023  1.00  0.00     0.124 C 
ATOM      7  C   UNL A   1      34.289  24.508  25.181  1.00  0.00     0.106 C 
ATOM      8  C   UNL A   1      34.696  24.233  23.779  1.00  0.00    -0.006 C 
ATOM      9  C   UNL A   1      35.159  23.552  25.985  1.00  0.00     0.048 C 
ATOM     10  C   UNL A   1      35.347  23.068  23.682  1.00  0.00    -0.014 C 
BRANCH   7  11
ATOM     11  N   UNL A   1      34.521  25.889  25.516  1.00  0.00    -0.350 N 
ATOM     12  C   UNL A   1      33.630  26.917  25.620  1.00  0.00     0.223 C 
ATOM     13  O   UNL A   1      34.058  28.033  25.922  1.00  0.00    -0.275 OA
ATOM     14  H   UNL A   1      35.460  26.126  25.694  1.00  0.00     0.164 HD
BRANCH  12  15
ATOM     15  C   UNL A   1      32.131  26.685  25.408  1.00  0.00     0.075 C 
ATOM     16  C   UNL A   1      31.424  28.043  25.395  1.00  0.00     0.018 C 
BRANCH  15  17
ATOM     17  C   UNL A   1      31.604  25.561  26.334  1.00  0.00     0.013 C 
BRANCH  17  18
ATOM     18  C   UNL A   1      30.474  24.663  25.821  1.00  0.00     0.007 C 
BRANCH  18  19
ATOM     19  C   UNL A   1      30.916  23.462  24.982  1.00  0.00     0.064 C 
BRANCH  19  20
ATOM     20  C   UNL A   1      31.139  22.164  25.772  1.00  0.00     0.177 C 
ATOM     21  C   UNL A   1      32.104  21.219  25.061  1.00  0.00     0.075 C 
BRANCH  20  22
ATOM     22  N   UNL A   1      31.672  22.520  27.089  1.00  0.00    -0.355 N 
ATOM     23  H   UNL A   1      30.907  22.810  27.699  1.00  0.00     0.344 HD
ATOM     24  H   UNL A   1      32.338  23.286  26.990  1.00  0.00     0.344 HD
ATOM     25  H   UNL A   1      32.142  21.711  27.495  1.00  0.00     0.344 HD
ENDBRANCH  20  22
ENDBRANCH  19  20
ENDBRANCH  18  19
ENDBRANCH  17  18
ENDBRANCH  15  17
ENDBRANCH  12  15
ENDBRANCH   7  11
ENDBRANCH   4   6
ENDBRANCH   3   4
ENDBRANCH   2   3
ENDBRANCH   1   2
BRANCH   1  26
ATOM     26  O   UNL A   1      40.594  20.778  27.426  1.00  0.00    -0.376 OA
BRANCH  26  27
ATOM     27  C   UNL A   1      41.862  20.139  27.363  1.00  0.00     0.188 C 
BRANCH  27  28
ATOM     28  C   UNL A   1      42.213  19.277  26.139  1.00  0.00     0.188 C 
BRANCH  28  29
ATOM     29  O   UNL A   1      42.925  19.944  25.126  1.00  0.00    -0.376 OA
BRANCH  29  30
ATOM     30  C   UNL A   1      44.333  20.024  25.250  1.00  0.00     0.202 C 
BRANCH  30  31
ATOM     31  C   UNL A   1      45.005  21.402  25.408  1.00  0.00     0.261 C 
BRANCH  31  32
ATOM     32  O   UNL A   1      44.245  22.431  26.068  1.00  0.00    -0.460 OA
BRANCH  32  33
ATOM     33  C   UNL A   1      43.610  23.335  25.290  1.00  0.00     0.338 C 
ATOM     34  O   UNL A   1      43.374  23.240  24.094  1.00  0.00    -0.246 OA
BRANCH  33  35
ATOM     35  C   UNL A   1      43.028  24.372  26.175  1.00  0.00     0.060 A 
ATOM     36  C   UNL A   1      43.509  25.688  26.096  1.00  0.00     0.016 A 
ATOM     37  C   UNL A   1      42.007  24.051  27.070  1.00  0.00     0.016 A 
ATOM     38  C   UNL A   1      42.985  26.681  26.928  1.00  0.00     0.010 A 
ATOM     39  C   UNL A   1      41.502  25.040  27.921  1.00  0.00     0.010 A 
ATOM     40  C   UNL A   1      42.006  26.354  27.875  1.00  0.00    -0.014 A 
BRANCH  40  41
ATOM     41  C   UNL A   1      41.643  27.321  28.943  1.00  0.00     0.031 A 
ATOM     42  C   UNL A   1      42.437  27.305  30.220  1.00  0.00     0.074 A 
ATOM     43  C   UNL A   1      40.632  28.196  28.792  1.00  0.00     0.049 A 
ATOM     44  N   UNL A   1      42.251  27.973  31.329  1.00  0.00    -0.248 NA
ATOM     45  C   UNL A   1      43.602  26.405  30.248  1.00  0.00     0.031 C 
ATOM     46  C   UNL A   1      39.816  28.349  27.592  1.00  0.00     0.029 A 
ATOM     47  N   UNL A   1      40.111  29.112  29.675  1.00  0.00    -0.354 N 
ATOM     48  C   UNL A   1      43.266  27.570  32.188  1.00  0.00     0.074 A 
ATOM     49  C   UNL A   1      44.046  26.575  31.484  1.00  0.00     0.031 C 
ATOM     50  C   UNL A   1      38.880  29.287  27.819  1.00  0.00     0.029 A 
ATOM     51  C   UNL A   1      39.006  29.772  29.194  1.00  0.00     0.049 A 
ATOM     52  H   UNL A   1      40.493  29.280  30.566  1.00  0.00     0.167 HD
ATOM     53  C   UNL A   1      43.532  27.997  33.445  1.00  0.00     0.037 A 
ATOM     54  C   UNL A   1      38.174  30.639  29.807  1.00  0.00     0.037 A 
ATOM     55  C   UNL A   1      42.750  28.979  34.149  1.00  0.00     0.049 A 
ATOM     56  C   UNL A   1      38.434  31.028  31.242  1.00  0.00     0.074 A 
ATOM     57  C   UNL A   1      42.938  29.478  35.426  1.00  0.00     0.029 A 
ATOM     58  N   UNL A   1      41.623  29.605  33.637  1.00  0.00    -0.354 N 
ATOM     59  N   UNL A   1      39.406  30.657  32.043  1.00  0.00    -0.248 NA
ATOM     60  C   UNL A   1      37.481  31.962  31.860  1.00  0.00     0.031 C 
ATOM     61  C   UNL A   1      41.893  30.363  35.709  1.00  0.00     0.029 A 
ATOM     62  C   UNL A   1      41.091  30.468  34.583  1.00  0.00     0.049 A 
ATOM     63  H   UNL A   1      41.255  29.458  32.736  1.00  0.00     0.167 HD
ATOM     64  C   UNL A   1      39.200  31.337  33.238  1.00  0.00     0.074 A 
ATOM     65  C   UNL A   1      38.020  32.154  33.055  1.00  0.00     0.031 C 
ATOM     66  C   UNL A   1      39.925  31.289  34.384  1.00  0.00     0.037 A 
BRANCH  53  67
ATOM     67  C   UNL A   1      44.705  27.381  34.151  1.00  0.00     0.064 A 
ATOM     68  C   UNL A   1      44.579  26.204  34.905  1.00  0.00     0.173 A 
ATOM     69  C   UNL A   1      45.980  27.959  34.049  1.00  0.00     0.173 A 
ATOM     70  F   UNL A   1      43.380  25.620  35.047  1.00  0.00    -0.203 F 
ATOM     71  C   UNL A   1      45.677  25.645  35.552  1.00  0.00     0.198 A 
ATOM     72  C   UNL A   1      47.084  27.378  34.669  1.00  0.00     0.198 A 
ATOM     73  F   UNL A   1      46.160  29.083  33.339  1.00  0.00    -0.203 F 
ATOM     74  F   UNL A   1      45.521  24.550  36.308  1.00  0.00    -0.200 F 
ATOM     75  C   UNL A   1      46.930  26.227  35.426  1.00  0.00     0.200 A 
ATOM     76  F   UNL A   1      48.295  27.933  34.534  1.00  0.00    -0.200 F 
ATOM     77  F   UNL A   1      47.988  25.682  36.042  1.00  0.00    -0.200 F 
ENDBRANCH  53  67
BRANCH  54  78
ATOM     78  C   UNL A   1      36.995  31.186  29.083  1.00  0.00     0.064 A 
ATOM     79  C   UNL A   1      36.964  32.519  28.647  1.00  0.00     0.173 A 
ATOM     80  C   UNL A   1      35.852  30.402  28.853  1.00  0.00     0.173 A 
ATOM     81  F   UNL A   1      38.018  33.319  28.869  1.00  0.00    -0.203 F 
ATOM     82  C   UNL A   1      35.831  33.053  28.037  1.00  0.00     0.198 A 
ATOM     83  C   UNL A   1      34.734  30.928  28.211  1.00  0.00     0.198 A 
ATOM     84  F   UNL A   1      35.824  29.123  29.255  1.00  0.00    -0.203 F 
ATOM     85  F   UNL A   1      35.808  34.347  27.689  1.00  0.00    -0.200 F 
ATOM     86  C   UNL A   1      34.718  32.256  27.814  1.00  0.00     0.200 A 
ATOM     87  F   UNL A   1      33.665  30.151  27.989  1.00  0.00    -0.200 F 
ATOM     88  F   UNL A   1      33.629  32.771  27.230  1.00  0.00    -0.200 F 
ENDBRANCH  54  78
BRANCH  66  89
ATOM     89  C   UNL A   1      39.500  32.185  35.515  1.00  0.00     0.064 A 
ATOM     90  C   UNL A   1      38.604  31.758  36.507  1.00  0.00     0.173 A 
ATOM     91  C   UNL A   1      40.033  33.479  35.631  1.00  0.00     0.173 A 
ATOM     92  F   UNL A   1      38.054  30.535  36.439  1.00  0.00    -0.203 F 
ATOM     93  C   UNL A   1      38.235  32.601  37.552  1.00  0.00     0.198 A 
ATOM     94  C   UNL A   1      39.690  34.306  36.698  1.00  0.00     0.198 A 
ATOM     95  F   UNL A   1      40.902  33.937  34.717  1.00  0.00    -0.203 F 
ATOM     96  F   UNL A   1      37.335  32.190  38.457  1.00  0.00    -0.200 F 
ATOM     97  C   UNL A   1      38.785  33.871  37.651  1.00  0.00     0.200 A 
ATOM     98  F   UNL A   1      40.237  35.525  36.800  1.00  0.00    -0.200 F 
ATOM     99  F   UNL A   1      38.435  34.677  38.664  1.00  0.00    -0.200 F 
ENDBRANCH  66  89
ENDBRANCH  40  41
ENDBRANCH  33  35
ENDBRANCH  32  33
ENDBRANCH  31  32
ENDBRANCH  30  31
ENDBRANCH  29  30
ENDBRANCH  28  29
ENDBRANCH  27  28
ENDBRANCH  26  27
ENDBRANCH   1  26
TORSDOF 24
ENDMDL
MODEL 3
REMARK VINA RESULT:      -9.7      1.375      2.559
REMARK SMILES C[C@H](CCC[C@@H](C)[NH3+])C(=O)N[C@H]1C=C[C@@H](C(=O)OCCOCCOCCOC(=O)c2ccc(-c3c4nc(c(-c5c(F)c(F)c(F)c(F)c5F)c5ccc([nH]5)c(-c5c(F)c(F)c(F)c(F)c5F)c5nc(c(-c6c(F)c(F)c(F)c(F)c6F)c6ccc3[nH]6)C=C5)C=C4)cc2)C1
REMARK SMILES IDX 20 1 19 2 18 3 16 4 17 5 15 6 12 7 13 8 93 9 14 10 11 11
REMARK SMILES IDX 9 12 10 13 2 15 1 16 3 17 4 18 5 19 6 20 7 21 8 22 21 26
REMARK SMILES IDX 22 27 23 28 24 29 25 30 26 31 27 32 28 33 29 34 30 35 31 36
REMARK SMILES IDX 92 37 32 38 91 39 33 40 34 41 35 42 85 43 36 44 90 45 84 46
REMARK SMILES IDX 86 47 37 48 89 49 83 50 82 51 38 53 70 54 50 55 69 56 51 57
REMARK SMILES IDX 54 58 68 59 87 60 52 61 53 62 67 64 88 65 55 66 39 67 40 68
REMARK SMILES IDX 48 69 41 70 42 71 46 72 49 73 43 74 44 75 47 76 45 77 71 78
REMARK SMILES IDX 72 79 80 80 73 81 74 82 78 83 81 84 75 85 76 86 79 87 77 88
REMARK SMILES IDX 56 89 57 90 65 91 58 92 59 93 63 94 66 95 60 96 61 97 64 98
REMARK SMILES IDX 62 99
REMARK H PARENT 11 14 8 23 8 24 8 25 86 52 54 63
REMARK Flexibility Score: inf
ROOT
ATOM      1  C   UNL A   1      40.589  20.750  26.460  1.00  0.00     0.202 C 
ENDROOT
BRANCH   1   2
ATOM      2  C   UNL A   1      39.697  21.944  26.839  1.00  0.00     0.261 C 
BRANCH   2   3
ATOM      3  O   UNL A   1      38.599  22.185  25.938  1.00  0.00    -0.463 OA
BRANCH   3   4
ATOM      4  C   UNL A   1      38.076  23.437  25.940  1.00  0.00     0.312 C 
ATOM      5  O   UNL A   1      38.586  24.399  26.507  1.00  0.00    -0.252 OA
BRANCH   4   6
ATOM      6  C   UNL A   1      36.802  23.581  25.106  1.00  0.00     0.124 C 
ATOM      7  C   UNL A   1      34.666  22.510  24.596  1.00  0.00     0.106 C 
ATOM      8  C   UNL A   1      34.535  23.446  25.742  1.00  0.00    -0.006 C 
ATOM      9  C   UNL A   1      36.172  22.338  24.463  1.00  0.00     0.048 C 
ATOM     10  C   UNL A   1      35.692  24.069  25.994  1.00  0.00    -0.014 C 
BRANCH   7  11
ATOM     11  N   UNL A   1      33.984  21.271  24.872  1.00  0.00    -0.350 N 
ATOM     12  C   UNL A   1      32.721  20.882  24.532  1.00  0.00     0.223 C 
ATOM     13  O   UNL A   1      32.342  19.762  24.879  1.00  0.00    -0.275 OA
ATOM     14  H   UNL A   1      34.505  20.609  25.381  1.00  0.00     0.164 HD
BRANCH  12  15
ATOM     15  C   UNL A   1      31.811  21.797  23.705  1.00  0.00     0.075 C 
ATOM     16  C   UNL A   1      32.510  22.109  22.379  1.00  0.00     0.018 C 
BRANCH  15  17
ATOM     17  C   UNL A   1      31.256  22.957  24.567  1.00  0.00     0.013 C 
BRANCH  17  18
ATOM     18  C   UNL A   1      31.495  24.395  24.096  1.00  0.00     0.007 C 
BRANCH  18  19
ATOM     19  C   UNL A   1      30.276  25.103  23.499  1.00  0.00     0.064 C 
BRANCH  19  20
ATOM     20  C   UNL A   1      29.783  26.323  24.289  1.00  0.00     0.177 C 
ATOM     21  C   UNL A   1      30.335  26.345  25.713  1.00  0.00     0.075 C 
BRANCH  20  22
ATOM     22  N   UNL A   1      30.206  27.529  23.574  1.00  0.00    -0.355 N 
ATOM     23  H   UNL A   1      31.190  27.447  23.321  1.00  0.00     0.344 HD
ATOM     24  H   UNL A   1      30.075  28.343  24.174  1.00  0.00     0.344 HD
ATOM     25  H   UNL A   1      29.645  27.636  22.728  1.00  0.00     0.344 HD
ENDBRANCH  20  22
ENDBRANCH  19  20
ENDBRANCH  18  19
ENDBRANCH  17  18
ENDBRANCH  15  17
ENDBRANCH  12  15
ENDBRANCH   7  11
ENDBRANCH   4   6
ENDBRANCH   3   4
ENDBRANCH   2   3
ENDBRANCH   1   2
BRANCH   1  26
ATOM     26  O   UNL A   1      41.089  19.904  27.493  1.00  0.00    -0.376 OA
BRANCH  26  27
ATOM     27  C   UNL A   1      42.319  19.220  27.293  1.00  0.00     0.188 C 
BRANCH  27  28
ATOM     28  C   UNL A   1      42.778  18.895  25.862  1.00  0.00     0.188 C 
BRANCH  28  29
ATOM     29  O   UNL A   1      43.360  19.969  25.166  1.00  0.00    -0.376 OA
BRANCH  29  30
ATOM     30  C   UNL A   1      44.757  20.165  25.298  1.00  0.00     0.202 C 
BRANCH  30  31
ATOM     31  C   UNL A   1      45.306  21.589  25.513  1.00  0.00     0.261 C 
BRANCH  31  32
ATOM     32  O   UNL A   1      44.439  22.536  26.163  1.00  0.00    -0.460 OA
BRANCH  32  33
ATOM     33  C   UNL A   1      43.961  23.557  25.418  1.00  0.00     0.338 C 
ATOM     34  O   UNL A   1      43.877  23.603  24.199  1.00  0.00    -0.246 OA
BRANCH  33  35
ATOM     35  C   UNL A   1      43.325  24.533  26.334  1.00  0.00     0.060 A 
ATOM     36  C   UNL A   1      43.657  25.893  26.224  1.00  0.00     0.016 A 
ATOM     37  C   UNL A   1      42.399  24.113  27.290  1.00  0.00     0.016 A 
ATOM     38  C   UNL A   1      43.080  26.830  27.085  1.00  0.00     0.010 A 
ATOM     39  C   UNL A   1      41.843  25.050  28.169  1.00  0.00     0.010 A 
ATOM     40  C   UNL A   1      42.200  26.409  28.089  1.00  0.00    -0.014 A 
BRANCH  40  41
ATOM     41  C   UNL A   1      41.800  27.341  29.175  1.00  0.00     0.031 A 
ATOM     42  C   UNL A   1      42.580  27.315  30.461  1.00  0.00     0.074 A 
ATOM     43  C   UNL A   1      40.769  28.194  29.033  1.00  0.00     0.049 A 
ATOM     44  N   UNL A   1      42.364  27.952  31.583  1.00  0.00    -0.248 NA
ATOM     45  C   UNL A   1      43.767  26.444  30.481  1.00  0.00     0.031 C 
ATOM     46  C   UNL A   1      39.962  28.354  27.827  1.00  0.00     0.029 A 
ATOM     47  N   UNL A   1      40.214  29.074  29.931  1.00  0.00    -0.354 N 
ATOM     48  C   UNL A   1      43.379  27.554  32.444  1.00  0.00     0.074 A 
ATOM     49  C   UNL A   1      44.192  26.596  31.726  1.00  0.00     0.031 C 
ATOM     50  C   UNL A   1      39.000  29.262  28.065  1.00  0.00     0.029 A 
ATOM     51  C   UNL A   1      39.098  29.717  29.452  1.00  0.00     0.049 A 
ATOM     52  H   UNL A   1      40.582  29.231  30.830  1.00  0.00     0.167 HD
ATOM     53  C   UNL A   1      43.620  27.958  33.714  1.00  0.00     0.037 A 
ATOM     54  C   UNL A   1      38.237  30.548  30.075  1.00  0.00     0.037 A 
ATOM     55  C   UNL A   1      42.805  28.902  34.431  1.00  0.00     0.049 A 
ATOM     56  C   UNL A   1      38.471  30.909  31.523  1.00  0.00     0.074 A 
ATOM     57  C   UNL A   1      42.965  29.375  35.722  1.00  0.00     0.029 A 
ATOM     58  N   UNL A   1      41.668  29.511  33.921  1.00  0.00    -0.354 N 
ATOM     59  N   UNL A   1      39.443  30.544  32.326  1.00  0.00    -0.248 NA
ATOM     60  C   UNL A   1      37.486  31.803  32.151  1.00  0.00     0.031 C 
ATOM     61  C   UNL A   1      41.895  30.226  36.013  1.00  0.00     0.029 A 
ATOM     62  C   UNL A   1      41.104  30.337  34.881  1.00  0.00     0.049 A 
ATOM     63  H   UNL A   1      41.314  29.377  33.013  1.00  0.00     0.167 HD
ATOM     64  C   UNL A   1      39.206  31.190  33.534  1.00  0.00     0.074 A 
ATOM     65  C   UNL A   1      38.007  31.981  33.357  1.00  0.00     0.031 C 
ATOM     66  C   UNL A   1      39.919  31.134  34.687  1.00  0.00     0.037 A 
BRANCH  53  67
ATOM     67  C   UNL A   1      44.801  27.355  34.420  1.00  0.00     0.064 A 
ATOM     68  C   UNL A   1      44.695  26.160  35.147  1.00  0.00     0.173 A 
ATOM     69  C   UNL A   1      46.062  27.965  34.343  1.00  0.00     0.173 A 
ATOM     70  F   UNL A   1      43.509  25.544  35.265  1.00  0.00    -0.203 F 
ATOM     71  C   UNL A   1      45.800  25.614  35.794  1.00  0.00     0.198 A 
ATOM     72  C   UNL A   1      47.173  27.398  34.961  1.00  0.00     0.198 A 
ATOM     73  F   UNL A   1      46.222  29.108  33.658  1.00  0.00    -0.203 F 
ATOM     74  F   UNL A   1      45.663  24.500  36.526  1.00  0.00    -0.200 F 
ATOM     75  C   UNL A   1      47.039  26.229  35.694  1.00  0.00     0.200 A 
ATOM     76  F   UNL A   1      48.372  27.985  34.851  1.00  0.00    -0.200 F 
ATOM     77  F   UNL A   1      48.104  25.696  36.309  1.00  0.00    -0.200 F 
ENDBRANCH  53  67
BRANCH  54  78
ATOM     78  C   UNL A   1      37.052  31.082  29.351  1.00  0.00     0.064 A 
ATOM     79  C   UNL A   1      35.974  30.251  29.011  1.00  0.00     0.173 A 
ATOM     80  C   UNL A   1      36.992  32.423  28.940  1.00  0.00     0.173 A 
ATOM     81  F   UNL A   1      35.995  28.954  29.354  1.00  0.00    -0.203 F 
ATOM     82  C   UNL A   1      34.899  30.732  28.266  1.00  0.00     0.198 A 
ATOM     83  C   UNL A   1      35.900  32.911  28.226  1.00  0.00     0.198 A 
ATOM     84  F   UNL A   1      37.999  33.260  29.231  1.00  0.00    -0.203 F 
ATOM     85  F   UNL A   1      33.914  29.899  27.902  1.00  0.00    -0.200 F 
ATOM     86  C   UNL A   1      34.860  32.063  27.879  1.00  0.00     0.200 A 
ATOM     87  F   UNL A   1      35.862  34.200  27.863  1.00  0.00    -0.200 F 
ATOM     88  F   UNL A   1      33.827  32.525  27.162  1.00  0.00    -0.200 F 
ENDBRANCH  54  78
BRANCH  66  89
ATOM     89  C   UNL A   1      39.458  31.991  35.834  1.00  0.00     0.064 A 
ATOM     90  C   UNL A   1      39.988  33.269  36.068  1.00  0.00     0.173 A 
ATOM     91  C   UNL A   1      38.437  31.542  36.687  1.00  0.00     0.173 A 
ATOM     92  F   UNL A   1      40.975  33.743  35.292  1.00  0.00    -0.203 F 
ATOM     93  C   UNL A   1      39.537  34.050  37.129  1.00  0.00     0.198 A 
ATOM     94  C   UNL A   1      37.962  32.340  37.725  1.00  0.00     0.198 A 
ATOM     95  F   UNL A   1      37.886  30.332  36.504  1.00  0.00    -0.203 F 
ATOM     96  F   UNL A   1      40.097  35.244  37.366  1.00  0.00    -0.200 F 
ATOM     97  C   UNL A   1      38.518  33.588  37.951  1.00  0.00     0.200 A 
ATOM     98  F   UNL A   1      36.966  31.899  38.505  1.00  0.00    -0.200 F 
ATOM     99  F   UNL A   1      38.079  34.346  38.965  1.00  0.00    -0.200 F 
ENDBRANCH  66  89
ENDBRANCH  40  41
ENDBRANCH  33  35
ENDBRANCH  32  33
ENDBRANCH  31  32
ENDBRANCH  30  31
ENDBRANCH  29  30
ENDBRANCH  28  29
ENDBRANCH  27  28
ENDBRANCH  26  27
ENDBRANCH   1  26
TORSDOF 24
ENDMDL
