MODEL 1
REMARK VINA RESULT:     -12.3      0.000      0.000
REMARK SMILES O=C(OCCOCCOCCOC(=O)c1ccc(-c2c3nc(c(-c4c(F)c(F)c(F)c(F)c4F)c4ccc([nH]4)c(-c4c(F)c(F)c(F)c(F)c4F)c4nc(c(-c5c(F)c(F)c(F)c(F)c5F)c5ccc2[nH]5)C=C4)C=C3)cc1)C1=Cc2cc(S(F)(F)(F)(F)F)cc(Br)c2O[C@@H]1C(F)(F)F
REMARK SMILES IDX 8 1 7 2 6 3 5 4 4 5 3 6 2 7 1 8 78 9 79 10 94 11 80 12 93 13
REMARK SMILES IDX 81 14 92 15 82 16 90 17 89 18 91 19 95 20 96 21 97 22 98 23
REMARK SMILES IDX 83 24 84 25 85 26 86 27 87 28 88 29 9 30 10 31 11 32 12 33
REMARK SMILES IDX 13 34 14 35 15 36 16 37 77 38 17 39 76 40 18 41 19 42 20 43
REMARK SMILES IDX 70 44 21 45 75 46 69 47 71 48 22 49 74 50 68 51 67 52 23 54
REMARK SMILES IDX 55 55 35 56 54 57 36 58 39 59 53 60 72 61 37 62 38 63 52 65
REMARK SMILES IDX 73 66 40 67 24 68 25 69 33 70 26 71 27 72 31 73 34 74 28 75
REMARK SMILES IDX 29 76 32 77 30 78 56 79 57 80 65 81 58 82 59 83 63 84 66 85
REMARK SMILES IDX 60 86 61 87 64 88 62 89 41 90 42 91 50 92 43 93 44 94 48 95
REMARK SMILES IDX 51 96 45 97 46 98 49 99 47 100
REMARK H PARENT 71 53 39 64
REMARK Flexibility Score: inf
ROOT
ATOM      1  C   UNL A   1      31.585  29.058  25.304  1.00  0.00     0.188 C 
ENDROOT
BRANCH   1   2
ATOM      2  C   UNL A   1      33.016  28.714  25.683  1.00  0.00     0.188 C 
BRANCH   2   3
ATOM      3  O   UNL A   1      33.711  28.248  24.536  1.00  0.00    -0.376 OA
BRANCH   3   4
ATOM      4  C   UNL A   1      32.793  27.633  23.644  1.00  0.00     0.202 C 
BRANCH   4   5
ATOM      5  C   UNL A   1      33.500  26.537  22.864  1.00  0.00     0.261 C 
BRANCH   5   6
ATOM      6  O   UNL A   1      33.693  25.408  23.703  1.00  0.00    -0.460 OA
BRANCH   6   7
ATOM      7  C   UNL A   1      32.998  24.199  23.438  1.00  0.00     0.338 C 
ATOM      8  O   UNL A   1      33.367  23.451  22.480  1.00  0.00    -0.246 OA
BRANCH   7   9
ATOM      9  C   UNL A   1      31.811  23.800  24.300  1.00  0.00     0.087 C 
ATOM     10  C   UNL A   1      31.785  22.578  24.898  1.00  0.00     0.027 C 
ATOM     11  C   UNL A   1      30.653  24.767  24.494  1.00  0.00     0.316 C 
ATOM     12  C   UNL A   1      32.942  21.612  24.704  1.00  0.00     0.020 A 
ATOM     13  O   UNL A   1      34.421  23.463  24.897  1.00  0.00    -0.474 OA
ATOM     14  C   UNL A   1      32.681  20.274  24.457  1.00  0.00     0.036 A 
ATOM     15  C   UNL A   1      34.185  22.065  24.804  1.00  0.00     0.142 A 
ATOM     16  C   UNL A   1      33.807  19.432  24.619  1.00  0.00     0.109 A 
ATOM     17  C   UNL A   1      35.249  21.194  24.819  1.00  0.00     0.062 A 
ATOM     18  C   UNL A   1      35.059  19.852  24.639  1.00  0.00     0.044 A 
ATOM     19  Br  UNL A   1      37.061  21.885  25.100  1.00  0.00    -0.047 Br
BRANCH  11  20
ATOM     20  C   UNL A   1      30.502  25.084  25.972  1.00  0.00     0.430 C 
ATOM     21  F   UNL A   1      31.701  25.096  26.549  1.00  0.00    -0.167 F 
ATOM     22  F   UNL A   1      29.932  26.278  26.113  1.00  0.00    -0.167 F 
ATOM     23  F   UNL A   1      29.741  24.159  26.550  1.00  0.00    -0.167 F 
ENDBRANCH  11  20
BRANCH  16  24
ATOM     24  S   UNL A   1      33.511  17.657  24.809  1.00  0.00     0.310 S 
ATOM     25  F   UNL A   1      32.312  17.683  23.770  1.00  0.00    -0.094 F 
ATOM     26  F   UNL A   1      32.455  17.981  25.931  1.00  0.00    -0.094 F 
ATOM     27  F   UNL A   1      33.257  16.131  24.971  1.00  0.00    -0.094 F 
ATOM     28  F   UNL A   1      34.467  17.359  23.587  1.00  0.00    -0.094 F 
ATOM     29  F   UNL A   1      33.694  19.206  24.556  1.00  0.00    -0.094 F 
ENDBRANCH  16  24
ENDBRANCH   7   9
ENDBRANCH   6   7
ENDBRANCH   5   6
ENDBRANCH   4   5
ENDBRANCH   3   4
ENDBRANCH   2   3
ENDBRANCH   1   2
BRANCH   1  30
ATOM     30  O   UNL A   1      31.400  30.463  25.379  1.00  0.00    -0.376 OA
BRANCH  30  31
ATOM     31  C   UNL A   1      32.061  30.967  26.531  1.00  0.00     0.202 C 
BRANCH  31  32
ATOM     32  C   UNL A   1      31.442  32.297  26.930  1.00  0.00     0.261 C 
BRANCH  32  33
ATOM     33  O   UNL A   1      32.397  33.333  26.762  1.00  0.00    -0.460 OA
BRANCH  33  34
ATOM     34  C   UNL A   1      33.013  33.923  27.898  1.00  0.00     0.338 C 
ATOM     35  O   UNL A   1      32.542  34.997  28.389  1.00  0.00    -0.246 OA
BRANCH  34  36
ATOM     36  C   UNL A   1      34.232  33.271  28.527  1.00  0.00     0.060 A 
ATOM     37  C   UNL A   1      35.458  33.917  28.487  1.00  0.00     0.016 A 
ATOM     38  C   UNL A   1      34.087  32.108  29.151  1.00  0.00     0.016 A 
ATOM     39  C   UNL A   1      36.545  33.108  28.891  1.00  0.00     0.010 A 
ATOM     40  C   UNL A   1      35.181  31.436  29.642  1.00  0.00     0.010 A 
ATOM     41  C   UNL A   1      36.430  31.988  29.583  1.00  0.00    -0.014 A 
BRANCH  41  42
ATOM     42  C   UNL A   1      37.622  31.349  30.276  1.00  0.00     0.031 A 
ATOM     43  C   UNL A   1      38.356  30.404  29.559  1.00  0.00     0.074 A 
ATOM     44  C   UNL A   1      37.887  31.700  31.589  1.00  0.00     0.049 A 
ATOM     45  N   UNL A   1      39.423  29.717  29.972  1.00  0.00    -0.248 NA
ATOM     46  C   UNL A   1      38.056  30.005  28.175  1.00  0.00     0.031 C 
ATOM     47  C   UNL A   1      37.156  32.659  32.318  1.00  0.00     0.029 A 
ATOM     48  N   UNL A   1      38.872  31.206  32.415  1.00  0.00    -0.354 N 
ATOM     49  C   UNL A   1      39.864  28.920  28.996  1.00  0.00     0.074 A 
ATOM     50  C   UNL A   1      38.988  29.089  27.829  1.00  0.00     0.031 C 
ATOM     51  C   UNL A   1      37.685  32.734  33.567  1.00  0.00     0.029 A 
ATOM     52  C   UNL A   1      38.756  31.823  33.641  1.00  0.00     0.049 A 
ATOM     53  H   UNL A   1      39.543  30.528  32.170  1.00  0.00     0.167 HD
ATOM     54  C   UNL A   1      40.963  28.060  29.034  1.00  0.00     0.037 A 
ATOM     55  C   UNL A   1      39.530  31.615  34.771  1.00  0.00     0.037 A 
ATOM     56  C   UNL A   1      41.764  27.885  30.151  1.00  0.00     0.049 A 
ATOM     57  C   UNL A   1      40.594  30.712  34.827  1.00  0.00     0.074 A 
ATOM     58  C   UNL A   1      42.880  27.029  30.204  1.00  0.00     0.029 A 
ATOM     59  N   UNL A   1      41.633  28.484  31.385  1.00  0.00    -0.354 N 
ATOM     60  N   UNL A   1      41.059  29.945  33.841  1.00  0.00    -0.248 NA
ATOM     61  C   UNL A   1      41.400  30.460  36.029  1.00  0.00     0.031 C 
ATOM     62  C   UNL A   1      43.410  27.103  31.454  1.00  0.00     0.029 A 
ATOM     63  C   UNL A   1      42.633  28.006  32.204  1.00  0.00     0.049 A 
ATOM     64  H   UNL A   1      40.944  29.140  31.638  1.00  0.00     0.167 HD
ATOM     65  C   UNL A   1      42.100  29.228  34.266  1.00  0.00     0.074 A 
ATOM     66  C   UNL A   1      42.330  29.543  35.684  1.00  0.00     0.031 C 
ATOM     67  C   UNL A   1      42.870  28.325  33.531  1.00  0.00     0.037 A 
BRANCH  54  68
ATOM     68  C   UNL A   1      41.302  27.273  27.779  1.00  0.00     0.064 A 
ATOM     69  C   UNL A   1      40.787  26.002  27.583  1.00  0.00     0.173 A 
ATOM     70  C   UNL A   1      42.146  27.815  26.910  1.00  0.00     0.173 A 
ATOM     71  F   UNL A   1      39.760  25.521  28.278  1.00  0.00    -0.203 F 
ATOM     72  C   UNL A   1      41.454  25.262  26.578  1.00  0.00     0.198 A 
ATOM     73  C   UNL A   1      42.654  27.074  25.870  1.00  0.00     0.198 A 
ATOM     74  F   UNL A   1      42.504  29.090  27.045  1.00  0.00    -0.203 F 
ATOM     75  F   UNL A   1      41.282  23.944  26.562  1.00  0.00    -0.200 F 
ATOM     76  C   UNL A   1      42.234  25.791  25.652  1.00  0.00     0.200 A 
ATOM     77  F   UNL A   1      43.565  27.611  25.065  1.00  0.00    -0.200 F 
ATOM     78  F   UNL A   1      42.591  25.112  24.566  1.00  0.00    -0.200 F 
ENDBRANCH  54  68
BRANCH  55  79
ATOM     79  C   UNL A   1      39.201  32.415  36.021  1.00  0.00     0.064 A 
ATOM     80  C   UNL A   1      38.266  31.979  36.945  1.00  0.00     0.173 A 
ATOM     81  C   UNL A   1      39.874  33.547  36.203  1.00  0.00     0.173 A 
ATOM     82  F   UNL A   1      37.759  30.750  36.938  1.00  0.00    -0.203 F 
ATOM     83  C   UNL A   1      37.898  32.961  37.896  1.00  0.00     0.198 A 
ATOM     84  C   UNL A   1      39.550  34.394  37.235  1.00  0.00     0.198 A 
ATOM     85  F   UNL A   1      40.869  33.862  35.378  1.00  0.00    -0.203 F 
ATOM     86  F   UNL A   1      36.774  32.768  38.580  1.00  0.00    -0.200 F 
ATOM     87  C   UNL A   1      38.594  34.053  38.151  1.00  0.00     0.200 A 
ATOM     88  F   UNL A   1      40.176  35.563  37.344  1.00  0.00    -0.200 F 
ATOM     89  F   UNL A   1      38.376  34.784  39.241  1.00  0.00    -0.200 F 
ENDBRANCH  55  79
BRANCH  67  90
ATOM     90  C   UNL A   1      44.041  27.652  34.229  1.00  0.00     0.064 A 
ATOM     91  C   UNL A   1      43.848  26.455  34.899  1.00  0.00     0.173 A 
ATOM     92  C   UNL A   1      45.246  28.202  34.133  1.00  0.00     0.173 A 
ATOM     93  F   UNL A   1      42.727  25.744  34.807  1.00  0.00    -0.203 F 
ATOM     94  C   UNL A   1      44.952  26.056  35.689  1.00  0.00     0.198 A 
ATOM     95  C   UNL A   1      46.310  27.679  34.828  1.00  0.00     0.198 A 
ATOM     96  F   UNL A   1      45.424  29.268  33.359  1.00  0.00    -0.203 F 
ATOM     97  F   UNL A   1      44.742  25.141  36.630  1.00  0.00    -0.200 F 
ATOM     98  C   UNL A   1      46.178  26.531  35.558  1.00  0.00     0.200 A 
ATOM     99  F   UNL A   1      47.487  28.299  34.788  1.00  0.00    -0.200 F 
ATOM    100  F   UNL A   1      47.227  25.925  36.107  1.00  0.00    -0.200 F 
ENDBRANCH  67  90
ENDBRANCH  41  42
ENDBRANCH  34  36
ENDBRANCH  33  34
ENDBRANCH  32  33
ENDBRANCH  31  32
ENDBRANCH  30  31
ENDBRANCH   1  30
TORSDOF 19
ENDMDL
MODEL 2
REMARK VINA RESULT:     -12.3      0.555      6.911
REMARK SMILES O=C(OCCOCCOCCOC(=O)c1ccc(-c2c3nc(c(-c4c(F)c(F)c(F)c(F)c4F)c4ccc([nH]4)c(-c4c(F)c(F)c(F)c(F)c4F)c4nc(c(-c5c(F)c(F)c(F)c(F)c5F)c5ccc2[nH]5)C=C4)C=C3)cc1)C1=Cc2cc(S(F)(F)(F)(F)F)cc(Br)c2O[C@@H]1C(F)(F)F
REMARK SMILES IDX 8 1 7 2 6 3 5 4 4 5 3 6 2 7 1 8 78 9 79 10 94 11 80 12 93 13
REMARK SMILES IDX 81 14 92 15 82 16 90 17 89 18 91 19 95 20 96 21 97 22 98 23
REMARK SMILES IDX 83 24 84 25 85 26 86 27 87 28 88 29 9 30 10 31 11 32 12 33
REMARK SMILES IDX 13 34 14 35 15 36 16 37 77 38 17 39 76 40 18 41 19 42 20 43
REMARK SMILES IDX 70 44 21 45 75 46 69 47 71 48 22 49 74 50 68 51 67 52 23 54
REMARK SMILES IDX 55 55 35 56 54 57 36 58 39 59 53 60 72 61 37 62 38 63 52 65
REMARK SMILES IDX 73 66 40 67 24 68 25 69 33 70 26 71 27 72 31 73 34 74 28 75
REMARK SMILES IDX 29 76 32 77 30 78 56 79 57 80 65 81 58 82 59 83 63 84 66 85
REMARK SMILES IDX 60 86 61 87 64 88 62 89 41 90 42 91 50 92 43 93 44 94 48 95
REMARK SMILES IDX 51 96 45 97 46 98 49 99 47 100
REMARK H PARENT 71 53 39 64
REMARK Flexibility Score: inf
ROOT
ATOM      1  C   UNL A   1      31.680  29.111  25.055  1.00  0.00     0.188 C 
ENDROOT
BRANCH   1   2
ATOM      2  C   UNL A   1      32.967  29.114  24.246  1.00  0.00     0.188 C 
BRANCH   2   3
ATOM      3  O   UNL A   1      33.915  28.255  24.863  1.00  0.00    -0.376 OA
BRANCH   3   4
ATOM      4  C   UNL A   1      33.343  26.968  25.039  1.00  0.00     0.202 C 
BRANCH   4   5
ATOM      5  C   UNL A   1      33.661  26.102  23.830  1.00  0.00     0.261 C 
BRANCH   5   6
ATOM      6  O   UNL A   1      33.866  24.761  24.249  1.00  0.00    -0.460 OA
BRANCH   6   7
ATOM      7  C   UNL A   1      33.032  23.726  23.751  1.00  0.00     0.338 C 
ATOM      8  O   UNL A   1      33.315  23.155  22.652  1.00  0.00    -0.246 OA
BRANCH   7   9
ATOM      9  C   UNL A   1      31.799  23.302  24.532  1.00  0.00     0.087 C 
ATOM     10  C   UNL A   1      31.703  22.034  25.016  1.00  0.00     0.027 C 
ATOM     11  C   UNL A   1      30.672  24.294  24.772  1.00  0.00     0.316 C 
ATOM     12  C   UNL A   1      32.830  21.042  24.777  1.00  0.00     0.020 A 
ATOM     13  O   UNL A   1      34.369  22.806  25.186  1.00  0.00    -0.474 OA
ATOM     14  C   UNL A   1      32.529  19.742  24.401  1.00  0.00     0.036 A 
ATOM     15  C   UNL A   1      34.085  21.433  24.960  1.00  0.00     0.142 A 
ATOM     16  C   UNL A   1      33.615  18.844  24.526  1.00  0.00     0.109 A 
ATOM     17  C   UNL A   1      35.113  20.521  24.933  1.00  0.00     0.062 A 
ATOM     18  C   UNL A   1      34.880  19.209  24.627  1.00  0.00     0.044 A 
ATOM     19  Br  UNL A   1      36.938  21.109  25.337  1.00  0.00    -0.047 Br
BRANCH  11  20
ATOM     20  C   UNL A   1      30.476  24.485  26.267  1.00  0.00     0.430 C 
ATOM     21  F   UNL A   1      31.663  24.567  26.862  1.00  0.00    -0.167 F 
ATOM     22  F   UNL A   1      29.793  25.606  26.484  1.00  0.00    -0.167 F 
ATOM     23  F   UNL A   1      29.802  23.452  26.763  1.00  0.00    -0.167 F 
ENDBRANCH  11  20
BRANCH  16  24
ATOM     24  S   UNL A   1      33.244  17.073  24.544  1.00  0.00     0.310 S 
ATOM     25  F   UNL A   1      34.775  16.691  24.711  1.00  0.00    -0.094 F 
ATOM     26  F   UNL A   1      33.475  17.036  22.987  1.00  0.00    -0.094 F 
ATOM     27  F   UNL A   1      32.925  15.551  24.562  1.00  0.00    -0.094 F 
ATOM     28  F   UNL A   1      33.155  17.101  26.122  1.00  0.00    -0.094 F 
ATOM     29  F   UNL A   1      33.677  18.593  24.557  1.00  0.00    -0.094 F 
ENDBRANCH  16  24
ENDBRANCH   7   9
ENDBRANCH   6   7
ENDBRANCH   5   6
ENDBRANCH   4   5
ENDBRANCH   3   4
ENDBRANCH   2   3
ENDBRANCH   1   2
BRANCH   1  30
ATOM     30  O   UNL A   1      31.320  30.446  25.376  1.00  0.00    -0.376 OA
BRANCH  30  31
ATOM     31  C   UNL A   1      32.133  30.912  26.443  1.00  0.00     0.202 C 
BRANCH  31  32
ATOM     32  C   UNL A   1      31.648  32.283  26.889  1.00  0.00     0.261 C 
BRANCH  32  33
ATOM     33  O   UNL A   1      32.708  33.220  26.773  1.00  0.00    -0.460 OA
BRANCH  33  34
ATOM     34  C   UNL A   1      33.275  33.799  27.940  1.00  0.00     0.338 C 
ATOM     35  O   UNL A   1      32.791  34.875  28.414  1.00  0.00    -0.246 OA
BRANCH  34  36
ATOM     36  C   UNL A   1      34.459  33.134  28.621  1.00  0.00     0.060 A 
ATOM     37  C   UNL A   1      35.656  33.820  28.749  1.00  0.00     0.016 A 
ATOM     38  C   UNL A   1      34.306  31.916  29.127  1.00  0.00     0.016 A 
ATOM     39  C   UNL A   1      36.735  33.014  29.181  1.00  0.00     0.010 A 
ATOM     40  C   UNL A   1      35.377  31.239  29.658  1.00  0.00     0.010 A 
ATOM     41  C   UNL A   1      36.603  31.834  29.762  1.00  0.00    -0.014 A 
BRANCH  41  42
ATOM     42  C   UNL A   1      37.753  31.175  30.504  1.00  0.00     0.031 A 
ATOM     43  C   UNL A   1      37.975  31.560  31.828  1.00  0.00     0.074 A 
ATOM     44  C   UNL A   1      38.546  30.269  29.820  1.00  0.00     0.049 A 
ATOM     45  N   UNL A   1      38.927  31.123  32.654  1.00  0.00    -0.248 NA
ATOM     46  C   UNL A   1      37.155  32.548  32.546  1.00  0.00     0.031 C 
ATOM     47  C   UNL A   1      38.325  29.868  28.488  1.00  0.00     0.029 A 
ATOM     48  N   UNL A   1      39.662  29.605  30.279  1.00  0.00    -0.354 N 
ATOM     49  C   UNL A   1      38.806  31.710  33.847  1.00  0.00     0.074 A 
ATOM     50  C   UNL A   1      37.669  32.639  33.793  1.00  0.00     0.031 C 
ATOM     51  C   UNL A   1      39.299  28.985  28.145  1.00  0.00     0.029 A 
ATOM     52  C   UNL A   1      40.145  28.818  29.258  1.00  0.00     0.049 A 
ATOM     53  H   UNL A   1      40.047  29.681  31.182  1.00  0.00     0.167 HD
ATOM     54  C   UNL A   1      39.597  31.506  34.978  1.00  0.00     0.037 A 
ATOM     55  C   UNL A   1      41.260  27.996  29.275  1.00  0.00     0.037 A 
ATOM     56  C   UNL A   1      40.687  30.650  35.009  1.00  0.00     0.049 A 
ATOM     57  C   UNL A   1      42.088  27.836  30.389  1.00  0.00     0.074 A 
ATOM     58  C   UNL A   1      41.491  30.426  36.142  1.00  0.00     0.029 A 
ATOM     59  N   UNL A   1      41.185  29.882  33.980  1.00  0.00    -0.354 N 
ATOM     60  N   UNL A   1      41.944  28.391  31.593  1.00  0.00    -0.248 NA
ATOM     61  C   UNL A   1      43.291  26.993  30.409  1.00  0.00     0.031 C 
ATOM     62  C   UNL A   1      42.467  29.542  35.800  1.00  0.00     0.029 A 
ATOM     63  C   UNL A   1      42.289  29.201  34.446  1.00  0.00     0.049 A 
ATOM     64  H   UNL A   1      40.817  29.829  33.068  1.00  0.00     0.167 HD
ATOM     65  C   UNL A   1      42.920  27.986  32.407  1.00  0.00     0.074 A 
ATOM     66  C   UNL A   1      43.805  27.085  31.655  1.00  0.00     0.031 C 
ATOM     67  C   UNL A   1      43.107  28.327  33.748  1.00  0.00     0.037 A 
BRANCH  54  68
ATOM     68  C   UNL A   1      39.245  32.263  36.248  1.00  0.00     0.064 A 
ATOM     69  C   UNL A   1      38.253  31.796  37.094  1.00  0.00     0.173 A 
ATOM     70  C   UNL A   1      39.873  33.406  36.489  1.00  0.00     0.173 A 
ATOM     71  F   UNL A   1      37.777  30.555  37.040  1.00  0.00    -0.203 F 
ATOM     72  C   UNL A   1      37.790  32.760  38.022  1.00  0.00     0.198 A 
ATOM     73  C   UNL A   1      39.454  34.237  37.500  1.00  0.00     0.198 A 
ATOM     74  F   UNL A   1      40.921  33.752  35.745  1.00  0.00    -0.203 F 
ATOM     75  F   UNL A   1      36.623  32.536  38.618  1.00  0.00    -0.200 F 
ATOM     76  C   UNL A   1      38.439  33.866  38.338  1.00  0.00     0.200 A 
ATOM     77  F   UNL A   1      40.042  35.418  37.665  1.00  0.00    -0.200 F 
ATOM     78  F   UNL A   1      38.123  34.580  39.414  1.00  0.00    -0.200 F 
ENDBRANCH  54  68
BRANCH  55  79
ATOM     79  C   UNL A   1      41.603  27.226  28.010  1.00  0.00     0.064 A 
ATOM     80  C   UNL A   1      42.480  27.727  27.063  1.00  0.00     0.173 A 
ATOM     81  C   UNL A   1      41.040  26.031  27.865  1.00  0.00     0.173 A 
ATOM     82  F   UNL A   1      43.254  28.786  27.280  1.00  0.00    -0.203 F 
ATOM     83  C   UNL A   1      42.478  27.010  25.843  1.00  0.00     0.198 A 
ATOM     84  C   UNL A   1      41.192  25.326  26.695  1.00  0.00     0.198 A 
ATOM     85  F   UNL A   1      40.323  25.515  28.859  1.00  0.00    -0.203 F 
ATOM     86  F   UNL A   1      42.997  27.607  24.774  1.00  0.00    -0.200 F 
ATOM     87  C   UNL A   1      41.997  25.789  25.693  1.00  0.00     0.200 A 
ATOM     88  F   UNL A   1      40.546  24.173  26.537  1.00  0.00    -0.200 F 
ATOM     89  F   UNL A   1      42.281  25.051  24.624  1.00  0.00    -0.200 F 
ENDBRANCH  55  79
BRANCH  67  90
ATOM     90  C   UNL A   1      44.279  27.703  34.486  1.00  0.00     0.064 A 
ATOM     91  C   UNL A   1      44.137  26.461  35.083  1.00  0.00     0.173 A 
ATOM     92  C   UNL A   1      45.443  28.342  34.496  1.00  0.00     0.173 A 
ATOM     93  F   UNL A   1      43.080  25.678  34.884  1.00  0.00    -0.203 F 
ATOM     94  C   UNL A   1      45.217  26.101  35.923  1.00  0.00     0.198 A 
ATOM     95  C   UNL A   1      46.500  27.861  35.232  1.00  0.00     0.198 A 
ATOM     96  F   UNL A   1      45.588  29.459  33.788  1.00  0.00    -0.203 F 
ATOM     97  F   UNL A   1      45.019  25.124  36.803  1.00  0.00    -0.200 F 
ATOM     98  C   UNL A   1      46.410  26.669  35.895  1.00  0.00     0.200 A 
ATOM     99  F   UNL A   1      47.626  28.565  35.298  1.00  0.00    -0.200 F 
ATOM    100  F   UNL A   1      47.466  26.111  36.480  1.00  0.00    -0.200 F 
ENDBRANCH  67  90
ENDBRANCH  41  42
ENDBRANCH  34  36
ENDBRANCH  33  34
ENDBRANCH  32  33
ENDBRANCH  31  32
ENDBRANCH  30  31
ENDBRANCH   1  30
TORSDOF 19
ENDMDL
MODEL 3
REMARK VINA RESULT:     -12.3      1.222      2.424
REMARK SMILES O=C(OCCOCCOCCOC(=O)c1ccc(-c2c3nc(c(-c4c(F)c(F)c(F)c(F)c4F)c4ccc([nH]4)c(-c4c(F)c(F)c(F)c(F)c4F)c4nc(c(-c5c(F)c(F)c(F)c(F)c5F)c5ccc2[nH]5)C=C4)C=C3)cc1)C1=Cc2cc(S(F)(F)(F)(F)F)cc(Br)c2O[C@@H]1C(F)(F)F
REMARK SMILES IDX 8 1 7 2 6 3 5 4 4 5 3 6 2 7 1 8 78 9 79 10 94 11 80 12 93 13
REMARK SMILES IDX 81 14 92 15 82 16 90 17 89 18 91 19 95 20 96 21 97 22 98 23
REMARK SMILES IDX 83 24 84 25 85 26 86 27 87 28 88 29 9 30 10 31 11 32 12 33
REMARK SMILES IDX 13 34 14 35 15 36 16 37 77 38 17 39 76 40 18 41 19 42 20 43
REMARK SMILES IDX 70 44 21 45 75 46 69 47 71 48 22 49 74 50 68 51 67 52 23 54
REMARK SMILES IDX 55 55 35 56 54 57 36 58 39 59 53 60 72 61 37 62 38 63 52 65
REMARK SMILES IDX 73 66 40 67 24 68 25 69 33 70 26 71 27 72 31 73 34 74 28 75
REMARK SMILES IDX 29 76 32 77 30 78 56 79 57 80 65 81 58 82 59 83 63 84 66 85
REMARK SMILES IDX 60 86 61 87 64 88 62 89 41 90 42 91 50 92 43 93 44 94 48 95
REMARK SMILES IDX 51 96 45 97 46 98 49 99 47 100
REMARK H PARENT 71 53 39 64
REMARK Flexibility Score: inf
ROOT
ATOM      1  C   UNL A   1      30.383  27.738  23.189  1.00  0.00     0.188 C 
ENDROOT
BRANCH   1   2
ATOM      2  C   UNL A   1      31.750  27.679  22.527  1.00  0.00     0.188 C 
BRANCH   2   3
ATOM      3  O   UNL A   1      31.934  26.403  21.933  1.00  0.00    -0.376 OA
BRANCH   3   4
ATOM      4  C   UNL A   1      33.287  25.999  22.088  1.00  0.00     0.202 C 
BRANCH   4   5
ATOM      5  C   UNL A   1      33.645  25.982  23.564  1.00  0.00     0.261 C 
BRANCH   5   6
ATOM      6  O   UNL A   1      33.951  24.653  23.962  1.00  0.00    -0.460 OA
BRANCH   6   7
ATOM      7  C   UNL A   1      33.107  23.582  23.569  1.00  0.00     0.338 C 
ATOM      8  O   UNL A   1      33.374  22.914  22.522  1.00  0.00    -0.246 OA
BRANCH   7   9
ATOM      9  C   UNL A   1      31.883  23.235  24.400  1.00  0.00     0.087 C 
ATOM     10  C   UNL A   1      31.754  21.990  24.935  1.00  0.00     0.027 C 
ATOM     11  C   UNL A   1      30.801  24.278  24.635  1.00  0.00     0.316 C 
ATOM     12  C   UNL A   1      32.835  20.947  24.701  1.00  0.00     0.020 A 
ATOM     13  O   UNL A   1      34.451  22.664  24.999  1.00  0.00    -0.474 OA
ATOM     14  C   UNL A   1      32.474  19.647  24.384  1.00  0.00     0.036 A 
ATOM     15  C   UNL A   1      34.109  21.295  24.833  1.00  0.00     0.142 A 
ATOM     16  C   UNL A   1      33.529  18.713  24.511  1.00  0.00     0.109 A 
ATOM     17  C   UNL A   1      35.101  20.344  24.811  1.00  0.00     0.062 A 
ATOM     18  C   UNL A   1      34.809  19.032  24.562  1.00  0.00     0.044 A 
ATOM     19  Br  UNL A   1      36.958  20.876  25.141  1.00  0.00    -0.047 Br
BRANCH  11  20
ATOM     20  C   UNL A   1      30.658  24.531  26.126  1.00  0.00     0.430 C 
ATOM     21  F   UNL A   1      29.999  25.670  26.321  1.00  0.00    -0.167 F 
ATOM     22  F   UNL A   1      29.984  23.529  26.683  1.00  0.00    -0.167 F 
ATOM     23  F   UNL A   1      31.864  24.616  26.681  1.00  0.00    -0.167 F 
ENDBRANCH  11  20
BRANCH  16  24
ATOM     24  S   UNL A   1      33.093  16.959  24.608  1.00  0.00     0.310 S 
ATOM     25  F   UNL A   1      34.613  16.513  24.536  1.00  0.00    -0.094 F 
ATOM     26  F   UNL A   1      33.073  16.906  23.034  1.00  0.00    -0.094 F 
ATOM     27  F   UNL A   1      32.717  15.452  24.692  1.00  0.00    -0.094 F 
ATOM     28  F   UNL A   1      33.254  16.998  26.179  1.00  0.00    -0.094 F 
ATOM     29  F   UNL A   1      33.584  18.460  24.535  1.00  0.00    -0.094 F 
ENDBRANCH  16  24
ENDBRANCH   7   9
ENDBRANCH   6   7
ENDBRANCH   5   6
ENDBRANCH   4   5
ENDBRANCH   3   4
ENDBRANCH   2   3
ENDBRANCH   1   2
BRANCH   1  30
ATOM     30  O   UNL A   1      30.529  28.133  24.545  1.00  0.00    -0.376 OA
BRANCH  30  31
ATOM     31  C   UNL A   1      31.124  29.422  24.600  1.00  0.00     0.202 C 
BRANCH  31  32
ATOM     32  C   UNL A   1      31.730  29.642  25.977  1.00  0.00     0.261 C 
BRANCH  32  33
ATOM     33  O   UNL A   1      32.912  30.419  25.855  1.00  0.00    -0.460 OA
BRANCH  33  34
ATOM     34  C   UNL A   1      33.330  31.250  26.928  1.00  0.00     0.338 C 
ATOM     35  O   UNL A   1      32.632  32.261  27.257  1.00  0.00    -0.246 OA
BRANCH  34  36
ATOM     36  C   UNL A   1      34.609  30.932  27.683  1.00  0.00     0.060 A 
ATOM     37  C   UNL A   1      35.498  31.949  27.994  1.00  0.00     0.016 A 
ATOM     38  C   UNL A   1      34.828  29.683  28.076  1.00  0.00     0.016 A 
ATOM     39  C   UNL A   1      36.744  31.491  28.481  1.00  0.00     0.010 A 
ATOM     40  C   UNL A   1      36.017  29.334  28.670  1.00  0.00     0.010 A 
ATOM     41  C   UNL A   1      36.965  30.277  28.953  1.00  0.00    -0.014 A 
BRANCH  41  42
ATOM     42  C   UNL A   1      38.205  29.948  29.766  1.00  0.00     0.031 A 
ATOM     43  C   UNL A   1      39.131  29.066  29.206  1.00  0.00     0.074 A 
ATOM     44  C   UNL A   1      38.329  30.497  31.031  1.00  0.00     0.049 A 
ATOM     45  N   UNL A   1      40.273  28.634  29.744  1.00  0.00    -0.248 NA
ATOM     46  C   UNL A   1      38.985  28.454  27.876  1.00  0.00     0.031 C 
ATOM     47  C   UNL A   1      37.404  31.394  31.601  1.00  0.00     0.029 A 
ATOM     48  N   UNL A   1      39.334  30.289  31.950  1.00  0.00    -0.354 N 
ATOM     49  C   UNL A   1      40.900  27.814  28.897  1.00  0.00     0.074 A 
ATOM     50  C   UNL A   1      40.078  27.682  27.686  1.00  0.00     0.031 C 
ATOM     51  C   UNL A   1      37.839  31.713  32.848  1.00  0.00     0.029 A 
ATOM     52  C   UNL A   1      39.043  31.021  33.079  1.00  0.00     0.049 A 
ATOM     53  H   UNL A   1      40.124  29.715  31.820  1.00  0.00     0.167 HD
ATOM     54  C   UNL A   1      42.125  27.173  29.087  1.00  0.00     0.037 A 
ATOM     55  C   UNL A   1      39.773  31.093  34.254  1.00  0.00     0.037 A 
ATOM     56  C   UNL A   1      42.877  27.280  30.246  1.00  0.00     0.049 A 
ATOM     57  C   UNL A   1      40.970  30.405  34.467  1.00  0.00     0.074 A 
ATOM     58  C   UNL A   1      44.118  26.647  30.451  1.00  0.00     0.029 A 
ATOM     59  N   UNL A   1      42.574  27.992  31.385  1.00  0.00    -0.354 N 
ATOM     60  N   UNL A   1      41.616  29.618  33.607  1.00  0.00    -0.248 NA
ATOM     61  C   UNL A   1      41.735  30.448  35.720  1.00  0.00     0.031 C 
ATOM     62  C   UNL A   1      44.553  26.965  31.699  1.00  0.00     0.029 A 
ATOM     63  C   UNL A   1      43.590  27.801  32.295  1.00  0.00     0.049 A 
ATOM     64  H   UNL A   1      41.769  28.542  31.525  1.00  0.00     0.167 HD
ATOM     65  C   UNL A   1      42.737  29.152  34.160  1.00  0.00     0.074 A 
ATOM     66  C   UNL A   1      42.827  29.675  35.532  1.00  0.00     0.031 C 
ATOM     67  C   UNL A   1      43.692  28.317  33.578  1.00  0.00     0.037 A 
BRANCH  54  68
ATOM     68  C   UNL A   1      42.666  26.310  27.958  1.00  0.00     0.064 A 
ATOM     69  C   UNL A   1      43.426  26.871  26.945  1.00  0.00     0.173 A 
ATOM     70  C   UNL A   1      42.342  25.024  27.945  1.00  0.00     0.173 A 
ATOM     71  F   UNL A   1      43.984  28.075  27.037  1.00  0.00    -0.203 F 
ATOM     72  C   UNL A   1      43.555  26.046  25.802  1.00  0.00     0.198 A 
ATOM     73  C   UNL A   1      42.620  24.243  26.848  1.00  0.00     0.198 A 
ATOM     74  F   UNL A   1      41.743  24.483  29.003  1.00  0.00    -0.203 F 
ATOM     75  F   UNL A   1      43.944  26.618  24.666  1.00  0.00    -0.200 F 
ATOM     76  C   UNL A   1      43.316  24.747  25.785  1.00  0.00     0.200 A 
ATOM     77  F   UNL A   1      42.206  22.979  26.822  1.00  0.00    -0.200 F 
ATOM     78  F   UNL A   1      43.731  23.971  24.788  1.00  0.00    -0.200 F 
ENDBRANCH  54  68
BRANCH  55  79
ATOM     79  C   UNL A   1      39.240  31.969  35.377  1.00  0.00     0.064 A 
ATOM     80  C   UNL A   1      39.535  33.320  35.453  1.00  0.00     0.173 A 
ATOM     81  C   UNL A   1      38.455  31.383  36.274  1.00  0.00     0.173 A 
ATOM     82  F   UNL A   1      40.098  33.997  34.457  1.00  0.00    -0.203 F 
ATOM     83  C   UNL A   1      39.182  33.916  36.688  1.00  0.00     0.198 A 
ATOM     84  C   UNL A   1      38.037  32.068  37.390  1.00  0.00     0.198 A 
ATOM     85  F   UNL A   1      38.070  30.123  36.091  1.00  0.00    -0.203 F 
ATOM     86  F   UNL A   1      39.737  35.086  36.991  1.00  0.00    -0.200 F 
ATOM     87  C   UNL A   1      38.340  33.390  37.559  1.00  0.00     0.200 A 
ATOM     88  F   UNL A   1      37.326  31.434  38.319  1.00  0.00    -0.200 F 
ATOM     89  F   UNL A   1      37.816  34.109  38.548  1.00  0.00    -0.200 F 
ENDBRANCH  55  79
BRANCH  67  90
ATOM     90  C   UNL A   1      44.917  27.951  34.400  1.00  0.00     0.064 A 
ATOM     91  C   UNL A   1      46.025  28.781  34.394  1.00  0.00     0.173 A 
ATOM     92  C   UNL A   1      44.877  26.860  35.156  1.00  0.00     0.173 A 
ATOM     93  F   UNL A   1      46.017  29.999  33.859  1.00  0.00    -0.203 F 
ATOM     94  C   UNL A   1      47.167  28.216  35.009  1.00  0.00     0.198 A 
ATOM     95  C   UNL A   1      45.993  26.440  35.839  1.00  0.00     0.198 A 
ATOM     96  F   UNL A   1      43.746  26.168  35.255  1.00  0.00    -0.203 F 
ATOM     97  F   UNL A   1      48.350  28.764  34.743  1.00  0.00    -0.200 F 
ATOM     98  C   UNL A   1      47.142  27.181  35.830  1.00  0.00     0.200 A 
ATOM     99  F   UNL A   1      45.956  25.298  36.518  1.00  0.00    -0.200 F 
ATOM    100  F   UNL A   1      48.179  26.876  36.606  1.00  0.00    -0.200 F 
ENDBRANCH  67  90
ENDBRANCH  41  42
ENDBRANCH  34  36
ENDBRANCH  33  34
ENDBRANCH  32  33
ENDBRANCH  31  32
ENDBRANCH  30  31
ENDBRANCH   1  30
TORSDOF 19
ENDMDL
