MODEL 1
REMARK VINA RESULT:      -9.1      0.000      0.000
REMARK SMILES NS(=O)(=O)c1ccc(C#Cc2cc(Cl)cc3c2O[C@H](C(F)(F)F)C(C(=O)OCCOCCOCCOC(=O)c2ccc(-c4c5nc(c(-c6c(F)c(F)c(F)c(F)c6F)c6ccc([nH]6)c(-c6c(F)c(F)c(F)c(F)c6F)c6nc(c(-c7c(F)c(F)c(F)c(F)c7F)c7ccc4[nH]7)C=C6)C=C5)cc2)=C3)cc1
REMARK SMILES IDX 31 1 30 2 29 3 28 4 27 5 25 6 26 7 24 8 11 9 12 10 17 11
REMARK SMILES IDX 13 12 16 13 18 14 14 15 15 16 102 17 19 18 10 19 9 20 8 21
REMARK SMILES IDX 5 22 6 23 104 24 7 25 103 26 2 27 3 28 4 29 1 30 20 33 21 34
REMARK SMILES IDX 22 35 23 36 32 37 33 38 34 39 35 40 36 41 37 42 38 43 39 44
REMARK SMILES IDX 40 45 101 46 41 47 100 48 42 49 43 50 44 51 94 52 45 53
REMARK SMILES IDX 99 54 93 55 95 56 46 57 98 58 92 59 91 60 47 62 79 63 59 64
REMARK SMILES IDX 78 65 60 66 63 67 77 68 96 69 61 70 62 71 76 73 97 74 64 75
REMARK SMILES IDX 48 76 49 77 57 78 50 79 51 80 55 81 58 82 52 83 53 84 56 85
REMARK SMILES IDX 54 86 80 87 81 88 89 89 82 90 83 91 87 92 90 93 84 94 85 95
REMARK SMILES IDX 88 96 86 97 65 98 66 99 74 100 67 101 68 102 72 103 75 104
REMARK SMILES IDX 69 105 70 106 73 107 71 108
REMARK H PARENT 1 31 1 32 95 61 63 72
REMARK Flexibility Score: inf
ROOT
ATOM      1  C   UNL A   1      45.268  20.342  24.368  1.00  0.00     0.188 C 
ENDROOT
BRANCH   1   2
ATOM      2  O   UNL A   1      43.872  20.244  24.535  1.00  0.00    -0.376 OA
BRANCH   2   3
ATOM      3  C   UNL A   1      43.314  19.425  25.549  1.00  0.00     0.202 C 
BRANCH   3   4
ATOM      4  C   UNL A   1      41.921  19.625  26.178  1.00  0.00     0.261 C 
BRANCH   4   5
ATOM      5  O   UNL A   1      41.870  20.162  27.505  1.00  0.00    -0.460 OA
BRANCH   5   6
ATOM      6  C   UNL A   1      41.518  21.467  27.595  1.00  0.00     0.338 C 
ATOM      7  O   UNL A   1      40.404  21.936  27.427  1.00  0.00    -0.246 OA
BRANCH   6   8
ATOM      8  C   UNL A   1      42.658  22.254  28.118  1.00  0.00     0.087 C 
ATOM      9  C   UNL A   1      45.659  24.758  29.614  1.00  0.00     0.069 A 
ATOM     10  C   UNL A   1      45.620  25.139  30.959  1.00  0.00     0.041 A 
ATOM     11  C   UNL A   1      44.713  23.845  29.114  1.00  0.00     0.143 A 
ATOM     12  C   UNL A   1      44.665  24.586  31.808  1.00  0.00     0.043 A 
ATOM     13  C   UNL A   1      43.732  23.325  29.968  1.00  0.00     0.020 A 
ATOM     14  O   UNL A   1      44.796  23.497  27.792  1.00  0.00    -0.474 OA
ATOM     15  Cl  UNL A   1      44.618  25.054  33.463  1.00  0.00    -0.084 Cl
ATOM     16  C   UNL A   1      43.728  23.676  31.323  1.00  0.00     0.032 A 
ATOM     17  C   UNL A   1      42.676  22.480  29.437  1.00  0.00     0.027 C 
ATOM     18  C   UNL A   1      43.715  22.747  27.172  1.00  0.00     0.316 C 
BRANCH   9  19
ATOM     19  C   UNL A   1      46.652  25.353  28.765  1.00  0.00    -0.058 C 
ATOM     20  C   UNL A   1      47.498  25.831  28.061  1.00  0.00    -0.062 C 
BRANCH  20  21
ATOM     21  C   UNL A   1      48.550  26.392  27.266  1.00  0.00     0.025 A 
ATOM     22  C   UNL A   1      50.658  27.519  25.824  1.00  0.00     0.082 A 
ATOM     23  C   UNL A   1      49.738  28.347  26.474  1.00  0.00     0.023 A 
ATOM     24  C   UNL A   1      50.517  26.128  25.871  1.00  0.00     0.023 A 
ATOM     25  C   UNL A   1      48.683  27.781  27.194  1.00  0.00     0.018 A 
ATOM     26  C   UNL A   1      49.460  25.567  26.596  1.00  0.00     0.018 A 
BRANCH  22  27
ATOM     27  S   UNL A   1      52.033  28.293  25.027  1.00  0.00     0.238 S 
ATOM     28  O   UNL A   1      52.184  27.705  23.717  1.00  0.00    -0.207 OA
ATOM     29  O   UNL A   1      53.118  28.383  25.975  1.00  0.00    -0.207 OA
BRANCH  27  30
ATOM     30  N   UNL A   1      51.543  29.876  24.743  1.00  0.00    -0.225 NA
ATOM     31  H   UNL A   1      50.571  29.880  24.433  1.00  0.00     0.137 HD
ATOM     32  H   UNL A   1      52.132  30.290  24.020  1.00  0.00     0.137 HD
ENDBRANCH  27  30
ENDBRANCH  22  27
ENDBRANCH  20  21
ENDBRANCH   9  19
BRANCH  18  33
ATOM     33  C   UNL A   1      43.114  23.594  26.043  1.00  0.00     0.430 C 
ATOM     34  F   UNL A   1      44.048  24.381  25.460  1.00  0.00    -0.167 F 
ATOM     35  F   UNL A   1      42.589  22.819  25.065  1.00  0.00    -0.167 F 
ATOM     36  F   UNL A   1      42.125  24.398  26.496  1.00  0.00    -0.167 F 
ENDBRANCH  18  33
ENDBRANCH   6   8
ENDBRANCH   5   6
ENDBRANCH   4   5
ENDBRANCH   3   4
ENDBRANCH   2   3
ENDBRANCH   1   2
BRANCH   1  37
ATOM     37  C   UNL A   1      46.010  21.574  24.926  1.00  0.00     0.188 C 
BRANCH  37  38
ATOM     38  O   UNL A   1      46.077  22.729  24.126  1.00  0.00    -0.376 OA
BRANCH  38  39
ATOM     39  C   UNL A   1      47.198  23.594  24.228  1.00  0.00     0.202 C 
BRANCH  39  40
ATOM     40  C   UNL A   1      47.168  25.136  24.109  1.00  0.00     0.261 C 
BRANCH  40  41
ATOM     41  O   UNL A   1      46.043  25.844  24.641  1.00  0.00    -0.460 OA
BRANCH  41  42
ATOM     42  C   UNL A   1      46.157  27.197  24.698  1.00  0.00     0.338 C 
ATOM     43  O   UNL A   1      46.692  27.927  23.882  1.00  0.00    -0.246 OA
BRANCH  42  44
ATOM     44  C   UNL A   1      45.320  27.688  25.814  1.00  0.00     0.060 A 
ATOM     45  C   UNL A   1      44.411  26.837  26.438  1.00  0.00     0.016 A 
ATOM     46  C   UNL A   1      45.434  29.027  26.222  1.00  0.00     0.016 A 
ATOM     47  C   UNL A   1      43.627  27.325  27.489  1.00  0.00     0.010 A 
ATOM     48  C   UNL A   1      44.635  29.518  27.259  1.00  0.00     0.010 A 
ATOM     49  C   UNL A   1      43.743  28.662  27.920  1.00  0.00    -0.014 A 
BRANCH  49  50
ATOM     50  C   UNL A   1      43.060  29.094  29.168  1.00  0.00     0.031 A 
ATOM     51  C   UNL A   1      43.759  29.145  30.492  1.00  0.00     0.074 A 
ATOM     52  C   UNL A   1      41.766  29.455  29.081  1.00  0.00     0.049 A 
ATOM     53  N   UNL A   1      43.315  29.603  31.637  1.00  0.00    -0.248 NA
ATOM     54  C   UNL A   1      45.126  28.609  30.548  1.00  0.00     0.031 C 
ATOM     55  C   UNL A   1      40.968  29.407  27.855  1.00  0.00     0.029 A 
ATOM     56  N   UNL A   1      40.900  29.952  30.024  1.00  0.00    -0.354 N 
ATOM     57  C   UNL A   1      44.354  29.441  32.544  1.00  0.00     0.074 A 
ATOM     58  C   UNL A   1      45.430  28.783  31.828  1.00  0.00     0.031 C 
ATOM     59  C   UNL A   1      39.748  29.902  28.107  1.00  0.00     0.029 A 
ATOM     60  C   UNL A   1      39.663  30.267  29.518  1.00  0.00     0.049 A 
ATOM     61  H   UNL A   1      41.144  30.069  30.971  1.00  0.00     0.167 HD
ATOM     62  C   UNL A   1      44.409  29.832  33.842  1.00  0.00     0.037 A 
ATOM     63  C   UNL A   1      38.581  30.800  30.117  1.00  0.00     0.037 A 
ATOM     64  C   UNL A   1      43.325  30.470  34.550  1.00  0.00     0.049 A 
ATOM     65  C   UNL A   1      38.652  31.170  31.573  1.00  0.00     0.074 A 
ATOM     66  C   UNL A   1      43.302  30.929  35.856  1.00  0.00     0.029 A 
ATOM     67  N   UNL A   1      42.067  30.726  34.020  1.00  0.00    -0.354 N 
ATOM     68  N   UNL A   1      39.667  31.093  32.397  1.00  0.00    -0.248 NA
ATOM     69  C   UNL A   1      37.426  31.707  32.180  1.00  0.00     0.031 C 
ATOM     70  C   UNL A   1      42.017  31.400  36.137  1.00  0.00     0.029 A 
ATOM     71  C   UNL A   1      41.254  31.304  34.986  1.00  0.00     0.049 A 
ATOM     72  H   UNL A   1      41.793  30.529  33.095  1.00  0.00     0.167 HD
ATOM     73  C   UNL A   1      39.213  31.591  33.611  1.00  0.00     0.074 A 
ATOM     74  C   UNL A   1      37.836  31.990  33.409  1.00  0.00     0.031 C 
ATOM     75  C   UNL A   1      39.881  31.702  34.784  1.00  0.00     0.037 A 
BRANCH  62  76
ATOM     76  C   UNL A   1      45.691  29.601  34.594  1.00  0.00     0.064 A 
ATOM     77  C   UNL A   1      46.744  30.526  34.540  1.00  0.00     0.173 A 
ATOM     78  C   UNL A   1      45.835  28.498  35.451  1.00  0.00     0.173 A 
ATOM     79  F   UNL A   1      46.659  31.600  33.741  1.00  0.00    -0.203 F 
ATOM     80  C   UNL A   1      47.900  30.347  35.298  1.00  0.00     0.198 A 
ATOM     81  C   UNL A   1      46.977  28.339  36.233  1.00  0.00     0.198 A 
ATOM     82  F   UNL A   1      44.853  27.590  35.556  1.00  0.00    -0.203 F 
ATOM     83  F   UNL A   1      48.905  31.227  35.202  1.00  0.00    -0.200 F 
ATOM     84  C   UNL A   1      48.011  29.259  36.151  1.00  0.00     0.200 A 
ATOM     85  F   UNL A   1      47.072  27.299  37.074  1.00  0.00    -0.200 F 
ATOM     86  F   UNL A   1      49.114  29.098  36.894  1.00  0.00    -0.200 F 
ENDBRANCH  62  76
BRANCH  63  87
ATOM     87  C   UNL A   1      37.354  31.055  29.317  1.00  0.00     0.064 A 
ATOM     88  C   UNL A   1      36.454  30.020  29.029  1.00  0.00     0.173 A 
ATOM     89  C   UNL A   1      37.041  32.342  28.852  1.00  0.00     0.173 A 
ATOM     90  F   UNL A   1      36.719  28.770  29.436  1.00  0.00    -0.203 F 
ATOM     91  C   UNL A   1      35.291  30.261  28.301  1.00  0.00     0.198 A 
ATOM     92  C   UNL A   1      35.860  32.587  28.154  1.00  0.00     0.198 A 
ATOM     93  F   UNL A   1      37.867  33.367  29.106  1.00  0.00    -0.203 F 
ATOM     94  F   UNL A   1      34.465  29.247  28.008  1.00  0.00    -0.200 F 
ATOM     95  C   UNL A   1      34.990  31.546  27.873  1.00  0.00     0.200 A 
ATOM     96  F   UNL A   1      35.565  33.833  27.761  1.00  0.00    -0.200 F 
ATOM     97  F   UNL A   1      33.862  31.779  27.189  1.00  0.00    -0.200 F 
ENDBRANCH  63  87
BRANCH  75  98
ATOM     98  C   UNL A   1      39.147  32.290  35.958  1.00  0.00     0.064 A 
ATOM     99  C   UNL A   1      38.344  31.499  36.793  1.00  0.00     0.173 A 
ATOM    100  C   UNL A   1      39.311  33.642  36.299  1.00  0.00     0.173 A 
ATOM    101  F   UNL A   1      38.140  30.204  36.507  1.00  0.00    -0.203 F 
ATOM    102  C   UNL A   1      37.723  32.042  37.916  1.00  0.00     0.198 A 
ATOM    103  C   UNL A   1      38.718  34.173  37.442  1.00  0.00     0.198 A 
ATOM    104  F   UNL A   1      40.072  34.444  35.539  1.00  0.00    -0.203 F 
ATOM    105  F   UNL A   1      36.930  31.275  38.678  1.00  0.00    -0.200 F 
ATOM    106  C   UNL A   1      37.921  33.374  38.247  1.00  0.00     0.200 A 
ATOM    107  F   UNL A   1      38.928  35.456  37.769  1.00  0.00    -0.200 F 
ATOM    108  F   UNL A   1      37.344  33.888  39.341  1.00  0.00    -0.200 F 
ENDBRANCH  75  98
ENDBRANCH  49  50
ENDBRANCH  42  44
ENDBRANCH  41  42
ENDBRANCH  40  41
ENDBRANCH  39  40
ENDBRANCH  38  39
ENDBRANCH  37  38
ENDBRANCH   1  37
TORSDOF 22
ENDMDL
MODEL 2
REMARK VINA RESULT:      -9.0      4.981      8.506
REMARK SMILES NS(=O)(=O)c1ccc(C#Cc2cc(Cl)cc3c2O[C@H](C(F)(F)F)C(C(=O)OCCOCCOCCOC(=O)c2ccc(-c4c5nc(c(-c6c(F)c(F)c(F)c(F)c6F)c6ccc([nH]6)c(-c6c(F)c(F)c(F)c(F)c6F)c6nc(c(-c7c(F)c(F)c(F)c(F)c7F)c7ccc4[nH]7)C=C6)C=C5)cc2)=C3)cc1
REMARK SMILES IDX 31 1 30 2 29 3 28 4 27 5 25 6 26 7 24 8 11 9 12 10 17 11
REMARK SMILES IDX 13 12 16 13 18 14 14 15 15 16 102 17 19 18 10 19 9 20 8 21
REMARK SMILES IDX 5 22 6 23 104 24 7 25 103 26 2 27 3 28 4 29 1 30 20 33 21 34
REMARK SMILES IDX 22 35 23 36 32 37 33 38 34 39 35 40 36 41 37 42 38 43 39 44
REMARK SMILES IDX 40 45 101 46 41 47 100 48 42 49 43 50 44 51 94 52 45 53
REMARK SMILES IDX 99 54 93 55 95 56 46 57 98 58 92 59 91 60 47 62 79 63 59 64
REMARK SMILES IDX 78 65 60 66 63 67 77 68 96 69 61 70 62 71 76 73 97 74 64 75
REMARK SMILES IDX 48 76 49 77 57 78 50 79 51 80 55 81 58 82 52 83 53 84 56 85
REMARK SMILES IDX 54 86 80 87 81 88 89 89 82 90 83 91 87 92 90 93 84 94 85 95
REMARK SMILES IDX 88 96 86 97 65 98 66 99 74 100 67 101 68 102 72 103 75 104
REMARK SMILES IDX 69 105 70 106 73 107 71 108
REMARK H PARENT 1 31 1 32 95 61 63 72
REMARK Flexibility Score: inf
ROOT
ATOM      1  C   UNL A   1      42.998  22.997  26.676  1.00  0.00     0.188 C 
ENDROOT
BRANCH   1   2
ATOM      2  O   UNL A   1      42.892  24.394  26.528  1.00  0.00    -0.376 OA
BRANCH   2   3
ATOM      3  C   UNL A   1      42.336  25.197  27.556  1.00  0.00     0.202 C 
BRANCH   3   4
ATOM      4  C   UNL A   1      41.271  26.290  27.344  1.00  0.00     0.261 C 
BRANCH   4   5
ATOM      5  O   UNL A   1      40.947  27.119  28.467  1.00  0.00    -0.460 OA
BRANCH   5   6
ATOM      6  C   UNL A   1      41.122  28.450  28.283  1.00  0.00     0.338 C 
ATOM      7  O   UNL A   1      41.495  29.002  27.260  1.00  0.00    -0.246 OA
BRANCH   6   8
ATOM      8  C   UNL A   1      40.615  29.185  29.462  1.00  0.00     0.087 C 
ATOM      9  C   UNL A   1      38.976  30.980  32.869  1.00  0.00     0.069 A 
ATOM     10  C   UNL A   1      39.368  30.526  34.133  1.00  0.00     0.041 A 
ATOM     11  C   UNL A   1      39.582  30.454  31.715  1.00  0.00     0.143 A 
ATOM     12  C   UNL A   1      40.381  29.579  34.245  1.00  0.00     0.043 A 
ATOM     13  C   UNL A   1      40.574  29.472  31.838  1.00  0.00     0.020 A 
ATOM     14  O   UNL A   1      39.170  30.935  30.500  1.00  0.00    -0.474 OA
ATOM     15  Cl  UNL A   1      40.864  29.022  35.800  1.00  0.00    -0.084 Cl
ATOM     16  C   UNL A   1      40.992  29.056  33.107  1.00  0.00     0.032 A 
ATOM     17  C   UNL A   1      41.118  28.832  30.652  1.00  0.00     0.027 C 
ATOM     18  C   UNL A   1      39.589  30.267  29.278  1.00  0.00     0.316 C 
BRANCH   9  19
ATOM     19  C   UNL A   1      37.922  31.952  32.790  1.00  0.00    -0.058 C 
ATOM     20  C   UNL A   1      37.037  32.757  32.698  1.00  0.00    -0.062 C 
BRANCH  20  21
ATOM     21  C   UNL A   1      36.006  33.738  32.535  1.00  0.00     0.025 A 
ATOM     22  C   UNL A   1      34.085  35.733  32.190  1.00  0.00     0.082 A 
ATOM     23  C   UNL A   1      34.907  35.747  33.321  1.00  0.00     0.023 A 
ATOM     24  C   UNL A   1      34.201  34.714  31.240  1.00  0.00     0.023 A 
ATOM     25  C   UNL A   1      35.866  34.746  33.492  1.00  0.00     0.018 A 
ATOM     26  C   UNL A   1      35.166  33.715  31.416  1.00  0.00     0.018 A 
BRANCH  22  27
ATOM     27  S   UNL A   1      32.970  37.089  31.975  1.00  0.00     0.238 S 
ATOM     28  O   UNL A   1      31.884  36.932  32.914  1.00  0.00    -0.207 OA
ATOM     29  O   UNL A   1      32.761  37.287  30.560  1.00  0.00    -0.207 OA
BRANCH  27  30
ATOM     30  N   UNL A   1      33.815  38.442  32.505  1.00  0.00    -0.225 NA
ATOM     31  H   UNL A   1      33.211  39.010  33.098  1.00  0.00     0.137 HD
ATOM     32  H   UNL A   1      34.116  38.993  31.700  1.00  0.00     0.137 HD
ENDBRANCH  27  30
ENDBRANCH  22  27
ENDBRANCH  20  21
ENDBRANCH   9  19
BRANCH  18  33
ATOM     33  C   UNL A   1      38.343  29.747  28.549  1.00  0.00     0.430 C 
ATOM     34  F   UNL A   1      37.313  30.620  28.640  1.00  0.00    -0.167 F 
ATOM     35  F   UNL A   1      38.581  29.558  27.230  1.00  0.00    -0.167 F 
ATOM     36  F   UNL A   1      37.926  28.566  29.058  1.00  0.00    -0.167 F 
ENDBRANCH  18  33
ENDBRANCH   6   8
ENDBRANCH   5   6
ENDBRANCH   4   5
ENDBRANCH   3   4
ENDBRANCH   2   3
ENDBRANCH   1   2
BRANCH   1  37
ATOM     37  C   UNL A   1      44.091  22.236  25.897  1.00  0.00     0.188 C 
BRANCH  37  38
ATOM     38  O   UNL A   1      45.389  22.199  26.436  1.00  0.00    -0.376 OA
BRANCH  38  39
ATOM     39  C   UNL A   1      46.248  23.319  26.288  1.00  0.00     0.202 C 
BRANCH  39  40
ATOM     40  C   UNL A   1      46.774  23.888  24.949  1.00  0.00     0.261 C 
BRANCH  40  41
ATOM     41  O   UNL A   1      46.199  25.099  24.444  1.00  0.00    -0.460 OA
BRANCH  41  42
ATOM     42  C   UNL A   1      46.992  26.202  24.485  1.00  0.00     0.338 C 
ATOM     43  O   UNL A   1      47.847  26.526  23.680  1.00  0.00    -0.246 OA
BRANCH  42  44
ATOM     44  C   UNL A   1      46.498  27.090  25.559  1.00  0.00     0.060 A 
ATOM     45  C   UNL A   1      45.130  27.233  25.780  1.00  0.00     0.016 A 
ATOM     46  C   UNL A   1      47.420  27.807  26.339  1.00  0.00     0.016 A 
ATOM     47  C   UNL A   1      44.686  28.082  26.799  1.00  0.00     0.010 A 
ATOM     48  C   UNL A   1      46.975  28.670  27.344  1.00  0.00     0.010 A 
ATOM     49  C   UNL A   1      45.602  28.794  27.600  1.00  0.00    -0.014 A 
BRANCH  49  50
ATOM     50  C   UNL A   1      45.117  29.517  28.805  1.00  0.00     0.031 A 
ATOM     51  C   UNL A   1      44.981  28.853  30.142  1.00  0.00     0.074 A 
ATOM     52  C   UNL A   1      44.800  30.819  28.671  1.00  0.00     0.049 A 
ATOM     53  N   UNL A   1      44.674  29.390  31.297  1.00  0.00    -0.248 NA
ATOM     54  C   UNL A   1      45.209  27.403  30.195  1.00  0.00     0.031 C 
ATOM     55  C   UNL A   1      44.852  31.562  27.412  1.00  0.00     0.029 A 
ATOM     56  N   UNL A   1      44.397  31.751  29.593  1.00  0.00    -0.354 N 
ATOM     57  C   UNL A   1      44.701  28.354  32.221  1.00  0.00     0.074 A 
ATOM     58  C   UNL A   1      44.993  27.144  31.479  1.00  0.00     0.031 C 
ATOM     59  C   UNL A   1      44.544  32.845  27.647  1.00  0.00     0.029 A 
ATOM     60  C   UNL A   1      44.235  33.009  29.066  1.00  0.00     0.049 A 
ATOM     61  H   UNL A   1      44.237  31.538  30.541  1.00  0.00     0.167 HD
ATOM     62  C   UNL A   1      44.525  28.418  33.565  1.00  0.00     0.037 A 
ATOM     63  C   UNL A   1      43.888  34.169  29.654  1.00  0.00     0.037 A 
ATOM     64  C   UNL A   1      44.217  29.626  34.293  1.00  0.00     0.049 A 
ATOM     65  C   UNL A   1      43.642  34.198  31.137  1.00  0.00     0.074 A 
ATOM     66  C   UNL A   1      44.053  29.791  35.658  1.00  0.00     0.029 A 
ATOM     67  N   UNL A   1      44.009  30.873  33.718  1.00  0.00    -0.354 N 
ATOM     68  N   UNL A   1      43.756  33.231  32.013  1.00  0.00    -0.248 NA
ATOM     69  C   UNL A   1      43.225  35.484  31.715  1.00  0.00     0.031 C 
ATOM     70  C   UNL A   1      43.682  31.116  35.902  1.00  0.00     0.029 A 
ATOM     71  C   UNL A   1      43.684  31.800  34.699  1.00  0.00     0.049 A 
ATOM     72  H   UNL A   1      44.083  31.070  32.756  1.00  0.00     0.167 HD
ATOM     73  C   UNL A   1      43.449  33.793  33.245  1.00  0.00     0.074 A 
ATOM     74  C   UNL A   1      43.165  35.192  33.007  1.00  0.00     0.031 C 
ATOM     75  C   UNL A   1      43.403  33.196  34.460  1.00  0.00     0.037 A 
BRANCH  62  76
ATOM     76  C   UNL A   1      44.678  27.149  34.357  1.00  0.00     0.064 A 
ATOM     77  C   UNL A   1      45.889  26.822  34.986  1.00  0.00     0.173 A 
ATOM     78  C   UNL A   1      43.581  26.298  34.573  1.00  0.00     0.173 A 
ATOM     79  F   UNL A   1      46.968  27.601  34.817  1.00  0.00    -0.203 F 
ATOM     80  C   UNL A   1      46.005  25.684  35.781  1.00  0.00     0.198 A 
ATOM     81  C   UNL A   1      43.690  25.179  35.396  1.00  0.00     0.198 A 
ATOM     82  F   UNL A   1      42.394  26.569  34.012  1.00  0.00    -0.203 F 
ATOM     83  F   UNL A   1      47.182  25.377  36.341  1.00  0.00    -0.200 F 
ATOM     84  C   UNL A   1      44.903  24.869  35.993  1.00  0.00     0.200 A 
ATOM     85  F   UNL A   1      42.619  24.406  35.619  1.00  0.00    -0.200 F 
ATOM     86  F   UNL A   1      45.009  23.787  36.775  1.00  0.00    -0.200 F 
ENDBRANCH  62  76
BRANCH  63  87
ATOM     87  C   UNL A   1      43.800  35.406  28.834  1.00  0.00     0.064 A 
ATOM     88  C   UNL A   1      44.944  36.166  28.553  1.00  0.00     0.173 A 
ATOM     89  C   UNL A   1      42.580  35.835  28.289  1.00  0.00     0.173 A 
ATOM     90  F   UNL A   1      46.130  35.807  29.067  1.00  0.00    -0.203 F 
ATOM     91  C   UNL A   1      44.870  37.312  27.765  1.00  0.00     0.198 A 
ATOM     92  C   UNL A   1      42.514  36.962  27.473  1.00  0.00     0.198 A 
ATOM     93  F   UNL A   1      41.458  35.140  28.524  1.00  0.00    -0.203 F 
ATOM     94  F   UNL A   1      45.972  38.041  27.541  1.00  0.00    -0.200 F 
ATOM     95  C   UNL A   1      43.657  37.703  27.217  1.00  0.00     0.200 A 
ATOM     96  F   UNL A   1      41.344  37.324  26.929  1.00  0.00    -0.200 F 
ATOM     97  F   UNL A   1      43.590  38.796  26.443  1.00  0.00    -0.200 F 
ENDBRANCH  63  87
BRANCH  75  98
ATOM     98  C   UNL A   1      43.044  34.046  35.648  1.00  0.00     0.064 A 
ATOM     99  C   UNL A   1      44.021  34.748  36.371  1.00  0.00     0.173 A 
ATOM    100  C   UNL A   1      41.702  34.226  36.020  1.00  0.00     0.173 A 
ATOM    101  F   UNL A   1      45.320  34.602  36.069  1.00  0.00    -0.203 F 
ATOM    102  C   UNL A   1      43.669  35.585  37.427  1.00  0.00     0.198 A 
ATOM    103  C   UNL A   1      41.351  35.092  37.052  1.00  0.00     0.198 A 
ATOM    104  F   UNL A   1      40.726  33.585  35.360  1.00  0.00    -0.203 F 
ATOM    105  F   UNL A   1      44.623  36.215  38.127  1.00  0.00    -0.200 F 
ATOM    106  C   UNL A   1      42.335  35.767  37.759  1.00  0.00     0.200 A 
ATOM    107  F   UNL A   1      40.060  35.280  37.357  1.00  0.00    -0.200 F 
ATOM    108  F   UNL A   1      41.996  36.592  38.758  1.00  0.00    -0.200 F 
ENDBRANCH  75  98
ENDBRANCH  49  50
ENDBRANCH  42  44
ENDBRANCH  41  42
ENDBRANCH  40  41
ENDBRANCH  39  40
ENDBRANCH  38  39
ENDBRANCH  37  38
ENDBRANCH   1  37
TORSDOF 22
ENDMDL
MODEL 3
REMARK VINA RESULT:      -8.6      4.833     11.584
REMARK SMILES NS(=O)(=O)c1ccc(C#Cc2cc(Cl)cc3c2O[C@H](C(F)(F)F)C(C(=O)OCCOCCOCCOC(=O)c2ccc(-c4c5nc(c(-c6c(F)c(F)c(F)c(F)c6F)c6ccc([nH]6)c(-c6c(F)c(F)c(F)c(F)c6F)c6nc(c(-c7c(F)c(F)c(F)c(F)c7F)c7ccc4[nH]7)C=C6)C=C5)cc2)=C3)cc1
REMARK SMILES IDX 31 1 30 2 29 3 28 4 27 5 25 6 26 7 24 8 11 9 12 10 17 11
REMARK SMILES IDX 13 12 16 13 18 14 14 15 15 16 102 17 19 18 10 19 9 20 8 21
REMARK SMILES IDX 5 22 6 23 104 24 7 25 103 26 2 27 3 28 4 29 1 30 20 33 21 34
REMARK SMILES IDX 22 35 23 36 32 37 33 38 34 39 35 40 36 41 37 42 38 43 39 44
REMARK SMILES IDX 40 45 101 46 41 47 100 48 42 49 43 50 44 51 94 52 45 53
REMARK SMILES IDX 99 54 93 55 95 56 46 57 98 58 92 59 91 60 47 62 79 63 59 64
REMARK SMILES IDX 78 65 60 66 63 67 77 68 96 69 61 70 62 71 76 73 97 74 64 75
REMARK SMILES IDX 48 76 49 77 57 78 50 79 51 80 55 81 58 82 52 83 53 84 56 85
REMARK SMILES IDX 54 86 80 87 81 88 89 89 82 90 83 91 87 92 90 93 84 94 85 95
REMARK SMILES IDX 88 96 86 97 65 98 66 99 74 100 67 101 68 102 72 103 75 104
REMARK SMILES IDX 69 105 70 106 73 107 71 108
REMARK H PARENT 1 31 1 32 95 61 63 72
REMARK Flexibility Score: inf
ROOT
ATOM      1  C   UNL A   1      42.286  32.850  39.652  1.00  0.00     0.188 C 
ENDROOT
BRANCH   1   2
ATOM      2  O   UNL A   1      42.367  31.639  38.937  1.00  0.00    -0.376 OA
BRANCH   2   3
ATOM      3  C   UNL A   1      42.706  31.625  37.560  1.00  0.00     0.202 C 
BRANCH   3   4
ATOM      4  C   UNL A   1      42.411  30.464  36.590  1.00  0.00     0.261 C 
BRANCH   4   5
ATOM      5  O   UNL A   1      42.860  29.158  36.973  1.00  0.00    -0.460 OA
BRANCH   5   6
ATOM      6  C   UNL A   1      42.064  28.130  36.591  1.00  0.00     0.338 C 
ATOM      7  O   UNL A   1      40.855  28.048  36.741  1.00  0.00    -0.246 OA
BRANCH   6   8
ATOM      8  C   UNL A   1      42.848  27.170  35.783  1.00  0.00     0.087 C 
ATOM      9  C   UNL A   1      45.258  24.732  33.381  1.00  0.00     0.069 A 
ATOM     10  C   UNL A   1      46.577  24.480  33.773  1.00  0.00     0.041 A 
ATOM     11  C   UNL A   1      44.404  25.472  34.219  1.00  0.00     0.143 A 
ATOM     12  C   UNL A   1      47.031  24.935  35.008  1.00  0.00     0.043 A 
ATOM     13  C   UNL A   1      44.883  25.958  35.442  1.00  0.00     0.020 A 
ATOM     14  O   UNL A   1      43.120  25.686  33.795  1.00  0.00    -0.474 OA
ATOM     15  Cl  UNL A   1      48.652  24.625  35.491  1.00  0.00    -0.084 Cl
ATOM     16  C   UNL A   1      46.190  25.664  35.848  1.00  0.00     0.032 A 
ATOM     17  C   UNL A   1      44.052  26.828  36.258  1.00  0.00     0.027 C 
ATOM     18  C   UNL A   1      42.272  26.633  34.503  1.00  0.00     0.316 C 
BRANCH   9  19
ATOM     19  C   UNL A   1      44.825  24.256  32.098  1.00  0.00    -0.058 C 
ATOM     20  C   UNL A   1      44.483  23.872  31.014  1.00  0.00    -0.062 C 
BRANCH  20  21
ATOM     21  C   UNL A   1      44.077  23.472  29.699  1.00  0.00     0.025 A 
ATOM     22  C   UNL A   1      43.367  22.596  27.146  1.00  0.00     0.082 A 
ATOM     23  C   UNL A   1      44.603  23.216  27.350  1.00  0.00     0.023 A 
ATOM     24  C   UNL A   1      42.471  22.432  28.207  1.00  0.00     0.023 A 
ATOM     25  C   UNL A   1      44.955  23.654  28.628  1.00  0.00     0.018 A 
ATOM     26  C   UNL A   1      42.831  22.871  29.486  1.00  0.00     0.018 A 
BRANCH  22  27
ATOM     27  S   UNL A   1      43.028  21.962  25.531  1.00  0.00     0.238 S 
ATOM     28  O   UNL A   1      43.406  20.568  25.506  1.00  0.00    -0.207 OA
ATOM     29  O   UNL A   1      43.498  22.919  24.557  1.00  0.00    -0.207 OA
BRANCH  27  30
ATOM     30  N   UNL A   1      41.352  21.963  25.400  1.00  0.00    -0.225 NA
ATOM     31  H   UNL A   1      41.051  21.142  24.875  1.00  0.00     0.137 HD
ATOM     32  H   UNL A   1      41.049  22.807  24.912  1.00  0.00     0.137 HD
ENDBRANCH  27  30
ENDBRANCH  22  27
ENDBRANCH  20  21
ENDBRANCH   9  19
BRANCH  18  33
ATOM     33  C   UNL A   1      41.885  27.763  33.540  1.00  0.00     0.430 C 
ATOM     34  F   UNL A   1      42.592  28.890  33.787  1.00  0.00    -0.167 F 
ATOM     35  F   UNL A   1      42.127  27.423  32.252  1.00  0.00    -0.167 F 
ATOM     36  F   UNL A   1      40.572  28.072  33.637  1.00  0.00    -0.167 F 
ENDBRANCH  18  33
ENDBRANCH   6   8
ENDBRANCH   5   6
ENDBRANCH   4   5
ENDBRANCH   3   4
ENDBRANCH   2   3
ENDBRANCH   1   2
BRANCH   1  37
ATOM     37  C   UNL A   1      43.132  33.032  40.928  1.00  0.00     0.188 C 
BRANCH  37  38
ATOM     38  O   UNL A   1      43.577  34.326  41.254  1.00  0.00    -0.376 OA
BRANCH  38  39
ATOM     39  C   UNL A   1      44.145  35.150  40.248  1.00  0.00     0.202 C 
BRANCH  39  40
ATOM     40  C   UNL A   1      43.996  36.687  40.142  1.00  0.00     0.261 C 
BRANCH  40  41
ATOM     41  O   UNL A   1      42.889  37.220  39.406  1.00  0.00    -0.460 OA
BRANCH  41  42
ATOM     42  C   UNL A   1      43.184  37.787  38.207  1.00  0.00     0.338 C 
ATOM     43  O   UNL A   1      43.790  38.826  38.012  1.00  0.00    -0.246 OA
BRANCH  42  44
ATOM     44  C   UNL A   1      42.846  36.821  37.139  1.00  0.00     0.060 A 
ATOM     45  C   UNL A   1      43.379  36.971  35.860  1.00  0.00     0.016 A 
ATOM     46  C   UNL A   1      41.964  35.766  37.420  1.00  0.00     0.016 A 
ATOM     47  C   UNL A   1      43.042  36.047  34.867  1.00  0.00     0.010 A 
ATOM     48  C   UNL A   1      41.612  34.855  36.420  1.00  0.00     0.010 A 
ATOM     49  C   UNL A   1      42.170  34.973  35.139  1.00  0.00    -0.014 A 
BRANCH  49  50
ATOM     50  C   UNL A   1      41.998  33.892  34.133  1.00  0.00     0.031 A 
ATOM     51  C   UNL A   1      40.716  33.685  33.386  1.00  0.00     0.074 A 
ATOM     52  C   UNL A   1      43.049  33.086  33.893  1.00  0.00     0.049 A 
ATOM     53  N   UNL A   1      40.463  32.852  32.406  1.00  0.00    -0.248 NA
ATOM     54  C   UNL A   1      39.566  34.506  33.788  1.00  0.00     0.031 C 
ATOM     55  C   UNL A   1      44.334  33.165  34.589  1.00  0.00     0.029 A 
ATOM     56  N   UNL A   1      43.218  32.063  32.994  1.00  0.00    -0.354 N 
ATOM     57  C   UNL A   1      39.138  33.066  32.052  1.00  0.00     0.074 A 
ATOM     58  C   UNL A   1      38.622  34.065  32.966  1.00  0.00     0.031 C 
ATOM     59  C   UNL A   1      45.176  32.267  34.058  1.00  0.00     0.029 A 
ATOM     60  C   UNL A   1      44.480  31.522  33.011  1.00  0.00     0.049 A 
ATOM     61  H   UNL A   1      42.503  31.748  32.395  1.00  0.00     0.167 HD
ATOM     62  C   UNL A   1      38.433  32.500  31.040  1.00  0.00     0.037 A 
ATOM     63  C   UNL A   1      45.025  30.543  32.265  1.00  0.00     0.037 A 
ATOM     64  C   UNL A   1      38.953  31.493  30.146  1.00  0.00     0.049 A 
ATOM     65  C   UNL A   1      44.201  29.892  31.188  1.00  0.00     0.074 A 
ATOM     66  C   UNL A   1      38.321  30.886  29.073  1.00  0.00     0.029 A 
ATOM     67  N   UNL A   1      40.220  30.930  30.227  1.00  0.00    -0.354 N 
ATOM     68  N   UNL A   1      42.978  30.164  30.805  1.00  0.00    -0.248 NA
ATOM     69  C   UNL A   1      44.836  28.802  30.435  1.00  0.00     0.031 C 
ATOM     70  C   UNL A   1      39.177  29.913  28.549  1.00  0.00     0.029 A 
ATOM     71  C   UNL A   1      40.372  29.960  29.246  1.00  0.00     0.049 A 
ATOM     72  H   UNL A   1      40.909  31.183  30.883  1.00  0.00     0.167 HD
ATOM     73  C   UNL A   1      42.705  29.298  29.755  1.00  0.00     0.074 A 
ATOM     74  C   UNL A   1      43.899  28.506  29.546  1.00  0.00     0.031 C 
ATOM     75  C   UNL A   1      41.563  29.172  29.036  1.00  0.00     0.037 A 
BRANCH  62  76
ATOM     76  C   UNL A   1      37.019  32.962  30.821  1.00  0.00     0.064 A 
ATOM     77  C   UNL A   1      35.999  32.644  31.730  1.00  0.00     0.173 A 
ATOM     78  C   UNL A   1      36.696  33.809  29.748  1.00  0.00     0.173 A 
ATOM     79  F   UNL A   1      36.252  31.842  32.775  1.00  0.00    -0.203 F 
ATOM     80  C   UNL A   1      34.707  33.137  31.564  1.00  0.00     0.198 A 
ATOM     81  C   UNL A   1      35.411  34.329  29.604  1.00  0.00     0.198 A 
ATOM     82  F   UNL A   1      37.635  34.162  28.858  1.00  0.00    -0.203 F 
ATOM     83  F   UNL A   1      33.743  32.790  32.427  1.00  0.00    -0.200 F 
ATOM     84  C   UNL A   1      34.416  33.987  30.507  1.00  0.00     0.200 A 
ATOM     85  F   UNL A   1      35.138  35.168  28.595  1.00  0.00    -0.200 F 
ATOM     86  F   UNL A   1      33.178  34.476  30.360  1.00  0.00    -0.200 F 
ENDBRANCH  62  76
BRANCH  63  87
ATOM     87  C   UNL A   1      46.444  30.157  32.487  1.00  0.00     0.064 A 
ATOM     88  C   UNL A   1      46.787  29.203  33.455  1.00  0.00     0.173 A 
ATOM     89  C   UNL A   1      47.479  30.709  31.716  1.00  0.00     0.173 A 
ATOM     90  F   UNL A   1      45.835  28.662  34.229  1.00  0.00    -0.203 F 
ATOM     91  C   UNL A   1      48.113  28.821  33.649  1.00  0.00     0.198 A 
ATOM     92  C   UNL A   1      48.799  30.300  31.888  1.00  0.00     0.198 A 
ATOM     93  F   UNL A   1      47.202  31.621  30.774  1.00  0.00    -0.203 F 
ATOM     94  F   UNL A   1      48.418  27.935  34.605  1.00  0.00    -0.200 F 
ATOM     95  C   UNL A   1      49.116  29.362  32.858  1.00  0.00     0.200 A 
ATOM     96  F   UNL A   1      49.762  30.810  31.108  1.00  0.00    -0.200 F 
ATOM     97  F   UNL A   1      50.389  28.980  33.033  1.00  0.00    -0.200 F 
ENDBRANCH  63  87
BRANCH  75  98
ATOM     98  C   UNL A   1      41.536  28.147  27.936  1.00  0.00     0.064 A 
ATOM     99  C   UNL A   1      42.132  28.391  26.689  1.00  0.00     0.173 A 
ATOM    100  C   UNL A   1      40.977  26.877  28.154  1.00  0.00     0.173 A 
ATOM    101  F   UNL A   1      42.668  29.591  26.420  1.00  0.00    -0.203 F 
ATOM    102  C   UNL A   1      42.159  27.409  25.701  1.00  0.00     0.198 A 
ATOM    103  C   UNL A   1      41.037  25.886  27.178  1.00  0.00     0.198 A 
ATOM    104  F   UNL A   1      40.398  26.587  29.329  1.00  0.00    -0.203 F 
ATOM    105  F   UNL A   1      42.700  27.679  24.506  1.00  0.00    -0.200 F 
ATOM    106  C   UNL A   1      41.623  26.154  25.950  1.00  0.00     0.200 A 
ATOM    107  F   UNL A   1      40.537  24.669  27.429  1.00  0.00    -0.200 F 
ATOM    108  F   UNL A   1      41.672  25.204  25.008  1.00  0.00    -0.200 F 
ENDBRANCH  75  98
ENDBRANCH  49  50
ENDBRANCH  42  44
ENDBRANCH  41  42
ENDBRANCH  40  41
ENDBRANCH  39  40
ENDBRANCH  38  39
ENDBRANCH  37  38
ENDBRANCH   1  37
TORSDOF 22
ENDMDL
