MODEL 1
REMARK VINA RESULT:     -11.8      0.000      0.000
REMARK SMILES Nc1c(Cl)ccc2c1C=C(C(=O)OCCOCCOCCOC(=O)c1ccc(-c3c4nc(c(-c5c(F)c(F)c(F)c(F)c5F)c5ccc([nH]5)c(-c5c(F)c(F)c(F)c(F)c5F)c5nc(c(-c6c(F)c(F)c(F)c(F)c6F)c6ccc3[nH]6)C=C5)C=C4)cc1)[C@@H](C(F)(F)F)O2
REMARK SMILES IDX 18 1 17 2 16 3 15 4 14 5 13 6 11 7 12 8 10 9 2 10 3 11 8 12
REMARK SMILES IDX 4 13 5 14 7 15 9 16 6 17 93 18 88 19 1 20 89 23 90 24 91 25
REMARK SMILES IDX 92 26 19 27 20 28 21 29 22 30 23 31 24 32 25 33 26 34 87 35
REMARK SMILES IDX 27 36 86 37 28 38 29 39 30 40 80 41 31 42 85 43 79 44 81 45
REMARK SMILES IDX 32 46 84 47 78 48 77 49 33 51 65 52 45 53 64 54 46 55 49 56
REMARK SMILES IDX 63 57 82 58 47 59 48 60 62 62 83 63 50 64 34 65 35 66 43 67
REMARK SMILES IDX 36 68 37 69 41 70 44 71 38 72 39 73 42 74 40 75 66 76 67 77
REMARK SMILES IDX 75 78 68 79 69 80 73 81 76 82 70 83 71 84 74 85 72 86 51 87
REMARK SMILES IDX 52 88 60 89 53 90 54 91 58 92 61 93 55 94 56 95 59 96 57 97
REMARK H PARENT 1 21 1 22 81 50 49 61
REMARK Flexibility Score: inf
ROOT
ATOM      1  C   UNL A   1      31.935  27.871  23.458  1.00  0.00     0.188 C 
ENDROOT
BRANCH   1   2
ATOM      2  C   UNL A   1      30.524  27.270  23.281  1.00  0.00     0.188 C 
BRANCH   2   3
ATOM      3  O   UNL A   1      30.220  26.016  23.843  1.00  0.00    -0.376 OA
BRANCH   3   4
ATOM      4  C   UNL A   1      30.227  25.809  25.245  1.00  0.00     0.202 C 
BRANCH   4   5
ATOM      5  C   UNL A   1      31.446  25.338  26.054  1.00  0.00     0.261 C 
BRANCH   5   6
ATOM      6  O   UNL A   1      31.621  23.924  26.182  1.00  0.00    -0.460 OA
BRANCH   6   7
ATOM      7  C   UNL A   1      32.819  23.452  25.761  1.00  0.00     0.338 C 
ATOM      8  O   UNL A   1      33.921  23.818  26.134  1.00  0.00    -0.246 OA
BRANCH   7   9
ATOM      9  C   UNL A   1      32.603  22.281  24.886  1.00  0.00     0.088 C 
ATOM     10  C   UNL A   1      32.686  18.578  25.171  1.00  0.00     0.061 A 
ATOM     11  C   UNL A   1      32.749  17.496  24.264  1.00  0.00     0.064 A 
ATOM     12  C   UNL A   1      32.558  19.884  24.641  1.00  0.00     0.042 A 
ATOM     13  Cl  UNL A   1      33.022  15.883  24.831  1.00  0.00    -0.082 Cl
ATOM     14  C   UNL A   1      32.585  17.688  22.892  1.00  0.00     0.026 A 
ATOM     15  C   UNL A   1      32.349  20.061  23.264  1.00  0.00     0.130 A 
ATOM     16  C   UNL A   1      32.705  21.078  25.468  1.00  0.00     0.029 C 
ATOM     17  C   UNL A   1      32.355  18.968  22.398  1.00  0.00     0.049 A 
ATOM     18  O   UNL A   1      32.132  21.269  22.665  1.00  0.00    -0.475 OA
ATOM     19  C   UNL A   1      32.282  22.490  23.436  1.00  0.00     0.316 C 
BRANCH  10  20
ATOM     20  N   UNL A   1      32.864  18.349  26.541  1.00  0.00    -0.397 N 
ATOM     21  H   UNL A   1      33.116  17.453  26.862  1.00  0.00     0.156 HD
ATOM     22  H   UNL A   1      32.737  19.084  27.184  1.00  0.00     0.156 HD
ENDBRANCH  10  20
BRANCH  19  23
ATOM     23  C   UNL A   1      33.318  23.377  22.731  1.00  0.00     0.430 C 
ATOM     24  F   UNL A   1      33.120  24.686  23.016  1.00  0.00    -0.167 F 
ATOM     25  F   UNL A   1      34.580  23.081  23.122  1.00  0.00    -0.167 F 
ATOM     26  F   UNL A   1      33.268  23.241  21.387  1.00  0.00    -0.167 F 
ENDBRANCH  19  23
ENDBRANCH   7   9
ENDBRANCH   6   7
ENDBRANCH   5   6
ENDBRANCH   4   5
ENDBRANCH   3   4
ENDBRANCH   2   3
ENDBRANCH   1   2
BRANCH   1  27
ATOM     27  O   UNL A   1      32.102  29.179  23.960  1.00  0.00    -0.376 OA
BRANCH  27  28
ATOM     28  C   UNL A   1      31.249  29.639  24.997  1.00  0.00     0.202 C 
BRANCH  28  29
ATOM     29  C   UNL A   1      31.783  30.302  26.277  1.00  0.00     0.261 C 
BRANCH  29  30
ATOM     30  O   UNL A   1      33.199  30.530  26.322  1.00  0.00    -0.460 OA
BRANCH  30  31
ATOM     31  C   UNL A   1      33.608  31.484  27.196  1.00  0.00     0.338 C 
ATOM     32  O   UNL A   1      32.973  32.434  27.615  1.00  0.00    -0.246 OA
BRANCH  31  33
ATOM     33  C   UNL A   1      34.929  31.109  27.729  1.00  0.00     0.060 A 
ATOM     34  C   UNL A   1      35.178  29.765  28.040  1.00  0.00     0.016 A 
ATOM     35  C   UNL A   1      35.892  32.088  27.972  1.00  0.00     0.016 A 
ATOM     36  C   UNL A   1      36.400  29.390  28.593  1.00  0.00     0.010 A 
ATOM     37  C   UNL A   1      37.101  31.718  28.566  1.00  0.00     0.010 A 
ATOM     38  C   UNL A   1      37.348  30.374  28.899  1.00  0.00    -0.014 A 
BRANCH  38  39
ATOM     39  C   UNL A   1      38.495  30.030  29.767  1.00  0.00     0.031 A 
ATOM     40  C   UNL A   1      39.508  29.052  29.246  1.00  0.00     0.074 A 
ATOM     41  C   UNL A   1      38.641  30.575  30.985  1.00  0.00     0.049 A 
ATOM     42  N   UNL A   1      40.569  28.562  29.832  1.00  0.00    -0.248 NA
ATOM     43  C   UNL A   1      39.294  28.562  27.874  1.00  0.00     0.031 C 
ATOM     44  C   UNL A   1      37.752  31.572  31.576  1.00  0.00     0.029 A 
ATOM     45  N   UNL A   1      39.594  30.355  31.948  1.00  0.00    -0.354 N 
ATOM     46  C   UNL A   1      41.149  27.711  28.901  1.00  0.00     0.074 A 
ATOM     47  C   UNL A   1      40.309  27.727  27.724  1.00  0.00     0.031 C 
ATOM     48  C   UNL A   1      38.193  31.864  32.812  1.00  0.00     0.029 A 
ATOM     49  C   UNL A   1      39.375  31.053  33.108  1.00  0.00     0.049 A 
ATOM     50  H   UNL A   1      40.362  29.752  31.818  1.00  0.00     0.167 HD
ATOM     51  C   UNL A   1      42.285  26.987  29.017  1.00  0.00     0.037 A 
ATOM     52  C   UNL A   1      40.040  31.020  34.280  1.00  0.00     0.037 A 
ATOM     53  C   UNL A   1      43.103  26.953  30.199  1.00  0.00     0.049 A 
ATOM     54  C   UNL A   1      41.244  30.125  34.424  1.00  0.00     0.074 A 
ATOM     55  C   UNL A   1      44.279  26.257  30.412  1.00  0.00     0.029 A 
ATOM     56  N   UNL A   1      42.820  27.633  31.374  1.00  0.00    -0.354 N 
ATOM     57  N   UNL A   1      41.807  29.344  33.533  1.00  0.00    -0.248 NA
ATOM     58  C   UNL A   1      41.908  30.107  35.737  1.00  0.00     0.031 C 
ATOM     59  C   UNL A   1      44.673  26.464  31.737  1.00  0.00     0.029 A 
ATOM     60  C   UNL A   1      43.779  27.342  32.330  1.00  0.00     0.049 A 
ATOM     61  H   UNL A   1      42.050  28.232  31.510  1.00  0.00     0.167 HD
ATOM     62  C   UNL A   1      42.898  28.760  34.166  1.00  0.00     0.074 A 
ATOM     63  C   UNL A   1      42.926  29.286  35.516  1.00  0.00     0.031 C 
ATOM     64  C   UNL A   1      43.795  27.870  33.672  1.00  0.00     0.037 A 
BRANCH  51  65
ATOM     65  C   UNL A   1      42.690  26.145  27.843  1.00  0.00     0.064 A 
ATOM     66  C   UNL A   1      43.589  26.614  26.875  1.00  0.00     0.173 A 
ATOM     67  C   UNL A   1      42.192  24.840  27.701  1.00  0.00     0.173 A 
ATOM     68  F   UNL A   1      44.079  27.861  26.955  1.00  0.00    -0.203 F 
ATOM     69  C   UNL A   1      43.958  25.817  25.794  1.00  0.00     0.198 A 
ATOM     70  C   UNL A   1      42.587  24.035  26.636  1.00  0.00     0.198 A 
ATOM     71  F   UNL A   1      41.327  24.344  28.598  1.00  0.00    -0.203 F 
ATOM     72  F   UNL A   1      44.781  26.304  24.855  1.00  0.00    -0.200 F 
ATOM     73  C   UNL A   1      43.464  24.526  25.681  1.00  0.00     0.200 A 
ATOM     74  F   UNL A   1      42.118  22.784  26.535  1.00  0.00    -0.200 F 
ATOM     75  F   UNL A   1      43.827  23.757  24.645  1.00  0.00    -0.200 F 
ENDBRANCH  51  65
BRANCH  52  76
ATOM     76  C   UNL A   1      39.575  31.868  35.407  1.00  0.00     0.064 A 
ATOM     77  C   UNL A   1      40.053  33.174  35.572  1.00  0.00     0.173 A 
ATOM     78  C   UNL A   1      38.621  31.402  36.326  1.00  0.00     0.173 A 
ATOM     79  F   UNL A   1      40.986  33.654  34.736  1.00  0.00    -0.203 F 
ATOM     80  C   UNL A   1      39.593  33.984  36.608  1.00  0.00     0.198 A 
ATOM     81  C   UNL A   1      38.143  32.221  37.346  1.00  0.00     0.198 A 
ATOM     82  F   UNL A   1      38.136  30.156  36.217  1.00  0.00    -0.203 F 
ATOM     83  F   UNL A   1      40.086  35.221  36.757  1.00  0.00    -0.200 F 
ATOM     84  C   UNL A   1      38.630  33.512  37.488  1.00  0.00     0.200 A 
ATOM     85  F   UNL A   1      37.205  31.763  38.187  1.00  0.00    -0.200 F 
ATOM     86  F   UNL A   1      38.174  34.298  38.472  1.00  0.00    -0.200 F 
ENDBRANCH  52  76
BRANCH  64  87
ATOM     87  C   UNL A   1      44.901  27.408  34.579  1.00  0.00     0.064 A 
ATOM     88  C   UNL A   1      46.091  28.136  34.716  1.00  0.00     0.173 A 
ATOM     89  C   UNL A   1      44.727  26.276  35.392  1.00  0.00     0.173 A 
ATOM     90  F   UNL A   1      46.311  29.218  33.955  1.00  0.00    -0.203 F 
ATOM     91  C   UNL A   1      47.072  27.742  35.623  1.00  0.00     0.198 A 
ATOM     92  C   UNL A   1      45.695  25.904  36.321  1.00  0.00     0.198 A 
ATOM     93  F   UNL A   1      43.603  25.550  35.310  1.00  0.00    -0.203 F 
ATOM     94  F   UNL A   1      48.214  28.436  35.715  1.00  0.00    -0.200 F 
ATOM     95  C   UNL A   1      46.867  26.635  36.434  1.00  0.00     0.200 A 
ATOM     96  F   UNL A   1      45.487  24.846  37.118  1.00  0.00    -0.200 F 
ATOM     97  F   UNL A   1      47.801  26.272  37.323  1.00  0.00    -0.200 F 
ENDBRANCH  64  87
ENDBRANCH  38  39
ENDBRANCH  31  33
ENDBRANCH  30  31
ENDBRANCH  29  30
ENDBRANCH  28  29
ENDBRANCH  27  28
ENDBRANCH   1  27
TORSDOF 19
ENDMDL
MODEL 2
REMARK VINA RESULT:     -11.8      3.420      8.339
REMARK SMILES Nc1c(Cl)ccc2c1C=C(C(=O)OCCOCCOCCOC(=O)c1ccc(-c3c4nc(c(-c5c(F)c(F)c(F)c(F)c5F)c5ccc([nH]5)c(-c5c(F)c(F)c(F)c(F)c5F)c5nc(c(-c6c(F)c(F)c(F)c(F)c6F)c6ccc3[nH]6)C=C5)C=C4)cc1)[C@@H](C(F)(F)F)O2
REMARK SMILES IDX 18 1 17 2 16 3 15 4 14 5 13 6 11 7 12 8 10 9 2 10 3 11 8 12
REMARK SMILES IDX 4 13 5 14 7 15 9 16 6 17 93 18 88 19 1 20 89 23 90 24 91 25
REMARK SMILES IDX 92 26 19 27 20 28 21 29 22 30 23 31 24 32 25 33 26 34 87 35
REMARK SMILES IDX 27 36 86 37 28 38 29 39 30 40 80 41 31 42 85 43 79 44 81 45
REMARK SMILES IDX 32 46 84 47 78 48 77 49 33 51 65 52 45 53 64 54 46 55 49 56
REMARK SMILES IDX 63 57 82 58 47 59 48 60 62 62 83 63 50 64 34 65 35 66 43 67
REMARK SMILES IDX 36 68 37 69 41 70 44 71 38 72 39 73 42 74 40 75 66 76 67 77
REMARK SMILES IDX 75 78 68 79 69 80 73 81 76 82 70 83 71 84 74 85 72 86 51 87
REMARK SMILES IDX 52 88 60 89 53 90 54 91 58 92 61 93 55 94 56 95 59 96 57 97
REMARK H PARENT 1 21 1 22 81 50 49 61
REMARK Flexibility Score: inf
ROOT
ATOM      1  C   UNL A   1      40.113  21.713  27.194  1.00  0.00     0.188 C 
ENDROOT
BRANCH   1   2
ATOM      2  C   UNL A   1      39.275  21.589  25.903  1.00  0.00     0.188 C 
BRANCH   2   3
ATOM      3  O   UNL A   1      38.061  22.291  25.784  1.00  0.00    -0.376 OA
BRANCH   3   4
ATOM      4  C   UNL A   1      36.835  21.618  25.551  1.00  0.00     0.202 C 
BRANCH   4   5
ATOM      5  C   UNL A   1      35.465  22.308  25.447  1.00  0.00     0.261 C 
BRANCH   5   6
ATOM      6  O   UNL A   1      35.467  23.672  25.016  1.00  0.00    -0.460 OA
BRANCH   6   7
ATOM      7  C   UNL A   1      35.232  23.858  23.694  1.00  0.00     0.338 C 
ATOM      8  O   UNL A   1      35.807  23.315  22.766  1.00  0.00    -0.246 OA
BRANCH   7   9
ATOM      9  C   UNL A   1      34.035  24.707  23.525  1.00  0.00     0.088 C 
ATOM     10  C   UNL A   1      32.885  28.083  24.566  1.00  0.00     0.061 A 
ATOM     11  C   UNL A   1      31.641  28.752  24.626  1.00  0.00     0.064 A 
ATOM     12  C   UNL A   1      32.918  26.793  23.985  1.00  0.00     0.042 A 
ATOM     13  Cl  UNL A   1      31.500  30.282  25.424  1.00  0.00    -0.082 Cl
ATOM     14  C   UNL A   1      30.496  28.213  24.039  1.00  0.00     0.026 A 
ATOM     15  C   UNL A   1      31.771  26.280  23.359  1.00  0.00     0.130 A 
ATOM     16  C   UNL A   1      34.092  25.930  24.072  1.00  0.00     0.029 C 
ATOM     17  C   UNL A   1      30.571  26.990  23.381  1.00  0.00     0.049 A 
ATOM     18  O   UNL A   1      31.720  25.085  22.700  1.00  0.00    -0.475 OA
ATOM     19  C   UNL A   1      32.853  24.179  22.767  1.00  0.00     0.316 C 
BRANCH  10  20
ATOM     20  N   UNL A   1      34.011  28.650  25.174  1.00  0.00    -0.397 N 
ATOM     21  H   UNL A   1      33.985  29.584  25.485  1.00  0.00     0.156 HD
ATOM     22  H   UNL A   1      34.830  28.116  25.289  1.00  0.00     0.156 HD
ENDBRANCH  10  20
BRANCH  19  23
ATOM     23  C   UNL A   1      32.360  22.834  23.318  1.00  0.00     0.430 C 
ATOM     24  F   UNL A   1      31.084  22.583  22.937  1.00  0.00    -0.167 F 
ATOM     25  F   UNL A   1      33.110  21.802  22.865  1.00  0.00    -0.167 F 
ATOM     26  F   UNL A   1      32.395  22.798  24.669  1.00  0.00    -0.167 F 
ENDBRANCH  19  23
ENDBRANCH   7   9
ENDBRANCH   6   7
ENDBRANCH   5   6
ENDBRANCH   4   5
ENDBRANCH   3   4
ENDBRANCH   2   3
ENDBRANCH   1   2
BRANCH   1  27
ATOM     27  O   UNL A   1      41.382  21.105  27.288  1.00  0.00    -0.376 OA
BRANCH  27  28
ATOM     28  C   UNL A   1      42.134  20.880  26.105  1.00  0.00     0.202 C 
BRANCH  28  29
ATOM     29  C   UNL A   1      43.171  21.886  25.579  1.00  0.00     0.261 C 
BRANCH  29  30
ATOM     30  O   UNL A   1      42.644  23.107  25.041  1.00  0.00    -0.460 OA
BRANCH  30  31
ATOM     31  C   UNL A   1      43.451  24.192  25.160  1.00  0.00     0.338 C 
ATOM     32  O   UNL A   1      44.481  24.425  24.556  1.00  0.00    -0.246 OA
BRANCH  31  33
ATOM     33  C   UNL A   1      42.799  25.179  26.037  1.00  0.00     0.060 A 
ATOM     34  C   UNL A   1      43.395  26.437  26.204  1.00  0.00     0.016 A 
ATOM     35  C   UNL A   1      41.640  24.841  26.734  1.00  0.00     0.016 A 
ATOM     36  C   UNL A   1      42.828  27.370  27.068  1.00  0.00     0.010 A 
ATOM     37  C   UNL A   1      41.096  25.762  27.633  1.00  0.00     0.010 A 
ATOM     38  C   UNL A   1      41.700  27.017  27.819  1.00  0.00    -0.014 A 
BRANCH  38  39
ATOM     39  C   UNL A   1      41.291  27.870  28.956  1.00  0.00     0.031 A 
ATOM     40  C   UNL A   1      42.071  27.764  30.235  1.00  0.00     0.074 A 
ATOM     41  C   UNL A   1      40.260  28.724  28.857  1.00  0.00     0.049 A 
ATOM     42  N   UNL A   1      41.880  28.371  31.378  1.00  0.00    -0.248 NA
ATOM     43  C   UNL A   1      43.224  26.849  30.222  1.00  0.00     0.031 C 
ATOM     44  C   UNL A   1      39.463  28.949  27.654  1.00  0.00     0.029 A 
ATOM     45  N   UNL A   1      39.702  29.554  29.797  1.00  0.00    -0.354 N 
ATOM     46  C   UNL A   1      42.889  27.915  32.215  1.00  0.00     0.074 A 
ATOM     47  C   UNL A   1      43.671  26.960  31.461  1.00  0.00     0.031 C 
ATOM     48  C   UNL A   1      38.504  29.849  27.934  1.00  0.00     0.029 A 
ATOM     49  C   UNL A   1      38.601  30.236  29.343  1.00  0.00     0.049 A 
ATOM     50  H   UNL A   1      40.058  29.651  30.710  1.00  0.00     0.167 HD
ATOM     51  C   UNL A   1      43.142  28.268  33.496  1.00  0.00     0.037 A 
ATOM     52  C   UNL A   1      37.759  31.058  29.999  1.00  0.00     0.037 A 
ATOM     53  C   UNL A   1      42.347  29.198  34.249  1.00  0.00     0.049 A 
ATOM     54  C   UNL A   1      37.998  31.357  31.456  1.00  0.00     0.074 A 
ATOM     55  C   UNL A   1      42.527  29.628  35.551  1.00  0.00     0.029 A 
ATOM     56  N   UNL A   1      41.207  29.828  33.772  1.00  0.00    -0.354 N 
ATOM     57  N   UNL A   1      38.969  30.947  32.237  1.00  0.00    -0.248 NA
ATOM     58  C   UNL A   1      37.025  32.233  32.126  1.00  0.00     0.031 C 
ATOM     59  C   UNL A   1      41.461  30.468  35.883  1.00  0.00     0.029 A 
ATOM     60  C   UNL A   1      40.652  30.615  34.767  1.00  0.00     0.049 A 
ATOM     61  H   UNL A   1      40.845  29.730  32.862  1.00  0.00     0.167 HD
ATOM     62  C   UNL A   1      38.738  31.529  33.478  1.00  0.00     0.074 A 
ATOM     63  C   UNL A   1      37.540  32.332  33.344  1.00  0.00     0.031 C 
ATOM     64  C   UNL A   1      39.456  31.409  34.623  1.00  0.00     0.037 A 
BRANCH  51  65
ATOM     65  C   UNL A   1      44.313  27.616  34.172  1.00  0.00     0.064 A 
ATOM     66  C   UNL A   1      45.587  28.201  34.165  1.00  0.00     0.173 A 
ATOM     67  C   UNL A   1      44.149  26.403  34.860  1.00  0.00     0.173 A 
ATOM     68  F   UNL A   1      45.800  29.350  33.505  1.00  0.00    -0.203 F 
ATOM     69  C   UNL A   1      46.661  27.585  34.802  1.00  0.00     0.198 A 
ATOM     70  C   UNL A   1      45.219  25.807  35.522  1.00  0.00     0.198 A 
ATOM     71  F   UNL A   1      42.951  25.801  34.894  1.00  0.00    -0.203 F 
ATOM     72  F   UNL A   1      47.881  28.138  34.741  1.00  0.00    -0.200 F 
ATOM     73  C   UNL A   1      46.474  26.394  35.487  1.00  0.00     0.200 A 
ATOM     74  F   UNL A   1      45.033  24.662  36.193  1.00  0.00    -0.200 F 
ATOM     75  F   UNL A   1      47.507  25.807  36.107  1.00  0.00    -0.200 F 
ENDBRANCH  51  65
BRANCH  52  76
ATOM     76  C   UNL A   1      36.609  31.656  29.272  1.00  0.00     0.064 A 
ATOM     77  C   UNL A   1      35.507  30.876  28.900  1.00  0.00     0.173 A 
ATOM     78  C   UNL A   1      36.575  33.024  28.961  1.00  0.00     0.173 A 
ATOM     79  F   UNL A   1      35.506  29.558  29.150  1.00  0.00    -0.203 F 
ATOM     80  C   UNL A   1      34.412  31.440  28.249  1.00  0.00     0.198 A 
ATOM     81  C   UNL A   1      35.468  33.593  28.333  1.00  0.00     0.198 A 
ATOM     82  F   UNL A   1      37.608  33.814  29.289  1.00  0.00    -0.203 F 
ATOM     83  F   UNL A   1      33.382  30.666  27.882  1.00  0.00    -0.200 F 
ATOM     84  C   UNL A   1      34.388  32.800  27.976  1.00  0.00     0.200 A 
ATOM     85  F   UNL A   1      35.446  34.909  28.081  1.00  0.00    -0.200 F 
ATOM     86  F   UNL A   1      33.327  33.346  27.367  1.00  0.00    -0.200 F 
ENDBRANCH  52  76
BRANCH  64  87
ATOM     87  C   UNL A   1      38.987  32.170  35.831  1.00  0.00     0.064 A 
ATOM     88  C   UNL A   1      38.208  31.561  36.826  1.00  0.00     0.173 A 
ATOM     89  C   UNL A   1      39.402  33.495  36.042  1.00  0.00     0.173 A 
ATOM     90  F   UNL A   1      37.777  30.301  36.669  1.00  0.00    -0.203 F 
ATOM     91  C   UNL A   1      37.852  32.254  37.981  1.00  0.00     0.198 A 
ATOM     92  C   UNL A   1      39.072  34.173  37.212  1.00  0.00     0.198 A 
ATOM     93  F   UNL A   1      40.157  34.121  35.128  1.00  0.00    -0.203 F 
ATOM     94  F   UNL A   1      37.082  31.662  38.904  1.00  0.00    -0.200 F 
ATOM     95  C   UNL A   1      38.295  33.554  38.178  1.00  0.00     0.200 A 
ATOM     96  F   UNL A   1      39.517  35.422  37.410  1.00  0.00    -0.200 F 
ATOM     97  F   UNL A   1      37.972  34.210  39.301  1.00  0.00    -0.200 F 
ENDBRANCH  64  87
ENDBRANCH  38  39
ENDBRANCH  31  33
ENDBRANCH  30  31
ENDBRANCH  29  30
ENDBRANCH  28  29
ENDBRANCH  27  28
ENDBRANCH   1  27
TORSDOF 19
ENDMDL
MODEL 3
REMARK VINA RESULT:     -11.6      4.287      7.283
REMARK SMILES Nc1c(Cl)ccc2c1C=C(C(=O)OCCOCCOCCOC(=O)c1ccc(-c3c4nc(c(-c5c(F)c(F)c(F)c(F)c5F)c5ccc([nH]5)c(-c5c(F)c(F)c(F)c(F)c5F)c5nc(c(-c6c(F)c(F)c(F)c(F)c6F)c6ccc3[nH]6)C=C5)C=C4)cc1)[C@@H](C(F)(F)F)O2
REMARK SMILES IDX 18 1 17 2 16 3 15 4 14 5 13 6 11 7 12 8 10 9 2 10 3 11 8 12
REMARK SMILES IDX 4 13 5 14 7 15 9 16 6 17 93 18 88 19 1 20 89 23 90 24 91 25
REMARK SMILES IDX 92 26 19 27 20 28 21 29 22 30 23 31 24 32 25 33 26 34 87 35
REMARK SMILES IDX 27 36 86 37 28 38 29 39 30 40 80 41 31 42 85 43 79 44 81 45
REMARK SMILES IDX 32 46 84 47 78 48 77 49 33 51 65 52 45 53 64 54 46 55 49 56
REMARK SMILES IDX 63 57 82 58 47 59 48 60 62 62 83 63 50 64 34 65 35 66 43 67
REMARK SMILES IDX 36 68 37 69 41 70 44 71 38 72 39 73 42 74 40 75 66 76 67 77
REMARK SMILES IDX 75 78 68 79 69 80 73 81 76 82 70 83 71 84 74 85 72 86 51 87
REMARK SMILES IDX 52 88 60 89 53 90 54 91 58 92 61 93 55 94 56 95 59 96 57 97
REMARK H PARENT 1 21 1 22 81 50 49 61
REMARK Flexibility Score: inf
ROOT
ATOM      1  C   UNL A   1      37.111  21.632  24.384  1.00  0.00     0.188 C 
ENDROOT
BRANCH   1   2
ATOM      2  C   UNL A   1      35.825  22.265  24.957  1.00  0.00     0.188 C 
BRANCH   2   3
ATOM      3  O   UNL A   1      35.914  23.331  25.872  1.00  0.00    -0.376 OA
BRANCH   3   4
ATOM      4  C   UNL A   1      35.192  24.535  25.680  1.00  0.00     0.202 C 
BRANCH   4   5
ATOM      5  C   UNL A   1      33.668  24.622  25.497  1.00  0.00     0.261 C 
BRANCH   5   6
ATOM      6  O   UNL A   1      32.915  23.457  25.847  1.00  0.00    -0.460 OA
BRANCH   6   7
ATOM      7  C   UNL A   1      31.813  23.236  25.090  1.00  0.00     0.338 C 
ATOM      8  O   UNL A   1      30.894  24.013  24.892  1.00  0.00    -0.246 OA
BRANCH   7   9
ATOM      9  C   UNL A   1      31.957  21.949  24.380  1.00  0.00     0.088 C 
ATOM     10  C   UNL A   1      32.733  18.413  25.216  1.00  0.00     0.061 A 
ATOM     11  C   UNL A   1      33.135  17.269  24.491  1.00  0.00     0.064 A 
ATOM     12  C   UNL A   1      32.423  19.586  24.488  1.00  0.00     0.042 A 
ATOM     13  Cl  UNL A   1      33.641  15.833  25.317  1.00  0.00    -0.082 Cl
ATOM     14  C   UNL A   1      33.128  17.252  23.096  1.00  0.00     0.026 A 
ATOM     15  C   UNL A   1      32.375  19.545  23.086  1.00  0.00     0.130 A 
ATOM     16  C   UNL A   1      32.214  20.876  25.141  1.00  0.00     0.029 C 
ATOM     17  C   UNL A   1      32.719  18.383  22.396  1.00  0.00     0.049 A 
ATOM     18  O   UNL A   1      32.008  20.596  22.294  1.00  0.00    -0.475 OA
ATOM     19  C   UNL A   1      31.805  21.905  22.887  1.00  0.00     0.316 C 
BRANCH  10  20
ATOM     20  N   UNL A   1      32.762  18.397  26.616  1.00  0.00    -0.397 N 
ATOM     21  H   UNL A   1      31.935  18.557  27.127  1.00  0.00     0.156 HD
ATOM     22  H   UNL A   1      33.608  18.226  27.089  1.00  0.00     0.156 HD
ENDBRANCH  10  20
BRANCH  19  23
ATOM     23  C   UNL A   1      32.731  22.903  22.177  1.00  0.00     0.430 C 
ATOM     24  F   UNL A   1      33.962  22.921  22.744  1.00  0.00    -0.167 F 
ATOM     25  F   UNL A   1      32.909  22.581  20.874  1.00  0.00    -0.167 F 
ATOM     26  F   UNL A   1      32.244  24.163  22.221  1.00  0.00    -0.167 F 
ENDBRANCH  19  23
ENDBRANCH   7   9
ENDBRANCH   6   7
ENDBRANCH   5   6
ENDBRANCH   4   5
ENDBRANCH   3   4
ENDBRANCH   2   3
ENDBRANCH   1   2
BRANCH   1  27
ATOM     27  O   UNL A   1      38.100  21.109  25.244  1.00  0.00    -0.376 OA
BRANCH  27  28
ATOM     28  C   UNL A   1      38.552  19.777  25.052  1.00  0.00     0.202 C 
BRANCH  28  29
ATOM     29  C   UNL A   1      39.716  19.173  25.856  1.00  0.00     0.261 C 
BRANCH  29  30
ATOM     30  O   UNL A   1      40.968  19.868  25.765  1.00  0.00    -0.460 OA
BRANCH  30  31
ATOM     31  C   UNL A   1      41.624  20.041  26.941  1.00  0.00     0.338 C 
ATOM     32  O   UNL A   1      42.227  19.207  27.589  1.00  0.00    -0.246 OA
BRANCH  31  33
ATOM     33  C   UNL A   1      41.656  21.478  27.263  1.00  0.00     0.060 A 
ATOM     34  C   UNL A   1      41.177  22.396  26.317  1.00  0.00     0.016 A 
ATOM     35  C   UNL A   1      42.209  21.916  28.465  1.00  0.00     0.016 A 
ATOM     36  C   UNL A   1      41.244  23.763  26.573  1.00  0.00     0.010 A 
ATOM     37  C   UNL A   1      42.315  23.289  28.703  1.00  0.00     0.010 A 
ATOM     38  C   UNL A   1      41.855  24.214  27.750  1.00  0.00    -0.014 A 
BRANCH  38  39
ATOM     39  C   UNL A   1      42.213  25.643  27.877  1.00  0.00     0.031 A 
ATOM     40  C   UNL A   1      43.531  26.094  27.316  1.00  0.00     0.074 A 
ATOM     41  C   UNL A   1      41.389  26.523  28.469  1.00  0.00     0.049 A 
ATOM     42  N   UNL A   1      44.085  27.278  27.343  1.00  0.00    -0.248 NA
ATOM     43  C   UNL A   1      44.331  25.067  26.629  1.00  0.00     0.031 C 
ATOM     44  C   UNL A   1      40.067  26.213  29.004  1.00  0.00     0.029 A 
ATOM     45  N   UNL A   1      41.556  27.861  28.725  1.00  0.00    -0.354 N 
ATOM     46  C   UNL A   1      45.294  27.139  26.675  1.00  0.00     0.074 A 
ATOM     47  C   UNL A   1      45.408  25.752  26.280  1.00  0.00     0.031 C 
ATOM     48  C   UNL A   1      39.547  27.329  29.543  1.00  0.00     0.029 A 
ATOM     49  C   UNL A   1      40.514  28.421  29.418  1.00  0.00     0.049 A 
ATOM     50  H   UNL A   1      42.349  28.370  28.438  1.00  0.00     0.167 HD
ATOM     51  C   UNL A   1      46.222  28.087  26.410  1.00  0.00     0.037 A 
ATOM     52  C   UNL A   1      40.371  29.667  29.914  1.00  0.00     0.037 A 
ATOM     53  C   UNL A   1      46.117  29.458  26.828  1.00  0.00     0.049 A 
ATOM     54  C   UNL A   1      41.465  30.681  29.699  1.00  0.00     0.074 A 
ATOM     55  C   UNL A   1      47.000  30.498  26.600  1.00  0.00     0.029 A 
ATOM     56  N   UNL A   1      45.070  29.977  27.575  1.00  0.00    -0.354 N 
ATOM     57  N   UNL A   1      42.593  30.555  29.042  1.00  0.00    -0.248 NA
ATOM     58  C   UNL A   1      41.266  32.012  30.292  1.00  0.00     0.031 C 
ATOM     59  C   UNL A   1      46.520  31.629  27.265  1.00  0.00     0.029 A 
ATOM     60  C   UNL A   1      45.305  31.314  27.851  1.00  0.00     0.049 A 
ATOM     61  H   UNL A   1      44.278  29.470  27.868  1.00  0.00     0.167 HD
ATOM     62  C   UNL A   1      43.228  31.789  29.123  1.00  0.00     0.074 A 
ATOM     63  C   UNL A   1      42.352  32.657  29.885  1.00  0.00     0.031 C 
ATOM     64  C   UNL A   1      44.426  32.167  28.613  1.00  0.00     0.037 A 
BRANCH  51  65
ATOM     65  C   UNL A   1      47.449  27.660  25.660  1.00  0.00     0.064 A 
ATOM     66  C   UNL A   1      48.579  27.156  26.321  1.00  0.00     0.173 A 
ATOM     67  C   UNL A   1      47.483  27.729  24.258  1.00  0.00     0.173 A 
ATOM     68  F   UNL A   1      48.603  27.088  27.661  1.00  0.00    -0.203 F 
ATOM     69  C   UNL A   1      49.708  26.759  25.608  1.00  0.00     0.198 A 
ATOM     70  C   UNL A   1      48.601  27.302  23.548  1.00  0.00     0.198 A 
ATOM     71  F   UNL A   1      46.429  28.205  23.579  1.00  0.00    -0.203 F 
ATOM     72  F   UNL A   1      50.794  26.327  26.263  1.00  0.00    -0.200 F 
ATOM     73  C   UNL A   1      49.714  26.824  24.222  1.00  0.00     0.200 A 
ATOM     74  F   UNL A   1      48.601  27.354  22.209  1.00  0.00    -0.200 F 
ATOM     75  F   UNL A   1      50.798  26.434  23.538  1.00  0.00    -0.200 F 
ENDBRANCH  51  65
BRANCH  52  76
ATOM     76  C   UNL A   1      39.137  30.017  30.662  1.00  0.00     0.064 A 
ATOM     77  C   UNL A   1      39.074  29.876  32.055  1.00  0.00     0.173 A 
ATOM     78  C   UNL A   1      38.006  30.529  30.006  1.00  0.00     0.173 A 
ATOM     79  F   UNL A   1      40.118  29.365  32.722  1.00  0.00    -0.203 F 
ATOM     80  C   UNL A   1      37.930  30.237  32.764  1.00  0.00     0.198 A 
ATOM     81  C   UNL A   1      36.872  30.914  30.719  1.00  0.00     0.198 A 
ATOM     82  F   UNL A   1      38.013  30.678  28.673  1.00  0.00    -0.203 F 
ATOM     83  F   UNL A   1      37.887  30.068  34.092  1.00  0.00    -0.200 F 
ATOM     84  C   UNL A   1      36.834  30.766  32.097  1.00  0.00     0.200 A 
ATOM     85  F   UNL A   1      35.821  31.434  30.072  1.00  0.00    -0.200 F 
ATOM     86  F   UNL A   1      35.742  31.130  32.782  1.00  0.00    -0.200 F 
ENDBRANCH  52  76
BRANCH  64  87
ATOM     87  C   UNL A   1      44.871  33.585  28.838  1.00  0.00     0.064 A 
ATOM     88  C   UNL A   1      45.744  33.924  29.882  1.00  0.00     0.173 A 
ATOM     89  C   UNL A   1      44.496  34.599  27.942  1.00  0.00     0.173 A 
ATOM     90  F   UNL A   1      46.125  32.995  30.771  1.00  0.00    -0.203 F 
ATOM     91  C   UNL A   1      46.216  35.227  30.027  1.00  0.00     0.198 A 
ATOM     92  C   UNL A   1      44.995  35.892  28.070  1.00  0.00     0.198 A 
ATOM     93  F   UNL A   1      43.672  34.327  26.919  1.00  0.00    -0.203 F 
ATOM     94  F   UNL A   1      47.025  35.534  31.049  1.00  0.00    -0.200 F 
ATOM     95  C   UNL A   1      45.851  36.206  29.114  1.00  0.00     0.200 A 
ATOM     96  F   UNL A   1      44.658  36.832  27.176  1.00  0.00    -0.200 F 
ATOM     97  F   UNL A   1      46.326  37.452  29.242  1.00  0.00    -0.200 F 
ENDBRANCH  64  87
ENDBRANCH  38  39
ENDBRANCH  31  33
ENDBRANCH  30  31
ENDBRANCH  29  30
ENDBRANCH  28  29
ENDBRANCH  27  28
ENDBRANCH   1  27
TORSDOF 19
ENDMDL
