MODEL 1
REMARK VINA RESULT:      -9.4      0.000      0.000
REMARK SMILES COc1ccc(-c2noc(C[N@H+]3CCCC[C@@H]3C(=O)OCCOCCOCCOC(=O)c3ccc(-c4c5nc(c(-c6c(F)c(F)c(F)c(F)c6F)c6ccc([nH]6)c(-c6c(F)c(F)c(F)c(F)c6F)c6nc(c(-c7c(F)c(F)c(F)c(F)c7F)c7ccc4[nH]7)C=C6)C=C5)cc3)n2)cc1OC
REMARK SMILES IDX 24 1 23 2 22 3 21 4 20 5 18 6 19 7 17 8 12 9 13 10 14 12
REMARK SMILES IDX 16 13 15 14 11 15 10 16 7 17 8 18 95 19 9 20 6 21 3 22 4 23
REMARK SMILES IDX 97 24 5 25 96 26 2 27 1 28 98 29 99 30 25 31 26 32 27 33
REMARK SMILES IDX 28 34 29 35 30 36 31 37 32 38 33 39 94 40 34 41 93 42 35 43
REMARK SMILES IDX 36 44 37 45 87 46 38 47 92 48 86 49 88 50 39 51 91 52 85 53
REMARK SMILES IDX 84 54 40 56 72 57 52 58 71 59 53 60 56 61 70 62 89 63 54 64
REMARK SMILES IDX 55 65 69 67 90 68 57 69 41 70 42 71 50 72 43 73 44 74 48 75
REMARK SMILES IDX 51 76 45 77 46 78 49 79 47 80 73 81 74 82 82 83 75 84 76 85
REMARK SMILES IDX 80 86 83 87 77 88 78 89 81 90 79 91 58 92 59 93 67 94 60 95
REMARK SMILES IDX 61 96 65 97 68 98 62 99 63 100 66 101 64 102
REMARK H PARENT 12 11 88 55 56 66
REMARK Flexibility Score: inf
ROOT
ATOM      1  C   UNL A   1      33.303  35.750  29.794  1.00  0.00     0.188 C 
ENDROOT
BRANCH   1   2
ATOM      2  O   UNL A   1      32.669  34.898  28.856  1.00  0.00    -0.376 OA
BRANCH   2   3
ATOM      3  C   UNL A   1      33.432  33.971  28.093  1.00  0.00     0.202 C 
BRANCH   3   4
ATOM      4  C   UNL A   1      34.971  33.936  28.188  1.00  0.00     0.261 C 
BRANCH   4   5
ATOM      5  O   UNL A   1      35.553  33.097  29.211  1.00  0.00    -0.459 OA
BRANCH   5   6
ATOM      6  C   UNL A   1      36.885  32.873  29.080  1.00  0.00     0.365 C 
ATOM      7  O   UNL A   1      37.640  33.679  28.538  1.00  0.00    -0.245 OA
BRANCH   6   8
ATOM      8  C   UNL A   1      37.418  31.567  29.739  1.00  0.00     0.295 C 
ATOM      9  N   UNL A   1      36.599  30.376  29.350  1.00  0.00    -0.315 N 
ATOM     10  C   UNL A   1      37.185  29.110  29.832  1.00  0.00     0.263 C 
ATOM     11  H   UNL A   1      35.706  30.539  29.816  1.00  0.00     0.349 HD
ATOM     12  C   UNL A   1      37.439  29.104  31.335  1.00  0.00     0.062 C 
ATOM     13  C   UNL A   1      37.587  31.583  31.272  1.00  0.00     0.078 C 
ATOM     14  C   UNL A   1      38.283  30.301  31.736  1.00  0.00     0.013 C 
BRANCH   9  15
ATOM     15  C   UNL A   1      36.317  30.265  27.896  1.00  0.00     0.364 C 
BRANCH  15  16
ATOM     16  C   UNL A   1      34.910  29.952  27.499  1.00  0.00     0.282 A 
ATOM     17  C   UNL A   1      33.140  29.216  26.665  1.00  0.00     0.202 A 
ATOM     18  N   UNL A   1      32.717  30.272  27.371  1.00  0.00    -0.057 NA
ATOM     19  N   UNL A   1      34.494  29.002  26.699  1.00  0.00    -0.186 NA
ATOM     20  O   UNL A   1      33.897  30.748  27.954  1.00  0.00    -0.333 OA
BRANCH  17  21
ATOM     21  C   UNL A   1      32.281  28.250  26.028  1.00  0.00     0.027 A 
ATOM     22  C   UNL A   1      30.837  26.177  24.842  1.00  0.00     0.160 A 
ATOM     23  C   UNL A   1      31.098  27.366  24.135  1.00  0.00     0.051 A 
ATOM     24  C   UNL A   1      31.318  26.012  26.144  1.00  0.00     0.161 A 
ATOM     25  C   UNL A   1      31.808  28.412  24.730  1.00  0.00     0.016 A 
ATOM     26  C   UNL A   1      32.025  27.064  26.724  1.00  0.00     0.062 A 
BRANCH  22  27
ATOM     27  O   UNL A   1      30.215  25.168  24.159  1.00  0.00    -0.493 OA
ATOM     28  C   UNL A   1      31.034  24.681  23.096  1.00  0.00     0.278 C 
ENDBRANCH  22  27
BRANCH  24  29
ATOM     29  O   UNL A   1      31.243  24.939  26.983  1.00  0.00    -0.493 OA
ATOM     30  C   UNL A   1      32.101  23.833  26.790  1.00  0.00     0.278 C 
ENDBRANCH  24  29
ENDBRANCH  17  21
ENDBRANCH  15  16
ENDBRANCH   9  15
ENDBRANCH   6   8
ENDBRANCH   5   6
ENDBRANCH   4   5
ENDBRANCH   3   4
ENDBRANCH   2   3
ENDBRANCH   1   2
BRANCH   1  31
ATOM     31  C   UNL A   1      32.497  36.344  30.952  1.00  0.00     0.188 C 
BRANCH  31  32
ATOM     32  O   UNL A   1      32.909  37.612  31.391  1.00  0.00    -0.376 OA
BRANCH  32  33
ATOM     33  C   UNL A   1      33.724  37.745  32.545  1.00  0.00     0.202 C 
BRANCH  33  34
ATOM     34  C   UNL A   1      34.266  36.532  33.326  1.00  0.00     0.261 C 
BRANCH  34  35
ATOM     35  O   UNL A   1      35.362  35.807  32.751  1.00  0.00    -0.460 OA
BRANCH  35  36
ATOM     36  C   UNL A   1      35.411  34.474  32.979  1.00  0.00     0.338 C 
ATOM     37  O   UNL A   1      34.833  33.599  32.353  1.00  0.00    -0.246 OA
BRANCH  36  38
ATOM     38  C   UNL A   1      36.507  34.231  33.948  1.00  0.00     0.060 A 
ATOM     39  C   UNL A   1      37.814  34.607  33.595  1.00  0.00     0.016 A 
ATOM     40  C   UNL A   1      36.248  33.689  35.207  1.00  0.00     0.016 A 
ATOM     41  C   UNL A   1      38.867  34.417  34.490  1.00  0.00     0.010 A 
ATOM     42  C   UNL A   1      37.310  33.469  36.091  1.00  0.00     0.010 A 
ATOM     43  C   UNL A   1      38.628  33.800  35.725  1.00  0.00    -0.014 A 
BRANCH  43  44
ATOM     44  C   UNL A   1      39.768  33.288  36.527  1.00  0.00     0.031 A 
ATOM     45  C   UNL A   1      40.199  34.089  37.727  1.00  0.00     0.074 A 
ATOM     46  C   UNL A   1      40.397  32.138  36.226  1.00  0.00     0.049 A 
ATOM     47  N   UNL A   1      41.210  33.907  38.536  1.00  0.00    -0.248 NA
ATOM     48  C   UNL A   1      39.369  35.260  38.055  1.00  0.00     0.031 C 
ATOM     49  C   UNL A   1      40.040  31.233  35.137  1.00  0.00     0.029 A 
ATOM     50  N   UNL A   1      41.485  31.542  36.818  1.00  0.00    -0.354 N 
ATOM     51  C   UNL A   1      41.141  34.940  39.462  1.00  0.00     0.074 A 
ATOM     52  C   UNL A   1      40.013  35.766  39.094  1.00  0.00     0.031 C 
ATOM     53  C   UNL A   1      40.905  30.203  35.127  1.00  0.00     0.029 A 
ATOM     54  C   UNL A   1      41.897  30.396  36.185  1.00  0.00     0.049 A 
ATOM     55  H   UNL A   1      41.928  31.905  37.620  1.00  0.00     0.167 HD
ATOM     56  C   UNL A   1      41.939  35.172  40.531  1.00  0.00     0.037 A 
ATOM     57  C   UNL A   1      42.968  29.610  36.421  1.00  0.00     0.037 A 
ATOM     58  C   UNL A   1      43.066  34.356  40.894  1.00  0.00     0.049 A 
ATOM     59  C   UNL A   1      43.907  29.954  37.553  1.00  0.00     0.074 A 
ATOM     60  C   UNL A   1      43.942  34.515  41.953  1.00  0.00     0.029 A 
ATOM     61  N   UNL A   1      43.479  33.228  40.200  1.00  0.00    -0.354 N 
ATOM     62  N   UNL A   1      43.835  30.927  38.429  1.00  0.00    -0.248 NA
ATOM     63  C   UNL A   1      45.079  29.083  37.728  1.00  0.00     0.031 C 
ATOM     64  C   UNL A   1      44.916  33.516  41.870  1.00  0.00     0.029 A 
ATOM     65  C   UNL A   1      44.609  32.694  40.798  1.00  0.00     0.049 A 
ATOM     66  H   UNL A   1      43.034  32.860  39.402  1.00  0.00     0.167 HD
ATOM     67  C   UNL A   1      44.922  30.760  39.281  1.00  0.00     0.074 A 
ATOM     68  C   UNL A   1      45.632  29.585  38.822  1.00  0.00     0.031 C 
ATOM     69  C   UNL A   1      45.296  31.510  40.347  1.00  0.00     0.037 A 
BRANCH  56  70
ATOM     70  C   UNL A   1      41.633  36.379  41.370  1.00  0.00     0.064 A 
ATOM     71  C   UNL A   1      42.146  37.646  41.054  1.00  0.00     0.173 A 
ATOM     72  C   UNL A   1      40.790  36.272  42.486  1.00  0.00     0.173 A 
ATOM     73  F   UNL A   1      42.970  37.800  40.007  1.00  0.00    -0.203 F 
ATOM     74  C   UNL A   1      41.847  38.756  41.840  1.00  0.00     0.198 A 
ATOM     75  C   UNL A   1      40.466  37.390  43.250  1.00  0.00     0.198 A 
ATOM     76  F   UNL A   1      40.272  35.084  42.832  1.00  0.00    -0.203 F 
ATOM     77  F   UNL A   1      42.390  39.947  41.549  1.00  0.00    -0.200 F 
ATOM     78  C   UNL A   1      41.002  38.629  42.931  1.00  0.00     0.200 A 
ATOM     79  F   UNL A   1      39.637  37.268  44.296  1.00  0.00    -0.200 F 
ATOM     80  F   UNL A   1      40.707  39.700  43.681  1.00  0.00    -0.200 F 
ENDBRANCH  56  70
BRANCH  57  81
ATOM     81  C   UNL A   1      43.233  28.424  35.563  1.00  0.00     0.064 A 
ATOM     82  C   UNL A   1      44.078  28.511  34.447  1.00  0.00     0.173 A 
ATOM     83  C   UNL A   1      42.604  27.193  35.806  1.00  0.00     0.173 A 
ATOM     84  F   UNL A   1      44.677  29.674  34.149  1.00  0.00    -0.203 F 
ATOM     85  C   UNL A   1      44.263  27.424  33.594  1.00  0.00     0.198 A 
ATOM     86  C   UNL A   1      42.814  26.098  34.970  1.00  0.00     0.198 A 
ATOM     87  F   UNL A   1      41.775  27.057  36.851  1.00  0.00    -0.203 F 
ATOM     88  F   UNL A   1      45.025  27.557  32.499  1.00  0.00    -0.200 F 
ATOM     89  C   UNL A   1      43.634  26.218  33.858  1.00  0.00     0.200 A 
ATOM     90  F   UNL A   1      42.206  24.932  35.230  1.00  0.00    -0.200 F 
ATOM     91  F   UNL A   1      43.803  25.178  33.030  1.00  0.00    -0.200 F 
ENDBRANCH  57  81
BRANCH  69  92
ATOM     92  C   UNL A   1      46.491  31.052  41.139  1.00  0.00     0.064 A 
ATOM     93  C   UNL A   1      46.375  30.142  42.201  1.00  0.00     0.173 A 
ATOM     94  C   UNL A   1      47.777  31.502  40.801  1.00  0.00     0.173 A 
ATOM     95  F   UNL A   1      45.169  29.688  42.574  1.00  0.00    -0.203 F 
ATOM     96  C   UNL A   1      47.498  29.729  42.915  1.00  0.00     0.198 A 
ATOM     97  C   UNL A   1      48.900  31.059  41.493  1.00  0.00     0.198 A 
ATOM     98  F   UNL A   1      47.947  32.363  39.786  1.00  0.00    -0.203 F 
ATOM     99  F   UNL A   1      47.357  28.905  43.963  1.00  0.00    -0.200 F 
ATOM    100  C   UNL A   1      48.760  30.180  42.556  1.00  0.00     0.200 A 
ATOM    101  F   UNL A   1      50.119  31.482  41.131  1.00  0.00    -0.200 F 
ATOM    102  F   UNL A   1      49.838  29.776  43.240  1.00  0.00    -0.200 F 
ENDBRANCH  69  92
ENDBRANCH  43  44
ENDBRANCH  36  38
ENDBRANCH  35  36
ENDBRANCH  34  35
ENDBRANCH  33  34
ENDBRANCH  32  33
ENDBRANCH  31  32
ENDBRANCH   1  31
TORSDOF 22
ENDMDL
MODEL 2
REMARK VINA RESULT:      -9.3      7.215     12.527
REMARK SMILES COc1ccc(-c2noc(C[N@H+]3CCCC[C@@H]3C(=O)OCCOCCOCCOC(=O)c3ccc(-c4c5nc(c(-c6c(F)c(F)c(F)c(F)c6F)c6ccc([nH]6)c(-c6c(F)c(F)c(F)c(F)c6F)c6nc(c(-c7c(F)c(F)c(F)c(F)c7F)c7ccc4[nH]7)C=C6)C=C5)cc3)n2)cc1OC
REMARK SMILES IDX 24 1 23 2 22 3 21 4 20 5 18 6 19 7 17 8 12 9 13 10 14 12
REMARK SMILES IDX 16 13 15 14 11 15 10 16 7 17 8 18 95 19 9 20 6 21 3 22 4 23
REMARK SMILES IDX 97 24 5 25 96 26 2 27 1 28 98 29 99 30 25 31 26 32 27 33
REMARK SMILES IDX 28 34 29 35 30 36 31 37 32 38 33 39 94 40 34 41 93 42 35 43
REMARK SMILES IDX 36 44 37 45 87 46 38 47 92 48 86 49 88 50 39 51 91 52 85 53
REMARK SMILES IDX 84 54 40 56 72 57 52 58 71 59 53 60 56 61 70 62 89 63 54 64
REMARK SMILES IDX 55 65 69 67 90 68 57 69 41 70 42 71 50 72 43 73 44 74 48 75
REMARK SMILES IDX 51 76 45 77 46 78 49 79 47 80 73 81 74 82 82 83 75 84 76 85
REMARK SMILES IDX 80 86 83 87 77 88 78 89 81 90 79 91 58 92 59 93 67 94 60 95
REMARK SMILES IDX 61 96 65 97 68 98 62 99 63 100 66 101 64 102
REMARK H PARENT 12 11 88 55 56 66
REMARK Flexibility Score: inf
ROOT
ATOM      1  C   UNL A   1      38.184  31.664  36.837  1.00  0.00     0.188 C 
ENDROOT
BRANCH   1   2
ATOM      2  O   UNL A   1      39.527  31.423  36.459  1.00  0.00    -0.376 OA
BRANCH   2   3
ATOM      3  C   UNL A   1      39.851  30.338  35.599  1.00  0.00     0.202 C 
BRANCH   3   4
ATOM      4  C   UNL A   1      39.175  30.184  34.220  1.00  0.00     0.261 C 
BRANCH   4   5
ATOM      5  O   UNL A   1      39.628  29.101  33.377  1.00  0.00    -0.459 OA
BRANCH   5   6
ATOM      6  C   UNL A   1      38.680  28.572  32.564  1.00  0.00     0.365 C 
ATOM      7  O   UNL A   1      37.551  28.289  32.963  1.00  0.00    -0.245 OA
BRANCH   6   8
ATOM      8  C   UNL A   1      39.081  28.424  31.066  1.00  0.00     0.295 C 
ATOM      9  N   UNL A   1      38.525  29.535  30.232  1.00  0.00    -0.315 N 
ATOM     10  C   UNL A   1      39.028  29.502  28.845  1.00  0.00     0.263 C 
ATOM     11  H   UNL A   1      37.521  29.356  30.236  1.00  0.00     0.349 HD
ATOM     12  C   UNL A   1      38.794  28.161  28.158  1.00  0.00     0.062 C 
ATOM     13  C   UNL A   1      38.756  27.076  30.392  1.00  0.00     0.078 C 
ATOM     14  C   UNL A   1      39.370  27.029  28.991  1.00  0.00     0.013 C 
BRANCH   9  15
ATOM     15  C   UNL A   1      38.726  30.895  30.794  1.00  0.00     0.364 C 
BRANCH  15  16
ATOM     16  C   UNL A   1      37.721  31.939  30.424  1.00  0.00     0.282 A 
ATOM     17  C   UNL A   1      36.082  33.226  30.255  1.00  0.00     0.202 A 
ATOM     18  N   UNL A   1      36.780  33.487  29.142  1.00  0.00    -0.057 NA
ATOM     19  N   UNL A   1      36.621  32.255  31.061  1.00  0.00    -0.186 NA
ATOM     20  O   UNL A   1      37.893  32.647  29.268  1.00  0.00    -0.333 OA
BRANCH  17  21
ATOM     21  C   UNL A   1      34.939  33.976  30.709  1.00  0.00     0.027 A 
ATOM     22  C   UNL A   1      32.846  35.667  31.447  1.00  0.00     0.160 A 
ATOM     23  C   UNL A   1      33.577  34.962  32.422  1.00  0.00     0.051 A 
ATOM     24  C   UNL A   1      33.174  35.542  30.094  1.00  0.00     0.161 A 
ATOM     25  C   UNL A   1      34.617  34.104  32.056  1.00  0.00     0.016 A 
ATOM     26  C   UNL A   1      34.214  34.683  29.744  1.00  0.00     0.062 A 
BRANCH  22  27
ATOM     27  O   UNL A   1      31.904  36.554  31.893  1.00  0.00    -0.493 OA
ATOM     28  C   UNL A   1      31.059  35.960  32.878  1.00  0.00     0.278 C 
ENDBRANCH  22  27
BRANCH  24  29
ATOM     29  O   UNL A   1      32.654  36.167  28.999  1.00  0.00    -0.493 OA
ATOM     30  C   UNL A   1      33.178  37.411  28.582  1.00  0.00     0.278 C 
ENDBRANCH  24  29
ENDBRANCH  17  21
ENDBRANCH  15  16
ENDBRANCH   9  15
ENDBRANCH   6   8
ENDBRANCH   5   6
ENDBRANCH   4   5
ENDBRANCH   3   4
ENDBRANCH   2   3
ENDBRANCH   1   2
BRANCH   1  31
ATOM     31  C   UNL A   1      37.631  33.092  36.823  1.00  0.00     0.188 C 
BRANCH  31  32
ATOM     32  O   UNL A   1      36.702  33.374  35.809  1.00  0.00    -0.376 OA
BRANCH  32  33
ATOM     33  C   UNL A   1      37.102  33.375  34.448  1.00  0.00     0.202 C 
BRANCH  33  34
ATOM     34  C   UNL A   1      37.793  34.582  33.783  1.00  0.00     0.261 C 
BRANCH  34  35
ATOM     35  O   UNL A   1      38.849  34.312  32.850  1.00  0.00    -0.460 OA
BRANCH  35  36
ATOM     36  C   UNL A   1      40.117  34.539  33.266  1.00  0.00     0.338 C 
ATOM     37  O   UNL A   1      40.463  35.121  34.283  1.00  0.00    -0.246 OA
BRANCH  36  38
ATOM     38  C   UNL A   1      41.014  33.719  32.418  1.00  0.00     0.060 A 
ATOM     39  C   UNL A   1      41.875  32.800  33.039  1.00  0.00     0.016 A 
ATOM     40  C   UNL A   1      40.974  33.812  31.026  1.00  0.00     0.016 A 
ATOM     41  C   UNL A   1      42.717  31.993  32.272  1.00  0.00     0.010 A 
ATOM     42  C   UNL A   1      41.841  33.026  30.259  1.00  0.00     0.010 A 
ATOM     43  C   UNL A   1      42.739  32.138  30.879  1.00  0.00    -0.014 A 
BRANCH  43  44
ATOM     44  C   UNL A   1      43.852  31.546  30.094  1.00  0.00     0.031 A 
ATOM     45  C   UNL A   1      43.723  30.108  29.667  1.00  0.00     0.074 A 
ATOM     46  C   UNL A   1      44.938  32.256  29.743  1.00  0.00     0.049 A 
ATOM     47  N   UNL A   1      44.582  29.336  29.052  1.00  0.00    -0.248 NA
ATOM     48  C   UNL A   1      42.443  29.452  29.982  1.00  0.00     0.031 C 
ATOM     49  C   UNL A   1      45.160  33.670  30.030  1.00  0.00     0.029 A 
ATOM     50  N   UNL A   1      46.072  31.866  29.068  1.00  0.00    -0.354 N 
ATOM     51  C   UNL A   1      43.950  28.108  28.913  1.00  0.00     0.074 A 
ATOM     52  C   UNL A   1      42.651  28.222  29.539  1.00  0.00     0.031 C 
ATOM     53  C   UNL A   1      46.365  34.028  29.549  1.00  0.00     0.029 A 
ATOM     54  C   UNL A   1      47.012  32.859  28.954  1.00  0.00     0.049 A 
ATOM     55  H   UNL A   1      46.196  30.960  28.703  1.00  0.00     0.167 HD
ATOM     56  C   UNL A   1      44.406  26.986  28.307  1.00  0.00     0.037 A 
ATOM     57  C   UNL A   1      48.263  32.816  28.450  1.00  0.00     0.037 A 
ATOM     58  C   UNL A   1      45.700  26.867  27.690  1.00  0.00     0.049 A 
ATOM     59  C   UNL A   1      48.790  31.521  27.878  1.00  0.00     0.074 A 
ATOM     60  C   UNL A   1      46.258  25.769  27.059  1.00  0.00     0.029 A 
ATOM     61  N   UNL A   1      46.644  27.882  27.636  1.00  0.00    -0.354 N 
ATOM     62  N   UNL A   1      48.188  30.364  27.742  1.00  0.00    -0.248 NA
ATOM     63  C   UNL A   1      50.175  31.531  27.385  1.00  0.00     0.031 C 
ATOM     64  C   UNL A   1      47.558  26.102  26.670  1.00  0.00     0.029 A 
ATOM     65  C   UNL A   1      47.788  27.428  26.999  1.00  0.00     0.049 A 
ATOM     66  H   UNL A   1      46.519  28.790  27.995  1.00  0.00     0.167 HD
ATOM     67  C   UNL A   1      49.102  29.526  27.113  1.00  0.00     0.074 A 
ATOM     68  C   UNL A   1      50.297  30.310  26.883  1.00  0.00     0.031 C 
ATOM     69  C   UNL A   1      48.964  28.225  26.755  1.00  0.00     0.037 A 
BRANCH  56  70
ATOM     70  C   UNL A   1      43.503  25.786  28.306  1.00  0.00     0.064 A 
ATOM     71  C   UNL A   1      42.488  25.628  27.350  1.00  0.00     0.173 A 
ATOM     72  C   UNL A   1      43.676  24.767  29.254  1.00  0.00     0.173 A 
ATOM     73  F   UNL A   1      42.270  26.581  26.432  1.00  0.00    -0.203 F 
ATOM     74  C   UNL A   1      41.663  24.506  27.360  1.00  0.00     0.198 A 
ATOM     75  C   UNL A   1      42.871  23.631  29.241  1.00  0.00     0.198 A 
ATOM     76  F   UNL A   1      44.632  24.868  30.189  1.00  0.00    -0.203 F 
ATOM     77  F   UNL A   1      40.667  24.401  26.470  1.00  0.00    -0.200 F 
ATOM     78  C   UNL A   1      41.861  23.506  28.299  1.00  0.00     0.200 A 
ATOM     79  F   UNL A   1      43.074  22.658  30.140  1.00  0.00    -0.200 F 
ATOM     80  F   UNL A   1      41.073  22.422  28.302  1.00  0.00    -0.200 F 
ENDBRANCH  56  70
BRANCH  57  81
ATOM     81  C   UNL A   1      49.124  34.030  28.472  1.00  0.00     0.064 A 
ATOM     82  C   UNL A   1      49.166  34.907  27.379  1.00  0.00     0.173 A 
ATOM     83  C   UNL A   1      49.964  34.308  29.561  1.00  0.00     0.173 A 
ATOM     84  F   UNL A   1      48.409  34.668  26.297  1.00  0.00    -0.203 F 
ATOM     85  C   UNL A   1      50.033  35.999  27.362  1.00  0.00     0.198 A 
ATOM     86  C   UNL A   1      50.808  35.417  29.556  1.00  0.00     0.198 A 
ATOM     87  F   UNL A   1      49.974  33.495  30.627  1.00  0.00    -0.203 F 
ATOM     88  F   UNL A   1      50.099  36.783  26.277  1.00  0.00    -0.200 F 
ATOM     89  C   UNL A   1      50.850  36.255  28.452  1.00  0.00     0.200 A 
ATOM     90  F   UNL A   1      51.594  35.663  30.613  1.00  0.00    -0.200 F 
ATOM     91  F   UNL A   1      51.692  37.298  28.429  1.00  0.00    -0.200 F 
ENDBRANCH  57  81
BRANCH  69  92
ATOM     92  C   UNL A   1      50.105  27.578  26.016  1.00  0.00     0.064 A 
ATOM     93  C   UNL A   1      51.193  27.000  26.687  1.00  0.00     0.173 A 
ATOM     94  C   UNL A   1      50.085  27.503  24.614  1.00  0.00     0.173 A 
ATOM     95  F   UNL A   1      51.268  27.053  28.025  1.00  0.00    -0.203 F 
ATOM     96  C   UNL A   1      52.234  26.402  25.979  1.00  0.00     0.198 A 
ATOM     97  C   UNL A   1      51.108  26.871  23.913  1.00  0.00     0.198 A 
ATOM     98  F   UNL A   1      49.062  28.028  23.923  1.00  0.00    -0.203 F 
ATOM     99  F   UNL A   1      53.291  25.908  26.639  1.00  0.00    -0.200 F 
ATOM    100  C   UNL A   1      52.188  26.330  24.595  1.00  0.00     0.200 A 
ATOM    101  F   UNL A   1      51.052  26.787  22.577  1.00  0.00    -0.200 F 
ATOM    102  F   UNL A   1      53.187  25.749  23.918  1.00  0.00    -0.200 F 
ENDBRANCH  69  92
ENDBRANCH  43  44
ENDBRANCH  36  38
ENDBRANCH  35  36
ENDBRANCH  34  35
ENDBRANCH  33  34
ENDBRANCH  32  33
ENDBRANCH  31  32
ENDBRANCH   1  31
TORSDOF 22
ENDMDL
MODEL 3
REMARK VINA RESULT:      -9.2      0.992      6.909
REMARK SMILES COc1ccc(-c2noc(C[N@H+]3CCCC[C@@H]3C(=O)OCCOCCOCCOC(=O)c3ccc(-c4c5nc(c(-c6c(F)c(F)c(F)c(F)c6F)c6ccc([nH]6)c(-c6c(F)c(F)c(F)c(F)c6F)c6nc(c(-c7c(F)c(F)c(F)c(F)c7F)c7ccc4[nH]7)C=C6)C=C5)cc3)n2)cc1OC
REMARK SMILES IDX 24 1 23 2 22 3 21 4 20 5 18 6 19 7 17 8 12 9 13 10 14 12
REMARK SMILES IDX 16 13 15 14 11 15 10 16 7 17 8 18 95 19 9 20 6 21 3 22 4 23
REMARK SMILES IDX 97 24 5 25 96 26 2 27 1 28 98 29 99 30 25 31 26 32 27 33
REMARK SMILES IDX 28 34 29 35 30 36 31 37 32 38 33 39 94 40 34 41 93 42 35 43
REMARK SMILES IDX 36 44 37 45 87 46 38 47 92 48 86 49 88 50 39 51 91 52 85 53
REMARK SMILES IDX 84 54 40 56 72 57 52 58 71 59 53 60 56 61 70 62 89 63 54 64
REMARK SMILES IDX 55 65 69 67 90 68 57 69 41 70 42 71 50 72 43 73 44 74 48 75
REMARK SMILES IDX 51 76 45 77 46 78 49 79 47 80 73 81 74 82 82 83 75 84 76 85
REMARK SMILES IDX 80 86 83 87 77 88 78 89 81 90 79 91 58 92 59 93 67 94 60 95
REMARK SMILES IDX 61 96 65 97 68 98 62 99 63 100 66 101 64 102
REMARK H PARENT 12 11 88 55 56 66
REMARK Flexibility Score: inf
ROOT
ATOM      1  C   UNL A   1      33.304  35.564  29.732  1.00  0.00     0.188 C 
ENDROOT
BRANCH   1   2
ATOM      2  O   UNL A   1      32.654  34.653  28.864  1.00  0.00    -0.376 OA
BRANCH   2   3
ATOM      3  C   UNL A   1      33.408  33.852  27.963  1.00  0.00     0.202 C 
BRANCH   3   4
ATOM      4  C   UNL A   1      34.946  33.772  28.062  1.00  0.00     0.261 C 
BRANCH   4   5
ATOM      5  O   UNL A   1      35.501  33.039  29.178  1.00  0.00    -0.459 OA
BRANCH   5   6
ATOM      6  C   UNL A   1      36.847  32.871  29.141  1.00  0.00     0.365 C 
ATOM      7  O   UNL A   1      37.606  33.722  28.682  1.00  0.00    -0.245 OA
BRANCH   6   8
ATOM      8  C   UNL A   1      37.382  31.564  29.797  1.00  0.00     0.295 C 
ATOM      9  N   UNL A   1      36.567  30.372  29.405  1.00  0.00    -0.315 N 
ATOM     10  C   UNL A   1      37.156  29.106  29.884  1.00  0.00     0.263 C 
ATOM     11  H   UNL A   1      35.673  30.532  29.869  1.00  0.00     0.349 HD
ATOM     12  C   UNL A   1      37.408  29.098  31.388  1.00  0.00     0.062 C 
ATOM     13  C   UNL A   1      37.550  31.577  31.330  1.00  0.00     0.078 C 
ATOM     14  C   UNL A   1      38.248  30.296  31.792  1.00  0.00     0.013 C 
BRANCH   9  15
ATOM     15  C   UNL A   1      36.287  30.263  27.950  1.00  0.00     0.364 C 
BRANCH  15  16
ATOM     16  C   UNL A   1      34.964  29.691  27.553  1.00  0.00     0.282 A 
ATOM     17  C   UNL A   1      33.365  28.550  26.836  1.00  0.00     0.202 A 
ATOM     18  N   UNL A   1      32.778  29.707  27.168  1.00  0.00    -0.057 NA
ATOM     19  N   UNL A   1      34.721  28.512  27.037  1.00  0.00    -0.186 NA
ATOM     20  O   UNL A   1      33.842  30.461  27.677  1.00  0.00    -0.333 OA
BRANCH  17  21
ATOM     21  C   UNL A   1      32.668  27.352  26.445  1.00  0.00     0.027 A 
ATOM     22  C   UNL A   1      31.435  25.071  25.412  1.00  0.00     0.160 A 
ATOM     23  C   UNL A   1      30.672  26.086  26.020  1.00  0.00     0.051 A 
ATOM     24  C   UNL A   1      32.822  25.204  25.300  1.00  0.00     0.161 A 
ATOM     25  C   UNL A   1      31.287  27.223  26.551  1.00  0.00     0.016 A 
ATOM     26  C   UNL A   1      33.421  26.344  25.834  1.00  0.00     0.062 A 
BRANCH  22  27
ATOM     27  O   UNL A   1      30.751  24.035  24.838  1.00  0.00    -0.493 OA
ATOM     28  C   UNL A   1      30.926  24.022  23.421  1.00  0.00     0.278 C 
ENDBRANCH  22  27
BRANCH  24  29
ATOM     29  O   UNL A   1      33.742  24.392  24.703  1.00  0.00    -0.493 OA
ATOM     30  C   UNL A   1      35.091  24.431  25.119  1.00  0.00     0.278 C 
ENDBRANCH  24  29
ENDBRANCH  17  21
ENDBRANCH  15  16
ENDBRANCH   9  15
ENDBRANCH   6   8
ENDBRANCH   5   6
ENDBRANCH   4   5
ENDBRANCH   3   4
ENDBRANCH   2   3
ENDBRANCH   1   2
BRANCH   1  31
ATOM     31  C   UNL A   1      32.493  36.329  30.782  1.00  0.00     0.188 C 
BRANCH  31  32
ATOM     32  O   UNL A   1      32.950  37.623  31.078  1.00  0.00    -0.376 OA
BRANCH  32  33
ATOM     33  C   UNL A   1      33.641  37.882  32.289  1.00  0.00     0.202 C 
BRANCH  33  34
ATOM     34  C   UNL A   1      34.078  36.763  33.255  1.00  0.00     0.261 C 
BRANCH  34  35
ATOM     35  O   UNL A   1      35.233  35.991  32.898  1.00  0.00    -0.460 OA
BRANCH  35  36
ATOM     36  C   UNL A   1      35.173  34.654  33.106  1.00  0.00     0.338 C 
ATOM     37  O   UNL A   1      34.353  33.875  32.645  1.00  0.00    -0.246 OA
BRANCH  36  38
ATOM     38  C   UNL A   1      36.437  34.253  33.768  1.00  0.00     0.060 A 
ATOM     39  C   UNL A   1      36.370  33.483  34.941  1.00  0.00     0.016 A 
ATOM     40  C   UNL A   1      37.675  34.584  33.216  1.00  0.00     0.016 A 
ATOM     41  C   UNL A   1      37.539  33.066  35.578  1.00  0.00     0.010 A 
ATOM     42  C   UNL A   1      38.847  34.193  33.873  1.00  0.00     0.010 A 
ATOM     43  C   UNL A   1      38.785  33.462  35.074  1.00  0.00    -0.014 A 
BRANCH  43  44
ATOM     44  C   UNL A   1      40.000  33.320  35.916  1.00  0.00     0.031 A 
ATOM     45  C   UNL A   1      40.798  32.050  35.789  1.00  0.00     0.074 A 
ATOM     46  C   UNL A   1      40.408  34.289  36.755  1.00  0.00     0.049 A 
ATOM     47  N   UNL A   1      41.843  31.646  36.466  1.00  0.00    -0.248 NA
ATOM     48  C   UNL A   1      40.352  31.106  34.752  1.00  0.00     0.031 C 
ATOM     49  C   UNL A   1      39.769  35.591  36.925  1.00  0.00     0.029 A 
ATOM     50  N   UNL A   1      41.465  34.313  37.633  1.00  0.00    -0.354 N 
ATOM     51  C   UNL A   1      42.171  30.403  35.941  1.00  0.00     0.074 A 
ATOM     52  C   UNL A   1      41.197  30.101  34.917  1.00  0.00     0.031 C 
ATOM     53  C   UNL A   1      40.439  36.283  37.865  1.00  0.00     0.029 A 
ATOM     54  C   UNL A   1      41.528  35.458  38.387  1.00  0.00     0.049 A 
ATOM     55  H   UNL A   1      42.115  33.577  37.714  1.00  0.00     0.167 HD
ATOM     56  C   UNL A   1      43.202  29.590  36.275  1.00  0.00     0.037 A 
ATOM     57  C   UNL A   1      42.356  35.787  39.399  1.00  0.00     0.037 A 
ATOM     58  C   UNL A   1      44.168  29.884  37.299  1.00  0.00     0.049 A 
ATOM     59  C   UNL A   1      43.430  34.815  39.828  1.00  0.00     0.074 A 
ATOM     60  C   UNL A   1      45.243  29.120  37.717  1.00  0.00     0.029 A 
ATOM     61  N   UNL A   1      44.171  31.036  38.072  1.00  0.00    -0.354 N 
ATOM     62  N   UNL A   1      43.742  33.644  39.326  1.00  0.00    -0.248 NA
ATOM     63  C   UNL A   1      44.270  35.216  40.966  1.00  0.00     0.031 C 
ATOM     64  C   UNL A   1      45.863  29.783  38.780  1.00  0.00     0.029 A 
ATOM     65  C   UNL A   1      45.217  30.992  38.980  1.00  0.00     0.049 A 
ATOM     66  H   UNL A   1      43.526  31.776  37.989  1.00  0.00     0.167 HD
ATOM     67  C   UNL A   1      44.836  33.191  40.056  1.00  0.00     0.074 A 
ATOM     68  C   UNL A   1      45.140  34.218  41.029  1.00  0.00     0.031 C 
ATOM     69  C   UNL A   1      45.526  32.031  39.930  1.00  0.00     0.037 A 
BRANCH  56  70
ATOM     70  C   UNL A   1      43.318  28.286  35.539  1.00  0.00     0.064 A 
ATOM     71  C   UNL A   1      44.196  28.127  34.456  1.00  0.00     0.173 A 
ATOM     72  C   UNL A   1      42.565  27.174  35.942  1.00  0.00     0.173 A 
ATOM     73  F   UNL A   1      44.927  29.164  34.020  1.00  0.00    -0.203 F 
ATOM     74  C   UNL A   1      44.296  26.909  33.788  1.00  0.00     0.198 A 
ATOM     75  C   UNL A   1      42.692  25.948  35.293  1.00  0.00     0.198 A 
ATOM     76  F   UNL A   1      41.711  27.271  36.972  1.00  0.00    -0.203 F 
ATOM     77  F   UNL A   1      45.103  26.795  32.724  1.00  0.00    -0.200 F 
ATOM     78  C   UNL A   1      43.551  25.820  34.213  1.00  0.00     0.200 A 
ATOM     79  F   UNL A   1      41.982  24.893  35.714  1.00  0.00    -0.200 F 
ATOM     80  F   UNL A   1      43.656  24.646  33.575  1.00  0.00    -0.200 F 
ENDBRANCH  56  70
BRANCH  57  81
ATOM     81  C   UNL A   1      42.204  37.091  40.102  1.00  0.00     0.064 A 
ATOM     82  C   UNL A   1      42.857  38.242  39.640  1.00  0.00     0.173 A 
ATOM     83  C   UNL A   1      41.449  37.200  41.280  1.00  0.00     0.173 A 
ATOM     84  F   UNL A   1      43.621  38.184  38.539  1.00  0.00    -0.203 F 
ATOM     85  C   UNL A   1      42.784  39.444  40.342  1.00  0.00     0.198 A 
ATOM     86  C   UNL A   1      41.351  38.410  41.964  1.00  0.00     0.198 A 
ATOM     87  F   UNL A   1      40.814  36.127  41.773  1.00  0.00    -0.203 F 
ATOM     88  F   UNL A   1      43.472  40.512  39.913  1.00  0.00    -0.200 F 
ATOM     89  C   UNL A   1      42.028  39.529  41.501  1.00  0.00     0.200 A 
ATOM     90  F   UNL A   1      40.616  38.489  43.082  1.00  0.00    -0.200 F 
ATOM     91  F   UNL A   1      41.969  40.682  42.181  1.00  0.00    -0.200 F 
ENDBRANCH  57  81
BRANCH  69  92
ATOM     92  C   UNL A   1      46.724  31.830  40.819  1.00  0.00     0.064 A 
ATOM     93  C   UNL A   1      46.631  31.180  42.058  1.00  0.00     0.173 A 
ATOM     94  C   UNL A   1      47.993  32.263  40.401  1.00  0.00     0.173 A 
ATOM     95  F   UNL A   1      45.441  30.756  42.511  1.00  0.00    -0.203 F 
ATOM     96  C   UNL A   1      47.756  31.002  42.860  1.00  0.00     0.198 A 
ATOM     97  C   UNL A   1      49.121  32.050  41.188  1.00  0.00     0.198 A 
ATOM     98  F   UNL A   1      48.142  32.880  39.219  1.00  0.00    -0.203 F 
ATOM     99  F   UNL A   1      47.633  30.430  44.065  1.00  0.00    -0.200 F 
ATOM    100  C   UNL A   1      49.001  31.429  42.422  1.00  0.00     0.200 A 
ATOM    101  F   UNL A   1      50.325  32.447  40.754  1.00  0.00    -0.200 F 
ATOM    102  F   UNL A   1      50.082  31.250  43.192  1.00  0.00    -0.200 F 
ENDBRANCH  69  92
ENDBRANCH  43  44
ENDBRANCH  36  38
ENDBRANCH  35  36
ENDBRANCH  34  35
ENDBRANCH  33  34
ENDBRANCH  32  33
ENDBRANCH  31  32
ENDBRANCH   1  31
TORSDOF 22
ENDMDL
