MODEL 1
REMARK VINA RESULT:     -13.3      0.000      0.000
REMARK SMILES O=C(OCCOCCOCCOC(=O)c1ccc(-c2c3nc(c(-c4c(F)c(F)c(F)c(F)c4F)c4ccc([nH]4)c(-c4c(F)c(F)c(F)c(F)c4F)c4nc(c(-c5c(F)c(F)c(F)c(F)c5F)c5ccc2[nH]5)C=C4)C=C3)cc1)C1=Cc2cc(C(F)(F)F)ccc2O[C@@H]1C(F)(F)F
REMARK SMILES IDX 8 1 7 2 6 3 5 4 4 5 3 6 2 7 1 8 78 9 79 10 91 11 80 12 90 13
REMARK SMILES IDX 81 14 89 15 82 16 88 17 87 18 92 19 93 20 94 21 95 22 83 23
REMARK SMILES IDX 84 24 85 25 86 26 9 27 10 28 11 29 12 30 13 31 14 32 15 33
REMARK SMILES IDX 16 34 77 35 17 36 76 37 18 38 19 39 20 40 70 41 21 42 75 43
REMARK SMILES IDX 69 44 71 45 22 46 74 47 68 48 67 49 23 51 55 52 35 53 54 54
REMARK SMILES IDX 36 55 39 56 53 57 72 58 37 59 38 60 52 62 73 63 40 64 24 65
REMARK SMILES IDX 25 66 33 67 26 68 27 69 31 70 34 71 28 72 29 73 32 74 30 75
REMARK SMILES IDX 56 76 57 77 65 78 58 79 59 80 63 81 66 82 60 83 61 84 64 85
REMARK SMILES IDX 62 86 41 87 42 88 50 89 43 90 44 91 48 92 51 93 45 94 46 95
REMARK SMILES IDX 49 96 47 97
REMARK H PARENT 71 50 39 61
REMARK Flexibility Score: inf
ROOT
ATOM      1  C   UNL A   1      42.162  19.970  26.154  1.00  0.00     0.188 C 
ENDROOT
BRANCH   1   2
ATOM      2  C   UNL A   1      40.837  20.089  26.922  1.00  0.00     0.188 C 
BRANCH   2   3
ATOM      3  O   UNL A   1      40.267  21.371  27.434  1.00  0.00    -0.376 OA
BRANCH   3   4
ATOM      4  C   UNL A   1      39.531  22.650  26.535  1.00  0.00     0.202 C 
BRANCH   4   5
ATOM      5  C   UNL A   1      37.490  22.625  25.789  1.00  0.00     0.261 C 
BRANCH   5   6
ATOM      6  O   UNL A   1      36.953  21.764  24.655  1.00  0.00    -0.460 OA
BRANCH   6   7
ATOM      7  C   UNL A   1      36.267  22.489  23.760  1.00  0.00     0.338 C 
ATOM      8  O   UNL A   1      36.665  22.975  22.730  1.00  0.00    -0.246 OA
BRANCH   7   9
ATOM      9  C   UNL A   1      35.198  22.905  24.652  1.00  0.00     0.087 C 
ATOM     10  C   UNL A   1      35.054  24.341  24.845  1.00  0.00     0.027 C 
ATOM     11  C   UNL A   1      33.905  21.786  23.786  1.00  0.00     0.316 C 
ATOM     12  C   UNL A   1      33.797  25.343  24.058  1.00  0.00     0.018 A 
ATOM     13  O   UNL A   1      32.621  22.859  22.774  1.00  0.00    -0.475 OA
ATOM     14  C   UNL A   1      33.800  26.690  24.270  1.00  0.00     0.025 A 
ATOM     15  C   UNL A   1      32.625  24.681  22.975  1.00  0.00     0.128 A 
ATOM     16  C   UNL A   1      32.788  27.421  23.604  1.00  0.00     0.056 A 
ATOM     17  C   UNL A   1      31.657  25.433  22.373  1.00  0.00     0.048 A 
ATOM     18  C   UNL A   1      31.771  26.810  22.720  1.00  0.00     0.017 A 
BRANCH  11  19
ATOM     19  C   UNL A   1      33.748  20.821  25.157  1.00  0.00     0.430 C 
ATOM     20  F   UNL A   1      34.053  21.270  26.372  1.00  0.00    -0.167 F 
ATOM     21  F   UNL A   1      32.444  20.431  25.238  1.00  0.00    -0.167 F 
ATOM     22  F   UNL A   1      34.440  19.644  25.053  1.00  0.00    -0.167 F 
ENDBRANCH  11  19
BRANCH  16  23
ATOM     23  C   UNL A   1      32.802  28.923  23.868  1.00  0.00     0.416 C 
ATOM     24  F   UNL A   1      33.544  29.597  22.944  1.00  0.00    -0.166 F 
ATOM     25  F   UNL A   1      31.552  29.465  23.796  1.00  0.00    -0.166 F 
ATOM     26  F   UNL A   1      33.297  29.273  25.083  1.00  0.00    -0.166 F 
ENDBRANCH  16  23
ENDBRANCH   7   9
ENDBRANCH   6   7
ENDBRANCH   5   6
ENDBRANCH   4   5
ENDBRANCH   3   4
ENDBRANCH   2   3
ENDBRANCH   1   2
BRANCH   1  27
ATOM     27  O   UNL A   1      43.126  20.979  26.296  1.00  0.00    -0.376 OA
BRANCH  27  28
ATOM     28  C   UNL A   1      44.128  21.001  25.289  1.00  0.00     0.202 C 
BRANCH  28  29
ATOM     29  C   UNL A   1      44.179  22.213  24.342  1.00  0.00     0.261 C 
BRANCH  29  30
ATOM     30  O   UNL A   1      43.441  23.364  24.819  1.00  0.00    -0.460 OA
BRANCH  30  31
ATOM     31  C   UNL A   1      44.136  24.507  25.051  1.00  0.00     0.338 C 
ATOM     32  O   UNL A   1      45.194  24.844  24.548  1.00  0.00    -0.246 OA
BRANCH  31  33
ATOM     33  C   UNL A   1      43.350  25.399  25.930  1.00  0.00     0.060 A 
ATOM     34  C   UNL A   1      43.540  26.790  25.864  1.00  0.00     0.016 A 
ATOM     35  C   UNL A   1      42.465  24.855  26.860  1.00  0.00     0.016 A 
ATOM     36  C   UNL A   1      42.812  27.641  26.700  1.00  0.00     0.010 A 
ATOM     37  C   UNL A   1      41.782  25.704  27.736  1.00  0.00     0.010 A 
ATOM     38  C   UNL A   1      41.964  27.098  27.671  1.00  0.00    -0.014 A 
BRANCH  38  39
ATOM     39  C   UNL A   1      41.500  27.942  28.800  1.00  0.00     0.031 A 
ATOM     40  C   UNL A   1      42.262  27.837  30.092  1.00  0.00     0.074 A 
ATOM     41  C   UNL A   1      40.436  28.756  28.703  1.00  0.00     0.049 A 
ATOM     42  N   UNL A   1      42.025  28.391  31.252  1.00  0.00    -0.248 NA
ATOM     43  C   UNL A   1      43.454  26.971  30.068  1.00  0.00     0.031 C 
ATOM     44  C   UNL A   1      39.644  28.977  27.497  1.00  0.00     0.029 A 
ATOM     45  N   UNL A   1      39.830  29.542  29.655  1.00  0.00    -0.354 N 
ATOM     46  C   UNL A   1      43.034  27.938  32.092  1.00  0.00     0.074 A 
ATOM     47  C   UNL A   1      43.861  27.036  31.324  1.00  0.00     0.031 C 
ATOM     48  C   UNL A   1      38.643  29.829  27.786  1.00  0.00     0.029 A 
ATOM     49  C   UNL A   1      38.702  30.184  29.203  1.00  0.00     0.049 A 
ATOM     50  H   UNL A   1      40.172  29.635  30.573  1.00  0.00     0.167 HD
ATOM     51  C   UNL A   1      43.253  28.250  33.391  1.00  0.00     0.037 A 
ATOM     52  C   UNL A   1      37.813  30.946  29.872  1.00  0.00     0.037 A 
ATOM     53  C   UNL A   1      42.408  29.125  34.159  1.00  0.00     0.049 A 
ATOM     54  C   UNL A   1      38.024  31.205  31.346  1.00  0.00     0.074 A 
ATOM     55  C   UNL A   1      42.541  29.512  35.478  1.00  0.00     0.029 A 
ATOM     56  N   UNL A   1      41.255  29.730  33.676  1.00  0.00    -0.354 N 
ATOM     57  N   UNL A   1      38.996  30.803  32.131  1.00  0.00    -0.248 NA
ATOM     58  C   UNL A   1      37.014  32.029  32.028  1.00  0.00     0.031 C 
ATOM     59  C   UNL A   1      41.428  30.286  35.818  1.00  0.00     0.029 A 
ATOM     60  C   UNL A   1      40.649  30.459  34.686  1.00  0.00     0.049 A 
ATOM     61  H   UNL A   1      40.919  29.652  32.754  1.00  0.00     0.167 HD
ATOM     62  C   UNL A   1      38.736  31.355  33.382  1.00  0.00     0.074 A 
ATOM     63  C   UNL A   1      37.522  32.130  33.248  1.00  0.00     0.031 C 
ATOM     64  C   UNL A   1      39.443  31.235  34.535  1.00  0.00     0.037 A 
BRANCH  51  65
ATOM     65  C   UNL A   1      44.424  27.599  34.068  1.00  0.00     0.064 A 
ATOM     66  C   UNL A   1      45.716  28.145  34.007  1.00  0.00     0.173 A 
ATOM     67  C   UNL A   1      44.250  26.410  34.795  1.00  0.00     0.173 A 
ATOM     68  F   UNL A   1      45.942  29.271  33.312  1.00  0.00    -0.203 F 
ATOM     69  C   UNL A   1      46.794  27.505  34.613  1.00  0.00     0.198 A 
ATOM     70  C   UNL A   1      45.324  25.796  35.434  1.00  0.00     0.198 A 
ATOM     71  F   UNL A   1      43.038  25.844  34.887  1.00  0.00    -0.203 F 
ATOM     72  F   UNL A   1      48.030  28.010  34.483  1.00  0.00    -0.200 F 
ATOM     73  C   UNL A   1      46.596  26.337  35.333  1.00  0.00     0.200 A 
ATOM     74  F   UNL A   1      45.126  24.677  36.143  1.00  0.00    -0.200 F 
ATOM     75  F   UNL A   1      47.633  25.727  35.921  1.00  0.00    -0.200 F 
ENDBRANCH  51  65
BRANCH  52  76
ATOM     76  C   UNL A   1      36.628  31.513  29.167  1.00  0.00     0.064 A 
ATOM     77  C   UNL A   1      36.543  32.882  28.873  1.00  0.00     0.173 A 
ATOM     78  C   UNL A   1      35.540  30.704  28.805  1.00  0.00     0.173 A 
ATOM     79  F   UNL A   1      37.540  33.706  29.226  1.00  0.00    -0.203 F 
ATOM     80  C   UNL A   1      35.409  33.422  28.268  1.00  0.00     0.198 A 
ATOM     81  C   UNL A   1      34.422  31.240  28.166  1.00  0.00     0.198 A 
ATOM     82  F   UNL A   1      35.560  29.390  29.070  1.00  0.00    -0.203 F 
ATOM     83  F   UNL A   1      35.330  34.744  28.058  1.00  0.00    -0.200 F 
ATOM     84  C   UNL A   1      34.353  32.600  27.909  1.00  0.00     0.200 A 
ATOM     85  F   UNL A   1      33.408  30.439  27.812  1.00  0.00    -0.200 F 
ATOM     86  F   UNL A   1      33.262  33.120  27.327  1.00  0.00    -0.200 F 
ENDBRANCH  52  76
BRANCH  64  87
ATOM     87  C   UNL A   1      38.958  32.002  35.735  1.00  0.00     0.064 A 
ATOM     88  C   UNL A   1      38.173  31.410  36.734  1.00  0.00     0.173 A 
ATOM     89  C   UNL A   1      39.336  33.344  35.911  1.00  0.00     0.173 A 
ATOM     90  F   UNL A   1      37.776  30.133  36.615  1.00  0.00    -0.203 F 
ATOM     91  C   UNL A   1      37.754  32.140  37.844  1.00  0.00     0.198 A 
ATOM     92  C   UNL A   1      38.952  34.057  37.044  1.00  0.00     0.198 A 
ATOM     93  F   UNL A   1      40.099  33.959  34.995  1.00  0.00    -0.203 F 
ATOM     94  F   UNL A   1      36.954  31.570  38.756  1.00  0.00    -0.200 F 
ATOM     95  C   UNL A   1      38.152  33.459  38.003  1.00  0.00     0.200 A 
ATOM     96  F   UNL A   1      39.361  35.324  37.206  1.00  0.00    -0.200 F 
ATOM     97  F   UNL A   1      37.759  34.155  39.079  1.00  0.00    -0.200 F 
ENDBRANCH  64  87
ENDBRANCH  38  39
ENDBRANCH  31  33
ENDBRANCH  30  31
ENDBRANCH  29  30
ENDBRANCH  28  29
ENDBRANCH  27  28
ENDBRANCH   1  27
TORSDOF 19
ENDMDL
MODEL 2
REMARK VINA RESULT:     -12.9      4.427      7.113
REMARK SMILES O=C(OCCOCCOCCOC(=O)c1ccc(-c2c3nc(c(-c4c(F)c(F)c(F)c(F)c4F)c4ccc([nH]4)c(-c4c(F)c(F)c(F)c(F)c4F)c4nc(c(-c5c(F)c(F)c(F)c(F)c5F)c5ccc2[nH]5)C=C4)C=C3)cc1)C1=Cc2cc(C(F)(F)F)ccc2O[C@@H]1C(F)(F)F
REMARK SMILES IDX 8 1 7 2 6 3 5 4 4 5 3 6 2 7 1 8 78 9 79 10 91 11 80 12 90 13
REMARK SMILES IDX 81 14 89 15 82 16 88 17 87 18 92 19 93 20 94 21 95 22 83 23
REMARK SMILES IDX 84 24 85 25 86 26 9 27 10 28 11 29 12 30 13 31 14 32 15 33
REMARK SMILES IDX 16 34 77 35 17 36 76 37 18 38 19 39 20 40 70 41 21 42 75 43
REMARK SMILES IDX 69 44 71 45 22 46 74 47 68 48 67 49 23 51 55 52 35 53 54 54
REMARK SMILES IDX 36 55 39 56 53 57 72 58 37 59 38 60 52 62 73 63 40 64 24 65
REMARK SMILES IDX 25 66 33 67 26 68 27 69 31 70 34 71 28 72 29 73 32 74 30 75
REMARK SMILES IDX 56 76 57 77 65 78 58 79 59 80 63 81 66 82 60 83 61 84 64 85
REMARK SMILES IDX 62 86 41 87 42 88 50 89 43 90 44 91 48 92 51 93 45 94 46 95
REMARK SMILES IDX 49 96 47 97
REMARK H PARENT 71 50 39 61
REMARK Flexibility Score: inf
ROOT
ATOM      1  C   UNL A   1      36.744  21.542  24.601  1.00  0.00     0.188 C 
ENDROOT
BRANCH   1   2
ATOM      2  C   UNL A   1      35.430  21.353  25.375  1.00  0.00     0.188 C 
BRANCH   2   3
ATOM      3  O   UNL A   1      34.114  21.038  24.744  1.00  0.00    -0.376 OA
BRANCH   3   4
ATOM      4  C   UNL A   1      33.147  22.046  23.727  1.00  0.00     0.202 C 
BRANCH   4   5
ATOM      5  C   UNL A   1      33.789  23.949  22.896  1.00  0.00     0.261 C 
BRANCH   5   6
ATOM      6  O   UNL A   1      32.943  24.905  22.069  1.00  0.00    -0.460 OA
BRANCH   6   7
ATOM      7  C   UNL A   1      33.165  26.184  22.404  1.00  0.00     0.338 C 
ATOM      8  O   UNL A   1      33.885  26.985  21.860  1.00  0.00    -0.246 OA
BRANCH   7   9
ATOM      9  C   UNL A   1      32.742  26.079  23.791  1.00  0.00     0.087 C 
ATOM     10  C   UNL A   1      33.647  26.654  24.776  1.00  0.00     0.027 C 
ATOM     11  C   UNL A   1      30.984  26.739  23.409  1.00  0.00     0.316 C 
ATOM     12  C   UNL A   1      33.391  28.232  25.580  1.00  0.00     0.018 A 
ATOM     13  O   UNL A   1      30.742  28.540  24.132  1.00  0.00    -0.475 OA
ATOM     14  C   UNL A   1      34.341  28.694  26.443  1.00  0.00     0.025 A 
ATOM     15  C   UNL A   1      32.022  29.233  25.247  1.00  0.00     0.128 A 
ATOM     16  C   UNL A   1      34.079  29.955  27.030  1.00  0.00     0.056 A 
ATOM     17  C   UNL A   1      31.810  30.436  25.859  1.00  0.00     0.048 A 
ATOM     18  C   UNL A   1      32.870  30.762  26.755  1.00  0.00     0.017 A 
BRANCH  11  19
ATOM     19  C   UNL A   1      30.288  25.256  23.798  1.00  0.00     0.430 C 
ATOM     20  F   UNL A   1      30.706  24.534  24.835  1.00  0.00    -0.167 F 
ATOM     21  F   UNL A   1      28.961  25.471  24.025  1.00  0.00    -0.167 F 
ATOM     22  F   UNL A   1      30.307  24.375  22.750  1.00  0.00    -0.167 F 
ENDBRANCH  11  19
BRANCH  16  23
ATOM     23  C   UNL A   1      35.148  30.444  28.002  1.00  0.00     0.416 C 
ATOM     24  F   UNL A   1      36.256  30.903  27.354  1.00  0.00    -0.166 F 
ATOM     25  F   UNL A   1      34.708  31.491  28.758  1.00  0.00    -0.166 F 
ATOM     26  F   UNL A   1      35.581  29.501  28.877  1.00  0.00    -0.166 F 
ENDBRANCH  16  23
ENDBRANCH   7   9
ENDBRANCH   6   7
ENDBRANCH   5   6
ENDBRANCH   4   5
ENDBRANCH   3   4
ENDBRANCH   2   3
ENDBRANCH   1   2
BRANCH   1  27
ATOM     27  O   UNL A   1      37.954  21.182  25.211  1.00  0.00    -0.376 OA
BRANCH  27  28
ATOM     28  C   UNL A   1      38.359  19.837  24.999  1.00  0.00     0.202 C 
BRANCH  28  29
ATOM     29  C   UNL A   1      39.664  19.360  25.661  1.00  0.00     0.261 C 
BRANCH  29  30
ATOM     30  O   UNL A   1      39.975  20.034  26.904  1.00  0.00    -0.460 OA
BRANCH  30  31
ATOM     31  C   UNL A   1      41.267  20.387  27.124  1.00  0.00     0.338 C 
ATOM     32  O   UNL A   1      42.259  19.696  26.971  1.00  0.00    -0.246 OA
BRANCH  31  33
ATOM     33  C   UNL A   1      41.340  21.826  27.461  1.00  0.00     0.060 A 
ATOM     34  C   UNL A   1      40.610  22.757  26.705  1.00  0.00     0.016 A 
ATOM     35  C   UNL A   1      42.175  22.257  28.490  1.00  0.00     0.016 A 
ATOM     36  C   UNL A   1      40.682  24.121  27.005  1.00  0.00     0.010 A 
ATOM     37  C   UNL A   1      42.292  23.626  28.752  1.00  0.00     0.010 A 
ATOM     38  C   UNL A   1      41.560  24.564  28.001  1.00  0.00    -0.014 A 
BRANCH  38  39
ATOM     39  C   UNL A   1      41.938  25.997  28.065  1.00  0.00     0.031 A 
ATOM     40  C   UNL A   1      43.250  26.387  27.442  1.00  0.00     0.074 A 
ATOM     41  C   UNL A   1      41.170  26.921  28.665  1.00  0.00     0.049 A 
ATOM     42  N   UNL A   1      43.861  27.542  27.428  1.00  0.00    -0.248 NA
ATOM     43  C   UNL A   1      43.978  25.311  26.747  1.00  0.00     0.031 C 
ATOM     44  C   UNL A   1      39.862  26.677  29.265  1.00  0.00     0.029 A 
ATOM     45  N   UNL A   1      41.397  28.260  28.880  1.00  0.00    -0.354 N 
ATOM     46  C   UNL A   1      45.042  27.330  26.730  1.00  0.00     0.074 A 
ATOM     47  C   UNL A   1      45.083  25.931  26.369  1.00  0.00     0.031 C 
ATOM     48  C   UNL A   1      39.409  27.826  29.798  1.00  0.00     0.029 A 
ATOM     49  C   UNL A   1      40.409  28.876  29.608  1.00  0.00     0.049 A 
ATOM     50  H   UNL A   1      42.192  28.732  28.544  1.00  0.00     0.167 HD
ATOM     51  C   UNL A   1      46.008  28.224  26.413  1.00  0.00     0.037 A 
ATOM     52  C   UNL A   1      40.341  30.137  30.085  1.00  0.00     0.037 A 
ATOM     53  C   UNL A   1      45.976  29.609  26.802  1.00  0.00     0.049 A 
ATOM     54  C   UNL A   1      41.476  31.095  29.801  1.00  0.00     0.074 A 
ATOM     55  C   UNL A   1      46.898  30.601  26.530  1.00  0.00     0.029 A 
ATOM     56  N   UNL A   1      44.975  30.189  27.568  1.00  0.00    -0.354 N 
ATOM     57  N   UNL A   1      42.576  30.901  29.113  1.00  0.00    -0.248 NA
ATOM     58  C   UNL A   1      41.357  32.451  30.359  1.00  0.00     0.031 C 
ATOM     59  C   UNL A   1      46.497  31.761  27.198  1.00  0.00     0.029 A 
ATOM     60  C   UNL A   1      45.277  31.519  27.809  1.00  0.00     0.049 A 
ATOM     61  H   UNL A   1      44.169  29.724  27.892  1.00  0.00     0.167 HD
ATOM     62  C   UNL A   1      43.256  32.115  29.121  1.00  0.00     0.074 A 
ATOM     63  C   UNL A   1      42.439  33.042  29.874  1.00  0.00     0.031 C 
ATOM     64  C   UNL A   1      44.447  32.434  28.553  1.00  0.00     0.037 A 
BRANCH  51  65
ATOM     65  C   UNL A   1      47.198  27.714  25.653  1.00  0.00     0.064 A 
ATOM     66  C   UNL A   1      48.327  27.192  26.302  1.00  0.00     0.173 A 
ATOM     67  C   UNL A   1      47.206  27.744  24.249  1.00  0.00     0.173 A 
ATOM     68  F   UNL A   1      48.380  27.156  27.643  1.00  0.00    -0.203 F 
ATOM     69  C   UNL A   1      49.434  26.758  25.578  1.00  0.00     0.198 A 
ATOM     70  C   UNL A   1      48.297  27.269  23.527  1.00  0.00     0.198 A 
ATOM     71  F   UNL A   1      46.153  28.232  23.575  1.00  0.00    -0.203 F 
ATOM     72  F   UNL A   1      50.528  26.327  26.222  1.00  0.00    -0.200 F 
ATOM     73  C   UNL A   1      49.415  26.788  24.192  1.00  0.00     0.200 A 
ATOM     74  F   UNL A   1      48.269  27.284  22.188  1.00  0.00    -0.200 F 
ATOM     75  F   UNL A   1      50.477  26.363  23.496  1.00  0.00    -0.200 F 
ENDBRANCH  51  65
BRANCH  52  76
ATOM     76  C   UNL A   1      39.168  30.573  30.894  1.00  0.00     0.064 A 
ATOM     77  C   UNL A   1      38.161  31.378  30.340  1.00  0.00     0.173 A 
ATOM     78  C   UNL A   1      39.046  30.225  32.248  1.00  0.00     0.173 A 
ATOM     79  F   UNL A   1      38.244  31.766  29.059  1.00  0.00    -0.203 F 
ATOM     80  C   UNL A   1      37.095  31.836  31.112  1.00  0.00     0.198 A 
ATOM     81  C   UNL A   1      37.960  30.654  33.010  1.00  0.00     0.198 A 
ATOM     82  F   UNL A   1      39.984  29.467  32.835  1.00  0.00    -0.203 F 
ATOM     83  F   UNL A   1      36.183  32.656  30.572  1.00  0.00    -0.200 F 
ATOM     84  C   UNL A   1      36.991  31.468  32.445  1.00  0.00     0.200 A 
ATOM     85  F   UNL A   1      37.860  30.287  34.295  1.00  0.00    -0.200 F 
ATOM     86  F   UNL A   1      35.966  31.908  33.187  1.00  0.00    -0.200 F 
ENDBRANCH  52  76
BRANCH  64  87
ATOM     87  C   UNL A   1      44.919  33.858  28.670  1.00  0.00     0.064 A 
ATOM     88  C   UNL A   1      44.555  34.845  27.743  1.00  0.00     0.173 A 
ATOM     89  C   UNL A   1      45.707  34.250  29.766  1.00  0.00     0.173 A 
ATOM     90  F   UNL A   1      43.809  34.526  26.674  1.00  0.00    -0.203 F 
ATOM     91  C   UNL A   1      44.991  36.160  27.887  1.00  0.00     0.198 A 
ATOM     92  C   UNL A   1      46.103  35.574  29.930  1.00  0.00     0.198 A 
ATOM     93  F   UNL A   1      46.074  33.352  30.693  1.00  0.00    -0.203 F 
ATOM     94  F   UNL A   1      44.680  37.073  26.956  1.00  0.00    -0.200 F 
ATOM     95  C   UNL A   1      45.756  36.525  28.985  1.00  0.00     0.200 A 
ATOM     96  F   UNL A   1      46.821  35.928  31.006  1.00  0.00    -0.200 F 
ATOM     97  F   UNL A   1      46.162  37.795  29.129  1.00  0.00    -0.200 F 
ENDBRANCH  64  87
ENDBRANCH  38  39
ENDBRANCH  31  33
ENDBRANCH  30  31
ENDBRANCH  29  30
ENDBRANCH  28  29
ENDBRANCH  27  28
ENDBRANCH   1  27
TORSDOF 19
ENDMDL
MODEL 3
REMARK VINA RESULT:     -12.9      4.437      6.912
REMARK SMILES O=C(OCCOCCOCCOC(=O)c1ccc(-c2c3nc(c(-c4c(F)c(F)c(F)c(F)c4F)c4ccc([nH]4)c(-c4c(F)c(F)c(F)c(F)c4F)c4nc(c(-c5c(F)c(F)c(F)c(F)c5F)c5ccc2[nH]5)C=C4)C=C3)cc1)C1=Cc2cc(C(F)(F)F)ccc2O[C@@H]1C(F)(F)F
REMARK SMILES IDX 8 1 7 2 6 3 5 4 4 5 3 6 2 7 1 8 78 9 79 10 91 11 80 12 90 13
REMARK SMILES IDX 81 14 89 15 82 16 88 17 87 18 92 19 93 20 94 21 95 22 83 23
REMARK SMILES IDX 84 24 85 25 86 26 9 27 10 28 11 29 12 30 13 31 14 32 15 33
REMARK SMILES IDX 16 34 77 35 17 36 76 37 18 38 19 39 20 40 70 41 21 42 75 43
REMARK SMILES IDX 69 44 71 45 22 46 74 47 68 48 67 49 23 51 55 52 35 53 54 54
REMARK SMILES IDX 36 55 39 56 53 57 72 58 37 59 38 60 52 62 73 63 40 64 24 65
REMARK SMILES IDX 25 66 33 67 26 68 27 69 31 70 34 71 28 72 29 73 32 74 30 75
REMARK SMILES IDX 56 76 57 77 65 78 58 79 59 80 63 81 66 82 60 83 61 84 64 85
REMARK SMILES IDX 62 86 41 87 42 88 50 89 43 90 44 91 48 92 51 93 45 94 46 95
REMARK SMILES IDX 49 96 47 97
REMARK H PARENT 71 50 39 61
REMARK Flexibility Score: inf
ROOT
ATOM      1  C   UNL A   1      36.363  19.789  24.984  1.00  0.00     0.188 C 
ENDROOT
BRANCH   1   2
ATOM      2  C   UNL A   1      35.736  21.139  25.364  1.00  0.00     0.188 C 
BRANCH   2   3
ATOM      3  O   UNL A   1      36.180  22.460  24.827  1.00  0.00    -0.376 OA
BRANCH   3   4
ATOM      4  C   UNL A   1      35.688  23.242  23.368  1.00  0.00     0.202 C 
BRANCH   4   5
ATOM      5  C   UNL A   1      33.704  23.097  22.492  1.00  0.00     0.261 C 
BRANCH   5   6
ATOM      6  O   UNL A   1      32.384  23.053  23.248  1.00  0.00    -0.460 OA
BRANCH   6   7
ATOM      7  C   UNL A   1      31.956  24.281  23.574  1.00  0.00     0.338 C 
ATOM      8  O   UNL A   1      31.729  25.212  22.841  1.00  0.00    -0.246 OA
BRANCH   7   9
ATOM      9  C   UNL A   1      32.375  24.251  24.965  1.00  0.00     0.087 C 
ATOM     10  C   UNL A   1      33.415  25.201  25.335  1.00  0.00     0.027 C 
ATOM     11  C   UNL A   1      30.573  24.299  25.614  1.00  0.00     0.316 C 
ATOM     12  C   UNL A   1      33.116  26.729  26.219  1.00  0.00     0.018 A 
ATOM     13  O   UNL A   1      30.171  26.030  26.431  1.00  0.00    -0.475 OA
ATOM     14  C   UNL A   1      34.164  27.568  26.457  1.00  0.00     0.025 A 
ATOM     15  C   UNL A   1      31.536  27.221  26.715  1.00  0.00     0.128 A 
ATOM     16  C   UNL A   1      33.851  28.764  27.146  1.00  0.00     0.056 A 
ATOM     17  C   UNL A   1      31.295  28.380  27.396  1.00  0.00     0.048 A 
ATOM     18  C   UNL A   1      32.491  29.128  27.598  1.00  0.00     0.017 A 
BRANCH  11  19
ATOM     19  C   UNL A   1      30.708  22.746  26.251  1.00  0.00     0.430 C 
ATOM     20  F   UNL A   1      30.995  21.695  25.487  1.00  0.00    -0.167 F 
ATOM     21  F   UNL A   1      31.687  22.775  27.200  1.00  0.00    -0.167 F 
ATOM     22  F   UNL A   1      29.589  22.362  26.941  1.00  0.00    -0.167 F 
ENDBRANCH  11  19
BRANCH  16  23
ATOM     23  C   UNL A   1      35.042  29.680  27.415  1.00  0.00     0.416 C 
ATOM     24  F   UNL A   1      36.062  29.460  26.537  1.00  0.00    -0.166 F 
ATOM     25  F   UNL A   1      34.715  30.996  27.271  1.00  0.00    -0.166 F 
ATOM     26  F   UNL A   1      35.574  29.555  28.658  1.00  0.00    -0.166 F 
ENDBRANCH  16  23
ENDBRANCH   7   9
ENDBRANCH   6   7
ENDBRANCH   5   6
ENDBRANCH   4   5
ENDBRANCH   3   4
ENDBRANCH   2   3
ENDBRANCH   1   2
BRANCH   1  27
ATOM     27  O   UNL A   1      37.705  19.750  24.577  1.00  0.00    -0.376 OA
BRANCH  27  28
ATOM     28  C   UNL A   1      38.638  20.234  25.533  1.00  0.00     0.202 C 
BRANCH  28  29
ATOM     29  C   UNL A   1      39.894  19.389  25.811  1.00  0.00     0.261 C 
BRANCH  29  30
ATOM     30  O   UNL A   1      41.115  20.163  25.910  1.00  0.00    -0.460 OA
BRANCH  30  31
ATOM     31  C   UNL A   1      41.629  20.373  27.149  1.00  0.00     0.338 C 
ATOM     32  O   UNL A   1      42.126  19.546  27.894  1.00  0.00    -0.246 OA
BRANCH  31  33
ATOM     33  C   UNL A   1      41.634  21.822  27.446  1.00  0.00     0.060 A 
ATOM     34  C   UNL A   1      41.051  22.722  26.538  1.00  0.00     0.016 A 
ATOM     35  C   UNL A   1      42.266  22.294  28.595  1.00  0.00     0.016 A 
ATOM     36  C   UNL A   1      41.062  24.095  26.802  1.00  0.00     0.010 A 
ATOM     37  C   UNL A   1      42.329  23.671  28.828  1.00  0.00     0.010 A 
ATOM     38  C   UNL A   1      41.743  24.578  27.926  1.00  0.00    -0.014 A 
BRANCH  38  39
ATOM     39  C   UNL A   1      42.098  26.015  28.010  1.00  0.00     0.031 A 
ATOM     40  C   UNL A   1      43.421  26.429  27.428  1.00  0.00     0.074 A 
ATOM     41  C   UNL A   1      41.300  26.924  28.596  1.00  0.00     0.049 A 
ATOM     42  N   UNL A   1      44.015  27.593  27.440  1.00  0.00    -0.248 NA
ATOM     43  C   UNL A   1      44.184  25.369  26.746  1.00  0.00     0.031 C 
ATOM     44  C   UNL A   1      39.979  26.657  29.157  1.00  0.00     0.029 A 
ATOM     45  N   UNL A   1      41.502  28.265  28.826  1.00  0.00    -0.354 N 
ATOM     46  C   UNL A   1      45.219  27.403  26.773  1.00  0.00     0.074 A 
ATOM     47  C   UNL A   1      45.290  26.007  26.404  1.00  0.00     0.031 C 
ATOM     48  C   UNL A   1      39.494  27.795  29.685  1.00  0.00     0.029 A 
ATOM     49  C   UNL A   1      40.484  28.861  29.530  1.00  0.00     0.049 A 
ATOM     50  H   UNL A   1      42.299  28.750  28.516  1.00  0.00     0.167 HD
ATOM     51  C   UNL A   1      46.180  28.313  26.490  1.00  0.00     0.037 A 
ATOM     52  C   UNL A   1      40.384  30.117  30.014  1.00  0.00     0.037 A 
ATOM     53  C   UNL A   1      46.117  29.694  26.888  1.00  0.00     0.049 A 
ATOM     54  C   UNL A   1      41.513  31.093  29.769  1.00  0.00     0.074 A 
ATOM     55  C   UNL A   1      47.032  30.701  26.649  1.00  0.00     0.029 A 
ATOM     56  N   UNL A   1      45.086  30.254  27.630  1.00  0.00    -0.354 N 
ATOM     57  N   UNL A   1      42.635  30.921  29.111  1.00  0.00    -0.248 NA
ATOM     58  C   UNL A   1      41.358  32.443  30.333  1.00  0.00     0.031 C 
ATOM     59  C   UNL A   1      46.595  31.851  27.313  1.00  0.00     0.029 A 
ATOM     60  C   UNL A   1      45.362  31.587  27.888  1.00  0.00     0.049 A 
ATOM     61  H   UNL A   1      44.279  29.776  27.927  1.00  0.00     0.167 HD
ATOM     62  C   UNL A   1      43.297  32.144  29.147  1.00  0.00     0.074 A 
ATOM     63  C   UNL A   1      42.445  33.054  29.883  1.00  0.00     0.031 C 
ATOM     64  C   UNL A   1      44.499  32.484  28.615  1.00  0.00     0.037 A 
BRANCH  51  65
ATOM     65  C   UNL A   1      47.398  27.826  25.760  1.00  0.00     0.064 A 
ATOM     66  C   UNL A   1      47.448  27.763  24.359  1.00  0.00     0.173 A 
ATOM     67  C   UNL A   1      48.536  27.419  26.475  1.00  0.00     0.173 A 
ATOM     68  F   UNL A   1      46.383  28.124  23.627  1.00  0.00    -0.203 F 
ATOM     69  C   UNL A   1      48.575  27.274  23.704  1.00  0.00     0.198 A 
ATOM     70  C   UNL A   1      49.676  26.970  25.814  1.00  0.00     0.198 A 
ATOM     71  F   UNL A   1      48.543  27.458  27.816  1.00  0.00    -0.203 F 
ATOM     72  F   UNL A   1      48.575  27.159  22.368  1.00  0.00    -0.200 F 
ATOM     73  C   UNL A   1      49.691  26.887  24.431  1.00  0.00     0.200 A 
ATOM     74  F   UNL A   1      50.758  26.613  26.519  1.00  0.00    -0.200 F 
ATOM     75  F   UNL A   1      50.777  26.424  23.798  1.00  0.00    -0.200 F 
ENDBRANCH  51  65
BRANCH  52  76
ATOM     76  C   UNL A   1      39.183  30.530  30.792  1.00  0.00     0.064 A 
ATOM     77  C   UNL A   1      39.100  30.305  32.175  1.00  0.00     0.173 A 
ATOM     78  C   UNL A   1      38.077  31.125  30.166  1.00  0.00     0.173 A 
ATOM     79  F   UNL A   1      40.115  29.710  32.819  1.00  0.00    -0.203 F 
ATOM     80  C   UNL A   1      37.952  30.636  32.893  1.00  0.00     0.198 A 
ATOM     81  C   UNL A   1      36.944  31.490  30.892  1.00  0.00     0.198 A 
ATOM     82  F   UNL A   1      38.095  31.355  28.845  1.00  0.00    -0.203 F 
ATOM     83  F   UNL A   1      37.877  30.351  34.201  1.00  0.00    -0.200 F 
ATOM     84  C   UNL A   1      36.878  31.235  32.253  1.00  0.00     0.200 A 
ATOM     85  F   UNL A   1      35.913  32.077  30.270  1.00  0.00    -0.200 F 
ATOM     86  F   UNL A   1      35.774  31.554  32.944  1.00  0.00    -0.200 F 
ENDBRANCH  52  76
BRANCH  64  87
ATOM     87  C   UNL A   1      44.946  33.914  28.755  1.00  0.00     0.064 A 
ATOM     88  C   UNL A   1      44.599  34.901  27.822  1.00  0.00     0.173 A 
ATOM     89  C   UNL A   1      45.692  34.310  29.879  1.00  0.00     0.173 A 
ATOM     90  F   UNL A   1      43.893  34.578  26.727  1.00  0.00    -0.203 F 
ATOM     91  C   UNL A   1      45.011  36.221  27.988  1.00  0.00     0.198 A 
ATOM     92  C   UNL A   1      46.065  35.639  30.063  1.00  0.00     0.198 A 
ATOM     93  F   UNL A   1      46.041  33.411  30.812  1.00  0.00    -0.203 F 
ATOM     94  F   UNL A   1      44.718  37.135  27.052  1.00  0.00    -0.200 F 
ATOM     95  C   UNL A   1      45.735  36.591  29.112  1.00  0.00     0.200 A 
ATOM     96  F   UNL A   1      46.742  35.996  31.163  1.00  0.00    -0.200 F 
ATOM     97  F   UNL A   1      46.118  37.865  29.276  1.00  0.00    -0.200 F 
ENDBRANCH  64  87
ENDBRANCH  38  39
ENDBRANCH  31  33
ENDBRANCH  30  31
ENDBRANCH  29  30
ENDBRANCH  28  29
ENDBRANCH  27  28
ENDBRANCH   1  27
TORSDOF 19
ENDMDL
