MODEL 1
REMARK VINA RESULT:     -10.7      0.000      0.000
REMARK SMILES CC[C@H]1CC[C@](NC(=O)C[NH2+]CC(F)(F)F)(C(=O)OCCOCCOCCOC(=O)c2ccc(-c3c4nc(c(-c5c(F)c(F)c(F)c(F)c5F)c5ccc([nH]5)c(-c5c(F)c(F)c(F)c(F)c5F)c5nc(c(-c6c(F)c(F)c(F)c(F)c6F)c6ccc3[nH]6)C=C5)C=C4)cc2)CC1
REMARK SMILES IDX 22 1 21 2 20 3 19 4 17 5 18 6 6 7 3 8 95 9 4 10 94 11 5 12
REMARK SMILES IDX 2 13 1 14 7 15 8 16 9 18 10 19 11 20 12 23 13 24 14 25 15 26
REMARK SMILES IDX 16 27 23 28 24 29 25 30 26 31 27 32 28 33 29 34 30 35 31 36
REMARK SMILES IDX 32 37 93 38 33 39 92 40 34 41 35 42 36 43 86 44 37 45 91 46
REMARK SMILES IDX 85 47 87 48 38 49 90 50 84 51 83 52 39 54 71 55 51 56 70 57
REMARK SMILES IDX 52 58 55 59 69 60 88 61 53 62 54 63 68 65 89 66 56 67 40 68
REMARK SMILES IDX 41 69 49 70 42 71 43 72 47 73 50 74 44 75 45 76 48 77 46 78
REMARK SMILES IDX 72 79 73 80 81 81 74 82 75 83 79 84 82 85 76 86 77 87 80 88
REMARK SMILES IDX 78 89 57 90 58 91 66 92 59 93 60 94 64 95 67 96 61 97 62 98
REMARK SMILES IDX 65 99 63 100
REMARK H PARENT 7 17 11 21 11 22 87 53 55 64
REMARK Flexibility Score: inf
ROOT
ATOM      1  O   UNL A   1      31.385  28.299  25.113  1.00  0.00    -0.376 OA
ENDROOT
BRANCH   1   2
ATOM      2  C   UNL A   1      30.914  27.567  26.230  1.00  0.00     0.202 C 
BRANCH   2   3
ATOM      3  C   UNL A   1      30.880  26.035  26.144  1.00  0.00     0.261 C 
BRANCH   3   4
ATOM      4  O   UNL A   1      31.718  25.226  27.009  1.00  0.00    -0.461 OA
BRANCH   4   5
ATOM      5  C   UNL A   1      31.634  23.879  26.827  1.00  0.00     0.331 C 
ATOM      6  O   UNL A   1      30.702  23.203  27.258  1.00  0.00    -0.249 OA
BRANCH   5   7
ATOM      7  C   UNL A   1      32.856  23.239  26.100  1.00  0.00     0.138 C 
ATOM      8  C   UNL A   1      35.938  23.205  26.309  1.00  0.00    -0.011 C 
ATOM      9  C   UNL A   1      35.205  24.204  25.415  1.00  0.00     0.006 C 
ATOM     10  C   UNL A   1      35.111  21.909  26.355  1.00  0.00     0.006 C 
ATOM     11  C   UNL A   1      33.794  24.478  25.914  1.00  0.00     0.041 C 
ATOM     12  C   UNL A   1      33.644  22.119  26.829  1.00  0.00     0.041 C 
BRANCH   8  13
ATOM     13  C   UNL A   1      37.378  23.027  25.770  1.00  0.00    -0.000 C 
ATOM     14  C   UNL A   1      38.352  24.129  26.161  1.00  0.00     0.004 C 
ENDBRANCH   8  13
BRANCH   7  15
ATOM     15  N   UNL A   1      32.417  22.741  24.764  1.00  0.00    -0.335 N 
ATOM     16  C   UNL A   1      32.510  21.501  24.180  1.00  0.00     0.276 C 
ATOM     17  H   UNL A   1      31.984  23.424  24.201  1.00  0.00     0.164 HD
ATOM     18  O   UNL A   1      32.715  21.484  22.962  1.00  0.00    -0.268 OA
BRANCH  16  19
ATOM     19  C   UNL A   1      32.248  20.185  24.954  1.00  0.00     0.362 C 
BRANCH  19  20
ATOM     20  N   UNL A   1      32.959  19.035  24.361  1.00  0.00    -0.331 N 
ATOM     21  H   UNL A   1      33.959  19.142  24.530  1.00  0.00     0.346 HD
ATOM     22  H   UNL A   1      32.756  19.018  23.361  1.00  0.00     0.346 HD
BRANCH  20  23
ATOM     23  C   UNL A   1      32.507  17.739  24.946  1.00  0.00     0.378 C 
BRANCH  23  24
ATOM     24  C   UNL A   1      33.361  16.461  24.996  1.00  0.00     0.438 C 
ATOM     25  F   UNL A   1      32.942  15.592  25.934  1.00  0.00    -0.165 F 
ATOM     26  F   UNL A   1      33.269  15.831  23.793  1.00  0.00    -0.165 F 
ATOM     27  F   UNL A   1      34.665  16.735  25.198  1.00  0.00    -0.165 F 
ENDBRANCH  23  24
ENDBRANCH  20  23
ENDBRANCH  19  20
ENDBRANCH  16  19
ENDBRANCH   7  15
ENDBRANCH   5   7
ENDBRANCH   4   5
ENDBRANCH   3   4
ENDBRANCH   2   3
ENDBRANCH   1   2
BRANCH   1  28
ATOM     28  C   UNL A   1      32.001  29.541  25.387  1.00  0.00     0.188 C 
BRANCH  28  29
ATOM     29  C   UNL A   1      32.455  29.841  26.823  1.00  0.00     0.188 C 
BRANCH  29  30
ATOM     30  O   UNL A   1      32.814  31.174  27.133  1.00  0.00    -0.376 OA
BRANCH  30  31
ATOM     31  C   UNL A   1      31.797  32.159  26.939  1.00  0.00     0.202 C 
BRANCH  31  32
ATOM     32  C   UNL A   1      32.228  33.625  27.180  1.00  0.00     0.261 C 
BRANCH  32  33
ATOM     33  O   UNL A   1      32.576  33.981  28.538  1.00  0.00    -0.460 OA
BRANCH  33  34
ATOM     34  C   UNL A   1      33.676  34.761  28.734  1.00  0.00     0.338 C 
ATOM     35  O   UNL A   1      33.685  35.959  28.913  1.00  0.00    -0.246 OA
BRANCH  34  36
ATOM     36  C   UNL A   1      34.810  33.841  29.091  1.00  0.00     0.060 A 
ATOM     37  C   UNL A   1      34.495  32.590  29.660  1.00  0.00     0.016 A 
ATOM     38  C   UNL A   1      36.125  34.110  28.712  1.00  0.00     0.016 A 
ATOM     39  C   UNL A   1      35.492  31.631  29.876  1.00  0.00     0.010 A 
ATOM     40  C   UNL A   1      37.132  33.166  28.966  1.00  0.00     0.010 A 
ATOM     41  C   UNL A   1      36.828  31.936  29.582  1.00  0.00    -0.014 A 
BRANCH  41  42
ATOM     42  C   UNL A   1      37.920  31.139  30.206  1.00  0.00     0.031 A 
ATOM     43  C   UNL A   1      38.211  31.418  31.660  1.00  0.00     0.074 A 
ATOM     44  C   UNL A   1      38.629  30.198  29.555  1.00  0.00     0.049 A 
ATOM     45  N   UNL A   1      39.153  30.944  32.435  1.00  0.00    -0.248 NA
ATOM     46  C   UNL A   1      37.307  32.370  32.328  1.00  0.00     0.031 C 
ATOM     47  C   UNL A   1      38.429  29.783  28.170  1.00  0.00     0.029 A 
ATOM     48  N   UNL A   1      39.684  29.427  29.989  1.00  0.00    -0.354 N 
ATOM     49  C   UNL A   1      38.949  31.537  33.674  1.00  0.00     0.074 A 
ATOM     50  C   UNL A   1      37.825  32.434  33.543  1.00  0.00     0.031 C 
ATOM     51  C   UNL A   1      39.351  28.851  27.858  1.00  0.00     0.029 A 
ATOM     52  C   UNL A   1      40.228  28.628  29.009  1.00  0.00     0.049 A 
ATOM     53  H   UNL A   1      40.020  29.445  30.914  1.00  0.00     0.167 HD
ATOM     54  C   UNL A   1      39.628  31.346  34.828  1.00  0.00     0.037 A 
ATOM     55  C   UNL A   1      41.323  27.839  29.035  1.00  0.00     0.037 A 
ATOM     56  C   UNL A   1      40.762  30.476  34.967  1.00  0.00     0.049 A 
ATOM     57  C   UNL A   1      42.132  27.722  30.310  1.00  0.00     0.074 A 
ATOM     58  C   UNL A   1      41.532  30.237  36.092  1.00  0.00     0.029 A 
ATOM     59  N   UNL A   1      41.295  29.707  33.944  1.00  0.00    -0.354 N 
ATOM     60  N   UNL A   1      41.928  28.276  31.480  1.00  0.00    -0.248 NA
ATOM     61  C   UNL A   1      43.327  26.861  30.266  1.00  0.00     0.031 C 
ATOM     62  C   UNL A   1      42.561  29.360  35.737  1.00  0.00     0.029 A 
ATOM     63  C   UNL A   1      42.394  29.004  34.408  1.00  0.00     0.049 A 
ATOM     64  H   UNL A   1      40.943  29.667  33.026  1.00  0.00     0.167 HD
ATOM     65  C   UNL A   1      42.939  27.806  32.313  1.00  0.00     0.074 A 
ATOM     66  C   UNL A   1      43.748  26.907  31.520  1.00  0.00     0.031 C 
ATOM     67  C   UNL A   1      43.178  28.093  33.617  1.00  0.00     0.037 A 
BRANCH  54  68
ATOM     68  C   UNL A   1      39.167  32.113  36.032  1.00  0.00     0.064 A 
ATOM     69  C   UNL A   1      38.240  31.572  36.935  1.00  0.00     0.173 A 
ATOM     70  C   UNL A   1      39.679  33.391  36.300  1.00  0.00     0.173 A 
ATOM     71  F   UNL A   1      37.703  30.364  36.709  1.00  0.00    -0.203 F 
ATOM     72  C   UNL A   1      37.828  32.290  38.053  1.00  0.00     0.198 A 
ATOM     73  C   UNL A   1      39.289  34.093  37.436  1.00  0.00     0.198 A 
ATOM     74  F   UNL A   1      40.565  33.955  35.464  1.00  0.00    -0.203 F 
ATOM     75  F   UNL A   1      36.906  31.773  38.877  1.00  0.00    -0.200 F 
ATOM     76  C   UNL A   1      38.360  33.545  38.309  1.00  0.00     0.200 A 
ATOM     77  F   UNL A   1      39.812  35.301  37.688  1.00  0.00    -0.200 F 
ATOM     78  F   UNL A   1      37.972  34.231  39.392  1.00  0.00    -0.200 F 
ENDBRANCH  54  68
BRANCH  55  79
ATOM     79  C   UNL A   1      41.768  27.118  27.807  1.00  0.00     0.064 A 
ATOM     80  C   UNL A   1      41.400  25.786  27.566  1.00  0.00     0.173 A 
ATOM     81  C   UNL A   1      42.641  27.723  26.888  1.00  0.00     0.173 A 
ATOM     82  F   UNL A   1      40.598  25.147  28.431  1.00  0.00    -0.203 F 
ATOM     83  C   UNL A   1      41.911  25.079  26.478  1.00  0.00     0.198 A 
ATOM     84  C   UNL A   1      43.123  27.027  25.782  1.00  0.00     0.198 A 
ATOM     85  F   UNL A   1      43.039  28.989  27.074  1.00  0.00    -0.203 F 
ATOM     86  F   UNL A   1      41.602  23.785  26.316  1.00  0.00    -0.200 F 
ATOM     87  C   UNL A   1      42.770  25.701  25.585  1.00  0.00     0.200 A 
ATOM     88  F   UNL A   1      43.947  27.635  24.917  1.00  0.00    -0.200 F 
ATOM     89  F   UNL A   1      43.269  25.019  24.545  1.00  0.00    -0.200 F 
ENDBRANCH  55  79
BRANCH  67  90
ATOM     90  C   UNL A   1      44.322  27.390  34.294  1.00  0.00     0.064 A 
ATOM     91  C   UNL A   1      45.586  27.985  34.428  1.00  0.00     0.173 A 
ATOM     92  C   UNL A   1      44.132  26.124  34.870  1.00  0.00     0.173 A 
ATOM     93  F   UNL A   1      45.824  29.191  33.890  1.00  0.00    -0.203 F 
ATOM     94  C   UNL A   1      46.622  27.326  35.084  1.00  0.00     0.198 A 
ATOM     95  C   UNL A   1      45.160  25.483  35.556  1.00  0.00     0.198 A 
ATOM     96  F   UNL A   1      42.940  25.514  34.785  1.00  0.00    -0.203 F 
ATOM     97  F   UNL A   1      47.835  27.893  35.155  1.00  0.00    -0.200 F 
ATOM     98  C   UNL A   1      46.407  26.080  35.655  1.00  0.00     0.200 A 
ATOM     99  F   UNL A   1      44.943  24.288  36.124  1.00  0.00    -0.200 F 
ATOM    100  F   UNL A   1      47.403  25.453  36.296  1.00  0.00    -0.200 F 
ENDBRANCH  67  90
ENDBRANCH  41  42
ENDBRANCH  34  36
ENDBRANCH  33  34
ENDBRANCH  32  33
ENDBRANCH  31  32
ENDBRANCH  30  31
ENDBRANCH  29  30
ENDBRANCH  28  29
ENDBRANCH   1  28
TORSDOF 23
ENDMDL
MODEL 2
REMARK VINA RESULT:     -10.4      5.813     11.400
REMARK SMILES CC[C@H]1CC[C@](NC(=O)C[NH2+]CC(F)(F)F)(C(=O)OCCOCCOCCOC(=O)c2ccc(-c3c4nc(c(-c5c(F)c(F)c(F)c(F)c5F)c5ccc([nH]5)c(-c5c(F)c(F)c(F)c(F)c5F)c5nc(c(-c6c(F)c(F)c(F)c(F)c6F)c6ccc3[nH]6)C=C5)C=C4)cc2)CC1
REMARK SMILES IDX 22 1 21 2 20 3 19 4 17 5 18 6 6 7 3 8 95 9 4 10 94 11 5 12
REMARK SMILES IDX 2 13 1 14 7 15 8 16 9 18 10 19 11 20 12 23 13 24 14 25 15 26
REMARK SMILES IDX 16 27 23 28 24 29 25 30 26 31 27 32 28 33 29 34 30 35 31 36
REMARK SMILES IDX 32 37 93 38 33 39 92 40 34 41 35 42 36 43 86 44 37 45 91 46
REMARK SMILES IDX 85 47 87 48 38 49 90 50 84 51 83 52 39 54 71 55 51 56 70 57
REMARK SMILES IDX 52 58 55 59 69 60 88 61 53 62 54 63 68 65 89 66 56 67 40 68
REMARK SMILES IDX 41 69 49 70 42 71 43 72 47 73 50 74 44 75 45 76 48 77 46 78
REMARK SMILES IDX 72 79 73 80 81 81 74 82 75 83 79 84 82 85 76 86 77 87 80 88
REMARK SMILES IDX 78 89 57 90 58 91 66 92 59 93 60 94 64 95 67 96 61 97 62 98
REMARK SMILES IDX 65 99 63 100
REMARK H PARENT 7 17 11 21 11 22 87 53 55 64
REMARK Flexibility Score: inf
ROOT
ATOM      1  O   UNL A   1      39.679  23.484  26.505  1.00  0.00    -0.376 OA
ENDROOT
BRANCH   1   2
ATOM      2  C   UNL A   1      38.366  24.012  26.467  1.00  0.00     0.202 C 
BRANCH   2   3
ATOM      3  C   UNL A   1      37.298  23.269  25.652  1.00  0.00     0.261 C 
BRANCH   3   4
ATOM      4  O   UNL A   1      35.955  23.806  25.529  1.00  0.00    -0.461 OA
BRANCH   4   5
ATOM      5  C   UNL A   1      34.965  23.065  26.100  1.00  0.00     0.331 C 
ATOM      6  O   UNL A   1      34.736  23.073  27.308  1.00  0.00    -0.249 OA
BRANCH   5   7
ATOM      7  C   UNL A   1      34.192  22.135  25.115  1.00  0.00     0.138 C 
ATOM      8  C   UNL A   1      32.971  19.298  25.061  1.00  0.00    -0.011 C 
ATOM      9  C   UNL A   1      34.398  19.567  24.585  1.00  0.00     0.006 C 
ATOM     10  C   UNL A   1      32.125  20.547  24.764  1.00  0.00     0.006 C 
ATOM     11  C   UNL A   1      34.993  20.798  25.253  1.00  0.00     0.041 C 
ATOM     12  C   UNL A   1      32.692  21.851  25.393  1.00  0.00     0.041 C 
BRANCH   8  13
ATOM     13  C   UNL A   1      32.462  18.003  24.383  1.00  0.00    -0.000 C 
ATOM     14  C   UNL A   1      33.274  17.544  23.180  1.00  0.00     0.004 C 
ENDBRANCH   8  13
BRANCH   7  15
ATOM     15  N   UNL A   1      34.343  22.665  23.730  1.00  0.00    -0.335 N 
ATOM     16  C   UNL A   1      33.530  23.472  22.970  1.00  0.00     0.276 C 
ATOM     17  H   UNL A   1      35.174  22.388  23.279  1.00  0.00     0.164 HD
ATOM     18  O   UNL A   1      33.498  23.231  21.759  1.00  0.00    -0.268 OA
BRANCH  16  19
ATOM     19  C   UNL A   1      32.787  24.702  23.550  1.00  0.00     0.362 C 
BRANCH  19  20
ATOM     20  N   UNL A   1      33.717  25.746  24.025  1.00  0.00    -0.331 N 
ATOM     21  H   UNL A   1      34.643  25.335  24.139  1.00  0.00     0.346 HD
ATOM     22  H   UNL A   1      33.363  26.106  24.911  1.00  0.00     0.346 HD
BRANCH  20  23
ATOM     23  C   UNL A   1      33.809  26.886  23.067  1.00  0.00     0.378 C 
BRANCH  23  24
ATOM     24  C   UNL A   1      33.672  28.367  23.460  1.00  0.00     0.438 C 
ATOM     25  F   UNL A   1      32.396  28.793  23.439  1.00  0.00    -0.165 F 
ATOM     26  F   UNL A   1      34.127  28.520  24.734  1.00  0.00    -0.165 F 
ATOM     27  F   UNL A   1      34.419  29.167  22.675  1.00  0.00    -0.165 F 
ENDBRANCH  23  24
ENDBRANCH  20  23
ENDBRANCH  19  20
ENDBRANCH  16  19
ENDBRANCH   7  15
ENDBRANCH   5   7
ENDBRANCH   4   5
ENDBRANCH   3   4
ENDBRANCH   2   3
ENDBRANCH   1   2
BRANCH   1  28
ATOM     28  C   UNL A   1      39.794  22.076  26.478  1.00  0.00     0.188 C 
BRANCH  28  29
ATOM     29  C   UNL A   1      40.719  21.390  27.493  1.00  0.00     0.188 C 
BRANCH  29  30
ATOM     30  O   UNL A   1      40.822  19.980  27.439  1.00  0.00    -0.376 OA
BRANCH  30  31
ATOM     31  C   UNL A   1      42.148  19.447  27.445  1.00  0.00     0.202 C 
BRANCH  31  32
ATOM     32  C   UNL A   1      42.551  18.638  26.190  1.00  0.00     0.261 C 
BRANCH  32  33
ATOM     33  O   UNL A   1      42.853  19.402  24.998  1.00  0.00    -0.460 OA
BRANCH  33  34
ATOM     34  C   UNL A   1      44.163  19.598  24.677  1.00  0.00     0.338 C 
ATOM     35  O   UNL A   1      44.850  18.875  23.991  1.00  0.00    -0.246 OA
BRANCH  34  36
ATOM     36  C   UNL A   1      44.478  21.037  24.977  1.00  0.00     0.060 A 
ATOM     37  C   UNL A   1      45.111  21.336  26.200  1.00  0.00     0.016 A 
ATOM     38  C   UNL A   1      44.331  22.039  24.018  1.00  0.00     0.016 A 
ATOM     39  C   UNL A   1      45.563  22.633  26.473  1.00  0.00     0.010 A 
ATOM     40  C   UNL A   1      44.747  23.348  24.306  1.00  0.00     0.010 A 
ATOM     41  C   UNL A   1      45.333  23.661  25.549  1.00  0.00    -0.014 A 
BRANCH  41  42
ATOM     42  C   UNL A   1      45.390  25.080  25.996  1.00  0.00     0.031 A 
ATOM     43  C   UNL A   1      46.736  25.756  25.923  1.00  0.00     0.074 A 
ATOM     44  C   UNL A   1      44.322  25.772  26.436  1.00  0.00     0.049 A 
ATOM     45  N   UNL A   1      47.102  26.947  26.321  1.00  0.00    -0.248 NA
ATOM     46  C   UNL A   1      47.821  24.968  25.313  1.00  0.00     0.031 C 
ATOM     47  C   UNL A   1      42.952  25.272  26.514  1.00  0.00     0.029 A 
ATOM     48  N   UNL A   1      44.239  27.059  26.919  1.00  0.00    -0.354 N 
ATOM     49  C   UNL A   1      48.451  27.048  26.006  1.00  0.00     0.074 A 
ATOM     50  C   UNL A   1      48.851  25.789  25.422  1.00  0.00     0.031 C 
ATOM     51  C   UNL A   1      42.169  26.233  27.042  1.00  0.00     0.029 A 
ATOM     52  C   UNL A   1      42.985  27.403  27.371  1.00  0.00     0.049 A 
ATOM     53  H   UNL A   1      45.005  27.676  26.940  1.00  0.00     0.167 HD
ATOM     54  C   UNL A   1      49.286  28.098  26.175  1.00  0.00     0.037 A 
ATOM     55  C   UNL A   1      42.562  28.518  28.003  1.00  0.00     0.037 A 
ATOM     56  C   UNL A   1      48.907  29.347  26.775  1.00  0.00     0.049 A 
ATOM     57  C   UNL A   1      43.540  29.642  28.277  1.00  0.00     0.074 A 
ATOM     58  C   UNL A   1      49.691  30.462  27.012  1.00  0.00     0.029 A 
ATOM     59  N   UNL A   1      47.636  29.642  27.241  1.00  0.00    -0.354 N 
ATOM     60  N   UNL A   1      44.810  29.734  27.967  1.00  0.00    -0.248 NA
ATOM     61  C   UNL A   1      43.018  30.822  28.989  1.00  0.00     0.031 C 
ATOM     62  C   UNL A   1      48.907  31.415  27.667  1.00  0.00     0.029 A 
ATOM     63  C   UNL A   1      47.618  30.918  27.780  1.00  0.00     0.049 A 
ATOM     64  H   UNL A   1      46.862  29.036  27.196  1.00  0.00     0.167 HD
ATOM     65  C   UNL A   1      45.226  30.986  28.410  1.00  0.00     0.074 A 
ATOM     66  C   UNL A   1      44.069  31.627  28.997  1.00  0.00     0.031 C 
ATOM     67  C   UNL A   1      46.455  31.555  28.339  1.00  0.00     0.037 A 
BRANCH  54  68
ATOM     68  C   UNL A   1      50.704  27.930  25.715  1.00  0.00     0.064 A 
ATOM     69  C   UNL A   1      51.058  28.067  24.365  1.00  0.00     0.173 A 
ATOM     70  C   UNL A   1      51.723  27.656  26.639  1.00  0.00     0.173 A 
ATOM     71  F   UNL A   1      50.116  28.305  23.440  1.00  0.00    -0.203 F 
ATOM     72  C   UNL A   1      52.379  27.919  23.953  1.00  0.00     0.198 A 
ATOM     73  C   UNL A   1      53.047  27.539  26.228  1.00  0.00     0.198 A 
ATOM     74  F   UNL A   1      51.435  27.511  27.942  1.00  0.00    -0.203 F 
ATOM     75  F   UNL A   1      52.687  28.007  22.652  1.00  0.00    -0.200 F 
ATOM     76  C   UNL A   1      53.374  27.665  24.886  1.00  0.00     0.200 A 
ATOM     77  F   UNL A   1      54.009  27.306  27.132  1.00  0.00    -0.200 F 
ATOM     78  F   UNL A   1      54.647  27.534  24.490  1.00  0.00    -0.200 F 
ENDBRANCH  54  68
BRANCH  55  79
ATOM     79  C   UNL A   1      41.151  28.633  28.474  1.00  0.00     0.064 A 
ATOM     80  C   UNL A   1      40.771  28.214  29.757  1.00  0.00     0.173 A 
ATOM     81  C   UNL A   1      40.136  29.089  27.617  1.00  0.00     0.173 A 
ATOM     82  F   UNL A   1      41.693  27.734  30.605  1.00  0.00    -0.203 F 
ATOM     83  C   UNL A   1      39.433  28.214  30.153  1.00  0.00     0.198 A 
ATOM     84  C   UNL A   1      38.804  29.123  28.025  1.00  0.00     0.198 A 
ATOM     85  F   UNL A   1      40.437  29.490  26.373  1.00  0.00    -0.203 F 
ATOM     86  F   UNL A   1      39.092  27.736  31.358  1.00  0.00    -0.200 F 
ATOM     87  C   UNL A   1      38.451  28.672  29.288  1.00  0.00     0.200 A 
ATOM     88  F   UNL A   1      37.860  29.573  27.188  1.00  0.00    -0.200 F 
ATOM     89  F   UNL A   1      37.165  28.662  29.664  1.00  0.00    -0.200 F 
ENDBRANCH  55  79
BRANCH  67  90
ATOM     90  C   UNL A   1      46.611  32.960  28.853  1.00  0.00     0.064 A 
ATOM     91  C   UNL A   1      46.322  34.079  28.058  1.00  0.00     0.173 A 
ATOM     92  C   UNL A   1      47.002  33.187  30.182  1.00  0.00     0.173 A 
ATOM     93  F   UNL A   1      45.953  33.921  26.778  1.00  0.00    -0.203 F 
ATOM     94  C   UNL A   1      46.448  35.370  28.565  1.00  0.00     0.198 A 
ATOM     95  C   UNL A   1      47.093  34.477  30.697  1.00  0.00     0.198 A 
ATOM     96  F   UNL A   1      47.277  32.153  30.992  1.00  0.00    -0.203 F 
ATOM     97  F   UNL A   1      46.215  36.425  27.771  1.00  0.00    -0.200 F 
ATOM     98  C   UNL A   1      46.825  35.569  29.886  1.00  0.00     0.200 A 
ATOM     99  F   UNL A   1      47.437  34.664  31.978  1.00  0.00    -0.200 F 
ATOM    100  F   UNL A   1      46.934  36.812  30.374  1.00  0.00    -0.200 F 
ENDBRANCH  67  90
ENDBRANCH  41  42
ENDBRANCH  34  36
ENDBRANCH  33  34
ENDBRANCH  32  33
ENDBRANCH  31  32
ENDBRANCH  30  31
ENDBRANCH  29  30
ENDBRANCH  28  29
ENDBRANCH   1  28
TORSDOF 23
ENDMDL
MODEL 3
REMARK VINA RESULT:     -10.4      3.572      5.398
REMARK SMILES CC[C@H]1CC[C@](NC(=O)C[NH2+]CC(F)(F)F)(C(=O)OCCOCCOCCOC(=O)c2ccc(-c3c4nc(c(-c5c(F)c(F)c(F)c(F)c5F)c5ccc([nH]5)c(-c5c(F)c(F)c(F)c(F)c5F)c5nc(c(-c6c(F)c(F)c(F)c(F)c6F)c6ccc3[nH]6)C=C5)C=C4)cc2)CC1
REMARK SMILES IDX 22 1 21 2 20 3 19 4 17 5 18 6 6 7 3 8 95 9 4 10 94 11 5 12
REMARK SMILES IDX 2 13 1 14 7 15 8 16 9 18 10 19 11 20 12 23 13 24 14 25 15 26
REMARK SMILES IDX 16 27 23 28 24 29 25 30 26 31 27 32 28 33 29 34 30 35 31 36
REMARK SMILES IDX 32 37 93 38 33 39 92 40 34 41 35 42 36 43 86 44 37 45 91 46
REMARK SMILES IDX 85 47 87 48 38 49 90 50 84 51 83 52 39 54 71 55 51 56 70 57
REMARK SMILES IDX 52 58 55 59 69 60 88 61 53 62 54 63 68 65 89 66 56 67 40 68
REMARK SMILES IDX 41 69 49 70 42 71 43 72 47 73 50 74 44 75 45 76 48 77 46 78
REMARK SMILES IDX 72 79 73 80 81 81 74 82 75 83 79 84 82 85 76 86 77 87 80 88
REMARK SMILES IDX 78 89 57 90 58 91 66 92 59 93 60 94 64 95 67 96 61 97 62 98
REMARK SMILES IDX 65 99 63 100
REMARK H PARENT 7 17 11 21 11 22 87 53 55 64
REMARK Flexibility Score: inf
ROOT
ATOM      1  O   UNL A   1      32.410  32.610  27.227  1.00  0.00    -0.376 OA
ENDROOT
BRANCH   1   2
ATOM      2  C   UNL A   1      31.829  31.370  26.871  1.00  0.00     0.202 C 
BRANCH   2   3
ATOM      3  C   UNL A   1      32.574  30.077  27.231  1.00  0.00     0.261 C 
BRANCH   3   4
ATOM      4  O   UNL A   1      32.230  28.821  26.591  1.00  0.00    -0.461 OA
BRANCH   4   5
ATOM      5  C   UNL A   1      32.863  28.562  25.413  1.00  0.00     0.331 C 
ATOM      6  O   UNL A   1      33.542  29.399  24.821  1.00  0.00    -0.249 OA
BRANCH   5   7
ATOM      7  C   UNL A   1      32.595  27.144  24.823  1.00  0.00     0.138 C 
ATOM      8  C   UNL A   1      33.184  24.188  25.502  1.00  0.00    -0.011 C 
ATOM      9  C   UNL A   1      34.114  25.007  24.608  1.00  0.00     0.006 C 
ATOM     10  C   UNL A   1      31.748  24.698  25.291  1.00  0.00     0.006 C 
ATOM     11  C   UNL A   1      34.017  26.496  24.908  1.00  0.00     0.041 C 
ATOM     12  C   UNL A   1      31.581  26.222  25.551  1.00  0.00     0.041 C 
BRANCH   8  13
ATOM     13  C   UNL A   1      33.385  22.688  25.177  1.00  0.00    -0.000 C 
ATOM     14  C   UNL A   1      33.068  21.734  26.320  1.00  0.00     0.004 C 
ENDBRANCH   8  13
BRANCH   7  15
ATOM     15  N   UNL A   1      32.195  27.282  23.393  1.00  0.00    -0.335 N 
ATOM     16  C   UNL A   1      31.013  27.677  22.813  1.00  0.00     0.276 C 
ATOM     17  H   UNL A   1      32.904  27.049  22.751  1.00  0.00     0.164 HD
ATOM     18  O   UNL A   1      30.701  27.104  21.765  1.00  0.00    -0.268 OA
BRANCH  16  19
ATOM     19  C   UNL A   1      30.167  28.859  23.349  1.00  0.00     0.362 C 
BRANCH  19  20
ATOM     20  N   UNL A   1      28.857  28.960  22.677  1.00  0.00    -0.331 N 
ATOM     21  H   UNL A   1      28.120  28.839  23.372  1.00  0.00     0.346 HD
ATOM     22  H   UNL A   1      28.810  28.233  21.963  1.00  0.00     0.346 HD
BRANCH  20  23
ATOM     23  C   UNL A   1      28.676  30.280  22.006  1.00  0.00     0.378 C 
BRANCH  23  24
ATOM     24  C   UNL A   1      28.144  31.545  22.702  1.00  0.00     0.438 C 
ATOM     25  F   UNL A   1      27.145  31.282  23.564  1.00  0.00    -0.165 F 
ATOM     26  F   UNL A   1      29.157  32.104  23.418  1.00  0.00    -0.165 F 
ATOM     27  F   UNL A   1      27.730  32.471  21.815  1.00  0.00    -0.165 F 
ENDBRANCH  23  24
ENDBRANCH  20  23
ENDBRANCH  19  20
ENDBRANCH  16  19
ENDBRANCH   7  15
ENDBRANCH   5   7
ENDBRANCH   4   5
ENDBRANCH   3   4
ENDBRANCH   2   3
ENDBRANCH   1   2
BRANCH   1  28
ATOM     28  C   UNL A   1      33.636  32.554  27.928  1.00  0.00     0.188 C 
BRANCH  28  29
ATOM     29  C   UNL A   1      33.933  33.628  28.984  1.00  0.00     0.188 C 
BRANCH  29  30
ATOM     30  O   UNL A   1      32.897  34.535  29.308  1.00  0.00    -0.376 OA
BRANCH  30  31
ATOM     31  C   UNL A   1      33.166  35.914  29.050  1.00  0.00     0.202 C 
BRANCH  31  32
ATOM     32  C   UNL A   1      32.881  36.884  30.221  1.00  0.00     0.261 C 
BRANCH  32  33
ATOM     33  O   UNL A   1      32.100  36.358  31.320  1.00  0.00    -0.460 OA
BRANCH  33  34
ATOM     34  C   UNL A   1      32.619  36.451  32.576  1.00  0.00     0.338 C 
ATOM     35  O   UNL A   1      32.067  36.917  33.548  1.00  0.00    -0.246 OA
BRANCH  34  36
ATOM     36  C   UNL A   1      33.802  35.526  32.633  1.00  0.00     0.060 A 
ATOM     37  C   UNL A   1      33.568  34.166  32.925  1.00  0.00     0.016 A 
ATOM     38  C   UNL A   1      35.075  35.931  32.232  1.00  0.00     0.016 A 
ATOM     39  C   UNL A   1      34.605  33.229  32.847  1.00  0.00     0.010 A 
ATOM     40  C   UNL A   1      36.124  35.000  32.193  1.00  0.00     0.010 A 
ATOM     41  C   UNL A   1      35.904  33.651  32.535  1.00  0.00    -0.014 A 
BRANCH  41  42
ATOM     42  C   UNL A   1      37.064  32.785  32.883  1.00  0.00     0.031 A 
ATOM     43  C   UNL A   1      37.751  33.073  34.194  1.00  0.00     0.074 A 
ATOM     44  C   UNL A   1      37.505  31.775  32.109  1.00  0.00     0.049 A 
ATOM     45  N   UNL A   1      38.830  32.543  34.713  1.00  0.00    -0.248 NA
ATOM     46  C   UNL A   1      37.128  34.110  35.035  1.00  0.00     0.031 C 
ATOM     47  C   UNL A   1      36.914  31.344  30.846  1.00  0.00     0.029 A 
ATOM     48  N   UNL A   1      38.581  30.932  32.281  1.00  0.00    -0.354 N 
ATOM     49  C   UNL A   1      39.006  33.179  35.934  1.00  0.00     0.074 A 
ATOM     50  C   UNL A   1      37.954  34.160  36.066  1.00  0.00     0.031 C 
ATOM     51  C   UNL A   1      37.651  30.336  30.342  1.00  0.00     0.029 A 
ATOM     52  C   UNL A   1      38.786  30.070  31.229  1.00  0.00     0.049 A 
ATOM     53  H   UNL A   1      39.151  30.945  33.084  1.00  0.00     0.167 HD
ATOM     54  C   UNL A   1      39.953  32.962  36.875  1.00  0.00     0.037 A 
ATOM     55  C   UNL A   1      39.789  29.197  30.999  1.00  0.00     0.037 A 
ATOM     56  C   UNL A   1      41.019  32.007  36.747  1.00  0.00     0.049 A 
ATOM     57  C   UNL A   1      40.899  29.045  32.019  1.00  0.00     0.074 A 
ATOM     58  C   UNL A   1      42.042  31.734  37.639  1.00  0.00     0.029 A 
ATOM     59  N   UNL A   1      41.204  31.175  35.655  1.00  0.00    -0.354 N 
ATOM     60  N   UNL A   1      41.054  29.641  33.176  1.00  0.00    -0.248 NA
ATOM     61  C   UNL A   1      41.974  28.091  31.698  1.00  0.00     0.031 C 
ATOM     62  C   UNL A   1      42.874  30.770  37.063  1.00  0.00     0.029 A 
ATOM     63  C   UNL A   1      42.334  30.397  35.843  1.00  0.00     0.049 A 
ATOM     64  H   UNL A   1      40.618  31.142  34.865  1.00  0.00     0.167 HD
ATOM     65  C   UNL A   1      42.214  29.112  33.732  1.00  0.00     0.074 A 
ATOM     66  C   UNL A   1      42.717  28.133  32.793  1.00  0.00     0.031 C 
ATOM     67  C   UNL A   1      42.812  29.408  34.913  1.00  0.00     0.037 A 
BRANCH  54  68
ATOM     68  C   UNL A   1      39.886  33.791  38.123  1.00  0.00     0.064 A 
ATOM     69  C   UNL A   1      40.624  34.977  38.257  1.00  0.00     0.173 A 
ATOM     70  C   UNL A   1      39.053  33.411  39.185  1.00  0.00     0.173 A 
ATOM     71  F   UNL A   1      41.454  35.369  37.279  1.00  0.00    -0.203 F 
ATOM     72  C   UNL A   1      40.544  35.742  39.416  1.00  0.00     0.198 A 
ATOM     73  C   UNL A   1      38.951  34.196  40.330  1.00  0.00     0.198 A 
ATOM     74  F   UNL A   1      38.329  32.284  39.109  1.00  0.00    -0.203 F 
ATOM     75  F   UNL A   1      41.295  36.845  39.541  1.00  0.00    -0.200 F 
ATOM     76  C   UNL A   1      39.701  35.357  40.447  1.00  0.00     0.200 A 
ATOM     77  F   UNL A   1      38.127  33.829  41.321  1.00  0.00    -0.200 F 
ATOM     78  F   UNL A   1      39.616  36.101  41.558  1.00  0.00    -0.200 F 
ENDBRANCH  54  68
BRANCH  55  79
ATOM     79  C   UNL A   1      39.838  28.414  29.730  1.00  0.00     0.064 A 
ATOM     80  C   UNL A   1      39.300  27.121  29.645  1.00  0.00     0.173 A 
ATOM     81  C   UNL A   1      40.500  28.914  28.596  1.00  0.00     0.173 A 
ATOM     82  F   UNL A   1      38.690  26.580  30.711  1.00  0.00    -0.203 F 
ATOM     83  C   UNL A   1      39.450  26.348  28.494  1.00  0.00     0.198 A 
ATOM     84  C   UNL A   1      40.618  28.154  27.434  1.00  0.00     0.198 A 
ATOM     85  F   UNL A   1      41.046  30.137  28.623  1.00  0.00    -0.203 F 
ATOM     86  F   UNL A   1      38.993  25.089  28.470  1.00  0.00    -0.200 F 
ATOM     87  C   UNL A   1      40.106  26.867  27.388  1.00  0.00     0.200 A 
ATOM     88  F   UNL A   1      41.246  28.662  26.365  1.00  0.00    -0.200 F 
ATOM     89  F   UNL A   1      40.259  26.120  26.286  1.00  0.00    -0.200 F 
ENDBRANCH  55  79
BRANCH  67  90
ATOM     90  C   UNL A   1      44.043  28.633  35.294  1.00  0.00     0.064 A 
ATOM     91  C   UNL A   1      43.970  27.411  35.978  1.00  0.00     0.173 A 
ATOM     92  C   UNL A   1      45.314  29.095  34.916  1.00  0.00     0.173 A 
ATOM     93  F   UNL A   1      42.782  26.926  36.369  1.00  0.00    -0.203 F 
ATOM     94  C   UNL A   1      45.122  26.697  36.295  1.00  0.00     0.198 A 
ATOM     95  C   UNL A   1      46.462  28.362  35.204  1.00  0.00     0.198 A 
ATOM     96  F   UNL A   1      45.443  30.252  34.248  1.00  0.00    -0.203 F 
ATOM     97  F   UNL A   1      45.031  25.556  36.994  1.00  0.00    -0.200 F 
ATOM     98  C   UNL A   1      46.367  27.168  35.902  1.00  0.00     0.200 A 
ATOM     99  F   UNL A   1      47.660  28.810  34.804  1.00  0.00    -0.200 F 
ATOM    100  F   UNL A   1      47.473  26.473  36.198  1.00  0.00    -0.200 F 
ENDBRANCH  67  90
ENDBRANCH  41  42
ENDBRANCH  34  36
ENDBRANCH  33  34
ENDBRANCH  32  33
ENDBRANCH  31  32
ENDBRANCH  30  31
ENDBRANCH  29  30
ENDBRANCH  28  29
ENDBRANCH   1  28
TORSDOF 23
ENDMDL
