MODEL 1
REMARK VINA RESULT:     -11.3      0.000      0.000
REMARK SMILES Cc1ccc2n[nH]cc2c1C(=O)OCCOCCOCCOC(=O)c1ccc(-c2c3nc(c(-c4c(F)c(F)c(F)c(F)c4F)c4ccc([nH]4)c(-c4c(F)c(F)c(F)c(F)c4F)c4nc(c(-c5c(F)c(F)c(F)c(F)c5F)c5ccc2[nH]5)C=C4)C=C3)cc1
REMARK SMILES IDX 18 1 17 2 16 3 15 4 14 5 13 6 11 7 12 8 10 9 1 10 2 11 3 12
REMARK SMILES IDX 4 13 9 14 5 15 8 16 6 17 7 18 19 20 20 21 21 22 22 23 23 24
REMARK SMILES IDX 24 25 25 26 26 27 87 28 27 29 86 30 28 31 29 32 30 33 80 34
REMARK SMILES IDX 31 35 85 36 79 37 81 38 32 39 84 40 78 41 77 42 33 44 65 45
REMARK SMILES IDX 45 46 64 47 46 48 49 49 63 50 82 51 47 52 48 53 62 55 83 56
REMARK SMILES IDX 50 57 34 58 35 59 43 60 36 61 37 62 41 63 44 64 38 65 39 66
REMARK SMILES IDX 42 67 40 68 66 69 67 70 75 71 68 72 69 73 73 74 76 75 70 76
REMARK SMILES IDX 71 77 74 78 72 79 51 80 52 81 60 82 53 83 54 84 58 85 61 86
REMARK SMILES IDX 55 87 56 88 59 89 57 90
REMARK H PARENT 7 19 81 43 49 54
REMARK Flexibility Score: inf
ROOT
ATOM      1  C   UNL A   1      41.250  21.084  27.402  1.00  0.00     0.188 C 
ENDROOT
BRANCH   1   2
ATOM      2  C   UNL A   1      40.393  21.491  26.188  1.00  0.00     0.188 C 
BRANCH   2   3
ATOM      3  O   UNL A   1      39.234  22.277  26.352  1.00  0.00    -0.376 OA
BRANCH   3   4
ATOM      4  C   UNL A   1      38.113  21.996  25.534  1.00  0.00     0.202 C 
BRANCH   4   5
ATOM      5  C   UNL A   1      37.192  23.162  25.170  1.00  0.00     0.261 C 
BRANCH   5   6
ATOM      6  O   UNL A   1      36.014  22.738  24.439  1.00  0.00    -0.460 OA
BRANCH   6   7
ATOM      7  C   UNL A   1      34.850  23.256  24.905  1.00  0.00     0.339 C 
ATOM      8  O   UNL A   1      34.765  24.191  25.685  1.00  0.00    -0.246 OA
BRANCH   7   9
ATOM      9  C   UNL A   1      33.646  22.501  24.498  1.00  0.00     0.074 A 
ATOM     10  C   UNL A   1      33.322  24.047  22.559  1.00  0.00     0.045 C 
ATOM     11  C   UNL A   1      33.116  22.703  23.203  1.00  0.00    -0.036 A 
ATOM     12  C   UNL A   1      32.393  21.682  22.495  1.00  0.00     0.006 A 
ATOM     13  C   UNL A   1      32.103  20.402  23.015  1.00  0.00     0.031 A 
ATOM     14  C   UNL A   1      33.229  21.276  25.036  1.00  0.00     0.034 A 
ATOM     15  C   UNL A   1      32.504  20.236  24.341  1.00  0.00     0.093 A 
ATOM     16  C   UNL A   1      33.390  20.808  26.307  1.00  0.00     0.114 A 
ATOM     17  N   UNL A   1      32.346  19.169  25.140  1.00  0.00    -0.176 NA
ATOM     18  N   UNL A   1      32.957  19.513  26.276  1.00  0.00    -0.284 N 
ATOM     19  H   UNL A   1      33.084  18.889  27.027  1.00  0.00     0.189 HD
ENDBRANCH   7   9
ENDBRANCH   6   7
ENDBRANCH   5   6
ENDBRANCH   4   5
ENDBRANCH   3   4
ENDBRANCH   2   3
ENDBRANCH   1   2
BRANCH   1  20
ATOM     20  O   UNL A   1      42.275  20.126  27.237  1.00  0.00    -0.376 OA
BRANCH  20  21
ATOM     21  C   UNL A   1      42.122  19.180  26.185  1.00  0.00     0.202 C 
BRANCH  21  22
ATOM     22  C   UNL A   1      43.410  18.677  25.511  1.00  0.00     0.261 C 
BRANCH  22  23
ATOM     23  O   UNL A   1      43.757  19.489  24.366  1.00  0.00    -0.460 OA
BRANCH  23  24
ATOM     24  C   UNL A   1      45.034  19.951  24.322  1.00  0.00     0.338 C 
ATOM     25  O   UNL A   1      45.956  19.461  23.684  1.00  0.00    -0.246 OA
BRANCH  24  26
ATOM     26  C   UNL A   1      45.047  21.351  24.839  1.00  0.00     0.060 A 
ATOM     27  C   UNL A   1      46.012  21.869  25.715  1.00  0.00     0.016 A 
ATOM     28  C   UNL A   1      43.891  22.088  24.601  1.00  0.00     0.016 A 
ATOM     29  C   UNL A   1      45.732  23.024  26.489  1.00  0.00     0.010 A 
ATOM     30  C   UNL A   1      43.643  23.244  25.341  1.00  0.00     0.010 A 
ATOM     31  C   UNL A   1      44.502  23.683  26.368  1.00  0.00    -0.014 A 
BRANCH  31  32
ATOM     32  C   UNL A   1      44.171  24.961  27.067  1.00  0.00     0.031 A 
ATOM     33  C   UNL A   1      45.164  25.996  26.764  1.00  0.00     0.074 A 
ATOM     34  C   UNL A   1      43.125  25.367  27.845  1.00  0.00     0.049 A 
ATOM     35  N   UNL A   1      46.083  26.356  27.595  1.00  0.00    -0.248 NA
ATOM     36  C   UNL A   1      45.257  26.603  25.433  1.00  0.00     0.031 C 
ATOM     37  C   UNL A   1      42.029  24.556  28.335  1.00  0.00     0.029 A 
ATOM     38  N   UNL A   1      42.746  26.624  28.304  1.00  0.00    -0.354 N 
ATOM     39  C   UNL A   1      46.681  27.435  26.991  1.00  0.00     0.074 A 
ATOM     40  C   UNL A   1      46.334  27.377  25.592  1.00  0.00     0.031 C 
ATOM     41  C   UNL A   1      40.979  25.327  28.719  1.00  0.00     0.029 A 
ATOM     42  C   UNL A   1      41.403  26.714  28.720  1.00  0.00     0.049 A 
ATOM     43  H   UNL A   1      43.366  27.388  28.337  1.00  0.00     0.167 HD
ATOM     44  C   UNL A   1      47.061  28.491  27.749  1.00  0.00     0.037 A 
ATOM     45  C   UNL A   1      40.708  27.766  29.241  1.00  0.00     0.037 A 
ATOM     46  C   UNL A   1      47.017  28.212  29.161  1.00  0.00     0.049 A 
ATOM     47  C   UNL A   1      41.673  28.484  30.091  1.00  0.00     0.074 A 
ATOM     48  C   UNL A   1      47.772  27.497  30.067  1.00  0.00     0.029 A 
ATOM     49  N   UNL A   1      45.806  28.440  29.753  1.00  0.00    -0.354 N 
ATOM     50  N   UNL A   1      42.134  27.996  31.207  1.00  0.00    -0.248 NA
ATOM     51  C   UNL A   1      42.305  29.708  29.617  1.00  0.00     0.031 C 
ATOM     52  C   UNL A   1      46.954  27.273  31.215  1.00  0.00     0.029 A 
ATOM     53  C   UNL A   1      45.718  27.861  30.996  1.00  0.00     0.049 A 
ATOM     54  H   UNL A   1      45.080  28.960  29.338  1.00  0.00     0.167 HD
ATOM     55  C   UNL A   1      43.388  28.545  31.285  1.00  0.00     0.074 A 
ATOM     56  C   UNL A   1      43.358  29.726  30.437  1.00  0.00     0.031 C 
ATOM     57  C   UNL A   1      44.436  27.760  31.651  1.00  0.00     0.037 A 
BRANCH  44  58
ATOM     58  C   UNL A   1      47.043  29.888  27.220  1.00  0.00     0.064 A 
ATOM     59  C   UNL A   1      48.216  30.649  27.237  1.00  0.00     0.173 A 
ATOM     60  C   UNL A   1      45.853  30.570  26.880  1.00  0.00     0.173 A 
ATOM     61  F   UNL A   1      49.373  30.098  27.634  1.00  0.00    -0.203 F 
ATOM     62  C   UNL A   1      48.207  32.001  26.895  1.00  0.00     0.198 A 
ATOM     63  C   UNL A   1      45.857  31.899  26.472  1.00  0.00     0.198 A 
ATOM     64  F   UNL A   1      44.649  29.996  27.021  1.00  0.00    -0.203 F 
ATOM     65  F   UNL A   1      49.334  32.717  26.990  1.00  0.00    -0.200 F 
ATOM     66  C   UNL A   1      47.033  32.618  26.491  1.00  0.00     0.200 A 
ATOM     67  F   UNL A   1      44.705  32.486  26.115  1.00  0.00    -0.200 F 
ATOM     68  F   UNL A   1      47.027  33.917  26.163  1.00  0.00    -0.200 F 
ENDBRANCH  44  58
BRANCH  45  69
ATOM     69  C   UNL A   1      39.273  28.185  29.301  1.00  0.00     0.064 A 
ATOM     70  C   UNL A   1      38.553  28.189  30.518  1.00  0.00     0.173 A 
ATOM     71  C   UNL A   1      38.707  28.935  28.258  1.00  0.00     0.173 A 
ATOM     72  F   UNL A   1      39.011  27.521  31.585  1.00  0.00    -0.203 F 
ATOM     73  C   UNL A   1      37.392  28.951  30.699  1.00  0.00     0.198 A 
ATOM     74  C   UNL A   1      37.537  29.692  28.437  1.00  0.00     0.198 A 
ATOM     75  F   UNL A   1      39.343  29.041  27.085  1.00  0.00    -0.203 F 
ATOM     76  F   UNL A   1      36.802  28.996  31.903  1.00  0.00    -0.200 F 
ATOM     77  C   UNL A   1      36.895  29.719  29.664  1.00  0.00     0.200 A 
ATOM     78  F   UNL A   1      37.074  30.458  27.438  1.00  0.00    -0.200 F 
ATOM     79  F   UNL A   1      35.836  30.517  29.862  1.00  0.00    -0.200 F 
ENDBRANCH  45  69
BRANCH  57  80
ATOM     80  C   UNL A   1      44.164  26.657  32.627  1.00  0.00     0.064 A 
ATOM     81  C   UNL A   1      43.877  26.840  33.989  1.00  0.00     0.173 A 
ATOM     82  C   UNL A   1      44.176  25.342  32.144  1.00  0.00     0.173 A 
ATOM     83  F   UNL A   1      43.801  28.067  34.516  1.00  0.00    -0.203 F 
ATOM     84  C   UNL A   1      43.634  25.752  34.830  1.00  0.00     0.198 A 
ATOM     85  C   UNL A   1      43.906  24.261  32.977  1.00  0.00     0.198 A 
ATOM     86  F   UNL A   1      44.435  25.107  30.847  1.00  0.00    -0.203 F 
ATOM     87  F   UNL A   1      43.375  25.950  36.131  1.00  0.00    -0.200 F 
ATOM     88  C   UNL A   1      43.640  24.465  34.321  1.00  0.00     0.200 A 
ATOM     89  F   UNL A   1      43.887  23.019  32.472  1.00  0.00    -0.200 F 
ATOM     90  F   UNL A   1      43.373  23.421  35.120  1.00  0.00    -0.200 F 
ENDBRANCH  57  80
ENDBRANCH  31  32
ENDBRANCH  24  26
ENDBRANCH  23  24
ENDBRANCH  22  23
ENDBRANCH  21  22
ENDBRANCH  20  21
ENDBRANCH   1  20
TORSDOF 17
ENDMDL
MODEL 2
REMARK VINA RESULT:     -10.8      5.569     11.704
REMARK SMILES Cc1ccc2n[nH]cc2c1C(=O)OCCOCCOCCOC(=O)c1ccc(-c2c3nc(c(-c4c(F)c(F)c(F)c(F)c4F)c4ccc([nH]4)c(-c4c(F)c(F)c(F)c(F)c4F)c4nc(c(-c5c(F)c(F)c(F)c(F)c5F)c5ccc2[nH]5)C=C4)C=C3)cc1
REMARK SMILES IDX 18 1 17 2 16 3 15 4 14 5 13 6 11 7 12 8 10 9 1 10 2 11 3 12
REMARK SMILES IDX 4 13 9 14 5 15 8 16 6 17 7 18 19 20 20 21 21 22 22 23 23 24
REMARK SMILES IDX 24 25 25 26 26 27 87 28 27 29 86 30 28 31 29 32 30 33 80 34
REMARK SMILES IDX 31 35 85 36 79 37 81 38 32 39 84 40 78 41 77 42 33 44 65 45
REMARK SMILES IDX 45 46 64 47 46 48 49 49 63 50 82 51 47 52 48 53 62 55 83 56
REMARK SMILES IDX 50 57 34 58 35 59 43 60 36 61 37 62 41 63 44 64 38 65 39 66
REMARK SMILES IDX 42 67 40 68 66 69 67 70 75 71 68 72 69 73 73 74 76 75 70 76
REMARK SMILES IDX 71 77 74 78 72 79 51 80 52 81 60 82 53 83 54 84 58 85 61 86
REMARK SMILES IDX 55 87 56 88 59 89 57 90
REMARK H PARENT 7 19 81 43 49 54
REMARK Flexibility Score: inf
ROOT
ATOM      1  C   UNL A   1      33.019  35.834  30.970  1.00  0.00     0.188 C 
ENDROOT
BRANCH   1   2
ATOM      2  C   UNL A   1      34.139  35.061  31.692  1.00  0.00     0.188 C 
BRANCH   2   3
ATOM      3  O   UNL A   1      33.887  34.387  32.905  1.00  0.00    -0.376 OA
BRANCH   3   4
ATOM      4  C   UNL A   1      34.990  34.057  33.729  1.00  0.00     0.202 C 
BRANCH   4   5
ATOM      5  C   UNL A   1      36.386  34.145  33.112  1.00  0.00     0.261 C 
BRANCH   5   6
ATOM      6  O   UNL A   1      37.309  34.916  33.920  1.00  0.00    -0.460 OA
BRANCH   6   7
ATOM      7  C   UNL A   1      38.584  34.454  33.909  1.00  0.00     0.339 C 
ATOM      8  O   UNL A   1      39.339  34.513  32.951  1.00  0.00    -0.246 OA
BRANCH   7   9
ATOM      9  C   UNL A   1      38.974  33.723  35.133  1.00  0.00     0.074 A 
ATOM     10  C   UNL A   1      39.726  35.865  36.182  1.00  0.00     0.045 C 
ATOM     11  C   UNL A   1      39.222  34.454  36.317  1.00  0.00    -0.036 A 
ATOM     12  C   UNL A   1      39.017  33.898  37.628  1.00  0.00     0.006 A 
ATOM     13  C   UNL A   1      38.590  32.577  37.876  1.00  0.00     0.031 A 
ATOM     14  C   UNL A   1      38.682  32.382  35.413  1.00  0.00     0.034 A 
ATOM     15  C   UNL A   1      38.469  31.804  36.720  1.00  0.00     0.093 A 
ATOM     16  C   UNL A   1      38.555  31.340  34.540  1.00  0.00     0.114 A 
ATOM     17  N   UNL A   1      38.128  30.511  36.605  1.00  0.00    -0.176 NA
ATOM     18  N   UNL A   1      38.109  30.290  35.289  1.00  0.00    -0.284 N 
ATOM     19  H   UNL A   1      37.802  29.443  34.892  1.00  0.00     0.189 HD
ENDBRANCH   7   9
ENDBRANCH   6   7
ENDBRANCH   5   6
ENDBRANCH   4   5
ENDBRANCH   3   4
ENDBRANCH   2   3
ENDBRANCH   1   2
BRANCH   1  20
ATOM     20  O   UNL A   1      32.705  35.510  29.631  1.00  0.00    -0.376 OA
BRANCH  20  21
ATOM     21  C   UNL A   1      33.793  35.328  28.732  1.00  0.00     0.202 C 
BRANCH  21  22
ATOM     22  C   UNL A   1      33.846  33.994  27.967  1.00  0.00     0.261 C 
BRANCH  22  23
ATOM     23  O   UNL A   1      34.856  33.115  28.511  1.00  0.00    -0.460 OA
BRANCH  23  24
ATOM     24  C   UNL A   1      34.707  31.791  28.244  1.00  0.00     0.338 C 
ATOM     25  O   UNL A   1      33.687  31.247  27.845  1.00  0.00    -0.246 OA
BRANCH  24  26
ATOM     26  C   UNL A   1      36.063  31.178  28.128  1.00  0.00     0.060 A 
ATOM     27  C   UNL A   1      36.321  29.906  27.596  1.00  0.00     0.016 A 
ATOM     28  C   UNL A   1      37.080  31.840  28.811  1.00  0.00     0.016 A 
ATOM     29  C   UNL A   1      37.526  29.228  27.910  1.00  0.00     0.010 A 
ATOM     30  C   UNL A   1      38.276  31.177  29.082  1.00  0.00     0.010 A 
ATOM     31  C   UNL A   1      38.491  29.829  28.730  1.00  0.00    -0.014 A 
BRANCH  31  32
ATOM     32  C   UNL A   1      39.826  29.227  29.021  1.00  0.00     0.031 A 
ATOM     33  C   UNL A   1      40.014  29.039  30.462  1.00  0.00     0.074 A 
ATOM     34  C   UNL A   1      40.842  28.763  28.235  1.00  0.00     0.049 A 
ATOM     35  N   UNL A   1      40.756  29.809  31.183  1.00  0.00    -0.248 NA
ATOM     36  C   UNL A   1      39.256  28.028  31.209  1.00  0.00     0.031 C 
ATOM     37  C   UNL A   1      40.949  28.853  26.794  1.00  0.00     0.029 A 
ATOM     38  N   UNL A   1      41.978  28.018  28.536  1.00  0.00    -0.354 N 
ATOM     39  C   UNL A   1      40.780  29.199  32.414  1.00  0.00     0.074 A 
ATOM     40  C   UNL A   1      39.661  28.291  32.454  1.00  0.00     0.031 C 
ATOM     41  C   UNL A   1      41.849  27.959  26.310  1.00  0.00     0.029 A 
ATOM     42  C   UNL A   1      42.566  27.377  27.428  1.00  0.00     0.049 A 
ATOM     43  H   UNL A   1      42.342  27.946  29.448  1.00  0.00     0.167 HD
ATOM     44  C   UNL A   1      41.934  29.188  33.124  1.00  0.00     0.037 A 
ATOM     45  C   UNL A   1      43.684  26.599  27.349  1.00  0.00     0.037 A 
ATOM     46  C   UNL A   1      42.934  30.072  32.581  1.00  0.00     0.049 A 
ATOM     47  C   UNL A   1      44.636  27.190  28.304  1.00  0.00     0.074 A 
ATOM     48  C   UNL A   1      43.159  31.432  32.546  1.00  0.00     0.029 A 
ATOM     49  N   UNL A   1      43.724  29.519  31.612  1.00  0.00    -0.354 N 
ATOM     50  N   UNL A   1      45.202  28.348  28.114  1.00  0.00    -0.248 NA
ATOM     51  C   UNL A   1      44.843  26.582  29.611  1.00  0.00     0.031 C 
ATOM     52  C   UNL A   1      44.089  31.680  31.493  1.00  0.00     0.029 A 
ATOM     53  C   UNL A   1      44.424  30.468  30.907  1.00  0.00     0.049 A 
ATOM     54  H   UNL A   1      43.785  28.551  31.438  1.00  0.00     0.167 HD
ATOM     55  C   UNL A   1      45.388  28.810  29.392  1.00  0.00     0.074 A 
ATOM     56  C   UNL A   1      45.365  27.634  30.247  1.00  0.00     0.031 C 
ATOM     57  C   UNL A   1      45.090  30.104  29.681  1.00  0.00     0.037 A 
BRANCH  44  58
ATOM     58  C   UNL A   1      42.291  28.056  34.031  1.00  0.00     0.064 A 
ATOM     59  C   UNL A   1      42.896  26.912  33.502  1.00  0.00     0.173 A 
ATOM     60  C   UNL A   1      41.870  27.981  35.377  1.00  0.00     0.173 A 
ATOM     61  F   UNL A   1      43.246  26.869  32.208  1.00  0.00    -0.203 F 
ATOM     62  C   UNL A   1      43.106  25.776  34.284  1.00  0.00     0.198 A 
ATOM     63  C   UNL A   1      42.141  26.876  36.174  1.00  0.00     0.198 A 
ATOM     64  F   UNL A   1      41.106  28.937  35.928  1.00  0.00    -0.203 F 
ATOM     65  F   UNL A   1      43.624  24.674  33.728  1.00  0.00    -0.200 F 
ATOM     66  C   UNL A   1      42.750  25.768  35.624  1.00  0.00     0.200 A 
ATOM     67  F   UNL A   1      41.761  26.876  37.460  1.00  0.00    -0.200 F 
ATOM     68  F   UNL A   1      42.952  24.676  36.374  1.00  0.00    -0.200 F 
ENDBRANCH  44  58
BRANCH  45  69
ATOM     69  C   UNL A   1      44.180  25.517  26.443  1.00  0.00     0.064 A 
ATOM     70  C   UNL A   1      45.296  25.713  25.597  1.00  0.00     0.173 A 
ATOM     71  C   UNL A   1      43.815  24.179  26.665  1.00  0.00     0.173 A 
ATOM     72  F   UNL A   1      45.743  26.948  25.331  1.00  0.00    -0.203 F 
ATOM     73  C   UNL A   1      46.038  24.645  25.074  1.00  0.00     0.198 A 
ATOM     74  C   UNL A   1      44.553  23.109  26.133  1.00  0.00     0.198 A 
ATOM     75  F   UNL A   1      42.808  23.887  27.497  1.00  0.00    -0.203 F 
ATOM     76  F   UNL A   1      47.146  24.887  24.358  1.00  0.00    -0.200 F 
ATOM     77  C   UNL A   1      45.678  23.343  25.360  1.00  0.00     0.200 A 
ATOM     78  F   UNL A   1      44.217  21.846  26.435  1.00  0.00    -0.200 F 
ATOM     79  F   UNL A   1      46.438  22.323  24.934  1.00  0.00    -0.200 F 
ENDBRANCH  45  69
BRANCH  57  80
ATOM     80  C   UNL A   1      45.306  31.119  28.601  1.00  0.00     0.064 A 
ATOM     81  C   UNL A   1      44.345  31.501  27.651  1.00  0.00     0.173 A 
ATOM     82  C   UNL A   1      46.554  31.754  28.543  1.00  0.00     0.173 A 
ATOM     83  F   UNL A   1      43.115  30.976  27.669  1.00  0.00    -0.203 F 
ATOM     84  C   UNL A   1      44.631  32.460  26.677  1.00  0.00     0.198 A 
ATOM     85  C   UNL A   1      46.828  32.729  27.590  1.00  0.00     0.198 A 
ATOM     86  F   UNL A   1      47.509  31.436  29.433  1.00  0.00    -0.203 F 
ATOM     87  F   UNL A   1      43.702  32.799  25.770  1.00  0.00    -0.200 F 
ATOM     88  C   UNL A   1      45.869  33.079  26.653  1.00  0.00     0.200 A 
ATOM     89  F   UNL A   1      48.020  33.344  27.589  1.00  0.00    -0.200 F 
ATOM     90  F   UNL A   1      46.135  34.024  25.739  1.00  0.00    -0.200 F 
ENDBRANCH  57  80
ENDBRANCH  31  32
ENDBRANCH  24  26
ENDBRANCH  23  24
ENDBRANCH  22  23
ENDBRANCH  21  22
ENDBRANCH  20  21
ENDBRANCH   1  20
TORSDOF 17
ENDMDL
MODEL 3
REMARK VINA RESULT:     -10.6      9.076     14.477
REMARK SMILES Cc1ccc2n[nH]cc2c1C(=O)OCCOCCOCCOC(=O)c1ccc(-c2c3nc(c(-c4c(F)c(F)c(F)c(F)c4F)c4ccc([nH]4)c(-c4c(F)c(F)c(F)c(F)c4F)c4nc(c(-c5c(F)c(F)c(F)c(F)c5F)c5ccc2[nH]5)C=C4)C=C3)cc1
REMARK SMILES IDX 18 1 17 2 16 3 15 4 14 5 13 6 11 7 12 8 10 9 1 10 2 11 3 12
REMARK SMILES IDX 4 13 9 14 5 15 8 16 6 17 7 18 19 20 20 21 21 22 22 23 23 24
REMARK SMILES IDX 24 25 25 26 26 27 87 28 27 29 86 30 28 31 29 32 30 33 80 34
REMARK SMILES IDX 31 35 85 36 79 37 81 38 32 39 84 40 78 41 77 42 33 44 65 45
REMARK SMILES IDX 45 46 64 47 46 48 49 49 63 50 82 51 47 52 48 53 62 55 83 56
REMARK SMILES IDX 50 57 34 58 35 59 43 60 36 61 37 62 41 63 44 64 38 65 39 66
REMARK SMILES IDX 42 67 40 68 66 69 67 70 75 71 68 72 69 73 73 74 76 75 70 76
REMARK SMILES IDX 71 77 74 78 72 79 51 80 52 81 60 82 53 83 54 84 58 85 61 86
REMARK SMILES IDX 55 87 56 88 59 89 57 90
REMARK H PARENT 7 19 81 43 49 54
REMARK Flexibility Score: inf
ROOT
ATOM      1  C   UNL A   1      44.524  40.213  26.603  1.00  0.00     0.188 C 
ENDROOT
BRANCH   1   2
ATOM      2  C   UNL A   1      43.480  41.232  26.107  1.00  0.00     0.188 C 
BRANCH   2   3
ATOM      3  O   UNL A   1      43.154  41.324  24.738  1.00  0.00    -0.376 OA
BRANCH   3   4
ATOM      4  C   UNL A   1      42.052  42.131  24.365  1.00  0.00     0.202 C 
BRANCH   4   5
ATOM      5  C   UNL A   1      41.538  42.008  22.930  1.00  0.00     0.261 C 
BRANCH   5   6
ATOM      6  O   UNL A   1      41.928  43.128  22.098  1.00  0.00    -0.460 OA
BRANCH   6   7
ATOM      7  C   UNL A   1      42.580  42.780  20.960  1.00  0.00     0.339 C 
ATOM      8  O   UNL A   1      43.122  41.702  20.769  1.00  0.00    -0.246 OA
BRANCH   7   9
ATOM      9  C   UNL A   1      42.716  43.877  19.980  1.00  0.00     0.074 A 
ATOM     10  C   UNL A   1      44.969  44.439  20.908  1.00  0.00     0.045 C 
ATOM     11  C   UNL A   1      43.991  44.450  19.766  1.00  0.00    -0.036 A 
ATOM     12  C   UNL A   1      44.374  45.041  18.512  1.00  0.00     0.006 A 
ATOM     13  C   UNL A   1      43.528  45.147  17.387  1.00  0.00     0.031 A 
ATOM     14  C   UNL A   1      41.861  44.116  18.896  1.00  0.00     0.034 A 
ATOM     15  C   UNL A   1      42.225  44.705  17.627  1.00  0.00     0.093 A 
ATOM     16  C   UNL A   1      40.521  43.873  18.802  1.00  0.00     0.114 A 
ATOM     17  N   UNL A   1      41.171  44.704  16.796  1.00  0.00    -0.176 NA
ATOM     18  N   UNL A   1      40.195  44.127  17.501  1.00  0.00    -0.284 N 
ATOM     19  H   UNL A   1      39.316  43.905  17.117  1.00  0.00     0.189 HD
ENDBRANCH   7   9
ENDBRANCH   6   7
ENDBRANCH   5   6
ENDBRANCH   4   5
ENDBRANCH   3   4
ENDBRANCH   2   3
ENDBRANCH   1   2
BRANCH   1  20
ATOM     20  O   UNL A   1      45.507  39.736  25.706  1.00  0.00    -0.376 OA
BRANCH  20  21
ATOM     21  C   UNL A   1      46.257  38.596  26.107  1.00  0.00     0.202 C 
BRANCH  21  22
ATOM     22  C   UNL A   1      46.970  38.677  27.468  1.00  0.00     0.261 C 
BRANCH  22  23
ATOM     23  O   UNL A   1      46.283  37.892  28.470  1.00  0.00    -0.460 OA
BRANCH  23  24
ATOM     24  C   UNL A   1      46.200  36.556  28.234  1.00  0.00     0.338 C 
ATOM     25  O   UNL A   1      47.138  35.808  27.996  1.00  0.00    -0.246 OA
BRANCH  24  26
ATOM     26  C   UNL A   1      44.865  36.078  28.698  1.00  0.00     0.060 A 
ATOM     27  C   UNL A   1      43.786  36.914  29.021  1.00  0.00     0.016 A 
ATOM     28  C   UNL A   1      44.798  34.730  29.040  1.00  0.00     0.016 A 
ATOM     29  C   UNL A   1      42.735  36.441  29.847  1.00  0.00     0.010 A 
ATOM     30  C   UNL A   1      43.739  34.267  29.822  1.00  0.00     0.010 A 
ATOM     31  C   UNL A   1      42.741  35.124  30.327  1.00  0.00    -0.014 A 
BRANCH  31  32
ATOM     32  C   UNL A   1      41.623  34.520  31.112  1.00  0.00     0.031 A 
ATOM     33  C   UNL A   1      42.003  34.348  32.517  1.00  0.00     0.074 A 
ATOM     34  C   UNL A   1      40.336  34.179  30.810  1.00  0.00     0.049 A 
ATOM     35  N   UNL A   1      42.318  33.206  33.027  1.00  0.00    -0.248 NA
ATOM     36  C   UNL A   1      42.176  35.497  33.411  1.00  0.00     0.031 C 
ATOM     37  C   UNL A   1      39.704  34.202  29.506  1.00  0.00     0.029 A 
ATOM     38  N   UNL A   1      39.261  33.815  31.615  1.00  0.00    -0.354 N 
ATOM     39  C   UNL A   1      42.446  33.460  34.371  1.00  0.00     0.074 A 
ATOM     40  C   UNL A   1      42.615  34.885  34.514  1.00  0.00     0.031 C 
ATOM     41  C   UNL A   1      38.351  34.200  29.615  1.00  0.00     0.029 A 
ATOM     42  C   UNL A   1      38.001  33.942  30.998  1.00  0.00     0.049 A 
ATOM     43  H   UNL A   1      39.373  33.496  32.539  1.00  0.00     0.167 HD
ATOM     44  C   UNL A   1      41.999  32.544  35.263  1.00  0.00     0.037 A 
ATOM     45  C   UNL A   1      36.754  33.657  31.473  1.00  0.00     0.037 A 
ATOM     46  C   UNL A   1      41.676  31.279  34.654  1.00  0.00     0.049 A 
ATOM     47  C   UNL A   1      36.922  32.456  32.307  1.00  0.00     0.074 A 
ATOM     48  C   UNL A   1      42.373  30.203  34.145  1.00  0.00     0.029 A 
ATOM     49  N   UNL A   1      40.400  31.183  34.171  1.00  0.00    -0.354 N 
ATOM     50  N   UNL A   1      37.203  31.284  31.813  1.00  0.00    -0.248 NA
ATOM     51  C   UNL A   1      36.966  32.566  33.759  1.00  0.00     0.031 C 
ATOM     52  C   UNL A   1      41.475  29.475  33.308  1.00  0.00     0.029 A 
ATOM     53  C   UNL A   1      40.244  30.112  33.325  1.00  0.00     0.049 A 
ATOM     54  H   UNL A   1      39.677  31.809  34.403  1.00  0.00     0.167 HD
ATOM     55  C   UNL A   1      37.923  30.694  32.820  1.00  0.00     0.074 A 
ATOM     56  C   UNL A   1      37.564  31.405  34.036  1.00  0.00     0.031 C 
ATOM     57  C   UNL A   1      39.056  30.008  32.512  1.00  0.00     0.037 A 
BRANCH  44  58
ATOM     58  C   UNL A   1      41.444  32.943  36.592  1.00  0.00     0.064 A 
ATOM     59  C   UNL A   1      42.050  32.475  37.762  1.00  0.00     0.173 A 
ATOM     60  C   UNL A   1      40.210  33.613  36.745  1.00  0.00     0.173 A 
ATOM     61  F   UNL A   1      43.179  31.753  37.697  1.00  0.00    -0.203 F 
ATOM     62  C   UNL A   1      41.477  32.699  39.014  1.00  0.00     0.198 A 
ATOM     63  C   UNL A   1      39.676  33.895  37.996  1.00  0.00     0.198 A 
ATOM     64  F   UNL A   1      39.446  33.928  35.688  1.00  0.00    -0.203 F 
ATOM     65  F   UNL A   1      42.046  32.177  40.107  1.00  0.00    -0.200 F 
ATOM     66  C   UNL A   1      40.304  33.429  39.131  1.00  0.00     0.200 A 
ATOM     67  F   UNL A   1      38.524  34.576  38.086  1.00  0.00    -0.200 F 
ATOM     68  F   UNL A   1      39.755  33.642  40.334  1.00  0.00    -0.200 F 
ENDBRANCH  44  58
BRANCH  45  69
ATOM     69  C   UNL A   1      35.361  34.124  31.188  1.00  0.00     0.064 A 
ATOM     70  C   UNL A   1      34.750  35.143  31.955  1.00  0.00     0.173 A 
ATOM     71  C   UNL A   1      34.760  33.856  29.948  1.00  0.00     0.173 A 
ATOM     72  F   UNL A   1      35.252  35.494  33.147  1.00  0.00    -0.203 F 
ATOM     73  C   UNL A   1      33.664  35.889  31.481  1.00  0.00     0.198 A 
ATOM     74  C   UNL A   1      33.664  34.598  29.476  1.00  0.00     0.198 A 
ATOM     75  F   UNL A   1      35.298  32.950  29.123  1.00  0.00    -0.203 F 
ATOM     76  F   UNL A   1      33.184  36.910  32.208  1.00  0.00    -0.200 F 
ATOM     77  C   UNL A   1      33.134  35.630  30.232  1.00  0.00     0.200 A 
ATOM     78  F   UNL A   1      33.171  34.362  28.252  1.00  0.00    -0.200 F 
ATOM     79  F   UNL A   1      32.153  36.401  29.741  1.00  0.00    -0.200 F 
ENDBRANCH  45  69
BRANCH  57  80
ATOM     80  C   UNL A   1      39.093  29.288  31.200  1.00  0.00     0.064 A 
ATOM     81  C   UNL A   1      39.446  29.871  29.972  1.00  0.00     0.173 A 
ATOM     82  C   UNL A   1      38.769  27.925  31.195  1.00  0.00     0.173 A 
ATOM     83  F   UNL A   1      39.814  31.155  29.901  1.00  0.00    -0.203 F 
ATOM     84  C   UNL A   1      39.455  29.124  28.792  1.00  0.00     0.198 A 
ATOM     85  C   UNL A   1      38.806  27.175  30.023  1.00  0.00     0.198 A 
ATOM     86  F   UNL A   1      38.432  27.312  32.341  1.00  0.00    -0.203 F 
ATOM     87  F   UNL A   1      39.784  29.705  27.628  1.00  0.00    -0.200 F 
ATOM     88  C   UNL A   1      39.143  27.775  28.820  1.00  0.00     0.200 A 
ATOM     89  F   UNL A   1      38.528  25.864  30.062  1.00  0.00    -0.200 F 
ATOM     90  F   UNL A   1      39.183  27.049  27.694  1.00  0.00    -0.200 F 
ENDBRANCH  57  80
ENDBRANCH  31  32
ENDBRANCH  24  26
ENDBRANCH  23  24
ENDBRANCH  22  23
ENDBRANCH  21  22
ENDBRANCH  20  21
ENDBRANCH   1  20
TORSDOF 17
ENDMDL
