MODEL 1
REMARK VINA RESULT:     -11.1      0.000      0.000
REMARK SMILES CCC[C@H](CNC(=O)N1C[C@H]2CCC[N@H+]2C[C@@H]1C)C(=O)OCCOCCOCCOC(=O)c1ccc(-c2c3nc(c(-c4c(F)c(F)c(F)c(F)c4F)c4ccc([nH]4)c(-c4c(F)c(F)c(F)c(F)c4F)c4nc(c(-c5c(F)c(F)c(F)c(F)c5F)c5ccc2[nH]5)C=C4)C=C3)cc1
REMARK SMILES IDX 25 1 24 2 23 3 22 4 21 5 19 6 20 7 4 8 3 9 2 10 1 11 5 12
REMARK SMILES IDX 6 13 7 14 8 16 9 17 10 18 17 19 11 20 16 21 18 22 12 23
REMARK SMILES IDX 15 24 13 25 14 26 26 28 27 29 28 30 29 31 30 32 31 33 32 34
REMARK SMILES IDX 33 35 34 36 95 37 35 38 94 39 36 40 37 41 38 42 88 43 39 44
REMARK SMILES IDX 93 45 87 46 89 47 40 48 92 49 86 50 85 51 41 53 73 54 53 55
REMARK SMILES IDX 72 56 54 57 57 58 71 59 90 60 55 61 56 62 70 64 91 65 58 66
REMARK SMILES IDX 42 67 43 68 51 69 44 70 45 71 49 72 52 73 46 74 47 75 50 76
REMARK SMILES IDX 48 77 74 78 75 79 83 80 76 81 77 82 81 83 84 84 78 85 79 86
REMARK SMILES IDX 82 87 80 88 59 89 60 90 68 91 61 92 62 93 66 94 69 95 63 96
REMARK SMILES IDX 64 97 67 98 65 99
REMARK H PARENT 6 15 15 27 89 52 57 63
REMARK Flexibility Score: inf
ROOT
ATOM      1  C   UNL A   1      38.765  21.826  25.747  1.00  0.00     0.188 C 
ENDROOT
BRANCH   1   2
ATOM      2  O   UNL A   1      38.083  23.065  25.847  1.00  0.00    -0.376 OA
BRANCH   2   3
ATOM      3  C   UNL A   1      37.054  23.401  24.925  1.00  0.00     0.202 C 
BRANCH   3   4
ATOM      4  C   UNL A   1      35.927  24.380  25.312  1.00  0.00     0.261 C 
BRANCH   4   5
ATOM      5  O   UNL A   1      34.808  24.497  24.402  1.00  0.00    -0.463 OA
BRANCH   5   6
ATOM      6  C   UNL A   1      34.027  25.590  24.580  1.00  0.00     0.310 C 
ATOM      7  O   UNL A   1      34.399  26.721  24.282  1.00  0.00    -0.252 OA
BRANCH   6   8
ATOM      8  C   UNL A   1      32.614  25.319  25.129  1.00  0.00     0.118 C 
BRANCH   8   9
ATOM      9  C   UNL A   1      31.776  26.612  25.154  1.00  0.00     0.017 C 
BRANCH   9  10
ATOM     10  C   UNL A   1      31.129  26.991  26.496  1.00  0.00    -0.002 C 
ATOM     11  C   UNL A   1      31.831  28.115  27.248  1.00  0.00     0.004 C 
ENDBRANCH   9  10
ENDBRANCH   8   9
BRANCH   8  12
ATOM     12  C   UNL A   1      32.534  24.482  26.442  1.00  0.00     0.133 C 
BRANCH  12  13
ATOM     13  N   UNL A   1      31.550  23.417  26.482  1.00  0.00    -0.337 N 
ATOM     14  C   UNL A   1      31.457  22.218  25.873  1.00  0.00     0.318 C 
ATOM     15  H   UNL A   1      30.790  23.610  27.079  1.00  0.00     0.165 HD
ATOM     16  O   UNL A   1      30.325  21.738  25.793  1.00  0.00    -0.249 OA
BRANCH  14  17
ATOM     17  N   UNL A   1      32.543  21.611  25.306  1.00  0.00    -0.311 N 
ATOM     18  C   UNL A   1      32.273  20.747  24.159  1.00  0.00     0.186 C 
ATOM     19  C   UNL A   1      33.914  21.485  25.873  1.00  0.00     0.139 C 
ATOM     20  C   UNL A   1      32.594  19.278  24.461  1.00  0.00     0.204 C 
ATOM     21  C   UNL A   1      34.708  20.277  25.237  1.00  0.00     0.287 C 
ATOM     22  C   UNL A   1      33.956  21.360  27.401  1.00  0.00     0.037 C 
ATOM     23  C   UNL A   1      32.540  18.422  23.198  1.00  0.00     0.073 C 
ATOM     24  N   UNL A   1      33.926  19.038  25.067  1.00  0.00    -0.329 N 
ATOM     25  C   UNL A   1      33.523  17.308  23.487  1.00  0.00     0.068 C 
ATOM     26  C   UNL A   1      34.621  18.028  24.254  1.00  0.00     0.262 C 
ATOM     27  H   UNL A   1      33.811  18.683  26.015  1.00  0.00     0.348 HD
ENDBRANCH  14  17
ENDBRANCH  12  13
ENDBRANCH   8  12
ENDBRANCH   6   8
ENDBRANCH   5   6
ENDBRANCH   4   5
ENDBRANCH   3   4
ENDBRANCH   2   3
ENDBRANCH   1   2
BRANCH   1  28
ATOM     28  C   UNL A   1      40.046  21.589  26.557  1.00  0.00     0.188 C 
BRANCH  28  29
ATOM     29  O   UNL A   1      41.033  20.823  25.915  1.00  0.00    -0.376 OA
BRANCH  29  30
ATOM     30  C   UNL A   1      42.390  21.017  26.279  1.00  0.00     0.202 C 
BRANCH  30  31
ATOM     31  C   UNL A   1      43.366  21.786  25.365  1.00  0.00     0.261 C 
BRANCH  31  32
ATOM     32  O   UNL A   1      42.917  23.033  24.810  1.00  0.00    -0.460 OA
BRANCH  32  33
ATOM     33  C   UNL A   1      43.718  24.109  24.972  1.00  0.00     0.338 C 
ATOM     34  O   UNL A   1      44.727  24.378  24.337  1.00  0.00    -0.246 OA
BRANCH  33  35
ATOM     35  C   UNL A   1      43.030  25.057  25.879  1.00  0.00     0.060 A 
ATOM     36  C   UNL A   1      43.553  26.351  26.027  1.00  0.00     0.016 A 
ATOM     37  C   UNL A   1      41.879  24.682  26.574  1.00  0.00     0.016 A 
ATOM     38  C   UNL A   1      42.950  27.259  26.898  1.00  0.00     0.010 A 
ATOM     39  C   UNL A   1      41.291  25.584  27.468  1.00  0.00     0.010 A 
ATOM     40  C   UNL A   1      41.846  26.863  27.663  1.00  0.00    -0.014 A 
BRANCH  40  41
ATOM     41  C   UNL A   1      41.418  27.695  28.816  1.00  0.00     0.031 A 
ATOM     42  C   UNL A   1      42.183  27.564  30.106  1.00  0.00     0.074 A 
ATOM     43  C   UNL A   1      40.399  28.565  28.724  1.00  0.00     0.049 A 
ATOM     44  N   UNL A   1      41.977  28.139  31.263  1.00  0.00    -0.248 NA
ATOM     45  C   UNL A   1      43.341  26.654  30.086  1.00  0.00     0.031 C 
ATOM     46  C   UNL A   1      39.606  28.819  27.525  1.00  0.00     0.029 A 
ATOM     47  N   UNL A   1      39.850  29.394  29.673  1.00  0.00    -0.354 N 
ATOM     48  C   UNL A   1      42.965  27.650  32.109  1.00  0.00     0.074 A 
ATOM     49  C   UNL A   1      43.756  26.713  31.342  1.00  0.00     0.031 C 
ATOM     50  C   UNL A   1      38.655  29.727  27.814  1.00  0.00     0.029 A 
ATOM     51  C   UNL A   1      38.755  30.094  29.227  1.00  0.00     0.049 A 
ATOM     52  H   UNL A   1      40.206  29.478  30.588  1.00  0.00     0.167 HD
ATOM     53  C   UNL A   1      43.195  27.958  33.406  1.00  0.00     0.037 A 
ATOM     54  C   UNL A   1      37.916  30.913  29.893  1.00  0.00     0.037 A 
ATOM     55  C   UNL A   1      42.411  28.893  34.168  1.00  0.00     0.049 A 
ATOM     56  C   UNL A   1      38.161  31.195  31.356  1.00  0.00     0.074 A 
ATOM     57  C   UNL A   1      42.580  29.291  35.483  1.00  0.00     0.029 A 
ATOM     58  N   UNL A   1      41.301  29.570  33.686  1.00  0.00    -0.354 N 
ATOM     59  N   UNL A   1      39.114  30.752  32.141  1.00  0.00    -0.248 NA
ATOM     60  C   UNL A   1      37.215  32.103  32.022  1.00  0.00     0.031 C 
ATOM     61  C   UNL A   1      41.537  30.160  35.815  1.00  0.00     0.029 A 
ATOM     62  C   UNL A   1      40.760  30.363  34.686  1.00  0.00     0.049 A 
ATOM     63  H   UNL A   1      40.949  29.500  32.770  1.00  0.00     0.167 HD
ATOM     64  C   UNL A   1      38.904  31.355  33.377  1.00  0.00     0.074 A 
ATOM     65  C   UNL A   1      37.743  32.206  33.232  1.00  0.00     0.031 C 
ATOM     66  C   UNL A   1      39.611  31.218  34.527  1.00  0.00     0.037 A 
BRANCH  53  67
ATOM     67  C   UNL A   1      44.322  27.250  34.100  1.00  0.00     0.064 A 
ATOM     68  C   UNL A   1      44.144  26.011  34.734  1.00  0.00     0.173 A 
ATOM     69  C   UNL A   1      45.612  27.803  34.094  1.00  0.00     0.173 A 
ATOM     70  F   UNL A   1      42.928  25.447  34.785  1.00  0.00    -0.203 F 
ATOM     71  C   UNL A   1      45.210  25.363  35.354  1.00  0.00     0.198 A 
ATOM     72  C   UNL A   1      46.682  27.137  34.687  1.00  0.00     0.198 A 
ATOM     73  F   UNL A   1      45.839  28.985  33.502  1.00  0.00    -0.203 F 
ATOM     74  F   UNL A   1      45.006  24.204  35.995  1.00  0.00    -0.200 F 
ATOM     75  C   UNL A   1      46.479  25.922  35.322  1.00  0.00     0.200 A 
ATOM     76  F   UNL A   1      47.909  27.673  34.642  1.00  0.00    -0.200 F 
ATOM     77  F   UNL A   1      47.505  25.292  35.908  1.00  0.00    -0.200 F 
ENDBRANCH  53  67
BRANCH  54  78
ATOM     78  C   UNL A   1      36.747  31.516  29.196  1.00  0.00     0.064 A 
ATOM     79  C   UNL A   1      36.710  32.883  28.886  1.00  0.00     0.173 A 
ATOM     80  C   UNL A   1      35.621  30.746  28.869  1.00  0.00     0.173 A 
ATOM     81  F   UNL A   1      37.749  33.670  29.203  1.00  0.00    -0.203 F 
ATOM     82  C   UNL A   1      35.583  33.461  28.304  1.00  0.00     0.198 A 
ATOM     83  C   UNL A   1      34.508  31.317  28.256  1.00  0.00     0.198 A 
ATOM     84  F   UNL A   1      35.600  29.434  29.148  1.00  0.00    -0.203 F 
ATOM     85  F   UNL A   1      35.551  34.782  28.079  1.00  0.00    -0.200 F 
ATOM     86  C   UNL A   1      34.485  32.676  27.985  1.00  0.00     0.200 A 
ATOM     87  F   UNL A   1      33.453  30.553  27.940  1.00  0.00    -0.200 F 
ATOM     88  F   UNL A   1      33.400  33.233  27.429  1.00  0.00    -0.200 F 
ENDBRANCH  54  78
BRANCH  66  89
ATOM     89  C   UNL A   1      39.188  32.053  35.705  1.00  0.00     0.064 A 
ATOM     90  C   UNL A   1      38.313  31.566  36.688  1.00  0.00     0.173 A 
ATOM     91  C   UNL A   1      39.688  33.355  35.863  1.00  0.00     0.173 A 
ATOM     92  F   UNL A   1      37.798  30.332  36.582  1.00  0.00    -0.203 F 
ATOM     93  C   UNL A   1      37.921  32.367  37.758  1.00  0.00     0.198 A 
ATOM     94  C   UNL A   1      39.325  34.139  36.956  1.00  0.00     0.198 A 
ATOM     95  F   UNL A   1      40.539  33.868  34.961  1.00  0.00    -0.203 F 
ATOM     96  F   UNL A   1      37.032  31.904  38.648  1.00  0.00    -0.200 F 
ATOM     97  C   UNL A   1      38.432  33.649  37.895  1.00  0.00     0.200 A 
ATOM     98  F   UNL A   1      39.836  35.369  37.095  1.00  0.00    -0.200 F 
ATOM     99  F   UNL A   1      38.055  34.416  38.928  1.00  0.00    -0.200 F 
ENDBRANCH  66  89
ENDBRANCH  40  41
ENDBRANCH  33  35
ENDBRANCH  32  33
ENDBRANCH  31  32
ENDBRANCH  30  31
ENDBRANCH  29  30
ENDBRANCH  28  29
ENDBRANCH   1  28
TORSDOF 22
ENDMDL
MODEL 2
REMARK VINA RESULT:     -11.1      1.060      3.594
REMARK SMILES CCC[C@H](CNC(=O)N1C[C@H]2CCC[N@H+]2C[C@@H]1C)C(=O)OCCOCCOCCOC(=O)c1ccc(-c2c3nc(c(-c4c(F)c(F)c(F)c(F)c4F)c4ccc([nH]4)c(-c4c(F)c(F)c(F)c(F)c4F)c4nc(c(-c5c(F)c(F)c(F)c(F)c5F)c5ccc2[nH]5)C=C4)C=C3)cc1
REMARK SMILES IDX 25 1 24 2 23 3 22 4 21 5 19 6 20 7 4 8 3 9 2 10 1 11 5 12
REMARK SMILES IDX 6 13 7 14 8 16 9 17 10 18 17 19 11 20 16 21 18 22 12 23
REMARK SMILES IDX 15 24 13 25 14 26 26 28 27 29 28 30 29 31 30 32 31 33 32 34
REMARK SMILES IDX 33 35 34 36 95 37 35 38 94 39 36 40 37 41 38 42 88 43 39 44
REMARK SMILES IDX 93 45 87 46 89 47 40 48 92 49 86 50 85 51 41 53 73 54 53 55
REMARK SMILES IDX 72 56 54 57 57 58 71 59 90 60 55 61 56 62 70 64 91 65 58 66
REMARK SMILES IDX 42 67 43 68 51 69 44 70 45 71 49 72 52 73 46 74 47 75 50 76
REMARK SMILES IDX 48 77 74 78 75 79 83 80 76 81 77 82 81 83 84 84 78 85 79 86
REMARK SMILES IDX 82 87 80 88 59 89 60 90 68 91 61 92 62 93 66 94 69 95 63 96
REMARK SMILES IDX 64 97 67 98 65 99
REMARK H PARENT 6 15 15 27 89 52 57 63
REMARK Flexibility Score: inf
ROOT
ATOM      1  C   UNL A   1      38.554  21.568  25.722  1.00  0.00     0.188 C 
ENDROOT
BRANCH   1   2
ATOM      2  O   UNL A   1      37.565  22.516  26.088  1.00  0.00    -0.376 OA
BRANCH   2   3
ATOM      3  C   UNL A   1      37.160  23.530  25.177  1.00  0.00     0.202 C 
BRANCH   3   4
ATOM      4  C   UNL A   1      35.714  23.592  24.648  1.00  0.00     0.261 C 
BRANCH   4   5
ATOM      5  O   UNL A   1      35.332  22.621  23.646  1.00  0.00    -0.463 OA
BRANCH   5   6
ATOM      6  C   UNL A   1      33.997  22.473  23.460  1.00  0.00     0.310 C 
ATOM      7  O   UNL A   1      33.426  22.866  22.447  1.00  0.00    -0.252 OA
BRANCH   6   8
ATOM      8  C   UNL A   1      33.246  21.725  24.577  1.00  0.00     0.118 C 
BRANCH   8   9
ATOM      9  C   UNL A   1      33.660  20.241  24.620  1.00  0.00     0.017 C 
BRANCH   9  10
ATOM     10  C   UNL A   1      32.535  19.205  24.461  1.00  0.00    -0.002 C 
ATOM     11  C   UNL A   1      32.956  17.903  23.790  1.00  0.00     0.004 C 
ENDBRANCH   9  10
ENDBRANCH   8   9
BRANCH   8  12
ATOM     12  C   UNL A   1      31.707  21.960  24.648  1.00  0.00     0.133 C 
BRANCH  12  13
ATOM     13  N   UNL A   1      31.222  22.805  25.723  1.00  0.00    -0.337 N 
ATOM     14  C   UNL A   1      31.459  24.085  26.074  1.00  0.00     0.318 C 
ATOM     15  H   UNL A   1      30.587  22.349  26.322  1.00  0.00     0.165 HD
ATOM     16  O   UNL A   1      31.224  24.377  27.248  1.00  0.00    -0.249 OA
BRANCH  14  17
ATOM     17  N   UNL A   1      32.005  24.984  25.200  1.00  0.00    -0.311 N 
ATOM     18  C   UNL A   1      33.070  25.832  25.729  1.00  0.00     0.186 C 
ATOM     19  C   UNL A   1      31.469  25.407  23.877  1.00  0.00     0.139 C 
ATOM     20  C   UNL A   1      32.659  27.309  25.766  1.00  0.00     0.204 C 
ATOM     21  C   UNL A   1      32.027  26.817  23.437  1.00  0.00     0.287 C 
ATOM     22  C   UNL A   1      29.938  25.428  23.794  1.00  0.00     0.037 C 
ATOM     23  C   UNL A   1      33.846  28.214  26.091  1.00  0.00     0.073 C 
ATOM     24  N   UNL A   1      32.073  27.831  24.507  1.00  0.00    -0.329 N 
ATOM     25  C   UNL A   1      33.495  29.513  25.400  1.00  0.00     0.068 C 
ATOM     26  C   UNL A   1      32.821  29.038  24.123  1.00  0.00     0.262 C 
ATOM     27  H   UNL A   1      31.096  28.077  24.662  1.00  0.00     0.348 HD
ENDBRANCH  14  17
ENDBRANCH  12  13
ENDBRANCH   8  12
ENDBRANCH   6   8
ENDBRANCH   5   6
ENDBRANCH   4   5
ENDBRANCH   3   4
ENDBRANCH   2   3
ENDBRANCH   1   2
BRANCH   1  28
ATOM     28  C   UNL A   1      39.880  21.507  26.490  1.00  0.00     0.188 C 
BRANCH  28  29
ATOM     29  O   UNL A   1      40.895  20.748  25.882  1.00  0.00    -0.376 OA
BRANCH  29  30
ATOM     30  C   UNL A   1      42.232  20.924  26.320  1.00  0.00     0.202 C 
BRANCH  30  31
ATOM     31  C   UNL A   1      43.224  21.811  25.539  1.00  0.00     0.261 C 
BRANCH  31  32
ATOM     32  O   UNL A   1      42.717  23.024  24.956  1.00  0.00    -0.460 OA
BRANCH  32  33
ATOM     33  C   UNL A   1      43.500  24.122  25.030  1.00  0.00     0.338 C 
ATOM     34  O   UNL A   1      44.466  24.386  24.329  1.00  0.00    -0.246 OA
BRANCH  33  35
ATOM     35  C   UNL A   1      42.842  25.092  25.935  1.00  0.00     0.060 A 
ATOM     36  C   UNL A   1      43.429  26.354  26.116  1.00  0.00     0.016 A 
ATOM     37  C   UNL A   1      41.656  24.769  26.596  1.00  0.00     0.016 A 
ATOM     38  C   UNL A   1      42.852  27.280  26.987  1.00  0.00     0.010 A 
ATOM     39  C   UNL A   1      41.094  25.687  27.491  1.00  0.00     0.010 A 
ATOM     40  C   UNL A   1      41.711  26.932  27.718  1.00  0.00    -0.014 A 
BRANCH  40  41
ATOM     41  C   UNL A   1      41.299  27.769  28.874  1.00  0.00     0.031 A 
ATOM     42  C   UNL A   1      42.062  27.619  30.164  1.00  0.00     0.074 A 
ATOM     43  C   UNL A   1      40.297  28.659  28.785  1.00  0.00     0.049 A 
ATOM     44  N   UNL A   1      41.867  28.195  31.322  1.00  0.00    -0.248 NA
ATOM     45  C   UNL A   1      43.202  26.687  30.141  1.00  0.00     0.031 C 
ATOM     46  C   UNL A   1      39.509  28.932  27.587  1.00  0.00     0.029 A 
ATOM     47  N   UNL A   1      39.764  29.496  29.737  1.00  0.00    -0.354 N 
ATOM     48  C   UNL A   1      42.845  27.685  32.167  1.00  0.00     0.074 A 
ATOM     49  C   UNL A   1      43.617  26.734  31.397  1.00  0.00     0.031 C 
ATOM     50  C   UNL A   1      38.576  29.857  27.879  1.00  0.00     0.029 A 
ATOM     51  C   UNL A   1      38.683  30.217  29.293  1.00  0.00     0.049 A 
ATOM     52  H   UNL A   1      40.122  29.570  30.651  1.00  0.00     0.167 HD
ATOM     53  C   UNL A   1      43.081  27.984  33.465  1.00  0.00     0.037 A 
ATOM     54  C   UNL A   1      37.860  31.051  29.961  1.00  0.00     0.037 A 
ATOM     55  C   UNL A   1      42.315  28.932  34.230  1.00  0.00     0.049 A 
ATOM     56  C   UNL A   1      38.110  31.324  31.425  1.00  0.00     0.074 A 
ATOM     57  C   UNL A   1      42.492  29.322  35.546  1.00  0.00     0.029 A 
ATOM     58  N   UNL A   1      41.219  29.632  33.750  1.00  0.00    -0.354 N 
ATOM     59  N   UNL A   1      39.055  30.860  32.208  1.00  0.00    -0.248 NA
ATOM     60  C   UNL A   1      37.182  32.248  32.094  1.00  0.00     0.031 C 
ATOM     61  C   UNL A   1      41.466  30.211  35.881  1.00  0.00     0.029 A 
ATOM     62  C   UNL A   1      40.693  30.432  34.752  1.00  0.00     0.049 A 
ATOM     63  H   UNL A   1      40.866  29.571  32.833  1.00  0.00     0.167 HD
ATOM     64  C   UNL A   1      38.857  31.463  33.446  1.00  0.00     0.074 A 
ATOM     65  C   UNL A   1      37.713  32.337  33.304  1.00  0.00     0.031 C 
ATOM     66  C   UNL A   1      39.561  31.310  34.596  1.00  0.00     0.037 A 
BRANCH  53  67
ATOM     67  C   UNL A   1      44.195  27.252  34.157  1.00  0.00     0.064 A 
ATOM     68  C   UNL A   1      45.514  27.731  34.151  1.00  0.00     0.173 A 
ATOM     69  C   UNL A   1      43.928  26.075  34.872  1.00  0.00     0.173 A 
ATOM     70  F   UNL A   1      45.827  28.842  33.467  1.00  0.00    -0.203 F 
ATOM     71  C   UNL A   1      46.527  27.045  34.817  1.00  0.00     0.198 A 
ATOM     72  C   UNL A   1      44.937  25.410  35.564  1.00  0.00     0.198 A 
ATOM     73  F   UNL A   1      42.684  25.574  34.911  1.00  0.00    -0.203 F 
ATOM     74  F   UNL A   1      47.789  27.494  34.757  1.00  0.00    -0.200 F 
ATOM     75  C   UNL A   1      46.236  25.892  35.530  1.00  0.00     0.200 A 
ATOM     76  F   UNL A   1      44.650  24.304  36.263  1.00  0.00    -0.200 F 
ATOM     77  F   UNL A   1      47.210  25.241  36.180  1.00  0.00    -0.200 F 
ENDBRANCH  53  67
BRANCH  54  78
ATOM     78  C   UNL A   1      36.703  31.678  29.266  1.00  0.00     0.064 A 
ATOM     79  C   UNL A   1      36.694  33.047  28.957  1.00  0.00     0.173 A 
ATOM     80  C   UNL A   1      35.561  30.932  28.940  1.00  0.00     0.173 A 
ATOM     81  F   UNL A   1      37.749  33.811  29.275  1.00  0.00    -0.203 F 
ATOM     82  C   UNL A   1      35.578  33.647  28.378  1.00  0.00     0.198 A 
ATOM     83  C   UNL A   1      34.459  31.527  28.328  1.00  0.00     0.198 A 
ATOM     84  F   UNL A   1      35.514  29.621  29.217  1.00  0.00    -0.203 F 
ATOM     85  F   UNL A   1      35.572  34.969  28.154  1.00  0.00    -0.200 F 
ATOM     86  C   UNL A   1      34.464  32.886  28.058  1.00  0.00     0.200 A 
ATOM     87  F   UNL A   1      33.389  30.784  28.013  1.00  0.00    -0.200 F 
ATOM     88  F   UNL A   1      33.390  33.465  27.505  1.00  0.00    -0.200 F 
ENDBRANCH  54  78
BRANCH  66  89
ATOM     89  C   UNL A   1      39.154  32.149  35.776  1.00  0.00     0.064 A 
ATOM     90  C   UNL A   1      39.620  33.460  35.957  1.00  0.00     0.173 A 
ATOM     91  C   UNL A   1      38.260  31.636  36.731  1.00  0.00     0.173 A 
ATOM     92  F   UNL A   1      40.482  33.996  35.080  1.00  0.00    -0.203 F 
ATOM     93  C   UNL A   1      39.243  34.207  37.070  1.00  0.00     0.198 A 
ATOM     94  C   UNL A   1      37.854  32.402  37.821  1.00  0.00     0.198 A 
ATOM     95  F   UNL A   1      37.771  30.394  36.602  1.00  0.00    -0.203 F 
ATOM     96  F   UNL A   1      39.754  35.433  37.255  1.00  0.00    -0.200 F 
ATOM     97  C   UNL A   1      38.356  33.681  37.997  1.00  0.00     0.200 A 
ATOM     98  F   UNL A   1      36.982  31.897  38.704  1.00  0.00    -0.200 F 
ATOM     99  F   UNL A   1      37.993  34.404  39.065  1.00  0.00    -0.200 F 
ENDBRANCH  66  89
ENDBRANCH  40  41
ENDBRANCH  33  35
ENDBRANCH  32  33
ENDBRANCH  31  32
ENDBRANCH  30  31
ENDBRANCH  29  30
ENDBRANCH  28  29
ENDBRANCH   1  28
TORSDOF 22
ENDMDL
MODEL 3
REMARK VINA RESULT:     -10.7      0.586      2.082
REMARK SMILES CCC[C@H](CNC(=O)N1C[C@H]2CCC[N@H+]2C[C@@H]1C)C(=O)OCCOCCOCCOC(=O)c1ccc(-c2c3nc(c(-c4c(F)c(F)c(F)c(F)c4F)c4ccc([nH]4)c(-c4c(F)c(F)c(F)c(F)c4F)c4nc(c(-c5c(F)c(F)c(F)c(F)c5F)c5ccc2[nH]5)C=C4)C=C3)cc1
REMARK SMILES IDX 25 1 24 2 23 3 22 4 21 5 19 6 20 7 4 8 3 9 2 10 1 11 5 12
REMARK SMILES IDX 6 13 7 14 8 16 9 17 10 18 17 19 11 20 16 21 18 22 12 23
REMARK SMILES IDX 15 24 13 25 14 26 26 28 27 29 28 30 29 31 30 32 31 33 32 34
REMARK SMILES IDX 33 35 34 36 95 37 35 38 94 39 36 40 37 41 38 42 88 43 39 44
REMARK SMILES IDX 93 45 87 46 89 47 40 48 92 49 86 50 85 51 41 53 73 54 53 55
REMARK SMILES IDX 72 56 54 57 57 58 71 59 90 60 55 61 56 62 70 64 91 65 58 66
REMARK SMILES IDX 42 67 43 68 51 69 44 70 45 71 49 72 52 73 46 74 47 75 50 76
REMARK SMILES IDX 48 77 74 78 75 79 83 80 76 81 77 82 81 83 84 84 78 85 79 86
REMARK SMILES IDX 82 87 80 88 59 89 60 90 68 91 61 92 62 93 66 94 69 95 63 96
REMARK SMILES IDX 64 97 67 98 65 99
REMARK H PARENT 6 15 15 27 89 52 57 63
REMARK Flexibility Score: inf
ROOT
ATOM      1  C   UNL A   1      38.820  22.064  25.823  1.00  0.00     0.188 C 
ENDROOT
BRANCH   1   2
ATOM      2  O   UNL A   1      38.207  23.340  25.894  1.00  0.00    -0.376 OA
BRANCH   2   3
ATOM      3  C   UNL A   1      37.064  23.640  25.103  1.00  0.00     0.202 C 
BRANCH   3   4
ATOM      4  C   UNL A   1      35.916  24.504  25.659  1.00  0.00     0.261 C 
BRANCH   4   5
ATOM      5  O   UNL A   1      34.821  24.810  24.764  1.00  0.00    -0.463 OA
BRANCH   5   6
ATOM      6  C   UNL A   1      33.909  25.691  25.241  1.00  0.00     0.310 C 
ATOM      7  O   UNL A   1      34.225  26.793  25.681  1.00  0.00    -0.252 OA
BRANCH   6   8
ATOM      8  C   UNL A   1      32.437  25.249  25.144  1.00  0.00     0.118 C 
BRANCH   8   9
ATOM      9  C   UNL A   1      31.702  26.024  24.033  1.00  0.00     0.017 C 
BRANCH   9  10
ATOM     10  C   UNL A   1      31.492  25.288  22.700  1.00  0.00    -0.002 C 
ATOM     11  C   UNL A   1      32.566  24.262  22.361  1.00  0.00     0.004 C 
ENDBRANCH   9  10
ENDBRANCH   8   9
BRANCH   8  12
ATOM     12  C   UNL A   1      31.653  25.165  26.488  1.00  0.00     0.133 C 
BRANCH  12  13
ATOM     13  N   UNL A   1      30.871  23.965  26.717  1.00  0.00    -0.337 N 
ATOM     14  C   UNL A   1      30.976  22.694  26.279  1.00  0.00     0.318 C 
ATOM     15  H   UNL A   1      30.104  24.108  27.318  1.00  0.00     0.165 HD
ATOM     16  O   UNL A   1      29.942  22.022  26.318  1.00  0.00    -0.249 OA
BRANCH  14  17
ATOM     17  N   UNL A   1      32.137  22.206  25.749  1.00  0.00    -0.311 N 
ATOM     18  C   UNL A   1      32.002  21.378  24.553  1.00  0.00     0.186 C 
ATOM     19  C   UNL A   1      33.482  22.168  26.385  1.00  0.00     0.139 C 
ATOM     20  C   UNL A   1      32.432  19.929  24.809  1.00  0.00     0.204 C 
ATOM     21  C   UNL A   1      34.409  21.062  25.744  1.00  0.00     0.287 C 
ATOM     22  C   UNL A   1      33.456  21.976  27.907  1.00  0.00     0.037 C 
ATOM     23  C   UNL A   1      32.517  19.131  23.510  1.00  0.00     0.073 C 
ATOM     24  N   UNL A   1      33.746  19.771  25.478  1.00  0.00    -0.329 N 
ATOM     25  C   UNL A   1      33.575  18.091  23.806  1.00  0.00     0.068 C 
ATOM     26  C   UNL A   1      34.567  18.862  24.663  1.00  0.00     0.262 C 
ATOM     27  H   UNL A   1      33.612  19.364  26.403  1.00  0.00     0.348 HD
ENDBRANCH  14  17
ENDBRANCH  12  13
ENDBRANCH   8  12
ENDBRANCH   6   8
ENDBRANCH   5   6
ENDBRANCH   4   5
ENDBRANCH   3   4
ENDBRANCH   2   3
ENDBRANCH   1   2
BRANCH   1  28
ATOM     28  C   UNL A   1      40.078  21.770  26.649  1.00  0.00     0.188 C 
BRANCH  28  29
ATOM     29  O   UNL A   1      40.952  20.817  26.099  1.00  0.00    -0.376 OA
BRANCH  29  30
ATOM     30  C   UNL A   1      42.338  20.922  26.381  1.00  0.00     0.202 C 
BRANCH  30  31
ATOM     31  C   UNL A   1      43.287  21.720  25.463  1.00  0.00     0.261 C 
BRANCH  31  32
ATOM     32  O   UNL A   1      42.802  22.960  24.919  1.00  0.00    -0.460 OA
BRANCH  32  33
ATOM     33  C   UNL A   1      43.599  24.044  25.039  1.00  0.00     0.338 C 
ATOM     34  O   UNL A   1      44.589  24.307  24.373  1.00  0.00    -0.246 OA
BRANCH  33  35
ATOM     35  C   UNL A   1      42.929  25.005  25.946  1.00  0.00     0.060 A 
ATOM     36  C   UNL A   1      43.457  26.299  26.069  1.00  0.00     0.016 A 
ATOM     37  C   UNL A   1      41.789  24.641  26.664  1.00  0.00     0.016 A 
ATOM     38  C   UNL A   1      42.870  27.219  26.939  1.00  0.00     0.010 A 
ATOM     39  C   UNL A   1      41.218  25.555  27.557  1.00  0.00     0.010 A 
ATOM     40  C   UNL A   1      41.778  26.835  27.726  1.00  0.00    -0.014 A 
BRANCH  40  41
ATOM     41  C   UNL A   1      41.371  27.682  28.876  1.00  0.00     0.031 A 
ATOM     42  C   UNL A   1      42.172  27.583  30.148  1.00  0.00     0.074 A 
ATOM     43  C   UNL A   1      40.340  28.540  28.797  1.00  0.00     0.049 A 
ATOM     44  N   UNL A   1      41.990  28.176  31.299  1.00  0.00    -0.248 NA
ATOM     45  C   UNL A   1      43.340  26.686  30.112  1.00  0.00     0.031 C 
ATOM     46  C   UNL A   1      39.512  28.763  27.615  1.00  0.00     0.029 A 
ATOM     47  N   UNL A   1      39.806  29.379  29.746  1.00  0.00    -0.354 N 
ATOM     48  C   UNL A   1      43.006  27.714  32.126  1.00  0.00     0.074 A 
ATOM     49  C   UNL A   1      43.787  26.772  31.355  1.00  0.00     0.031 C 
ATOM     50  C   UNL A   1      38.559  29.665  27.914  1.00  0.00     0.029 A 
ATOM     51  C   UNL A   1      38.692  30.058  29.317  1.00  0.00     0.049 A 
ATOM     52  H   UNL A   1      40.187  29.482  30.649  1.00  0.00     0.167 HD
ATOM     53  C   UNL A   1      43.267  28.046  33.412  1.00  0.00     0.037 A 
ATOM     54  C   UNL A   1      37.861  30.879  29.991  1.00  0.00     0.037 A 
ATOM     55  C   UNL A   1      42.493  28.986  34.178  1.00  0.00     0.049 A 
ATOM     56  C   UNL A   1      38.142  31.190  31.442  1.00  0.00     0.074 A 
ATOM     57  C   UNL A   1      42.692  29.408  35.481  1.00  0.00     0.029 A 
ATOM     58  N   UNL A   1      41.362  29.642  33.714  1.00  0.00    -0.354 N 
ATOM     59  N   UNL A   1      39.121  30.771  32.208  1.00  0.00    -0.248 NA
ATOM     60  C   UNL A   1      37.203  32.098  32.117  1.00  0.00     0.031 C 
ATOM     61  C   UNL A   1      41.648  30.272  35.826  1.00  0.00     0.029 A 
ATOM     62  C   UNL A   1      40.839  30.446  34.714  1.00  0.00     0.049 A 
ATOM     63  H   UNL A   1      40.987  29.551  32.809  1.00  0.00     0.167 HD
ATOM     64  C   UNL A   1      38.937  31.393  33.439  1.00  0.00     0.074 A 
ATOM     65  C   UNL A   1      37.763  32.228  33.311  1.00  0.00     0.031 C 
ATOM     66  C   UNL A   1      39.676  31.285  34.572  1.00  0.00     0.037 A 
BRANCH  53  67
ATOM     67  C   UNL A   1      44.421  27.364  34.087  1.00  0.00     0.064 A 
ATOM     68  C   UNL A   1      45.677  27.977  34.211  1.00  0.00     0.173 A 
ATOM     69  C   UNL A   1      44.253  26.092  34.656  1.00  0.00     0.173 A 
ATOM     70  F   UNL A   1      45.897  29.184  33.669  1.00  0.00    -0.203 F 
ATOM     71  C   UNL A   1      46.728  27.331  34.860  1.00  0.00     0.198 A 
ATOM     72  C   UNL A   1      45.296  25.464  35.332  1.00  0.00     0.198 A 
ATOM     73  F   UNL A   1      43.073  25.462  34.568  1.00  0.00    -0.203 F 
ATOM     74  F   UNL A   1      47.933  27.915  34.924  1.00  0.00    -0.200 F 
ATOM     75  C   UNL A   1      46.533  26.081  35.427  1.00  0.00     0.200 A 
ATOM     76  F   UNL A   1      45.102  24.263  35.892  1.00  0.00    -0.200 F 
ATOM     77  F   UNL A   1      47.542  25.468  36.061  1.00  0.00    -0.200 F 
ENDBRANCH  53  67
BRANCH  54  78
ATOM     78  C   UNL A   1      36.668  31.456  29.315  1.00  0.00     0.064 A 
ATOM     79  C   UNL A   1      35.567  30.657  28.972  1.00  0.00     0.173 A 
ATOM     80  C   UNL A   1      36.623  32.811  28.953  1.00  0.00     0.173 A 
ATOM     81  F   UNL A   1      35.572  29.349  29.269  1.00  0.00    -0.203 F 
ATOM     82  C   UNL A   1      34.485  31.183  28.270  1.00  0.00     0.198 A 
ATOM     83  C   UNL A   1      35.525  33.344  28.282  1.00  0.00     0.198 A 
ATOM     84  F   UNL A   1      37.651  33.620  29.251  1.00  0.00    -0.203 F 
ATOM     85  F   UNL A   1      33.477  30.381  27.899  1.00  0.00    -0.200 F 
ATOM     86  C   UNL A   1      34.462  32.527  27.930  1.00  0.00     0.200 A 
ATOM     87  F   UNL A   1      35.503  34.646  27.965  1.00  0.00    -0.200 F 
ATOM     88  F   UNL A   1      33.422  33.031  27.252  1.00  0.00    -0.200 F 
ENDBRANCH  54  78
BRANCH  66  89
ATOM     89  C   UNL A   1      39.274  32.135  35.746  1.00  0.00     0.064 A 
ATOM     90  C   UNL A   1      39.802  33.419  35.954  1.00  0.00     0.173 A 
ATOM     91  C   UNL A   1      38.324  31.663  36.666  1.00  0.00     0.173 A 
ATOM     92  F   UNL A   1      40.719  33.916  35.111  1.00  0.00    -0.203 F 
ATOM     93  C   UNL A   1      39.427  34.177  37.061  1.00  0.00     0.198 A 
ATOM     94  C   UNL A   1      37.923  32.440  37.750  1.00  0.00     0.198 A 
ATOM     95  F   UNL A   1      37.776  30.449  36.511  1.00  0.00    -0.203 F 
ATOM     96  F   UNL A   1      39.995  35.372  37.274  1.00  0.00    -0.200 F 
ATOM     97  C   UNL A   1      38.484  33.691  37.954  1.00  0.00     0.200 A 
ATOM     98  F   UNL A   1      36.997  31.975  38.600  1.00  0.00    -0.200 F 
ATOM     99  F   UNL A   1      38.124  34.423  39.016  1.00  0.00    -0.200 F 
ENDBRANCH  66  89
ENDBRANCH  40  41
ENDBRANCH  33  35
ENDBRANCH  32  33
ENDBRANCH  31  32
ENDBRANCH  30  31
ENDBRANCH  29  30
ENDBRANCH  28  29
ENDBRANCH   1  28
TORSDOF 22
ENDMDL
